data_PCOD9167955
_publ_section_title
;
Structure prediction by ZEFSAII (Michael W. Deem and Ramdas Pophale) SiO2 
 PCOD9167955
Probable space group: P 21/M
;
_chemical_formula_sum "Si O2"
_cell_formula_units_Z 24
_cell_length_a 15.000000
_cell_length_b 9.000000
_cell_length_c 15.000000
_cell_angle_alpha 90.000000
_cell_angle_beta 140.000000
_cell_angle_gamma 90.000000
_cell_volume 1301.644910
_symmetry_space_group_name_H-M "P 21/M"
_symmetry_group_IT_number 11
_symmetry_cell_setting 'monoclinic'
loop_
_space_group_symop_operation_xyz
x,y,z
-x,1/2+y,-z
-x,-y,-z
x,1/2-y,z
loop_
_atom_site_type_symbol
_atom_site_label
_atom_site_fract_x
_atom_site_fract_y
_atom_site_fract_z
Si Si1 0.652638 0.570915 0.937153
Si Si2 0.365397 0.072136 0.768018
Si Si3 0.598510 0.571129 0.697720
Si Si4 0.844683 0.571709 0.237644
Si Si5 0.866508 0.572607 0.554700
Si Si6 0.692079 0.928839 0.580709
O O1 0.645507 0.750000 0.935289
O O2 0.511553 0.507988 0.871251
O O3 0.656182 0.523571 0.837146
O O4 0.785477 0.525495 0.096230
O O5 0.387876 0.250000 0.787565
O O6 0.274229 0.028451 0.783406
O O7 0.265738 0.037565 0.608145
O O8 0.582455 0.750000 0.686146
O O9 0.448591 0.499395 0.565748
O O10 0.693776 0.531858 0.686124
O O11 0.857353 0.750000 0.251736
O O12 0.993407 0.502701 0.370058
O O13 0.885863 0.750000 0.566111
O O14 0.821995 0.525730 0.620143
O O15 0.680057 0.750000 0.563719
#
# Coordination Sequence:
#
# PCOD9167955 Si02
#       6
#     4   4   4   4   4   4
#     4  10  20  34  52  77 104 132 167 206 251 300
#     4  10  20  35  54  75  99 132 173 212 249 292
#     4   9  17  30  51  76 100 128 162 203 250 296
#     4  10  22  36  50  72 105 138 168 206 250 298
#     4  10  20  34  52  75 101 131 169 210 251 295
#     4   9  17  31  51  75 101 127 162 207 248 292
#
# _framework density 18.438207999999999
#
# number of rings (size 3 to 8) (size 9 to 14) (size 15 to 20)
#    0.000    2.333    1.667    1.000    0.000    2.667 
#    0.000    0.833    0.000    0.000    0.000    0.000 
#    0.000    0.000    0.000    0.000    0.000    0.000 
#
# Total GULP energy -133826.137923 kJ/mol
# GULP energy per Si atom -5576.089080 kJ/mol
# Density = 1.839624 g / cm^3
# Si number density = 18.438208 Si / 1000 Ang^3
#
#
#
# Elastic Constant Matrix: (Units=GPa)
#
#
# Indices 1 2 3 4 5 6 
#
# 1 44.0539 7.6583 22.3880 0.0000 -28.1207 0.0000
# 2 7.6583 -3.8561 8.2961 0.0000 -2.6102 0.0000
# 3 22.3880 8.2961 14.5851 0.0000 9.7641 0.0000
# 4 0.0000 0.0000 0.0000 15.7703 0.0000 0.9443
# 5 -28.1207 -2.6102 9.7641 0.0000 14.2546 0.0000
# 6 0.0000 0.0000 0.0000 0.9443 0.0000 13.4529
#
#
#
# Elastic Compliance Matrix: (Units=1/GPa)
#
#
# Indices 1 2 3 4 5 6 
#
# 1 -0.012213 0.035960 0.018494 0.000000 -0.030176 0.000000
# 2 0.035960 -0.163986 0.019739 0.000000 0.027392 0.000000
# 3 0.018494 0.019739 0.003882 0.000000 0.037440 0.000000
# 4 0.000000 0.000000 0.000000 0.063678 0.000000 -0.004470
# 5 -0.030176 0.027392 0.037440 0.000000 -0.010007 0.000000
# 6 0.000000 0.000000 0.000000 -0.004470 0.000000 0.074647
#
#
# Mechanical properties :
#
#
# Convention : Reuss Voigt Hill
#
# Bulk Modulus (GPa) = -41.79171 14.60753 -13.59209
# Shear Modulus (GPa) = -24.95473 9.79158 -7.58157
#
# Velocity S-wave (km/s) = -3.68288 2.30695 -2.02998
# Velocity P-wave (km/s) = 6.38748 3.87758 3.58917
#
# Compressibility (1/GPa) = -0.02392819
#
# Stress axis : x y z
#
# Youngs Moduli (GPa) = -81.88023 -6.09809 257.58319
#
# Poissons Ratio (x) = 0.21929 -4.76381
# Poissons Ratio (y) = 2.94445 -5.08454
# Poissons Ratio (z) = 1.51431 0.12037
#
# Static dielectric constant tensor:
#      x y z
#    x 1.661720 0.000000 -0.068050 
#    y 0.000000 1.613400 0.000000 
#    z -0.068050 0.000000 1.620910 
# 
# From -- ./inp_files/20361.got.cif
#   From: 2010.05.17/outbox.ucp.g08.bks.cvg/sg11_11_cif.got.tgz:20361.got - 2010.06.11 11:38:39.
