data_PCOD9167556
_publ_section_title
;
Structure prediction by ZEFSAII (Michael W. Deem and Ramdas Pophale) SiO2 
 PCOD9167556
Probable space group: P 21/M
;
_chemical_formula_sum "Si O2"
_cell_formula_units_Z 22
_cell_length_a 5.017932
_cell_length_b 21.598167
_cell_length_c 8.361966
_cell_angle_alpha 90.000000
_cell_angle_beta 67.516671
_cell_angle_gamma 90.000000
_cell_volume 837.370641
_symmetry_space_group_name_H-M "P 21/M"
_symmetry_group_IT_number 11
_symmetry_cell_setting 'monoclinic'
loop_
_space_group_symop_operation_xyz
x,y,z
-x,1/2+y,-z
-x,-y,-z
x,1/2-y,z
loop_
_atom_site_type_symbol
_atom_site_label
_atom_site_fract_x
_atom_site_fract_y
_atom_site_fract_z
Si Si1 0.348590 0.357006 0.669088
Si Si2 0.717103 0.541727 0.550823
Si Si3 0.029406 0.750000 0.091666
Si Si4 0.774132 0.750000 0.792902
Si Si5 0.222440 0.750000 0.409211
Si Si6 0.037785 0.428366 0.962599
Si Si7 0.562107 0.883943 0.884711
O O1 0.222294 0.390844 0.543662
O O2 0.152732 0.309618 0.812234
O O3 0.621311 0.314087 0.573938
O O4 0.326207 0.415294 0.793146
O O5 0.500000 0.500000 0.500000
O O6 0.565711 0.565012 0.745437
O O7 0.000000 0.500000 0.500000
O O8 0.237364 0.750000 0.208971
O O9 0.985034 0.750000 0.904175
O O10 0.570829 0.810891 0.847584
O O11 0.932440 0.750000 0.583235
O O12 0.128592 0.395780 0.105283
O O13 0.742043 0.400148 0.961808
O O14 0.000000 0.500000 0.000000
#
# Coordination Sequence:
#
# PCOD9167556 Si02
#       7
#     4   4   2   2   2   4   4
#     4  11  27  47  78 116 161 214 281 342 427 503
#     4  12  28  50  79 115 162 218 279 352 426 508
#     4  11  25  51  79 120 167 220 274 354 420 507
#     4  12  28  53  85 123 176 220 285 361 435 523
#     4  11  29  52  82 121 171 224 287 357 427 522
#     4  12  27  50  79 116 162 215 275 348 416 505
#     4  12  28  50  80 119 160 215 283 340 431 510
#
# _framework density 26.272715999999999
#
# number of rings (size 3 to 8) (size 9 to 14) (size 15 to 20)
#    0.000    0.364    1.818    4.909   10.182    2.909 
#    0.000    0.000    0.000    0.000    0.000    0.000 
#    0.000    0.000    0.000    0.000    0.000    0.000 
#
# Total GULP energy -122667.904784 kJ/mol
# GULP energy per Si atom -5575.813854 kJ/mol
# Density = 2.621292 g / cm^3
# Si number density = 26.272716 Si / 1000 Ang^3
#
#
#
# Elastic Constant Matrix: (Units=GPa)
#
#
# Indices 1 2 3 4 5 6 
#
# 1 145.1972 65.2407 20.7212 0.0000 10.0590 0.0000
# 2 65.2407 185.1297 18.5803 0.0000 -8.0730 0.0000
# 3 20.7212 18.5803 60.1632 0.0000 -6.9780 0.0000
# 4 0.0000 0.0000 0.0000 59.4249 0.0000 0.1636
# 5 10.0590 -8.0730 -6.9780 0.0000 24.8483 0.0000
# 6 0.0000 0.0000 0.0000 0.1636 0.0000 56.5083
#
#
#
# Elastic Compliance Matrix: (Units=1/GPa)
#
#
# Indices 1 2 3 4 5 6 
#
# 1 0.009086 -0.003161 -0.002790 0.000000 -0.005489 0.000000
# 2 -0.003161 0.006720 -0.000605 0.000000 0.003293 0.000000
# 3 -0.002790 -0.000605 0.018479 0.000000 0.006122 0.000000
# 4 0.000000 0.000000 0.000000 0.016828 0.000000 -0.000049
# 5 -0.005489 0.003293 0.006122 0.000000 0.045255 0.000000
# 6 0.000000 0.000000 0.000000 -0.000049 0.000000 0.017697
#
#
# Mechanical properties :
#
#
# Convention : Reuss Voigt Hill
#
# Bulk Modulus (GPa) = 47.22782 66.61937 56.92359
# Shear Modulus (GPa) = 37.24835 47.21948 42.23392
#
# Velocity S-wave (km/s) = 3.76940 4.24404 4.01374
# Velocity P-wave (km/s) = 6.07943 7.03048 6.57218
#
# Compressibility (1/GPa) = 0.02117396
#
# Stress axis : x y z
#
# Youngs Moduli (GPa) = 110.05947 148.81016 54.11531
#
# Poissons Ratio (x) = 0.47044 0.15096
# Poissons Ratio (y) = 0.34793 0.03272
# Poissons Ratio (z) = 0.30703 0.08997
#
# Static dielectric constant tensor:
#      x y z
#    x 2.175660 0.000000 0.083040 
#    y 0.000000 2.369500 0.000000 
#    z 0.083040 0.000000 2.274020 
# 
# From -- ./inp_files/10269.got.cif
#   From: 2010.05.17/outbox.cif.g08.bks.cpg/sg11_6_cif.got.tgz:10269.got - 2010.06.03 12:22:45.
