data_PCOD9167335
_publ_section_title
;
Structure prediction by ZEFSAII (Michael W. Deem and Ramdas Pophale) SiO2 
 PCOD9167335
Probable space group: P 21/M
;
_chemical_formula_sum "Si O2"
_cell_formula_units_Z 28
_cell_length_a 12.181231
_cell_length_b 16.275430
_cell_length_c 15.149817
_cell_angle_alpha 90.000000
_cell_angle_beta 150.611874
_cell_angle_gamma 90.000000
_cell_volume 1473.898651
_symmetry_space_group_name_H-M "P 21/M"
_symmetry_group_IT_number 11
_symmetry_cell_setting 'monoclinic'
loop_
_space_group_symop_operation_xyz
x,y,z
-x,1/2+y,-z
-x,-y,-z
x,1/2-y,z
loop_
_atom_site_type_symbol
_atom_site_label
_atom_site_fract_x
_atom_site_fract_y
_atom_site_fract_z
Si Si1 0.137159 0.154521 0.763482
Si Si2 0.363692 0.075818 0.080877
Si Si3 0.521937 0.651596 0.309422
Si Si4 0.756900 0.957251 0.323619
Si Si5 0.622096 0.345092 0.421359
Si Si6 0.593177 0.906725 0.558175
Si Si7 0.068375 0.946369 0.962194
O O1 0.139053 0.250000 0.740391
O O2 0.246144 0.100461 0.763791
O O3 0.878120 0.127054 0.590058
O O4 0.265365 0.142091 0.945355
O O5 0.455362 0.107499 0.239172
O O6 0.573170 0.028426 0.186128
O O7 0.168538 0.010809 0.962689
O O8 0.538493 0.750000 0.306958
O O9 0.679807 0.598783 0.353419
O O10 0.579606 0.627619 0.450306
O O11 0.268043 0.617965 0.119265
O O12 0.000000 0.000000 0.500000
O O13 0.611436 0.250000 0.389084
O O14 0.551444 0.356366 0.472727
O O15 0.846906 0.905529 0.769450
O O16 0.500000 0.000000 0.500000
O O17 0.000000 0.000000 0.000000
#
# Coordination Sequence:
#
# PCOD9167335 Si02
#       7
#     4   4   4   4   4   4   4
#     4  11  24  41  64  94 126 161 206 266 321 368
#     4  11  22  41  65  93 121 164 211 255 314 375
#     4  11  26  44  64  95 133 171 214 271 326 374
#     4  11  23  44  70  89 122 170 217 264 315 384
#     4  11  23  38  59  94 129 159 204 259 313 370
#     4  12  22  40  66  94 130 172 216 252 313 387
#     4  11  22  40  65  93 128 172 211 255 305 387
#
# _framework density 18.997235
#
# number of rings (size 3 to 8) (size 9 to 14) (size 15 to 20)
#    0.000    0.857    4.286    3.429    2.000    1.143 
#    0.000    0.000    0.000    0.000    0.000    0.000 
#    0.000    0.000    0.000    0.000    0.000    0.000 
#
# Total GULP energy -156438.596784 kJ/mol
# GULP energy per Si atom -5587.092742 kJ/mol
# Density = 1.895400 g / cm^3
# Si number density = 18.997235 Si / 1000 Ang^3
#
#
#
# Elastic Constant Matrix: (Units=GPa)
#
#
# Indices 1 2 3 4 5 6 
#
# 1 85.2261 12.1487 37.5224 0.0000 6.7662 0.0000
# 2 12.1487 68.5507 19.0546 0.0000 3.3587 0.0000
# 3 37.5224 19.0546 69.9343 0.0000 -2.9998 0.0000
# 4 0.0000 0.0000 0.0000 26.2911 0.0000 -0.6726
# 5 6.7662 3.3587 -2.9998 0.0000 33.6672 0.0000
# 6 0.0000 0.0000 0.0000 -0.6726 0.0000 26.8285
#
#
#
# Elastic Compliance Matrix: (Units=1/GPa)
#
#
# Indices 1 2 3 4 5 6 
#
# 1 0.015876 -0.000223 -0.008626 0.000000 -0.003937 0.000000
# 2 -0.000223 0.015917 -0.004300 0.000000 -0.001926 0.000000
# 3 -0.008626 -0.004300 0.020269 0.000000 0.003969 0.000000
# 4 0.000000 0.000000 0.000000 0.038060 0.000000 0.000954
# 5 -0.003937 -0.001926 0.003969 0.000000 0.031039 0.000000
# 6 0.000000 0.000000 0.000000 0.000954 0.000000 0.037298
#
#
# Mechanical properties :
#
#
# Convention : Reuss Voigt Hill
#
# Bulk Modulus (GPa) = 38.81368 40.12915 39.47141
# Shear Modulus (GPa) = 25.86062 27.68972 26.77517
#
# Velocity S-wave (km/s) = 3.69356 3.82195 3.75830
# Velocity P-wave (km/s) = 6.21815 6.37542 6.29728
#
# Compressibility (1/GPa) = 0.02576411
#
# Stress axis : x y z
#
# Youngs Moduli (GPa) = 62.98983 62.82667 49.33626
#
# Poissons Ratio (x) = 0.01400 0.42557
# Poissons Ratio (y) = 0.01404 0.21214
# Poissons Ratio (z) = 0.54335 0.27014
#
# Static dielectric constant tensor:
#      x y z
#    x 1.618690 0.000000 -0.000530 
#    y 0.000000 1.435030 0.000000 
#    z -0.000530 0.000000 1.647850 
# 
# From -- ./inp_files/50546.got.cif
#   From: 2010.05.17/outbox.cif.g08.bks.cpg/sg11_26_cif.got.tgz:50546.got - 2010.06.03 12:22:45.
