data_PCOD9167698
_publ_section_title
;
Structure prediction by ZEFSAII (Michael W. Deem and Ramdas Pophale) SiO2 
 PCOD9167698
Probable space group: P 21/M
;
_chemical_formula_sum "Si O2"
_cell_formula_units_Z 32
_cell_length_a 12.000000
_cell_length_b 18.000000
_cell_length_c 15.000000
_cell_angle_alpha 90.000000
_cell_angle_beta 30.000000
_cell_angle_gamma 90.000000
_cell_volume 1620.000000
_symmetry_space_group_name_H-M "P 21/M"
_symmetry_group_IT_number 11
_symmetry_cell_setting 'monoclinic'
loop_
_space_group_symop_operation_xyz
x,y,z
-x,1/2+y,-z
-x,-y,-z
x,1/2-y,z
loop_
_atom_site_type_symbol
_atom_site_label
_atom_site_fract_x
_atom_site_fract_y
_atom_site_fract_z
Si Si1 0.346578 0.163273 0.918892
Si Si2 0.625995 0.840675 0.462350
Si Si3 0.019085 0.096528 0.275165
Si Si4 0.213531 0.413320 0.328750
Si Si5 0.096564 0.576213 0.164016
Si Si6 0.427990 0.584391 0.768361
Si Si7 0.736402 0.418202 0.757994
Si Si8 0.497246 0.084074 0.643065
O O1 0.385615 0.250000 0.887080
O O2 0.541915 0.126062 0.843327
O O3 0.356618 0.128808 0.813682
O O4 0.115805 0.144908 0.128104
O O5 0.631231 0.750000 0.445680
O O6 0.459764 0.861518 0.660424
O O7 0.561919 0.887155 0.416052
O O8 0.870434 0.874726 0.318734
O O9 0.156017 0.118131 0.270182
O O10 0.757988 0.103382 0.475322
O O11 0.049813 0.010265 0.222550
O O12 0.385713 0.391515 0.287128
O O13 0.302102 0.494990 0.237713
O O14 0.977184 0.408616 0.544111
O O15 0.242670 0.599316 0.150740
O O16 0.214206 0.581072 0.984474
O O17 0.466114 0.502658 0.695549
#
# Coordination Sequence:
#
# PCOD9167698 Si02
#       8
#     4   4   4   4   4   4   4   4
#     4  12  25  40  63 101 142 175 215 274 340 400
#     4  12  29  47  64  95 136 175 224 285 337 382
#     4  11  22  41  70 104 133 170 224 269 327 403
#     4  10  17  37  71 101 128 167 214 269 319 394
#     4  11  23  41  75 100 128 174 221 277 326 393
#     4  12  22  43  75 102 127 173 228 272 325 401
#     4  10  18  38  65 100 134 166 211 264 331 393
#     4  12  24  46  71  95 128 179 228 276 325 394
#
# _framework density 19.753086
#
# number of rings (size 3 to 8) (size 9 to 14) (size 15 to 20)
#    0.000    0.750    6.250    2.250    0.000    5.500 
#    0.000    1.875    0.000    0.000    0.000    0.000 
#    0.000    0.000    0.000    0.000    0.000    0.000 
#
# Total GULP energy -178499.569451 kJ/mol
# GULP energy per Si atom -5578.111545 kJ/mol
# Density = 1.970813 g / cm^3
# Si number density = 19.753086 Si / 1000 Ang^3
#
#
#
# Elastic Constant Matrix: (Units=GPa)
#
#
# Indices 1 2 3 4 5 6 
#
# 1 102.2719 6.8523 19.5854 0.0000 37.6118 0.0000
# 2 6.8523 27.9163 22.4508 0.0000 14.1818 0.0000
# 3 19.5854 22.4508 84.6543 0.0000 33.5630 0.0000
# 4 0.0000 0.0000 0.0000 23.6640 0.0000 4.8794
# 5 37.6118 14.1818 33.5630 0.0000 42.4335 0.0000
# 6 0.0000 0.0000 0.0000 4.8794 0.0000 17.2256
#
#
#
# Elastic Compliance Matrix: (Units=1/GPa)
#
#
# Indices 1 2 3 4 5 6 
#
# 1 0.015041 0.002687 0.002111 0.000000 -0.015900 0.000000
# 2 0.002687 0.048088 -0.008827 0.000000 -0.011472 0.000000
# 3 0.002111 -0.008827 0.019285 0.000000 -0.014175 0.000000
# 4 0.000000 0.000000 0.000000 0.044880 0.000000 -0.012713
# 5 -0.015900 -0.011472 -0.014175 0.000000 0.052706 0.000000
# 6 0.000000 0.000000 0.000000 -0.012713 0.000000 0.061654
#
#
# Mechanical properties :
#
#
# Convention : Reuss Voigt Hill
#
# Bulk Modulus (GPa) = 13.44835 34.73551 24.09193
# Shear Modulus (GPa) = 18.21524 27.72822 22.97173
#
# Velocity S-wave (km/s) = 3.03998 3.75072 3.41390
# Velocity P-wave (km/s) = 4.37550 6.03160 5.26902
#
# Compressibility (1/GPa) = 0.07435856
#
# Stress axis : x y z
#
# Youngs Moduli (GPa) = 66.48547 20.79514 51.85320
#
# Poissons Ratio (x) = -0.05589 -0.10948
# Poissons Ratio (y) = -0.17867 0.45769
# Poissons Ratio (z) = -0.14037 0.18355
#
# Static dielectric constant tensor:
#      x y z
#    x 1.713440 0.000000 -0.014350 
#    y 0.000000 1.687710 0.000000 
#    z -0.014350 0.000000 1.722460 
# 
# From -- ./inp_files/50653.got.cif
#   From: 2010.05.17/outbox.ucp.g08.bks.cvg/sg11_26_cif.got.tgz:50653.got - 2010.06.11 11:38:39.
