data_PCOD9167460
_publ_section_title
;
Structure prediction by ZEFSAII (Michael W. Deem and Ramdas Pophale) SiO2 
 PCOD9167460
Probable space group: P 21/M
;
_chemical_formula_sum "Si O2"
_cell_formula_units_Z 20
_cell_length_a 10.502475
_cell_length_b 13.835451
_cell_length_c 11.534450
_cell_angle_alpha 90.000000
_cell_angle_beta 144.775958
_cell_angle_gamma 90.000000
_cell_volume 966.692631
_symmetry_space_group_name_H-M "P 21/M"
_symmetry_group_IT_number 11
_symmetry_cell_setting 'monoclinic'
loop_
_space_group_symop_operation_xyz
x,y,z
-x,1/2+y,-z
-x,-y,-z
x,1/2-y,z
loop_
_atom_site_type_symbol
_atom_site_label
_atom_site_fract_x
_atom_site_fract_y
_atom_site_fract_z
Si Si1 0.364034 0.750000 0.882293
Si Si2 0.389712 0.447309 0.587423
Si Si3 0.146056 0.911564 0.562868
Si Si4 0.604905 0.250000 0.822638
Si Si5 0.065380 0.250000 0.018230
Si Si6 0.801444 0.550808 0.788196
Si Si7 0.107853 0.250000 0.773339
O O1 0.249401 0.843083 0.737954
O O2 0.327185 0.750000 0.992486
O O3 0.627489 0.750000 0.050505
O O4 0.337424 0.532221 0.637357
O O5 0.454522 0.344476 0.688451
O O6 0.601284 0.482929 0.675069
O O7 0.193486 0.440900 0.347070
O O8 0.003501 0.842850 0.371789
O O9 0.000000 0.000000 0.500000
O O10 0.822921 0.250000 0.901155
O O11 0.050837 0.250000 0.867887
O O12 0.201931 0.157561 0.162567
O O13 0.000000 0.500000 0.000000
#
# Coordination Sequence:
#
# PCOD9167460 Si02
#       7
#     2   4   4   2   2   4   2
#     4  11  27  49  70 100 141 185 236 288 348 416
#     4  11  25  43  68 100 139 178 232 283 351 408
#     4  11  26  45  73  99 135 186 236 289 341 416
#     4  12  26  43  69 105 140 180 228 291 354 409
#     4  12  24  41  71  99 140 178 226 283 352 417
#     4  11  23  42  66  99 137 180 221 281 346 417
#     4  11  25  47  70 100 139 183 236 280 350 418
#
# _framework density 20.689098000000001
#
# number of rings (size 3 to 8) (size 9 to 14) (size 15 to 20)
#    0.000    0.800    2.000    4.200    5.600    6.400 
#    0.000    0.000    0.000    0.000    0.000    0.000 
#    0.000    0.000    0.000    0.000    0.000    0.000 
#
# Total GULP energy -111747.025382 kJ/mol
# GULP energy per Si atom -5587.351269 kJ/mol
# Density = 2.064201 g / cm^3
# Si number density = 20.689098 Si / 1000 Ang^3
#
#
#
# Elastic Constant Matrix: (Units=GPa)
#
#
# Indices 1 2 3 4 5 6 
#
# 1 87.4647 18.7270 44.2589 0.0000 -27.4887 0.0000
# 2 18.7270 175.9628 59.4542 0.0000 -32.6609 0.0000
# 3 44.2589 59.4542 117.1700 0.0000 -26.6507 0.0000
# 4 0.0000 0.0000 0.0000 19.4242 0.0000 -0.8442
# 5 -27.4887 -32.6609 -26.6507 0.0000 37.9180 0.0000
# 6 0.0000 0.0000 0.0000 -0.8442 0.0000 32.4896
#
#
#
# Elastic Compliance Matrix: (Units=1/GPa)
#
#
# Indices 1 2 3 4 5 6 
#
# 1 0.016745 0.001770 -0.004899 0.000000 0.010221 0.000000
# 2 0.001770 0.007633 -0.003279 0.000000 0.005554 0.000000
# 3 -0.004899 -0.003279 0.012615 0.000000 0.002491 0.000000
# 4 0.000000 0.000000 0.000000 0.051540 0.000000 0.001339
# 5 0.010221 0.005554 0.002491 0.000000 0.040318 0.000000
# 6 0.000000 0.000000 0.000000 0.001339 0.000000 0.030814
#
#
# Mechanical properties :
#
#
# Convention : Reuss Voigt Hill
#
# Bulk Modulus (GPa) = 41.35691 69.49753 55.42722
# Shear Modulus (GPa) = 27.69473 35.17686 31.43579
#
# Velocity S-wave (km/s) = 3.66268 4.12790 3.90223
# Velocity P-wave (km/s) = 6.15793 7.50891 6.86672
#
# Compressibility (1/GPa) = 0.02417976
#
# Stress axis : x y z
#
# Youngs Moduli (GPa) = 59.71801 131.00496 79.26884
#
# Poissons Ratio (x) = -0.23191 0.38831
# Poissons Ratio (y) = -0.10571 0.25990
# Poissons Ratio (z) = 0.29254 0.42953
#
# Static dielectric constant tensor:
#      x y z
#    x 1.806450 0.000000 -0.041980 
#    y 0.000000 1.639660 0.000000 
#    z -0.041980 0.000000 1.752210 
# 
# From -- ./inp_files/29659.got.cif
#   From: 2010.05.17/outbox.cif.g08.bks.cpg/sg11_15_cif.got.tgz:29659.got - 2010.06.03 12:22:45.
