data_PCOD9167533
_publ_section_title
;
Structure prediction by ZEFSAII (Michael W. Deem and Ramdas Pophale) SiO2 
 PCOD9167533
Probable space group: P 21/M
;
_chemical_formula_sum "Si O2"
_cell_formula_units_Z 18
_cell_length_a 6.915820
_cell_length_b 11.545261
_cell_length_c 8.812958
_cell_angle_alpha 90.000000
_cell_angle_beta 104.541138
_cell_angle_gamma 90.000000
_cell_volume 681.129933
_symmetry_space_group_name_H-M "P 21/M"
_symmetry_group_IT_number 11
_symmetry_cell_setting 'monoclinic'
loop_
_space_group_symop_operation_xyz
x,y,z
-x,1/2+y,-z
-x,-y,-z
x,1/2-y,z
loop_
_atom_site_type_symbol
_atom_site_label
_atom_site_fract_x
_atom_site_fract_y
_atom_site_fract_z
Si Si1 0.053771 0.378926 0.188143
Si Si2 0.420141 0.395008 0.710985
Si Si3 0.778811 0.439301 0.558298
Si Si4 0.309017 0.457750 0.970366
Si Si5 0.112328 0.250000 0.682249
O O1 0.997535 0.250000 0.214277
O O2 0.140925 0.445888 0.345856
O O3 0.227414 0.383427 0.095717
O O4 0.858354 0.443788 0.089574
O O5 0.336589 0.250000 0.639939
O O6 0.618765 0.387326 0.645277
O O7 0.318738 0.510205 0.613278
O O8 0.517446 0.453126 0.895366
O O9 0.958859 0.350515 0.588615
O O10 0.235551 0.360022 0.812975
#
# Coordination Sequence:
#
# PCOD9167533 Si02
#       5
#     4   4   4   4   2
#     4  11  26  45  72 103 139 183 234 283 342 415
#     4  11  25  44  70 101 140 181 230 284 348 405
#     4  11  25  47  70 107 138 177 239 286 340 421
#     4  11  24  47  65  98 142 183 227 280 342 406
#     4  12  24  44  74 102 140 186 224 292 350 404
#
# _framework density 26.426673999999998
#
# number of rings (size 3 to 8) (size 9 to 14) (size 15 to 20)
#    0.000    0.889    4.444    1.333    3.111    0.889 
#    2.000    0.000    0.000    0.000    0.000    0.000 
#    0.000    0.000    0.000    0.000    0.000    0.000 
#
# Total GULP energy -100212.110521 kJ/mol
# GULP energy per Si atom -5567.339473 kJ/mol
# Density = 2.636653 g / cm^3
# Si number density = 26.426674 Si / 1000 Ang^3
#
#
#
# Elastic Constant Matrix: (Units=GPa)
#
#
# Indices 1 2 3 4 5 6 
#
# 1 188.4019 64.5076 55.4066 0.0000 -4.2919 0.0000
# 2 64.5076 217.7427 45.6276 0.0000 7.8667 0.0000
# 3 55.4066 45.6276 138.6101 0.0000 -2.2002 0.0000
# 4 0.0000 0.0000 0.0000 9.7814 0.0000 17.7265
# 5 -4.2919 7.8667 -2.2002 0.0000 59.8400 0.0000
# 6 0.0000 0.0000 0.0000 17.7265 0.0000 42.5652
#
#
#
# Elastic Compliance Matrix: (Units=1/GPa)
#
#
# Indices 1 2 3 4 5 6 
#
# 1 0.006443 -0.001495 -0.002074 0.000000 0.000582 0.000000
# 2 -0.001495 0.005310 -0.001164 0.000000 -0.000848 0.000000
# 3 -0.002074 -0.001164 0.008432 0.000000 0.000314 0.000000
# 4 0.000000 0.000000 0.000000 0.416828 0.000000 -0.173590
# 5 0.000582 -0.000848 0.000314 0.000000 0.016876 0.000000
# 6 0.000000 0.000000 0.000000 -0.173590 0.000000 0.095786
#
#
# Mechanical properties :
#
#
# Convention : Reuss Voigt Hill
#
# Bulk Modulus (GPa) = 93.29503 97.31538 95.30521
# Shear Modulus (GPa) = 8.88553 47.71817 28.30185
#
# Velocity S-wave (km/s) = 1.83566 4.25394 3.27610
# Velocity P-wave (km/s) = 6.31449 7.81234 7.10301
#
# Compressibility (1/GPa) = 0.01071868
#
# Stress axis : x y z
#
# Youngs Moduli (GPa) = 155.20822 188.32248 118.60159
#
# Poissons Ratio (x) = 0.28158 0.24598
# Poissons Ratio (y) = 0.23207 0.13802
# Poissons Ratio (z) = 0.32190 0.21916
#
# Static dielectric constant tensor:
#      x y z
#    x 2.060140 0.000000 -0.020280 
#    y 0.000000 2.186960 0.000000 
#    z -0.020280 0.000000 2.109400 
# 
# From -- ./inp_files/34137.got.cif
#   From: 2010.05.17/outbox.cif.g08.bks.cpg/sg11_18_cif.got.tgz:34137.got - 2010.06.03 12:22:45.
