data_PCOD9167565
_publ_section_title
;
Structure prediction by ZEFSAII (Michael W. Deem and Ramdas Pophale) SiO2 
 PCOD9167565
Probable space group: P 21/M
;
_chemical_formula_sum "Si O2"
_cell_formula_units_Z 18
_cell_length_a 6.245759
_cell_length_b 15.186781
_cell_length_c 7.249910
_cell_angle_alpha 90.000000
_cell_angle_beta 95.478455
_cell_angle_gamma 90.000000
_cell_volume 684.534340
_symmetry_space_group_name_H-M "P 21/M"
_symmetry_group_IT_number 11
_symmetry_cell_setting 'monoclinic'
loop_
_space_group_symop_operation_xyz
x,y,z
-x,1/2+y,-z
-x,-y,-z
x,1/2-y,z
loop_
_atom_site_type_symbol
_atom_site_label
_atom_site_fract_x
_atom_site_fract_y
_atom_site_fract_z
Si Si1 0.803866 0.432142 0.012048
Si Si2 0.918440 0.601698 0.506598
Si Si3 0.999604 0.250000 0.973436
Si Si4 0.231231 0.750000 0.451017
Si Si5 0.318402 0.250000 0.290536
Si Si6 0.552878 0.968555 0.297399
O O1 0.897304 0.336952 0.050363
O O2 0.659670 0.434077 0.816947
O O3 0.000000 0.500000 0.000000
O O4 0.650571 0.459351 0.167725
O O5 0.785834 0.656009 0.651247
O O6 0.743099 0.603583 0.327051
O O7 0.127084 0.660110 0.511877
O O8 0.887134 0.250000 0.762063
O O9 0.251577 0.250000 0.065121
O O10 0.464335 0.750000 0.567818
O O11 0.500000 0.000000 0.500000
O O12 0.000000 0.000000 0.500000
#
# Coordination Sequence:
#
# PCOD9167565 Si02
#       6
#     4   4   2   2   2   4
#     4  11  27  52  76 122 166 213 279 347 419 501
#     4  11  26  47  75 115 153 207 275 335 407 508
#     4  12  26  48  79 116 163 202 273 351 407 502
#     4  11  27  51  77 111 164 209 269 347 426 495
#     4  11  27  47  74 115 153 209 268 330 419 501
#     4  11  27  47  84 114 158 222 274 337 424 505
#
# _framework density 26.295248000000001
#
# number of rings (size 3 to 8) (size 9 to 14) (size 15 to 20)
#    0.000    0.889    0.000    4.000   12.444    0.889 
#    0.000   10.000    0.000    0.000    0.000    0.000 
#    0.000    0.000    0.000    0.000    0.000    0.000 
#
# Total GULP energy -100446.838454 kJ/mol
# GULP energy per Si atom -5580.379914 kJ/mol
# Density = 2.623540 g / cm^3
# Si number density = 26.295248 Si / 1000 Ang^3
#
#
#
# Elastic Constant Matrix: (Units=GPa)
#
#
# Indices 1 2 3 4 5 6 
#
# 1 122.0170 60.8262 78.0646 0.0000 39.4443 0.0000
# 2 60.8262 199.7233 34.9116 0.0000 22.5979 0.0000
# 3 78.0646 34.9116 254.6890 0.0000 63.1425 0.0000
# 4 0.0000 0.0000 0.0000 30.9771 0.0000 12.5899
# 5 39.4443 22.5979 63.1425 0.0000 71.3805 0.0000
# 6 0.0000 0.0000 0.0000 12.5899 0.0000 43.7525
#
#
#
# Elastic Compliance Matrix: (Units=1/GPa)
#
#
# Indices 1 2 3 4 5 6 
#
# 1 0.012465 -0.002936 -0.002486 0.000000 -0.003759 0.000000
# 2 -0.002936 0.005915 0.000194 0.000000 -0.000421 0.000000
# 3 -0.002486 0.000194 0.005555 0.000000 -0.003601 0.000000
# 4 0.000000 0.000000 0.000000 0.036557 0.000000 -0.010519
# 5 -0.003759 -0.000421 -0.003601 0.000000 0.019406 0.000000
# 6 0.000000 0.000000 0.000000 -0.010519 0.000000 0.025883
#
#
# Mechanical properties :
#
#
# Convention : Reuss Voigt Hill
#
# Bulk Modulus (GPa) = 74.19996 102.67045 88.43520
# Shear Modulus (GPa) = 41.41441 56.06383 48.73912
#
# Velocity S-wave (km/s) = 3.97290 4.62246 4.30994
# Velocity P-wave (km/s) = 7.02314 8.22311 7.64670
#
# Compressibility (1/GPa) = 0.01347710
#
# Stress axis : x y z
#
# Youngs Moduli (GPa) = 80.22257 169.06093 180.03033
#
# Poissons Ratio (x) = 0.49643 0.44759
# Poissons Ratio (y) = 0.23557 -0.03487
# Poissons Ratio (z) = 0.19945 -0.03274
#
# Static dielectric constant tensor:
#      x y z
#    x 2.137890 0.000000 -0.039930 
#    y 0.000000 2.036160 0.000000 
#    z -0.039930 0.000000 2.204160 
# 
# From -- ./inp_files/10203.got.cif
#   From: 2010.05.17/outbox.cif.g08.bks.cpg/sg11_6_cif.got.tgz:10203.got - 2010.06.03 12:22:45.
