data_PCOD9167014
_publ_section_title
;
Structure prediction by ZEFSAII (Michael W. Deem and Ramdas Pophale) SiO2 
 PCOD9167014
Probable space group: P 21/M
;
_chemical_formula_sum "Si O2"
_cell_formula_units_Z 26
_cell_length_a 7.097097
_cell_length_b 14.926438
_cell_length_c 13.162942
_cell_angle_alpha 90.000000
_cell_angle_beta 47.048202
_cell_angle_gamma 90.000000
_cell_volume 1020.605196
_symmetry_space_group_name_H-M "P 21/M"
_symmetry_group_IT_number 11
_symmetry_cell_setting 'monoclinic'
loop_
_space_group_symop_operation_xyz
x,y,z
-x,1/2+y,-z
-x,-y,-z
x,1/2-y,z
loop_
_atom_site_type_symbol
_atom_site_label
_atom_site_fract_x
_atom_site_fract_y
_atom_site_fract_z
Si Si1 0.123719 0.406104 0.985481
Si Si2 0.036059 0.854178 0.609599
Si Si3 0.765201 0.975066 0.847824
Si Si4 0.478572 0.591202 0.320288
Si Si5 0.527516 0.112297 0.377008
Si Si6 0.094650 0.347199 0.688882
Si Si7 0.244652 0.750000 0.866885
O O1 0.410468 0.402719 0.833772
O O2 0.127386 0.406234 0.105825
O O3 0.000000 0.500000 0.000000
O O4 0.940512 0.327957 0.015064
O O5 0.962036 0.750000 0.639785
O O6 0.189902 0.878733 0.450617
O O7 0.260550 0.871789 0.611841
O O8 0.805132 0.919774 0.728842
O O9 0.922045 0.066656 0.776307
O O10 0.500000 0.000000 0.000000
O O11 0.516804 0.491257 0.349701
O O12 0.680329 0.650572 0.309240
O O13 0.256761 0.138852 0.526275
O O14 0.602137 0.172781 0.254969
O O15 0.963309 0.250000 0.736792
#
# Coordination Sequence:
#
# PCOD9167014 Si02
#       7
#     4   4   4   4   4   4   2
#     4  12  23  38  59  93 127 154 195 251 309 347
#     4  11  19  36  61  86 116 158 206 244 294 359
#     4  12  25  42  59  86 122 164 201 250 298 359
#     4  11  20  34  60  91 120 150 197 251 303 347
#     4  11  16  33  59  89 117 155 195 250 297 349
#     4  11  20  34  60  89 119 151 202 249 298 352
#     4  12  20  32  60  94 132 148 196 254 308 354
#
# _framework density 25.475083999999999
#
# number of rings (size 3 to 8) (size 9 to 14) (size 15 to 20)
#    0.000    0.615    9.231    2.308    2.154    0.615 
#    0.000    0.769    0.000    0.000    0.000    0.000 
#    0.000    0.000    0.000    0.000    0.000    0.000 
#
# Total GULP energy -145102.080689 kJ/mol
# GULP energy per Si atom -5580.849257 kJ/mol
# Density = 2.541710 g / cm^3
# Si number density = 25.475084 Si / 1000 Ang^3
#
#
#
# Elastic Constant Matrix: (Units=GPa)
#
#
# Indices 1 2 3 4 5 6 
#
# 1 65.0267 1.2202 16.2462 0.0000 -10.0177 0.0000
# 2 1.2202 206.3524 61.7581 0.0000 -8.4414 0.0000
# 3 16.2462 61.7581 241.9055 0.0000 -13.1876 0.0000
# 4 0.0000 0.0000 0.0000 53.8693 0.0000 -5.3594
# 5 -10.0177 -8.4414 -13.1876 0.0000 20.9648 0.0000
# 6 0.0000 0.0000 0.0000 -5.3594 0.0000 4.7838
#
#
#
# Elastic Compliance Matrix: (Units=1/GPa)
#
#
# Indices 1 2 3 4 5 6 
#
# 1 0.016758 0.000462 -0.000825 0.000000 0.007675 0.000000
# 2 0.000462 0.005295 -0.001299 0.000000 0.001535 0.000000
# 3 -0.000825 -0.001299 0.004630 0.000000 0.001995 0.000000
# 4 0.000000 0.000000 0.000000 0.020892 0.000000 0.023406
# 5 0.007675 0.001535 0.001995 0.000000 0.053239 0.000000
# 6 0.000000 0.000000 0.000000 0.023406 0.000000 0.235259
#
#
# Mechanical properties :
#
#
# Convention : Reuss Voigt Hill
#
# Bulk Modulus (GPa) = 42.81178 74.63706 58.72442
# Shear Modulus (GPa) = 14.40161 44.86094 29.63127
#
# Velocity S-wave (km/s) = 2.38023 4.20095 3.41419
# Velocity P-wave (km/s) = 4.93921 7.27271 6.21643
#
# Compressibility (1/GPa) = 0.02335806
#
# Stress axis : x y z
#
# Youngs Moduli (GPa) = 59.67285 188.85882 215.99848
#
# Poissons Ratio (x) = -0.08721 0.17819
# Poissons Ratio (y) = -0.02755 0.28060
# Poissons Ratio (z) = 0.04923 0.24535
#
# Static dielectric constant tensor:
#      x y z
#    x 2.134190 0.000000 -0.000640 
#    y 0.000000 1.953900 0.000000 
#    z -0.000640 0.000000 2.034220 
# 
# From -- ./inp_files/35416.got.cif
#   From: 2010.05.17/outbox.cif.g08.bks.cpg/sg11_18_cif.got.tgz:35416.got - 2010.06.03 12:22:45.
