data_PCOD9167982
_publ_section_title
;
Structure prediction by ZEFSAII (Michael W. Deem and Ramdas Pophale) SiO2 
 PCOD9167982
Probable space group: P 21/M
;
_chemical_formula_sum "Si O2"
_cell_formula_units_Z 32
_cell_length_a 15.000000
_cell_length_b 9.000000
_cell_length_c 24.000000
_cell_angle_alpha 90.000000
_cell_angle_beta 150.000000
_cell_angle_gamma 90.000000
_cell_volume 1620.000000
_symmetry_space_group_name_H-M "P 21/M"
_symmetry_group_IT_number 11
_symmetry_cell_setting 'monoclinic'
loop_
_space_group_symop_operation_xyz
x,y,z
-x,1/2+y,-z
-x,-y,-z
x,1/2-y,z
loop_
_atom_site_type_symbol
_atom_site_label
_atom_site_fract_x
_atom_site_fract_y
_atom_site_fract_z
Si Si1 0.659367 0.069610 0.549751
Si Si2 0.594525 0.073356 0.388010
Si Si3 0.194683 0.929567 0.608432
Si Si4 0.666063 0.073524 0.009396
Si Si5 0.730377 0.571010 0.233509
Si Si6 0.112831 0.578777 0.980129
Si Si7 0.230514 0.919511 0.172275
Si Si8 0.942000 0.928648 0.242065
O O1 0.644520 0.250000 0.545010
O O2 0.648154 0.022277 0.478726
O O3 0.862943 0.025778 0.674786
O O4 0.500000 0.000000 0.500000
O O5 0.618364 0.250000 0.401214
O O6 0.698929 0.019704 0.389489
O O7 0.390201 0.029100 0.271102
O O8 0.188913 0.750000 0.605823
O O9 0.270811 0.989609 0.707968
O O10 0.000000 0.000000 0.500000
O O11 0.682492 0.250000 0.028033
O O12 0.743882 0.043173 0.989644
O O13 0.788229 0.989158 0.119191
O O14 0.457469 0.036637 0.897930
O O15 0.739245 0.750000 0.247651
O O16 0.890640 0.528529 0.278094
O O17 0.053771 0.750000 0.939459
O O18 0.944841 0.469915 0.889567
O O19 0.191057 0.571386 0.084829
O O20 0.278112 0.750000 0.211684
O O21 0.939261 0.750000 0.240399
#
# Coordination Sequence:
#
# PCOD9167982 Si02
#       8
#     4   4   4   4   4   4   4   4
#     4  10  23  42  61  83 114 154 198 245 298 354
#     4  10  22  40  60  83 116 153 189 235 300 357
#     4  11  23  39  63  92 122 158 198 244 299 360
#     4  10  21  36  59  87 118 158 202 245 298 358
#     4  10  21  40  63  89 125 162 197 246 303 359
#     4   9  19  35  52  78 117 154 188 236 295 347
#     4  10  20  34  56  83 112 149 195 242 287 347
#     4  10  22  40  61  85 119 158 199 251 306 358
#
# _framework density 19.753086
#
# number of rings (size 3 to 8) (size 9 to 14) (size 15 to 20)
#    0.000    2.000    0.000    2.625    1.750    7.000 
#    0.000    1.250    0.000    0.000    0.000    0.000 
#    0.000    0.000    0.000    0.000    0.000    0.000 
#
# Total GULP energy -178615.649375 kJ/mol
# GULP energy per Si atom -5581.739043 kJ/mol
# Density = 1.970813 g / cm^3
# Si number density = 19.753086 Si / 1000 Ang^3
#
#
#
# Elastic Constant Matrix: (Units=GPa)
#
#
# Indices 1 2 3 4 5 6 
#
# 1 104.8600 33.7719 47.1724 0.0000 15.8565 0.0000
# 2 33.7719 7.6852 19.3390 0.0000 -4.5964 0.0000
# 3 47.1724 19.3390 83.7552 0.0000 9.0983 0.0000
# 4 0.0000 0.0000 0.0000 31.5115 0.0000 -1.1891
# 5 15.8565 -4.5964 9.0983 0.0000 25.2409 0.0000
# 6 0.0000 0.0000 0.0000 -1.1891 0.0000 30.7893
#
#
#
# Elastic Compliance Matrix: (Units=1/GPa)
#
#
# Indices 1 2 3 4 5 6 
#
# 1 -0.002417 0.045571 -0.010645 0.000000 0.013654 0.000000
# 2 0.045571 -0.129682 0.010358 0.000000 -0.055977 0.000000
# 3 -0.010645 0.010358 0.015207 0.000000 0.003092 0.000000
# 4 0.000000 0.000000 0.000000 0.031781 0.000000 0.001227
# 5 0.013654 -0.055977 0.003092 0.000000 0.019733 0.000000
# 6 0.000000 0.000000 0.000000 0.001227 0.000000 0.032526
#
#
# Mechanical properties :
#
#
# Convention : Reuss Voigt Hill
#
# Bulk Modulus (GPa) = -37.99040 44.09631 3.05296
# Shear Modulus (GPa) = -37.82296 23.90947 -6.95674
#
# Velocity S-wave (km/s) = -4.38058 3.48288 -1.87870
# Velocity P-wave (km/s) = 6.69778 6.20855 1.77682
#
# Compressibility (1/GPa) = -0.02632244
#
# Stress axis : x y z
#
# Youngs Moduli (GPa) = -413.81473 -7.71114 65.75783
#
# Poissons Ratio (x) = 0.35141 0.69996
# Poissons Ratio (y) = 18.85810 -0.68111
# Poissons Ratio (z) = -4.40487 0.07987
#
# Static dielectric constant tensor:
#      x y z
#    x 1.705860 0.000000 -0.022740 
#    y 0.000000 1.743590 0.000000 
#    z -0.022740 0.000000 1.719120 
# 
# From -- ./inp_files/69124.got.cif
#   From: 2010.05.17/outbox.ucp.g08.bks.cvg/sg11_35_cif.got.tgz:69124.got - 2010.06.11 11:38:39.
