data_PCOD9167613
_publ_section_title
;
Structure prediction by ZEFSAII (Michael W. Deem and Ramdas Pophale) SiO2 
 PCOD9167613
Probable space group: P 21/M
;
_chemical_formula_sum "Si O2"
_cell_formula_units_Z 24
_cell_length_a 7.057494
_cell_length_b 17.124110
_cell_length_c 11.862825
_cell_angle_alpha 90.000000
_cell_angle_beta 141.256255
_cell_angle_gamma 90.000000
_cell_volume 897.240373
_symmetry_space_group_name_H-M "P 21/M"
_symmetry_group_IT_number 11
_symmetry_cell_setting 'monoclinic'
loop_
_space_group_symop_operation_xyz
x,y,z
-x,1/2+y,-z
-x,-y,-z
x,1/2-y,z
loop_
_atom_site_type_symbol
_atom_site_label
_atom_site_fract_x
_atom_site_fract_y
_atom_site_fract_z
Si Si1 0.722890 0.750000 0.509971
Si Si2 0.847719 0.250000 0.602181
Si Si3 0.268471 0.250000 0.026012
Si Si4 0.875296 0.082259 0.614561
Si Si5 0.219197 0.917162 0.011856
Si Si6 0.264413 0.416910 0.013847
Si Si7 0.314817 0.750000 0.100389
Si Si8 0.201275 0.082997 0.401663
O O1 0.497698 0.750000 0.514003
O O2 0.513308 0.750000 0.303725
O O3 0.883190 0.666851 0.588559
O O4 0.895692 0.166657 0.564230
O O5 0.060388 0.250000 0.814571
O O6 0.427675 0.334081 0.105936
O O7 0.035333 0.250000 0.023263
O O8 0.558098 0.085768 0.537639
O O9 0.858255 0.995662 0.555161
O O10 0.138790 0.082365 0.829551
O O11 0.370078 0.832659 0.067135
O O12 0.405904 0.998163 0.102403
O O13 0.027477 0.914053 0.038658
O O14 0.981041 0.925568 0.799811
#
# Coordination Sequence:
#
# PCOD9167613 Si02
#       8
#     2   2   2   4   4   4   2   4
#     4   9  15  21  25  27  33  43  49  53  61  65
#     4   7  10  17  25  29  33  41  47  47  51  63
#     4   7  10  17  25  29  33  41  47  47  51  63
#     4   8  13  19  25  31  38  44  45  47  56  65
#     4   9  14  18  24  32  37  40  47  54  56  60
#     4   8  13  19  25  31  38  44  45  47  56  65
#     4   9  15  21  25  27  33  43  49  53  61  65
#     4   9  14  18  24  32  37  40  47  54  56  60
#
# _framework density 26.748684999999998
#
# number of rings (size 3 to 8) (size 9 to 14) (size 15 to 20)
#    0.000    3.667    0.000    3.500    0.000    1.333 
#    0.000    0.000    0.000    0.000    0.000    0.000 
#    0.000    0.000    0.000    0.000    0.000    0.000 
#
# Total GULP energy -133964.757426 kJ/mol
# GULP energy per Si atom -5581.864893 kJ/mol
# Density = 2.668780 g / cm^3
# Si number density = 26.748685 Si / 1000 Ang^3
#
#
#
# Elastic Constant Matrix: (Units=GPa)
#
#
# Indices 1 2 3 4 5 6 
#
# 1 102.4301 32.3367 31.2103 0.0000 10.2801 0.0000
# 2 32.3367 391.7791 15.4740 0.0000 5.2259 0.0000
# 3 31.2103 15.4740 47.8606 0.0000 4.3828 0.0000
# 4 0.0000 0.0000 0.0000 19.2004 0.0000 -12.2516
# 5 10.2801 5.2259 4.3828 0.0000 24.4970 0.0000
# 6 0.0000 0.0000 0.0000 -12.2516 0.0000 -17.9246
#
#
#
# Elastic Compliance Matrix: (Units=1/GPa)
#
#
# Indices 1 2 3 4 5 6 
#
# 1 0.012716 -0.000694 -0.007719 0.000000 -0.003807 0.000000
# 2 -0.000694 0.002627 -0.000379 0.000000 -0.000202 0.000000
# 3 -0.007719 -0.000379 0.026175 0.000000 -0.001363 0.000000
# 4 0.000000 0.000000 0.000000 0.036265 0.000000 -0.024788
# 5 -0.003807 -0.000202 -0.001363 0.000000 0.042706 0.000000
# 6 0.000000 0.000000 0.000000 -0.024788 0.000000 -0.038847
#
#
# Mechanical properties :
#
#
# Convention : Reuss Voigt Hill
#
# Bulk Modulus (GPa) = 41.77969 77.79021 59.78495
# Shear Modulus (GPa) = 46.63987 36.02447 41.33217
#
# Velocity S-wave (km/s) = 4.18021 3.67383 3.93517
# Velocity P-wave (km/s) = 6.24117 6.86593 6.56099
#
# Compressibility (1/GPa) = 0.02393507
#
# Stress axis : x y z
#
# Youngs Moduli (GPa) = 78.64159 380.60873 38.20447
#
# Poissons Ratio (x) = 0.26410 0.29491
# Poissons Ratio (y) = 0.05457 0.01446
# Poissons Ratio (z) = 0.60705 0.14407
#
# Static dielectric constant tensor:
#      x y z
#    x 2.022010 0.000000 0.013740 
#    y 0.000000 2.194830 0.000000 
#    z 0.013740 0.000000 1.983670 
# 
# From -- ./inp_files/41913.got.cif
#   From: 2010.05.17/outbox.cif.g08.bks.cpg/sg11_21_cif.got.tgz:41913.got - 2010.06.03 12:22:45.
