data_PCOD9167033
_publ_section_title
;
Structure prediction by ZEFSAII (Michael W. Deem and Ramdas Pophale) SiO2 
 PCOD9167033
Probable space group: P 21/M
;
_chemical_formula_sum "Si O2"
_cell_formula_units_Z 22
_cell_length_a 7.866091
_cell_length_b 16.530794
_cell_length_c 12.737291
_cell_angle_alpha 90.000000
_cell_angle_beta 148.902897
_cell_angle_gamma 90.000000
_cell_volume 855.444221
_symmetry_space_group_name_H-M "P 21/M"
_symmetry_group_IT_number 11
_symmetry_cell_setting 'monoclinic'
loop_
_space_group_symop_operation_xyz
x,y,z
-x,1/2+y,-z
-x,-y,-z
x,1/2-y,z
loop_
_atom_site_type_symbol
_atom_site_label
_atom_site_fract_x
_atom_site_fract_y
_atom_site_fract_z
Si Si1 0.631649 0.444028 0.359281
Si Si2 0.851778 0.535496 0.213028
Si Si3 0.707498 0.658809 0.976080
Si Si4 0.696090 0.250000 0.973965
Si Si5 0.225281 0.118890 0.337283
Si Si6 0.404179 0.624977 0.248724
O O1 0.580691 0.393781 0.226930
O O2 0.471952 0.389816 0.369118
O O3 0.436014 0.528796 0.248158
O O4 0.001088 0.458760 0.593903
O O5 0.096860 0.472912 0.285679
O O6 0.500000 0.500000 0.000000
O O7 0.836478 0.622690 0.152191
O O8 0.603909 0.750000 0.934750
O O9 0.023417 0.650511 0.067328
O O10 0.504833 0.179023 0.802617
O O11 0.928445 0.178869 0.152942
O O12 0.401009 0.142379 0.539815
#
# Coordination Sequence:
#
# PCOD9167033 Si02
#       6
#     4   4   4   2   4   4
#     4  11  21  39  68  93 118 160 210 254 306 363
#     4  11  25  44  64  84 125 173 208 248 301 371
#     4  12  22  37  65  95 126 156 205 260 310 359
#     4  12  22  32  60 100 132 148 196 266 316 348
#     4  11  21  38  64  94 121 161 207 250 308 362
#     4  11  19  34  60  97 123 153 193 259 307 359
#
# _framework density 25.717632999999999
#
# number of rings (size 3 to 8) (size 9 to 14) (size 15 to 20)
#    0.000    0.727    6.364    3.273    0.000    1.455 
#    1.636    0.000    8.000    0.000    0.000    0.000 
#    0.000    0.000    0.000    0.000    0.000    0.000 
#
# Total GULP energy -122825.519563 kJ/mol
# GULP energy per Si atom -5582.978162 kJ/mol
# Density = 2.565910 g / cm^3
# Si number density = 25.717633 Si / 1000 Ang^3
#
#
#
# Elastic Constant Matrix: (Units=GPa)
#
#
# Indices 1 2 3 4 5 6 
#
# 1 56.6641 11.0361 35.2688 0.0000 -17.1471 0.0000
# 2 11.0361 191.3980 77.4960 0.0000 -41.4521 0.0000
# 3 35.2688 77.4960 192.1416 0.0000 -47.0341 0.0000
# 4 0.0000 0.0000 0.0000 68.4200 0.0000 -54.2534
# 5 -17.1471 -41.4521 -47.0341 0.0000 51.9880 0.0000
# 6 0.0000 0.0000 0.0000 -54.2534 0.0000 67.8826
#
#
#
# Elastic Compliance Matrix: (Units=1/GPa)
#
#
# Indices 1 2 3 4 5 6 
#
# 1 0.020844 0.001118 -0.003052 0.000000 0.005005 0.000000
# 2 0.001118 0.006833 -0.001974 0.000000 0.004030 0.000000
# 3 -0.003052 -0.001974 0.007616 0.000000 0.004309 0.000000
# 4 0.000000 0.000000 0.000000 0.039905 0.000000 0.031893
# 5 0.005005 0.004030 0.004309 0.000000 0.027998 0.000000
# 6 0.000000 0.000000 0.000000 0.031893 0.000000 0.040221
#
#
# Mechanical properties :
#
#
# Convention : Reuss Voigt Hill
#
# Bulk Modulus (GPa) = 36.39522 76.42282 56.40902
# Shear Modulus (GPa) = 31.17348 58.75164 44.96256
#
# Velocity S-wave (km/s) = 3.48536 4.78482 4.18582
# Velocity P-wave (km/s) = 5.51177 7.76573 6.73373
#
# Compressibility (1/GPa) = 0.02747614
#
# Stress axis : x y z
#
# Youngs Moduli (GPa) = 47.97486 146.35871 131.30528
#
# Poissons Ratio (x) = -0.16359 0.40070
# Poissons Ratio (y) = -0.05362 0.25924
# Poissons Ratio (z) = 0.14640 0.28896
#
# Static dielectric constant tensor:
#      x y z
#    x 2.167380 0.000000 0.053730 
#    y 0.000000 1.983540 0.000000 
#    z 0.053730 0.000000 1.995240 
# 
# From -- ./inp_files/13642.got.cif
#   From: 2010.05.17/outbox.cif.g08.bks.cpg/sg11_7_cif.got.tgz:13642.got - 2010.06.03 12:22:45.
