data_PCOD9167840
_publ_section_title
;
Structure prediction by ZEFSAII (Michael W. Deem and Ramdas Pophale) SiO2 
 PCOD9167840
Probable space group: P 21/M
;
_chemical_formula_sum "Si O2"
_cell_formula_units_Z 24
_cell_length_a 15.000000
_cell_length_b 15.000000
_cell_length_c 9.000000
_cell_angle_alpha 90.000000
_cell_angle_beta 40.000000
_cell_angle_gamma 90.000000
_cell_volume 1301.644910
_symmetry_space_group_name_H-M "P 21/M"
_symmetry_group_IT_number 11
_symmetry_cell_setting 'monoclinic'
loop_
_space_group_symop_operation_xyz
x,y,z
-x,1/2+y,-z
-x,-y,-z
x,1/2-y,z
loop_
_atom_site_type_symbol
_atom_site_label
_atom_site_fract_x
_atom_site_fract_y
_atom_site_fract_z
Si Si1 0.018336 0.143829 0.051500
Si Si2 0.575136 0.144196 0.348518
Si Si3 0.011823 0.351655 0.706821
Si Si4 0.198005 0.520980 0.492435
Si Si5 0.739601 0.350233 0.847097
Si Si6 0.301818 0.467132 0.666329
O O1 0.034382 0.250000 0.068993
O O2 0.980123 0.141315 0.924301
O O3 0.157692 0.083488 0.888041
O O4 0.904898 0.091984 0.294527
O O5 0.588785 0.250000 0.380238
O O6 0.422311 0.101894 0.559673
O O7 0.670727 0.065654 0.299124
O O8 0.615759 0.144795 0.123302
O O9 0.067591 0.250000 0.614244
O O10 0.113548 0.434035 0.544858
O O11 0.877772 0.359568 0.772942
O O12 0.264731 0.574491 0.271807
O O13 0.298376 0.485043 0.493727
O O14 0.742567 0.250000 0.777799
#
# Coordination Sequence:
#
# PCOD9167840 Si02
#       6
#     4   4   4   4   4   4
#     4  10  19  33  54  81 109 135 170 215 261 307
#     4  10  21  38  57  75 103 141 178 215 256 308
#     4   9  18  32  50  73 104 140 174 210 257 312
#     4  11  20  32  53  80 108 134 169 217 264 309
#     4  10  20  33  51  76 104 137 172 207 258 316
#     4  10  21  36  56  79 102 136 180 219 257 300
#
# _framework density 18.438207999999999
#
# number of rings (size 3 to 8) (size 9 to 14) (size 15 to 20)
#    0.000    2.000    0.000    5.500    0.000    4.000 
#    0.000    0.000    0.000    4.000    0.000    0.000 
#    0.000    0.000    0.000    0.000    0.000    0.000 
#
# Total GULP energy -133819.159182 kJ/mol
# GULP energy per Si atom -5575.798299 kJ/mol
# Density = 1.839624 g / cm^3
# Si number density = 18.438208 Si / 1000 Ang^3
#
#
#
# Elastic Constant Matrix: (Units=GPa)
#
#
# Indices 1 2 3 4 5 6 
#
# 1 31.8498 16.2132 -1.2874 0.0000 -5.9720 0.0000
# 2 16.2132 145.5348 13.0770 0.0000 -1.8504 0.0000
# 3 -1.2874 13.0770 22.2010 0.0000 3.6345 0.0000
# 4 0.0000 0.0000 0.0000 25.5553 0.0000 8.8651
# 5 -5.9720 -1.8504 3.6345 0.0000 16.4734 0.0000
# 6 0.0000 0.0000 0.0000 8.8651 0.0000 35.5119
#
#
#
# Elastic Compliance Matrix: (Units=1/GPa)
#
#
# Indices 1 2 3 4 5 6 
#
# 1 0.035812 -0.004063 0.002510 0.000000 0.011972 0.000000
# 2 -0.004063 0.007769 -0.004890 0.000000 0.000479 0.000000
# 3 0.002510 -0.004890 0.049809 0.000000 -0.010629 0.000000
# 4 0.000000 0.000000 0.000000 0.042841 0.000000 -0.010695
# 5 0.011972 0.000479 -0.010629 0.000000 0.067443 0.000000
# 6 0.000000 0.000000 0.000000 -0.010695 0.000000 0.030829
#
#
# Mechanical properties :
#
#
# Convention : Reuss Voigt Hill
#
# Bulk Modulus (GPa) = 12.42177 28.39901 20.41039
# Shear Modulus (GPa) = 18.23320 26.94698 22.59009
#
# Velocity S-wave (km/s) = 3.14806 3.82707 3.50405
# Velocity P-wave (km/s) = 4.46826 5.91306 5.24069
#
# Compressibility (1/GPa) = 0.08050382
#
# Stress axis : x y z
#
# Youngs Moduli (GPa) = 27.92361 128.71099 20.07661
#
# Poissons Ratio (x) = 0.52294 -0.05039
# Poissons Ratio (y) = 0.11345 0.09818
# Poissons Ratio (z) = -0.07009 0.62944
#
# Static dielectric constant tensor:
#      x y z
#    x 1.646680 0.000000 -0.017310 
#    y 0.000000 1.646200 0.000000 
#    z -0.017310 0.000000 1.641070 
# 
# From -- ./inp_files/17539.got.cif
#   From: 2010.05.17/outbox.ucp.g08.bks.cvg/sg11_9_cif.got.tgz:17539.got - 2010.06.11 11:38:39.
