data_PCOD9167156
_publ_section_title
;
Structure prediction by ZEFSAII (Michael W. Deem and Ramdas Pophale) SiO2 
 PCOD9167156
Probable space group: P 21/M
;
_chemical_formula_sum "Si O2"
_cell_formula_units_Z 24
_cell_length_a 10.529067
_cell_length_b 8.034963
_cell_length_c 20.795673
_cell_angle_alpha 90.000000
_cell_angle_beta 130.477878
_cell_angle_gamma 90.000000
_cell_volume 1338.244365
_symmetry_space_group_name_H-M "P 21/M"
_symmetry_group_IT_number 11
_symmetry_cell_setting 'monoclinic'
loop_
_space_group_symop_operation_xyz
x,y,z
-x,1/2+y,-z
-x,-y,-z
x,1/2-y,z
loop_
_atom_site_type_symbol
_atom_site_label
_atom_site_fract_x
_atom_site_fract_y
_atom_site_fract_z
Si Si1 0.221699 0.056071 0.405773
Si Si2 0.477161 0.449210 0.586408
Si Si3 0.685945 0.052866 0.044156
Si Si4 0.316699 0.049043 0.232618
Si Si5 0.807254 0.551099 0.943957
Si Si6 0.992180 0.545802 0.776656
O O1 0.183884 0.250000 0.403913
O O2 0.300664 0.991706 0.498435
O O3 0.069147 0.984962 0.313690
O O4 0.378011 0.038228 0.407727
O O5 0.490116 0.250000 0.579866
O O6 0.524280 0.485629 0.675243
O O7 0.693777 0.250000 0.052719
O O8 0.829889 0.985545 0.139274
O O9 0.500000 0.000000 0.000000
O O10 0.734826 0.008456 0.987541
O O11 0.322260 0.250000 0.234872
O O12 0.293346 0.990422 0.152004
O O13 0.150529 0.999154 0.218258
O O14 0.800527 0.750000 0.941053
O O15 0.000000 0.500000 0.000000
O O16 0.992304 0.750000 0.774839
#
# Coordination Sequence:
#
# PCOD9167156 Si02
#       6
#     4   4   4   4   4   4
#     4   8  14  25  39  58  90 127 157 191 241 295
#     4   9  15  22  37  64  93 121 156 197 239 284
#     4  11  22  37  53  74 102 135 173 212 254 301
#     4   9  17  30  46  66  96 131 161 193 245 301
#     4  11  21  35  54  76 101 134 171 211 255 303
#     4   8  14  28  47  65  91 129 164 195 240 298
#
# _framework density 17.933944
#
# number of rings (size 3 to 8) (size 9 to 14) (size 15 to 20)
#    0.000    2.667    1.667    2.500    0.000    2.000 
#    0.000    0.833    0.000    0.000    0.000    1.167 
#    0.000    0.000    0.000    0.000    0.000    0.000 
#
# Total GULP energy -133612.220057 kJ/mol
# GULP energy per Si atom -5567.175836 kJ/mol
# Density = 1.789313 g / cm^3
# Si number density = 17.933944 Si / 1000 Ang^3
#
#
#
# Elastic Constant Matrix: (Units=GPa)
#
#
# Indices 1 2 3 4 5 6 
#
# 1 65.9571 4.8760 62.8464 0.0000 4.3455 0.0000
# 2 4.8760 19.6706 10.2493 0.0000 2.3871 0.0000
# 3 62.8464 10.2493 235.5500 0.0000 -7.1059 0.0000
# 4 0.0000 0.0000 0.0000 23.9821 0.0000 -1.9622
# 5 4.3455 2.3871 -7.1059 0.0000 12.8660 0.0000
# 6 0.0000 0.0000 0.0000 -1.9622 0.0000 18.4608
#
#
#
# Elastic Compliance Matrix: (Units=1/GPa)
#
#
# Indices 1 2 3 4 5 6 
#
# 1 0.021704 -0.000944 -0.006067 0.000000 -0.010506 0.000000
# 2 -0.000944 0.053660 -0.002414 0.000000 -0.010970 0.000000
# 3 -0.006067 -0.002414 0.006147 0.000000 0.005892 0.000000
# 4 0.000000 0.000000 0.000000 0.042064 0.000000 0.004471
# 5 -0.010506 -0.010970 0.005892 0.000000 0.086562 0.000000
# 6 0.000000 0.000000 0.000000 0.004471 0.000000 0.054644
#
#
# Mechanical properties :
#
#
# Convention : Reuss Voigt Hill
#
# Bulk Modulus (GPa) = 15.95871 53.01345 34.48608
# Shear Modulus (GPa) = 16.41942 27.27550 21.84746
#
# Velocity S-wave (km/s) = 3.02909 3.90409 3.49409
# Velocity P-wave (km/s) = 4.59910 7.06733 5.96233
#
# Compressibility (1/GPa) = 0.06266170
#
# Stress axis : x y z
#
# Youngs Moduli (GPa) = 46.07483 18.63575 162.68706
#
# Poissons Ratio (x) = 0.01759 0.98696
# Poissons Ratio (y) = 0.04350 0.39272
# Poissons Ratio (z) = 0.27952 0.04499
#
# Static dielectric constant tensor:
#      x y z
#    x 1.551630 0.000000 -0.013980 
#    y 0.000000 1.640440 0.000000 
#    z -0.013980 0.000000 1.718030 
# 
# From -- ./inp_files/63167.got.cif
#   From: 2010.05.17/outbox.cif.g08.bks.cpg/sg11_32_cif.got.tgz:63167.got - 2010.06.03 12:22:45.
