data_PCOD9167659
_publ_section_title
;
Structure prediction by ZEFSAII (Michael W. Deem and Ramdas Pophale) SiO2 
 PCOD9167659
Probable space group: P 21/M
;
_chemical_formula_sum "Si O2"
_cell_formula_units_Z 32
_cell_length_a 13.234698
_cell_length_b 15.181594
_cell_length_c 9.613573
_cell_angle_alpha 90.000000
_cell_angle_beta 36.072060
_cell_angle_gamma 90.000000
_cell_volume 1137.327961
_symmetry_space_group_name_H-M "P 21/M"
_symmetry_group_IT_number 11
_symmetry_cell_setting 'monoclinic'
loop_
_space_group_symop_operation_xyz
x,y,z
-x,1/2+y,-z
-x,-y,-z
x,1/2-y,z
loop_
_atom_site_type_symbol
_atom_site_label
_atom_site_fract_x
_atom_site_fract_y
_atom_site_fract_z
Si Si1 0.589464 0.392389 0.813972
Si Si2 0.892310 0.647410 0.192142
Si Si3 0.019888 0.392472 0.465322
Si Si4 0.466617 0.649441 0.530629
Si Si5 0.667527 0.597620 0.688718
Si Si6 0.156470 0.647025 0.693328
Si Si7 0.216711 0.881014 0.037317
Si Si8 0.268866 0.090003 0.962917
O O1 0.641654 0.495188 0.755326
O O2 0.758292 0.353885 0.553498
O O3 0.428016 0.382811 0.887753
O O4 0.506969 0.363217 0.052290
O O5 0.839142 0.750000 0.232106
O O6 0.741580 0.604105 0.451480
O O7 0.981189 0.607193 0.952959
O O8 0.059886 0.644784 0.108763
O O9 0.176631 0.366900 0.392040
O O10 0.000000 0.500000 0.500000
O O11 0.099154 0.369128 0.225814
O O12 0.853734 0.356882 0.731336
O O13 0.480001 0.750000 0.469086
O O14 0.311757 0.606672 0.613672
O O15 0.391117 0.650718 0.769766
O O16 0.646116 0.609504 0.281431
O O17 0.136518 0.750000 0.751005
O O18 0.241759 0.986142 0.007297
#
# Coordination Sequence:
#
# PCOD9167659 Si02
#       8
#     4   4   4   4   4   4   4   4
#     4   9  17  28  42  65  91 114 144 175 211 261
#     4   9  17  29  45  66  88 109 142 186 220 247
#     4   8  15  27  43  64  85 107 140 181 220 251
#     4   9  16  26  40  62  90 114 142 182 218 251
#     4   9  17  28  43  65  89 113 141 179 215 255
#     4   8  15  27  42  61  86 114 144 179 214 248
#     4   9  15  26  44  64  84 111 143 177 217 254
#     4   9  16  27  43  63  88 116 143 175 216 262
#
# _framework density 28.136125
#
# number of rings (size 3 to 8) (size 9 to 14) (size 15 to 20)
#    0.000    3.250    0.000    1.500    0.000    1.000 
#    0.000    6.875    0.000    1.500    0.000   38.500 
#    0.000    0.000    0.000    0.000    0.000    0.000 
#
# Total GULP energy -178657.225475 kJ/mol
# GULP energy per Si atom -5583.038296 kJ/mol
# Density = 2.807209 g / cm^3
# Si number density = 28.136125 Si / 1000 Ang^3
#
#
#
# Elastic Constant Matrix: (Units=GPa)
#
#
# Indices 1 2 3 4 5 6 
#
# 1 79.5680 -14.5168 91.6905 0.0000 33.8007 0.0000
# 2 -14.5168 65.2477 48.8108 0.0000 0.0336 0.0000
# 3 91.6905 48.8108 403.6430 0.0000 18.3177 0.0000
# 4 0.0000 0.0000 0.0000 8.8400 0.0000 14.3496
# 5 33.8007 0.0336 18.3177 0.0000 89.2711 0.0000
# 6 0.0000 0.0000 0.0000 14.3496 0.0000 26.2523
#
#
#
# Elastic Compliance Matrix: (Units=1/GPa)
#
#
# Indices 1 2 3 4 5 6 
#
# 1 0.026061 0.010933 -0.006858 0.000000 -0.008464 0.000000
# 2 0.010933 0.021452 -0.004935 0.000000 -0.003135 0.000000
# 3 -0.006858 -0.004935 0.004557 0.000000 0.001663 0.000000
# 4 0.000000 0.000000 0.000000 1.003448 0.000000 -0.548485
# 5 -0.008464 -0.003135 0.001663 0.000000 0.014067 0.000000
# 6 0.000000 0.000000 0.000000 -0.548485 0.000000 0.337894
#
#
# Mechanical properties :
#
#
# Convention : Reuss Voigt Hill
#
# Bulk Modulus (GPa) = 19.86140 88.93642 54.39891
# Shear Modulus (GPa) = 3.50635 53.03766 28.27201
#
# Velocity S-wave (km/s) = 1.11755 4.34641 3.17334
# Velocity P-wave (km/s) = 2.95628 7.54098 5.72739
#
# Compressibility (1/GPa) = 0.05034892
#
# Stress axis : x y z
#
# Youngs Moduli (GPa) = 38.37174 46.61512 219.46348
#
# Poissons Ratio (x) = -0.50963 1.50505
# Poissons Ratio (y) = -0.41951 1.08313
# Poissons Ratio (z) = 0.26315 0.23006
#
# Static dielectric constant tensor:
#      x y z
#    x 2.425970 0.000000 0.118270 
#    y 0.000000 1.766340 0.000000 
#    z 0.118270 0.000000 2.243240 
# 
# From -- ./inp_files/55922.got.cif
#   From: 2010.05.17/outbox.cif.g08.bks.cpg/sg11_28_cif.got.tgz:55922.got - 2010.06.03 12:22:45.
