data_PCOD9167686
_publ_section_title
;
Structure prediction by ZEFSAII (Michael W. Deem and Ramdas Pophale) SiO2 
 PCOD9167686
Probable space group: P 21/M
;
_chemical_formula_sum "Si O2"
_cell_formula_units_Z 24
_cell_length_a 7.382852
_cell_length_b 16.745674
_cell_length_c 9.637882
_cell_angle_alpha 90.000000
_cell_angle_beta 50.013123
_cell_angle_gamma 90.000000
_cell_volume 912.947518
_symmetry_space_group_name_H-M "P 21/M"
_symmetry_group_IT_number 11
_symmetry_cell_setting 'monoclinic'
loop_
_space_group_symop_operation_xyz
x,y,z
-x,1/2+y,-z
-x,-y,-z
x,1/2-y,z
loop_
_atom_site_type_symbol
_atom_site_label
_atom_site_fract_x
_atom_site_fract_y
_atom_site_fract_z
Si Si1 0.123053 0.162395 0.283210
Si Si2 0.139536 0.837019 0.880375
Si Si3 0.437296 0.159168 0.505783
Si Si4 0.888945 0.161127 0.682902
Si Si5 0.756654 0.547885 0.198101
Si Si6 0.808740 0.999151 0.867609
O O1 0.241880 0.250000 0.252049
O O2 0.997625 0.170889 0.197013
O O3 0.929288 0.152324 0.498801
O O4 0.251694 0.077271 0.198016
O O5 0.160325 0.750000 0.936730
O O6 0.400851 0.862840 0.705072
O O7 0.965200 0.888644 0.058154
O O8 0.501570 0.250000 0.515704
O O9 0.163231 0.160760 0.597423
O O10 0.446938 0.094636 0.623153
O O11 0.785608 0.250000 0.760385
O O12 0.769545 0.084139 0.812236
O O13 0.907482 0.495162 0.233128
O O14 0.698617 0.512124 0.076067
#
# Coordination Sequence:
#
# PCOD9167686 Si02
#       6
#     4   4   4   4   4   4
#     4   9  17  30  50  74  99 130 165 200 243 292
#     4   9  17  30  51  76  99 128 165 203 244 289
#     4   9  17  30  51  76  99 128 165 203 244 289
#     4   9  17  30  50  74  99 130 165 200 243 292
#     4   9  17  30  47  72 102 128 160 204 246 286
#     4   9  17  30  48  71  98 131 164 198 244 291
#
# _framework density 26.288478000000001
#
# number of rings (size 3 to 8) (size 9 to 14) (size 15 to 20)
#    0.000    3.000    0.000    1.000    0.000    1.333 
#    0.000   23.333    0.000   10.000    0.000   39.667 
#    0.000    0.000    0.000    0.000    0.000    0.000 
#
# Total GULP energy -133969.595039 kJ/mol
# GULP energy per Si atom -5582.066460 kJ/mol
# Density = 2.622864 g / cm^3
# Si number density = 26.288478 Si / 1000 Ang^3
#
#
#
# Elastic Constant Matrix: (Units=GPa)
#
#
# Indices 1 2 3 4 5 6 
#
# 1 47.3581 28.6954 24.2217 0.0000 -5.9328 0.0000
# 2 28.6954 228.2311 80.2790 0.0000 4.1295 0.0000
# 3 24.2217 80.2790 114.1758 0.0000 7.4247 0.0000
# 4 0.0000 0.0000 0.0000 32.0737 0.0000 0.9699
# 5 -5.9328 4.1295 7.4247 0.0000 35.5033 0.0000
# 6 0.0000 0.0000 0.0000 0.9699 0.0000 16.2866
#
#
#
# Elastic Compliance Matrix: (Units=1/GPa)
#
#
# Indices 1 2 3 4 5 6 
#
# 1 0.025095 -0.001670 -0.004496 0.000000 0.005328 0.000000
# 2 -0.001670 0.005934 -0.003806 0.000000 -0.000173 0.000000
# 3 -0.004496 -0.003806 0.012580 0.000000 -0.002939 0.000000
# 4 0.000000 0.000000 0.000000 0.031234 0.000000 -0.001860
# 5 0.005328 -0.000173 -0.002939 0.000000 0.029691 0.000000
# 6 0.000000 0.000000 0.000000 -0.001860 0.000000 0.061511
#
#
# Mechanical properties :
#
#
# Convention : Reuss Voigt Hill
#
# Bulk Modulus (GPa) = 42.25998 72.90638 57.58318
# Shear Modulus (GPa) = 25.78954 33.87733 29.83343
#
# Velocity S-wave (km/s) = 3.13552 3.59371 3.37241
# Velocity P-wave (km/s) = 5.40546 6.70918 6.09229
#
# Compressibility (1/GPa) = 0.02366305
#
# Stress axis : x y z
#
# Youngs Moduli (GPa) = 39.84924 168.53405 79.49347
#
# Poissons Ratio (x) = 0.28148 0.35739
# Poissons Ratio (y) = 0.06655 0.30258
# Poissons Ratio (z) = 0.17915 0.64150
#
# Static dielectric constant tensor:
#      x y z
#    x 2.081600 0.000000 0.035030 
#    y 0.000000 2.336300 0.000000 
#    z 0.035030 0.000000 2.031620 
# 
# From -- ./inp_files/35834.got.cif
#   From: 2010.05.17/outbox.cif.g08.bks.cpg/sg11_18_cif.got.tgz:35834.got - 2010.06.03 12:22:45.
