data_PCOD9167856
_publ_section_title
;
Structure prediction by ZEFSAII (Michael W. Deem and Ramdas Pophale) SiO2 
 PCOD9167856
Probable space group: P 21/M
;
_chemical_formula_sum "Si O2"
_cell_formula_units_Z 32
_cell_length_a 15.000000
_cell_length_b 9.000000
_cell_length_c 24.000000
_cell_angle_alpha 90.000000
_cell_angle_beta 30.000000
_cell_angle_gamma 90.000000
_cell_volume 1620.000000
_symmetry_space_group_name_H-M "P 21/M"
_symmetry_group_IT_number 11
_symmetry_cell_setting 'monoclinic'
loop_
_space_group_symop_operation_xyz
x,y,z
-x,1/2+y,-z
-x,-y,-z
x,1/2-y,z
loop_
_atom_site_type_symbol
_atom_site_label
_atom_site_fract_x
_atom_site_fract_y
_atom_site_fract_z
Si Si1 0.989084 0.929182 0.751189
Si Si2 0.055941 0.576340 0.107322
Si Si3 0.781707 0.582562 0.754149
Si Si4 0.845020 0.079046 0.510380
Si Si5 0.689611 0.925295 0.487660
Si Si6 0.680584 0.424146 0.138972
Si Si7 0.707686 0.423975 0.258477
Si Si8 0.340936 0.577558 0.279233
O O1 0.999497 0.750000 0.745432
O O2 0.854750 0.974674 0.773510
O O3 0.916992 0.987266 0.849390
O O4 0.183948 0.990698 0.625626
O O5 0.080664 0.750000 0.105697
O O6 0.854246 0.535065 0.201668
O O7 0.167800 0.543947 0.989834
O O8 0.716958 0.750000 0.797500
O O9 0.648845 0.492295 0.787693
O O10 0.952741 0.585105 0.620158
O O11 0.776264 0.250000 0.542305
O O12 0.802310 0.027884 0.595989
O O13 0.755914 0.972979 0.513244
O O14 0.714321 0.750000 0.465512
O O15 0.478441 0.954557 0.608741
O O16 0.627844 0.250000 0.159108
O O17 0.711127 0.438343 0.188979
O O18 0.524056 0.536789 0.209636
O O19 0.752785 0.250000 0.245549
O O20 0.307572 0.750000 0.289114
#
# Coordination Sequence:
#
# PCOD9167856 Si02
#       8
#     4   4   4   4   4   4   4   4
#     4  10  22  41  61  82 116 155 193 238 286 337
#     4  11  24  40  62  86 110 149 197 242 286 339
#     4   9  19  35  55  79 112 153 189 229 284 340
#     4   9  18  32  50  80 119 154 187 226 282 339
#     4  10  19  33  58  88 117 152 189 230 283 340
#     4  10  22  41  60  84 118 152 190 236 287 340
#     4  10  21  38  61  88 118 150 185 231 291 347
#     4  11  21  32  54  87 117 149 190 235 283 339
#
# _framework density 19.753086
#
# number of rings (size 3 to 8) (size 9 to 14) (size 15 to 20)
#    0.000    2.000    1.250    3.000    0.000    6.000 
#    0.000    0.625    0.000    0.000    0.000    0.000 
#    0.000    0.000    0.000    0.000    0.000    0.000 
#
# Total GULP energy -178218.600559 kJ/mol
# GULP energy per Si atom -5569.331267 kJ/mol
# Density = 1.970813 g / cm^3
# Si number density = 19.753086 Si / 1000 Ang^3
#
#
#
# Elastic Constant Matrix: (Units=GPa)
#
#
# Indices 1 2 3 4 5 6 
#
# 1 29.8701 -0.5217 -14.9977 0.0000 12.9872 0.0000
# 2 -0.5217 -4.4265 -5.1481 0.0000 2.2661 0.0000
# 3 -14.9977 -5.1481 6.1054 0.0000 11.8346 0.0000
# 4 0.0000 0.0000 0.0000 25.8310 0.0000 3.1568
# 5 12.9872 2.2661 11.8346 0.0000 20.6074 0.0000
# 6 0.0000 0.0000 0.0000 3.1568 0.0000 20.5466
#
#
#
# Elastic Compliance Matrix: (Units=1/GPa)
#
#
# Indices 1 2 3 4 5 6 
#
# 1 -0.039809 0.148883 -0.095901 0.000000 0.063791 0.000000
# 2 0.148883 -0.538806 0.190557 0.000000 -0.144013 0.000000
# 3 -0.095901 0.190557 -0.109155 0.000000 0.102170 0.000000
# 4 0.000000 0.000000 0.000000 0.039454 0.000000 -0.006062
# 5 0.063791 -0.144013 0.102170 0.000000 -0.034515 0.000000
# 6 0.000000 0.000000 0.000000 -0.006062 0.000000 0.049601
#
#
# Mechanical properties :
#
#
# Convention : Reuss Voigt Hill
#
# Bulk Modulus (GPa) = -4.98278 -1.08734 -3.03506
# Shear Modulus (GPa) = -4.21158 16.87810 6.33326
#
# Velocity S-wave (km/s) = -1.46176 2.92628 1.79253
# Velocity P-wave (km/s) = 2.31883 3.29633 1.65662
#
# Compressibility (1/GPa) = -0.20069113
#
# Stress axis : x y z
#
# Youngs Moduli (GPa) = -25.12024 -1.85596 -9.16128
#
# Poissons Ratio (x) = 0.27632 -0.87857
# Poissons Ratio (y) = 3.73997 1.74575
# Poissons Ratio (z) = -2.40905 0.35367
#
# Static dielectric constant tensor:
#      x y z
#    x 1.731790 0.000000 -0.037750 
#    y 0.000000 1.695030 0.000000 
#    z -0.037750 0.000000 1.718450 
# 
# From -- ./inp_files/55546.got.cif
#   From: 2010.05.17/outbox.ucp.g08.bks.cvg/sg11_28_cif.got.tgz:55546.got - 2010.06.11 11:38:39.
