data_PCOD9167519
_publ_section_title
;
Structure prediction by ZEFSAII (Michael W. Deem and Ramdas Pophale) SiO2 
 PCOD9167519
Probable space group: P 21/M
;
_chemical_formula_sum "Si O2"
_cell_formula_units_Z 20
_cell_length_a 19.791012
_cell_length_b 8.166916
_cell_length_c 8.389702
_cell_angle_alpha 90.000000
_cell_angle_beta 37.705861
_cell_angle_gamma 90.000000
_cell_volume 829.365117
_symmetry_space_group_name_H-M "P 21/M"
_symmetry_group_IT_number 11
_symmetry_cell_setting 'monoclinic'
loop_
_space_group_symop_operation_xyz
x,y,z
-x,1/2+y,-z
-x,-y,-z
x,1/2-y,z
loop_
_atom_site_type_symbol
_atom_site_label
_atom_site_fract_x
_atom_site_fract_y
_atom_site_fract_z
Si Si1 0.488340 0.057457 0.844975
Si Si2 0.382663 0.436898 0.656835
Si Si3 0.881857 0.556606 0.155977
Si Si4 0.153754 0.932999 0.137224
Si Si5 0.761896 0.053506 0.696456
O O1 0.509816 0.250000 0.779334
O O2 0.359614 0.021723 0.042172
O O3 0.500000 0.000000 0.000000
O O4 0.585652 0.950334 0.585342
O O5 0.500000 0.500000 0.500000
O O6 0.355517 0.250000 0.750194
O O7 0.286267 0.561386 0.872573
O O8 0.869308 0.750000 0.187768
O O9 0.877578 0.512225 0.974570
O O10 0.798968 0.484736 0.446054
O O11 0.000000 0.500000 0.000000
O O12 0.107419 0.750000 0.226745
O O13 0.149613 0.001458 0.328629
O O14 0.754188 0.250000 0.725373
#
# Coordination Sequence:
#
# PCOD9167519 Si02
#       5
#     4   4   4   4   4
#     4  12  24  39  61  91 132 177 224 273 327 394
#     4  12  23  38  61  93 133 175 219 266 322 388
#     4  12  27  48  73 100 134 173 223 282 344 407
#     4  11  24  44  71 101 137 179 225 278 337 402
#     4  11  24  44  70  99 134 174 224 278 337 403
#
# _framework density 24.114830999999999
#
# number of rings (size 3 to 8) (size 9 to 14) (size 15 to 20)
#    0.000    0.400    2.000    7.800    0.000    3.200 
#    0.000    0.000    0.000    0.000    0.000    0.000 
#    0.000    0.000    0.000    0.000    0.000    0.000 
#
# Total GULP energy -111557.661860 kJ/mol
# GULP energy per Si atom -5577.883093 kJ/mol
# Density = 2.405995 g / cm^3
# Si number density = 24.114831 Si / 1000 Ang^3
#
#
#
# Elastic Constant Matrix: (Units=GPa)
#
#
# Indices 1 2 3 4 5 6 
#
# 1 142.9808 24.4955 3.4959 0.0000 28.4423 0.0000
# 2 24.4955 136.0292 2.2118 0.0000 6.2409 0.0000
# 3 3.4959 2.2118 66.7517 0.0000 6.6230 0.0000
# 4 0.0000 0.0000 0.0000 29.6858 0.0000 4.1044
# 5 28.4423 6.2409 6.6230 0.0000 39.2270 0.0000
# 6 0.0000 0.0000 0.0000 4.1044 0.0000 37.0716
#
#
#
# Elastic Compliance Matrix: (Units=1/GPa)
#
#
# Indices 1 2 3 4 5 6 
#
# 1 0.008377 -0.001241 0.000189 0.000000 -0.005909 0.000000
# 2 -0.001241 0.007590 -0.000159 0.000000 -0.000281 0.000000
# 3 0.000189 -0.000159 0.015243 0.000000 -0.002685 0.000000
# 4 0.000000 0.000000 0.000000 0.034210 0.000000 -0.003788
# 5 -0.005909 -0.000281 -0.002685 0.000000 0.030275 0.000000
# 6 0.000000 0.000000 0.000000 -0.003788 0.000000 0.027394
#
#
# Mechanical properties :
#
#
# Convention : Reuss Voigt Hill
#
# Bulk Modulus (GPa) = 34.73542 45.12980 39.93261
# Shear Modulus (GPa) = 37.00788 42.23410 39.62099
#
# Velocity S-wave (km/s) = 3.92171 4.18948 4.05781
# Velocity P-wave (km/s) = 5.91117 6.49288 6.20884
#
# Compressibility (1/GPa) = 0.02878905
#
# Stress axis : x y z
#
# Youngs Moduli (GPa) = 119.37154 131.74818 65.60527
#
# Poissons Ratio (x) = 0.16344 -0.01237
# Poissons Ratio (y) = 0.14808 0.01041
# Poissons Ratio (z) = -0.02251 0.02090
#
# Static dielectric constant tensor:
#      x y z
#    x 3.320570 0.000000 1.405530 
#    y 0.000000 1.774630 0.000000 
#    z 1.405530 0.000000 3.337270 
# 
# From -- ./inp_files/23907.got.cif
#   From: 2010.05.17/outbox.cif.g08.bks.cpg/sg11_12_cif.got.tgz:23907.got - 2010.06.03 12:22:45.
