data_PCOD9167950
_publ_section_title
;
Structure prediction by ZEFSAII (Michael W. Deem and Ramdas Pophale) SiO2 
 PCOD9167950
Probable space group: P 21/M
;
_chemical_formula_sum "Si O2"
_cell_formula_units_Z 32
_cell_length_a 27.000000
_cell_length_b 9.000000
_cell_length_c 21.000000
_cell_angle_alpha 90.000000
_cell_angle_beta 20.000000
_cell_angle_gamma 90.000000
_cell_volume 1745.328791
_symmetry_space_group_name_H-M "P 21/M"
_symmetry_group_IT_number 11
_symmetry_cell_setting 'monoclinic'
loop_
_space_group_symop_operation_xyz
x,y,z
-x,1/2+y,-z
-x,-y,-z
x,1/2-y,z
loop_
_atom_site_type_symbol
_atom_site_label
_atom_site_fract_x
_atom_site_fract_y
_atom_site_fract_z
Si Si1 0.994817 0.571294 0.311527
Si Si2 0.287084 0.072537 0.924411
Si Si3 0.744270 0.571458 0.525766
Si Si4 0.941134 0.927261 0.163643
Si Si5 0.412313 0.569084 0.901990
Si Si6 0.215552 0.921304 0.760129
Si Si7 0.898054 0.426863 0.675373
Si Si8 0.504611 0.424912 0.426333
O O1 0.009481 0.750000 0.284299
O O2 0.029829 0.540658 0.342968
O O3 0.837778 0.525031 0.474648
O O4 0.123710 0.488418 0.119381
O O5 0.289107 0.250000 0.924800
O O6 0.366156 0.003136 0.890896
O O7 0.376339 0.008691 0.758210
O O8 0.732200 0.750000 0.543070
O O9 0.851705 0.540377 0.336113
O O10 0.576498 0.520250 0.721980
O O11 0.914945 0.750000 0.180676
O O12 0.883177 0.042790 0.181435
O O13 0.115730 0.941969 0.943951
O O14 0.412065 0.750000 0.895908
O O15 0.273376 0.530033 0.114795
O O16 0.266456 0.750000 0.698133
O O17 0.345100 0.036143 0.594083
O O18 0.900619 0.250000 0.663446
O O19 0.000000 0.500000 0.500000
O O20 0.500000 0.500000 0.500000
O O21 0.531187 0.250000 0.395617
#
# Coordination Sequence:
#
# PCOD9167950 Si02
#       8
#     4   4   4   4   4   4   4   4
#     4   9  19  36  58  84 111 145 185 229 278 334
#     4  11  22  37  56  81 110 145 185 230 279 336
#     4   9  17  32  57  82 105 137 182 230 278 328
#     4   9  18  32  53  77 102 139 177 218 277 339
#     4   9  18  35  59  86 111 144 186 226 270 329
#     4  10  20  34  50  75 105 136 180 226 277 337
#     4   9  18  33  55  82 113 150 189 224 269 323
#     4  12  25  39  54  73 102 140 184 236 287 333
#
# _framework density 18.334654
#
# number of rings (size 3 to 8) (size 9 to 14) (size 15 to 20)
#    0.000    2.250    0.000    4.125    1.750    3.500 
#    0.000    1.875    0.000    0.000    0.000    0.000 
#    0.000    0.000    0.000    0.000    0.000    0.000 
#
# Total GULP energy -178282.195364 kJ/mol
# GULP energy per Si atom -5571.318605 kJ/mol
# Density = 1.829292 g / cm^3
# Si number density = 18.334654 Si / 1000 Ang^3
#
#
#
# Elastic Constant Matrix: (Units=GPa)
#
#
# Indices 1 2 3 4 5 6 
#
# 1 58.3674 22.6467 66.2500 0.0000 -5.6464 0.0000
# 2 22.6467 39.6431 34.2819 0.0000 4.8238 0.0000
# 3 66.2500 34.2819 138.6769 0.0000 8.0307 0.0000
# 4 0.0000 0.0000 0.0000 31.6107 0.0000 2.1220
# 5 -5.6464 4.8238 8.0307 0.0000 34.6259 0.0000
# 6 0.0000 0.0000 0.0000 2.1220 0.0000 20.0172
#
#
#
# Elastic Compliance Matrix: (Units=1/GPa)
#
#
# Indices 1 2 3 4 5 6 
#
# 1 0.044493 -0.010151 -0.019510 0.000000 0.013195 0.000000
# 2 -0.010151 0.034644 -0.003385 0.000000 -0.005697 0.000000
# 3 -0.019510 -0.003385 0.017764 0.000000 -0.006830 0.000000
# 4 0.000000 0.000000 0.000000 0.031862 0.000000 -0.003378
# 5 0.013195 -0.005697 -0.006830 0.000000 0.033409 0.000000
# 6 0.000000 0.000000 0.000000 -0.003378 0.000000 0.050315
#
#
# Mechanical properties :
#
#
# Convention : Reuss Voigt Hill
#
# Bulk Modulus (GPa) = 32.45831 53.67160 43.06496
# Shear Modulus (GPa) = 17.31000 24.81802 21.06401
#
# Velocity S-wave (km/s) = 3.07598 3.68314 3.39317
# Velocity P-wave (km/s) = 5.50974 6.88652 6.23624
#
# Compressibility (1/GPa) = 0.03080875
#
# Stress axis : x y z
#
# Youngs Moduli (GPa) = 22.47528 28.86473 56.29353
#
# Poissons Ratio (x) = 0.29301 1.09831
# Poissons Ratio (y) = 0.22815 0.19055
# Poissons Ratio (z) = 0.43850 0.09771
#
# Static dielectric constant tensor:
#      x y z
#    x 1.541910 0.000000 0.053170 
#    y 0.000000 1.597200 0.000000 
#    z 0.053170 0.000000 1.596160 
# 
# From -- ./inp_files/67084.got.cif
#   From: 2010.05.17/outbox.ucp.g08.bks.cvg/sg11_34_cif.got.tgz:67084.got - 2010.06.11 11:38:39.
