data_PCOD9167242
_publ_section_title
;
Structure prediction by ZEFSAII (Michael W. Deem and Ramdas Pophale) SiO2 
 PCOD9167242
Probable space group: P 21/M
;
_chemical_formula_sum "Si O2"
_cell_formula_units_Z 32
_cell_length_a 23.630111
_cell_length_b 9.101097
_cell_length_c 17.112479
_cell_angle_alpha 90.000000
_cell_angle_beta 31.091292
_cell_angle_gamma 90.000000
_cell_volume 1900.471429
_symmetry_space_group_name_H-M "P 21/M"
_symmetry_group_IT_number 11
_symmetry_cell_setting 'monoclinic'
loop_
_space_group_symop_operation_xyz
x,y,z
-x,1/2+y,-z
-x,-y,-z
x,1/2-y,z
loop_
_atom_site_type_symbol
_atom_site_label
_atom_site_fract_x
_atom_site_fract_y
_atom_site_fract_z
Si Si1 0.952114 0.576119 0.874385
Si Si2 0.387570 0.574700 0.658639
Si Si3 0.620953 0.925764 0.020203
Si Si4 0.190646 0.424640 0.805711
Si Si5 0.381070 0.574812 0.133493
Si Si6 0.829169 0.924216 0.352193
Si Si7 0.363376 0.925201 0.329072
Si Si8 0.726285 0.926162 0.061540
O O1 0.973276 0.750000 0.842944
O O2 0.064381 0.490161 0.731547
O O3 0.903212 0.547220 0.019041
O O4 0.852366 0.538442 0.933772
O O5 0.500000 0.500000 0.500000
O O6 0.396472 0.750000 0.649236
O O7 0.293888 0.520537 0.709814
O O8 0.348995 0.512597 0.788123
O O9 0.622272 0.750000 0.004864
O O10 0.492185 0.966624 0.184787
O O11 0.689099 0.957834 0.017593
O O12 0.666171 0.006833 0.889911
O O13 0.217665 0.250000 0.779986
O O14 0.160096 0.456730 0.752956
O O15 0.392288 0.750000 0.112741
O O16 0.327980 0.545198 0.280828
O O17 0.500000 0.500000 0.000000
O O18 0.825971 0.750000 0.365588
O O19 0.717861 0.993194 0.517000
O O20 0.356943 0.750000 0.349653
O O21 0.712960 0.750000 0.090739
#
# Coordination Sequence:
#
# PCOD9167242 Si02
#       8
#     4   4   4   4   4   4   4   4
#     4   9  18  35  55  71  99 138 173 211 257 309
#     4  11  22  34  50  72 102 139 172 210 256 303
#     4   9  18  33  55  80 106 134 166 206 253 311
#     4   9  20  37  52  72  99 132 174 217 260 305
#     4   9  17  31  51  75 104 137 169 204 250 306
#     4  11  22  33  51  77 104 131 171 223 259 299
#     4   9  19  33  49  75 107 137 167 200 253 313
#     4   9  19  36  55  77 103 134 172 211 254 307
#
# _framework density 16.837927000000001
#
# number of rings (size 3 to 8) (size 9 to 14) (size 15 to 20)
#    0.000    2.500    0.000    3.750    1.750    6.000 
#    0.000    0.000    0.000    0.750    0.000    0.000 
#    0.000    0.000    0.000    0.000    0.000    0.000 
#
# Total GULP energy -178413.724839 kJ/mol
# GULP energy per Si atom -5575.428901 kJ/mol
# Density = 1.679960 g / cm^3
# Si number density = 16.837927 Si / 1000 Ang^3
#
#
#
# Elastic Constant Matrix: (Units=GPa)
#
#
# Indices 1 2 3 4 5 6 
#
# 1 110.8211 36.6584 27.7389 0.0000 9.5326 0.0000
# 2 36.6584 35.5299 18.4938 0.0000 0.4713 0.0000
# 3 27.7389 18.4938 33.0345 0.0000 -1.9192 0.0000
# 4 0.0000 0.0000 0.0000 28.1984 0.0000 2.9022
# 5 9.5326 0.4713 -1.9192 0.0000 10.3120 0.0000
# 6 0.0000 0.0000 0.0000 2.9022 0.0000 26.5499
#
#
#
# Elastic Compliance Matrix: (Units=1/GPa)
#
#
# Indices 1 2 3 4 5 6 
#
# 1 0.016611 -0.012947 -0.007640 0.000000 -0.016186 0.000000
# 2 -0.012947 0.050184 -0.016843 0.000000 0.006540 0.000000
# 3 -0.007640 -0.016843 0.047080 0.000000 0.016595 0.000000
# 4 0.000000 0.000000 0.000000 0.035866 0.000000 -0.003921
# 5 -0.016186 0.006540 0.016595 0.000000 0.114726 0.000000
# 6 0.000000 0.000000 0.000000 -0.003921 0.000000 0.038093
#
#
# Mechanical properties :
#
#
# Convention : Reuss Voigt Hill
#
# Bulk Modulus (GPa) = 25.63159 38.35195 31.99177
# Shear Modulus (GPa) = 12.80654 19.44505 16.12580
#
# Velocity S-wave (km/s) = 2.76085 3.40197 3.09804
# Velocity P-wave (km/s) = 5.04169 6.18529 5.64254
#
# Compressibility (1/GPa) = 0.03901435
#
# Stress axis : x y z
#
# Youngs Moduli (GPa) = 60.20147 19.92680 21.24038
#
# Poissons Ratio (x) = 0.25799 0.16228
# Poissons Ratio (y) = 0.77942 0.35775
# Poissons Ratio (z) = 0.45996 0.33563
#
# Static dielectric constant tensor:
#      x y z
#    x 1.590550 0.000000 0.010360 
#    y 0.000000 1.559730 0.000000 
#    z 0.010360 0.000000 1.543970 
# 
# From -- ./inp_files/43797.got.cif
#   From: 2010.05.17/outbox.cif.g08.bks.cpg/sg11_22_cif.got.tgz:43797.got - 2010.06.03 12:22:45.
