data_PCOD9167774
_publ_section_title
;
Structure prediction by ZEFSAII (Michael W. Deem and Ramdas Pophale) SiO2 
 PCOD9167774
Probable space group: P 21/M
;
_chemical_formula_sum "Si O2"
_cell_formula_units_Z 28
_cell_length_a 15.000000
_cell_length_b 9.000000
_cell_length_c 18.000000
_cell_angle_alpha 90.000000
_cell_angle_beta 40.000000
_cell_angle_gamma 90.000000
_cell_volume 1561.973892
_symmetry_space_group_name_H-M "P 21/M"
_symmetry_group_IT_number 11
_symmetry_cell_setting 'monoclinic'
loop_
_space_group_symop_operation_xyz
x,y,z
-x,1/2+y,-z
-x,-y,-z
x,1/2-y,z
loop_
_atom_site_type_symbol
_atom_site_label
_atom_site_fract_x
_atom_site_fract_y
_atom_site_fract_z
Si Si1 0.575952 0.426711 0.881248
Si Si2 0.907441 0.926343 0.122753
Si Si3 0.408140 0.072290 0.285477
Si Si4 0.842121 0.429035 0.944563
Si Si5 0.867133 0.072571 0.764720
Si Si6 0.912723 0.930011 0.488839
Si Si7 0.658410 0.927942 0.192429
O O1 0.548667 0.250000 0.896197
O O2 0.543247 0.504313 0.824357
O O3 0.740069 0.450292 0.790033
O O4 0.500000 0.500000 0.000000
O O5 0.912096 0.750000 0.108276
O O6 0.749709 0.969797 0.206745
O O7 0.994890 0.954955 0.140820
O O8 0.000000 0.000000 0.000000
O O9 0.418296 0.250000 0.275655
O O10 0.248626 0.030230 0.402582
O O11 0.511255 0.006592 0.280753
O O12 0.814517 0.250000 0.968206
O O13 0.822067 0.485101 0.873898
O O14 0.748810 0.512644 0.064545
O O15 0.881611 0.250000 0.766529
O O16 0.008873 0.020440 0.636527
O O17 0.922177 0.750000 0.487333
O O18 0.000000 0.000000 0.500000
O O19 0.643572 0.750000 0.197329
#
# Coordination Sequence:
#
# PCOD9167774 Si02
#       7
#     4   4   4   4   4   4   4
#     4  11  21  33  50  73 104 133 160 197 246 299
#     4   8  15  27  46  72  99 129 161 195 241 296
#     4  11  22  34  50  71  96 130 171 209 246 293
#     4   9  16  30  52  76 102 129 160 200 247 302
#     4   9  18  32  51  72  95 125 160 201 247 292
#     4  10  20  36  54  71  92 124 170 213 249 292
#     4  10  19  31  48  73 104 133 163 201 247 298
#
# _framework density 17.926036
#
# number of rings (size 3 to 8) (size 9 to 14) (size 15 to 20)
#    0.000    2.286    1.429    2.143    0.000    2.286 
#    0.000    1.429    0.000    0.857    0.000    0.000 
#    0.000    0.000    0.000    0.000    0.000    0.857 
#
# Total GULP energy -155980.746613 kJ/mol
# GULP energy per Si atom -5570.740950 kJ/mol
# Density = 1.788524 g / cm^3
# Si number density = 17.926036 Si / 1000 Ang^3
#
#
#
# Elastic Constant Matrix: (Units=GPa)
#
#
# Indices 1 2 3 4 5 6 
#
# 1 61.0377 24.5617 -1.0173 0.0000 -25.8963 0.0000
# 2 24.5617 31.7693 12.2038 0.0000 -16.4140 0.0000
# 3 -1.0173 12.2038 56.2499 0.0000 -21.8864 0.0000
# 4 0.0000 0.0000 0.0000 17.6325 0.0000 -4.4748
# 5 -25.8963 -16.4140 -21.8864 0.0000 28.1397 0.0000
# 6 0.0000 0.0000 0.0000 -4.4748 0.0000 22.3621
#
#
#
# Elastic Compliance Matrix: (Units=1/GPa)
#
#
# Indices 1 2 3 4 5 6 
#
# 1 0.045419 -0.018737 0.024230 0.000000 0.049714 0.000000
# 2 -0.018737 0.052801 -0.009349 0.000000 0.006285 0.000000
# 3 0.024230 -0.009349 0.038428 0.000000 0.046733 0.000000
# 4 0.000000 0.000000 0.000000 0.059748 0.000000 0.011956
# 5 0.049714 0.006285 0.046733 0.000000 0.121302 0.000000
# 6 0.000000 0.000000 0.000000 0.011956 0.000000 0.047111
#
#
# Mechanical properties :
#
#
# Convention : Reuss Voigt Hill
#
# Bulk Modulus (GPa) = 7.75579 24.50593 16.13086
# Shear Modulus (GPa) = 12.03372 21.18077 16.60724
#
# Velocity S-wave (km/s) = 2.59375 3.44112 3.04704
# Velocity P-wave (km/s) = 3.64774 5.43035 4.62573
#
# Compressibility (1/GPa) = 0.12893596
#
# Stress axis : x y z
#
# Youngs Moduli (GPa) = 22.01718 18.93897 26.02280
#
# Poissons Ratio (x) = 0.35486 -0.63053
# Poissons Ratio (y) = 0.41253 0.24329
# Poissons Ratio (z) = -0.53347 0.17706
#
# Static dielectric constant tensor:
#      x y z
#    x 1.686760 0.000000 -0.021640 
#    y 0.000000 1.600070 0.000000 
#    z -0.021640 0.000000 1.609450 
# 
# From -- ./inp_files/37186.got.cif
#   From: 2010.05.17/outbox.ucp.g08.bks.cvg/sg11_19_cif.got.tgz:37186.got - 2010.06.11 11:38:39.
