data_PCOD9167282
_publ_section_title
;
Structure prediction by ZEFSAII (Michael W. Deem and Ramdas Pophale) SiO2 
 PCOD9167282
Probable space group: P 21/M
;
_chemical_formula_sum "Si O2"
_cell_formula_units_Z 32
_cell_length_a 18.481432
_cell_length_b 8.761615
_cell_length_c 11.694987
_cell_angle_alpha 90.000000
_cell_angle_beta 94.507186
_cell_angle_gamma 90.000000
_cell_volume 1887.879996
_symmetry_space_group_name_H-M "P 21/M"
_symmetry_group_IT_number 11
_symmetry_cell_setting 'monoclinic'
loop_
_space_group_symop_operation_xyz
x,y,z
-x,1/2+y,-z
-x,-y,-z
x,1/2-y,z
loop_
_atom_site_type_symbol
_atom_site_label
_atom_site_fract_x
_atom_site_fract_y
_atom_site_fract_z
Si Si1 0.059845 0.933642 0.367181
Si Si2 0.518271 0.431896 0.625633
Si Si3 0.614754 0.066257 0.251832
Si Si4 0.418577 0.433103 0.989172
Si Si5 0.649839 0.931521 0.773831
Si Si6 0.904106 0.569447 0.380582
Si Si7 0.756457 0.433069 0.409788
Si Si8 0.215662 0.566992 0.322882
O O1 0.061314 0.750000 0.391111
O O2 0.129790 0.965502 0.297934
O O3 0.977599 0.971812 0.320287
O O4 0.075835 0.021366 0.487114
O O5 0.500000 0.500000 0.500000
O O6 0.514699 0.250000 0.621849
O O7 0.459030 0.498208 0.705793
O O8 0.596934 0.484940 0.677915
O O9 0.610015 0.250000 0.250919
O O10 0.682117 0.018596 0.340212
O O11 0.621860 0.004212 0.124663
O O12 0.422613 0.250000 0.978824
O O13 0.500000 0.500000 0.000000
O O14 0.378393 0.470129 0.102823
O O15 0.642825 0.750000 0.758118
O O16 0.731146 0.984370 0.757470
O O17 0.893853 0.750000 0.371656
O O18 0.827310 0.489952 0.350424
O O19 0.758077 0.250000 0.410842
O O20 0.763198 0.480687 0.543868
O O21 0.225836 0.750000 0.316343
#
# Coordination Sequence:
#
# PCOD9167282 Si02
#       8
#     4   4   4   4   4   4   4   4
#     4   8  15  27  42  65  99 135 167 201 243 292
#     4  12  24  37  55  76 102 134 168 204 251 306
#     4  11  22  37  56  77 102 132 171 213 256 304
#     4  11  23  39  58  76  98 130 170 217 262 305
#     4  11  23  37  53  75 102 130 168 213 256 301
#     4   9  15  24  43  69  97 132 170 203 238 290
#     4   9  19  33  48  71 105 138 164 202 252 302
#     4   9  17  31  50  72 103 139 170 202 249 304
#
# _framework density 16.950230000000001
#
# number of rings (size 3 to 8) (size 9 to 14) (size 15 to 20)
#    0.000    2.000    1.250    4.125    0.000    6.000 
#    0.000    0.000    0.000    0.000    0.000    0.875 
#    0.000    0.000    0.000    0.000    0.000    0.000 
#
# Total GULP energy -178462.008421 kJ/mol
# GULP energy per Si atom -5576.937763 kJ/mol
# Density = 1.691165 g / cm^3
# Si number density = 16.950230 Si / 1000 Ang^3
#
#
#
# Elastic Constant Matrix: (Units=GPa)
#
#
# Indices 1 2 3 4 5 6 
#
# 1 92.8930 17.4515 11.7801 0.0000 -27.6022 0.0000
# 2 17.4515 38.8229 21.9647 0.0000 -12.7435 0.0000
# 3 11.7801 21.9647 54.3778 0.0000 -20.0927 0.0000
# 4 0.0000 0.0000 0.0000 22.9687 0.0000 -2.3809
# 5 -27.6022 -12.7435 -20.0927 0.0000 18.6326 0.0000
# 6 0.0000 0.0000 0.0000 -2.3809 0.0000 29.8607
#
#
#
# Elastic Compliance Matrix: (Units=1/GPa)
#
#
# Indices 1 2 3 4 5 6 
#
# 1 0.023939 -0.002642 0.013826 0.000000 0.048566 0.000000
# 2 -0.002642 0.035955 -0.010490 0.000000 0.009365 0.000000
# 3 0.013826 -0.010490 0.040810 0.000000 0.057315 0.000000
# 4 0.000000 0.000000 0.000000 0.043900 0.000000 0.003500
# 5 0.048566 0.009365 0.057315 0.000000 0.193825 0.000000
# 6 0.000000 0.000000 0.000000 0.003500 0.000000 0.033768
#
#
# Mechanical properties :
#
#
# Convention : Reuss Voigt Hill
#
# Bulk Modulus (GPa) = 9.79514 32.05404 20.92459
# Shear Modulus (GPa) = 12.35056 23.28554 17.81805
#
# Velocity S-wave (km/s) = 2.70226 3.71045 3.24574
# Velocity P-wave (km/s) = 3.94050 6.10805 5.13984
#
# Compressibility (1/GPa) = 0.10209143
#
# Stress axis : x y z
#
# Youngs Moduli (GPa) = 41.77328 27.81280 24.50373
#
# Poissons Ratio (x) = 0.07347 -0.33879
# Poissons Ratio (y) = 0.11035 0.25706
# Poissons Ratio (z) = -0.57756 0.29177
#
# Static dielectric constant tensor:
#      x y z
#    x 1.607160 0.000000 -0.017830 
#    y 0.000000 1.571240 0.000000 
#    z -0.017830 0.000000 1.563400 
# 
# From -- ./inp_files/40640.got.cif
#   From: 2010.05.17/outbox.cif.g08.bks.cpg/sg11_21_cif.got.tgz:40640.got - 2010.06.03 12:22:45.
