data_PCOD9167489
_publ_section_title
;
Structure prediction by ZEFSAII (Michael W. Deem and Ramdas Pophale) SiO2 
 PCOD9167489
Probable space group: P 21/M
;
_chemical_formula_sum "Si O2"
_cell_formula_units_Z 32
_cell_length_a 15.932169
_cell_length_b 18.835446
_cell_length_c 5.093342
_cell_angle_alpha 90.000000
_cell_angle_beta 87.891148
_cell_angle_gamma 90.000000
_cell_volume 1527.423306
_symmetry_space_group_name_H-M "P 21/M"
_symmetry_group_IT_number 11
_symmetry_cell_setting 'monoclinic'
loop_
_space_group_symop_operation_xyz
x,y,z
-x,1/2+y,-z
-x,-y,-z
x,1/2-y,z
loop_
_atom_site_type_symbol
_atom_site_label
_atom_site_fract_x
_atom_site_fract_y
_atom_site_fract_z
Si Si1 0.775320 0.036747 0.784671
Si Si2 0.372430 0.325642 0.110286
Si Si3 0.535879 0.169942 0.458982
Si Si4 0.972062 0.453567 0.755874
Si Si5 0.100719 0.166593 0.864900
Si Si6 0.797029 0.872373 0.641675
Si Si7 0.451561 0.052449 0.806385
Si Si8 0.332501 0.933997 0.683273
O O1 0.723944 0.076403 0.565178
O O2 0.872583 0.058818 0.780647
O O3 0.778567 0.954860 0.692323
O O4 0.726190 0.046863 0.063322
O O5 0.375097 0.250000 0.961484
O O6 0.452313 0.327635 0.292486
O O7 0.286727 0.330268 0.278452
O O8 0.381994 0.396261 0.940916
O O9 0.552940 0.250000 0.551554
O O10 0.514825 0.110292 0.678413
O O11 0.611673 0.136257 0.283984
O O12 0.022784 0.380572 0.779124
O O13 0.000000 0.500000 0.500000
O O14 0.000000 0.500000 0.000000
O O15 0.085440 0.250000 0.843938
O O16 0.174419 0.143910 0.655705
O O17 0.131015 0.148996 0.156491
O O18 0.398547 0.999167 0.629788
O O19 0.500000 0.000000 0.000000
#
# Coordination Sequence:
#
# PCOD9167489 Si02
#       8
#     4   4   4   4   4   4   4   4
#     4  12  24  43  70 105 131 172 230 284 330 404
#     4  11  24  39  61  96 135 178 222 277 343 412
#     4  11  26  45  64  92 134 187 234 286 346 400
#     4  12  23  44  71 101 132 173 224 271 331 404
#     4  12  25  44  67  99 139 176 214 268 343 413
#     4  12  24  42  66 101 139 173 214 273 338 416
#     4  12  23  41  65  95 129 179 234 289 337 401
#     4  12  25  43  69 100 136 179 231 285 339 394
#
# _framework density 20.950316999999998
#
# number of rings (size 3 to 8) (size 9 to 14) (size 15 to 20)
#    0.000    0.250    5.000    4.875    1.750    0.000 
#    0.000    1.250    0.000    0.000    0.000    0.000 
#    0.000    0.000    0.000    0.000    0.000    0.000 
#
# Total GULP energy -179048.462227 kJ/mol
# GULP energy per Si atom -5595.264445 kJ/mol
# Density = 2.090263 g / cm^3
# Si number density = 20.950317 Si / 1000 Ang^3
#
#
#
# Elastic Constant Matrix: (Units=GPa)
#
#
# Indices 1 2 3 4 5 6 
#
# 1 113.4263 38.0690 5.5001 0.0000 7.2456 0.0000
# 2 38.0690 108.6770 2.7234 0.0000 -9.8815 0.0000
# 3 5.5001 2.7234 64.6029 0.0000 -1.9541 0.0000
# 4 0.0000 0.0000 0.0000 13.9750 0.0000 -4.5159
# 5 7.2456 -9.8815 -1.9541 0.0000 33.8516 0.0000
# 6 0.0000 0.0000 0.0000 -4.5159 0.0000 4.1177
#
#
#
# Elastic Compliance Matrix: (Units=1/GPa)
#
#
# Indices 1 2 3 4 5 6 
#
# 1 0.010394 -0.003931 -0.000823 0.000000 -0.003420 0.000000
# 2 -0.003931 0.010946 -0.000005 0.000000 0.004036 0.000000
# 3 -0.000823 -0.000005 0.015582 0.000000 0.001074 0.000000
# 4 0.000000 0.000000 0.000000 0.110837 0.000000 0.121557
# 5 -0.003420 0.004036 0.001074 0.000000 0.031513 0.000000
# 6 0.000000 0.000000 0.000000 0.121557 0.000000 0.376170
#
#
# Mechanical properties :
#
#
# Convention : Reuss Voigt Hill
#
# Bulk Modulus (GPa) = 36.49020 42.14347 39.31683
# Shear Modulus (GPa) = 8.70938 26.41644 17.56291
#
# Velocity S-wave (km/s) = 2.04112 3.55478 2.89850
# Velocity P-wave (km/s) = 4.79690 6.08344 5.47807
#
# Compressibility (1/GPa) = 0.02740462
#
# Stress axis : x y z
#
# Youngs Moduli (GPa) = 96.20834 91.35900 64.17700
#
# Poissons Ratio (x) = 0.35916 0.05279
# Poissons Ratio (y) = 0.37823 0.00030
# Poissons Ratio (z) = 0.07915 0.00042
#
# Static dielectric constant tensor:
#      x y z
#    x 1.285580 0.000000 -0.313750 
#    y 0.000000 1.711290 0.000000 
#    z -0.313750 0.000000 1.595800 
# 
# From -- ./inp_files/6836.got.cif
#   From: 2010.05.17/outbox.cif.g08.bks.cpg/sg11_4_cif.got.tgz:6836.got - 2010.06.03 12:22:45.
