data_PCOD9167779
_publ_section_title
;
Structure prediction by ZEFSAII (Michael W. Deem and Ramdas Pophale) SiO2 
 PCOD9167779
Probable space group: P 21/M
;
_chemical_formula_sum "Si O2"
_cell_formula_units_Z 28
_cell_length_a 30.000000
_cell_length_b 9.000000
_cell_length_c 30.000000
_cell_angle_alpha 90.000000
_cell_angle_beta 170.000000
_cell_angle_gamma 90.000000
_cell_volume 1406.550239
_symmetry_space_group_name_H-M "P 21/M"
_symmetry_group_IT_number 11
_symmetry_cell_setting 'monoclinic'
loop_
_space_group_symop_operation_xyz
x,y,z
-x,1/2+y,-z
-x,-y,-z
x,1/2-y,z
loop_
_atom_site_type_symbol
_atom_site_label
_atom_site_fract_x
_atom_site_fract_y
_atom_site_fract_z
Si Si1 0.694204 0.078745 0.439575
Si Si2 0.818041 0.571346 0.652856
Si Si3 0.259046 0.931379 0.235253
Si Si4 0.768104 0.918697 0.080421
Si Si5 0.527180 0.079997 0.073739
Si Si6 0.300471 0.069227 0.178193
Si Si7 0.984835 0.078554 0.587919
O O1 0.618110 0.250000 0.378217
O O2 0.981169 0.090038 0.703163
O O3 0.733091 0.967419 0.518722
O O4 0.479568 0.027996 0.191762
O O5 0.822821 0.750000 0.664967
O O6 0.589459 0.486111 0.453205
O O7 0.089850 0.498288 0.935924
O O8 0.265448 0.750000 0.242812
O O9 0.500000 0.000000 0.500000
O O10 0.251072 0.994243 0.177248
O O11 0.000000 0.000000 0.000000
O O12 0.689458 0.750000 0.016913
O O13 0.893483 0.994896 0.247655
O O14 0.612352 0.250000 0.149877
O O15 0.737584 0.018684 0.316978
O O16 0.237575 0.081739 0.806617
O O17 0.500000 0.000000 0.000000
O O18 0.284109 0.250000 0.162550
O O19 0.911658 0.250000 0.528252
#
# Coordination Sequence:
#
# PCOD9167779 Si02
#       7
#     4   4   4   4   4   4   4
#     4  10  19  33  55  82 109 142 183 232 281 336
#     4  12  25  42  63  91 126 164 201 246 302 364
#     4  12  25  44  67  96 130 167 208 253 306 364
#     4   9  17  30  52  79 105 134 179 230 277 327
#     4  10  19  31  49  71  99 132 171 216 269 325
#     4  12  25  44  67  93 124 163 209 257 303 354
#     4   9  17  30  49  74 100 132 173 222 270 320
#
# _framework density 19.906860999999999
#
# number of rings (size 3 to 8) (size 9 to 14) (size 15 to 20)
#    0.000    1.429    0.000    6.857    0.000    4.571 
#    0.000    0.000    0.000    5.143    0.000    0.000 
#    0.000    0.000    0.000    0.000    0.000    0.000 
#
# Total GULP energy -156069.877715 kJ/mol
# GULP energy per Si atom -5573.924204 kJ/mol
# Density = 1.986155 g / cm^3
# Si number density = 19.906861 Si / 1000 Ang^3
#
#
#
# Elastic Constant Matrix: (Units=GPa)
#
#
# Indices 1 2 3 4 5 6 
#
# 1 46.9502 17.6889 -3.7498 0.0000 -10.2850 0.0000
# 2 17.6889 119.7668 21.1066 0.0000 -7.0517 0.0000
# 3 -3.7498 21.1066 127.7853 0.0000 -21.3224 0.0000
# 4 0.0000 0.0000 0.0000 28.8785 0.0000 -8.7418
# 5 -10.2850 -7.0517 -21.3224 0.0000 47.8773 0.0000
# 6 0.0000 0.0000 0.0000 -8.7418 0.0000 24.5248
#
#
#
# Elastic Compliance Matrix: (Units=1/GPa)
#
#
# Indices 1 2 3 4 5 6 
#
# 1 0.024078 -0.003620 0.002245 0.000000 0.005639 0.000000
# 2 -0.003620 0.009165 -0.001647 0.000000 -0.000161 0.000000
# 3 0.002245 -0.001647 0.008862 0.000000 0.004187 0.000000
# 4 0.000000 0.000000 0.000000 0.038816 0.000000 0.013836
# 5 0.005639 -0.000161 0.004187 0.000000 0.023939 0.000000
# 6 0.000000 0.000000 0.000000 0.013836 0.000000 0.045707
#
#
# Mechanical properties :
#
#
# Convention : Reuss Voigt Hill
#
# Bulk Modulus (GPa) = 27.72996 40.51040 34.12018
# Shear Modulus (GPa) = 29.65073 37.55322 33.60198
#
# Velocity S-wave (km/s) = 3.86356 4.34804 4.11294
# Velocity P-wave (km/s) = 5.81918 6.75288 6.30334
#
# Compressibility (1/GPa) = 0.03606208
#
# Stress axis : x y z
#
# Youngs Moduli (GPa) = 41.53225 109.11152 112.83984
#
# Poissons Ratio (x) = 0.39496 -0.25337
# Poissons Ratio (y) = 0.15034 0.18584
# Poissons Ratio (z) = -0.09326 0.17970
#
# Static dielectric constant tensor:
#      x y z
#    x 1.825060 0.000000 0.040370 
#    y 0.000000 1.687990 0.000000 
#    z 0.040370 0.000000 1.698050 
# 
# From -- ./inp_files/72524.got.cif
#   From: 2010.05.17/outbox.ucp.g08.bks.cvg/sg11_37_cif.got.tgz:72524.got - 2010.06.11 11:38:39.
