data_PCOD9167359
_publ_section_title
;
Structure prediction by ZEFSAII (Michael W. Deem and Ramdas Pophale) SiO2 
 PCOD9167359
Probable space group: P 21/M
;
_chemical_formula_sum "Si O2"
_cell_formula_units_Z 20
_cell_length_a 5.364550
_cell_length_b 20.365905
_cell_length_c 8.866028
_cell_angle_alpha 90.000000
_cell_angle_beta 112.919283
_cell_angle_gamma 90.000000
_cell_volume 892.177749
_symmetry_space_group_name_H-M "P 21/M"
_symmetry_group_IT_number 11
_symmetry_cell_setting 'monoclinic'
loop_
_space_group_symop_operation_xyz
x,y,z
-x,1/2+y,-z
-x,-y,-z
x,1/2-y,z
loop_
_atom_site_type_symbol
_atom_site_label
_atom_site_fract_x
_atom_site_fract_y
_atom_site_fract_z
Si Si1 0.479802 0.608768 0.126227
Si Si2 0.004482 0.966123 0.197475
Si Si3 0.313649 0.327172 0.528412
Si Si4 0.142594 0.894204 0.778615
Si Si5 0.340806 0.938578 0.532041
O O1 0.708751 0.563826 0.100774
O O2 0.634902 0.654889 0.283176
O O3 0.251843 0.568276 0.167158
O O4 0.309406 0.641105 0.949208
O O5 0.051811 0.949364 0.385992
O O6 0.017447 0.044637 0.183713
O O7 0.343661 0.250000 0.516160
O O8 0.539276 0.370415 0.497754
O O9 0.042799 0.350990 0.376118
O O10 0.334164 0.933599 0.708160
O O11 0.500000 0.000000 0.500000
#
# Coordination Sequence:
#
# PCOD9167359 Si02
#       5
#     4   4   4   4   4
#     4  11  26  42  70 103 142 178 231 287 351 417
#     4  11  22  42  67 108 142 175 219 296 349 412
#     4  11  26  46  66  97 140 188 235 291 355 422
#     4  12  23  41  73 100 137 181 232 284 355 422
#     4  11  22  42  73 102 141 182 235 292 351 415
#
# _framework density 22.417058000000001
#
# number of rings (size 3 to 8) (size 9 to 14) (size 15 to 20)
#    0.000    0.800    4.000    4.200    2.800    1.600 
#    0.000    0.000    0.000    0.000    0.000    0.000 
#    0.000    0.000    0.000    0.000    0.000    0.000 
#
# Total GULP energy -111615.491585 kJ/mol
# GULP energy per Si atom -5580.774579 kJ/mol
# Density = 2.236604 g / cm^3
# Si number density = 22.417058 Si / 1000 Ang^3
#
#
#
# Elastic Constant Matrix: (Units=GPa)
#
#
# Indices 1 2 3 4 5 6 
#
# 1 79.0004 31.5864 21.2858 0.0000 3.8165 0.0000
# 2 31.5864 145.2860 47.5024 0.0000 13.2715 0.0000
# 3 21.2858 47.5024 195.6520 0.0000 22.3390 0.0000
# 4 0.0000 0.0000 0.0000 16.1741 0.0000 1.2249
# 5 3.8165 13.2715 22.3390 0.0000 29.5247 0.0000
# 6 0.0000 0.0000 0.0000 1.2249 0.0000 18.9669
#
#
#
# Elastic Compliance Matrix: (Units=1/GPa)
#
#
# Indices 1 2 3 4 5 6 
#
# 1 0.013993 -0.002769 -0.000860 0.000000 0.000086 0.000000
# 2 -0.002769 0.008154 -0.001424 0.000000 -0.002230 0.000000
# 3 -0.000860 -0.001424 0.005981 0.000000 -0.003774 0.000000
# 4 0.000000 0.000000 0.000000 0.062131 0.000000 -0.004012
# 5 0.000086 -0.002230 -0.003774 0.000000 0.037717 0.000000
# 6 0.000000 0.000000 0.000000 -0.004012 0.000000 0.052983
#
#
# Mechanical properties :
#
#
# Convention : Reuss Voigt Hill
#
# Bulk Modulus (GPa) = 55.48509 68.96529 62.22519
# Shear Modulus (GPa) = 25.37143 34.23739 29.80441
#
# Velocity S-wave (km/s) = 3.36786 3.91230 3.65024
# Velocity P-wave (km/s) = 6.31889 7.15818 6.75159
#
# Compressibility (1/GPa) = 0.01802286
#
# Stress axis : x y z
#
# Youngs Moduli (GPa) = 71.46553 122.63589 167.18676
#
# Poissons Ratio (x) = 0.33956 0.14377
# Poissons Ratio (y) = 0.19788 0.23806
# Poissons Ratio (z) = 0.06146 0.17462
#
# Static dielectric constant tensor:
#      x y z
#    x 1.909610 0.000000 0.056070 
#    y 0.000000 1.780560 0.000000 
#    z 0.056070 0.000000 2.278430 
# 
# From -- ./inp_files/2153.got.cif
#   From: 2010.05.17/outbox.cif.g08.bks.cpg/sg11_2_cif.got.tgz:2153.got - 2010.06.03 12:22:45.
