data_PCOD9167823
_publ_section_title
;
Structure prediction by ZEFSAII (Michael W. Deem and Ramdas Pophale) SiO2 
 PCOD9167823
Probable space group: P 21/M
;
_chemical_formula_sum "Si O2"
_cell_formula_units_Z 32
_cell_length_a 15.000000
_cell_length_b 9.000000
_cell_length_c 12.000000
_cell_angle_alpha 90.000000
_cell_angle_beta 90.000000
_cell_angle_gamma 90.000000
_cell_volume 1620.000000
_symmetry_space_group_name_H-M "P 21/M"
_symmetry_group_IT_number 11
_symmetry_cell_setting 'monoclinic'
loop_
_space_group_symop_operation_xyz
x,y,z
-x,1/2+y,-z
-x,-y,-z
x,1/2-y,z
loop_
_atom_site_type_symbol
_atom_site_label
_atom_site_fract_x
_atom_site_fract_y
_atom_site_fract_z
Si Si1 0.452858 0.425299 0.674097
Si Si2 0.915370 0.926464 0.056669
Si Si3 0.252967 0.929064 0.064707
Si Si4 0.210510 0.579523 0.314373
Si Si5 0.903984 0.927064 0.510387
Si Si6 0.651001 0.426936 0.148390
Si Si7 0.378519 0.920019 0.473695
Si Si8 0.818847 0.928005 0.276088
O O1 0.450161 0.250000 0.690424
O O2 0.433710 0.505047 0.789691
O O3 0.545038 0.466081 0.613823
O O4 0.381439 0.475673 0.580704
O O5 0.919052 0.750000 0.042609
O O6 0.899837 0.955493 0.188438
O O7 0.830834 0.993172 0.992576
O O8 0.000000 0.000000 0.000000
O O9 0.243819 0.750000 0.058528
O O10 0.250452 0.967943 0.195097
O O11 0.334387 0.967580 0.981506
O O12 0.177383 0.750000 0.302070
O O13 0.137181 0.477789 0.371967
O O14 0.288751 0.579856 0.404989
O O15 0.910219 0.750000 0.505720
O O16 0.845713 0.973520 0.401141
O O17 0.000000 0.000000 0.500000
O O18 0.649925 0.250000 0.157986
O O19 0.735178 0.489957 0.219243
O O20 0.398146 0.750000 0.510283
O O21 0.800844 0.750000 0.275476
#
# Coordination Sequence:
#
# PCOD9167823 Si02
#       8
#     4   4   4   4   4   4   4   4
#     4  10  19  32  54  83 115 143 176 224 271 317
#     4  10  20  34  54  78 103 134 174 221 269 317
#     4   9  20  37  55  76 104 142 182 222 271 320
#     4  10  21  39  59  77 107 145 181 224 271 321
#     4  11  24  39  55  79 107 140 178 218 268 324
#     4  10  19  33  55  81 107 139 180 222 266 319
#     4   9  19  35  56  83 110 145 184 218 266 324
#     4   9  20  37  54  74 104 137 173 218 267 316
#
# _framework density 19.753086
#
# number of rings (size 3 to 8) (size 9 to 14) (size 15 to 20)
#    0.000    2.250    0.000    2.250    1.750    5.500 
#    0.000    0.625    0.000    0.000    0.000    0.000 
#    0.000    0.000    0.000    0.000    0.000    0.000 
#
# Total GULP energy -178480.966661 kJ/mol
# GULP energy per Si atom -5577.530208 kJ/mol
# Density = 1.970813 g / cm^3
# Si number density = 19.753086 Si / 1000 Ang^3
#
#
#
# Elastic Constant Matrix: (Units=GPa)
#
#
# Indices 1 2 3 4 5 6 
#
# 1 30.8709 11.4977 13.9747 0.0000 -23.1790 0.0000
# 2 11.4977 15.1091 34.2574 0.0000 -14.9049 0.0000
# 3 13.9747 34.2574 108.9845 0.0000 -34.0619 0.0000
# 4 0.0000 0.0000 0.0000 31.1966 0.0000 -7.7195
# 5 -23.1790 -14.9049 -34.0619 0.0000 33.2259 0.0000
# 6 0.0000 0.0000 0.0000 -7.7195 0.0000 20.3100
#
#
#
# Elastic Compliance Matrix: (Units=1/GPa)
#
#
# Indices 1 2 3 4 5 6 
#
# 1 0.102543 -0.103902 0.040173 0.000000 0.066110 0.000000
# 2 -0.103902 0.386148 -0.112671 0.000000 -0.014767 0.000000
# 3 0.040173 -0.112671 0.047679 0.000000 0.026361 0.000000
# 4 0.000000 0.000000 0.000000 0.035383 0.000000 0.013448
# 5 0.066110 -0.014767 0.026361 0.000000 0.096616 0.000000
# 6 0.000000 0.000000 0.000000 0.013448 0.000000 0.054348
#
#
# Mechanical properties :
#
#
# Convention : Reuss Voigt Hill
#
# Bulk Modulus (GPa) = 5.44751 30.49158 17.96955
# Shear Modulus (GPa) = 4.39867 23.29548 13.84707
#
# Velocity S-wave (km/s) = 1.49387 3.43787 2.65053
# Velocity P-wave (km/s) = 2.39569 5.58824 4.29929
#
# Compressibility (1/GPa) = 0.18357009
#
# Stress axis : x y z
#
# Youngs Moduli (GPa) = 9.75204 2.58968 20.97344
#
# Poissons Ratio (x) = 0.26907 -0.84256
# Poissons Ratio (y) = 1.01325 2.36310
# Poissons Ratio (z) = -0.39177 0.29178
#
# Static dielectric constant tensor:
#      x y z
#    x 1.725000 0.000000 -0.033710 
#    y 0.000000 1.670760 0.000000 
#    z -0.033710 0.000000 1.699780 
# 
# From -- ./inp_files/38131.got.cif
#   From: 2010.05.17/outbox.ucp.g08.bks.cvg/sg11_20_cif.got.tgz:38131.got - 2010.06.11 11:38:39.
