data_PCOD9167264
_publ_section_title
;
Structure prediction by ZEFSAII (Michael W. Deem and Ramdas Pophale) SiO2 
 PCOD9167264
Probable space group: P 21/M
;
_chemical_formula_sum "Si O2"
_cell_formula_units_Z 28
_cell_length_a 12.070505
_cell_length_b 8.702405
_cell_length_c 15.314368
_cell_angle_alpha 90.000000
_cell_angle_beta 118.508218
_cell_angle_gamma 90.000000
_cell_volume 1413.606352
_symmetry_space_group_name_H-M "P 21/M"
_symmetry_group_IT_number 11
_symmetry_cell_setting 'monoclinic'
loop_
_space_group_symop_operation_xyz
x,y,z
-x,1/2+y,-z
-x,-y,-z
x,1/2-y,z
loop_
_atom_site_type_symbol
_atom_site_label
_atom_site_fract_x
_atom_site_fract_y
_atom_site_fract_z
Si Si1 0.034420 0.931127 0.291624
Si Si2 0.624821 0.565686 0.302821
Si Si3 0.122933 0.067205 0.496094
Si Si4 0.359935 0.071528 0.194478
Si Si5 0.626201 0.928064 0.008828
Si Si6 0.773932 0.070356 0.205118
Si Si7 0.083183 0.934224 0.111684
O O1 0.058103 0.750000 0.302515
O O2 0.040206 0.983661 0.193085
O O3 0.122122 0.013089 0.395288
O O4 0.894593 0.969296 0.272608
O O5 0.620780 0.750000 0.290435
O O6 0.743434 0.525157 0.409399
O O7 0.487195 0.506006 0.279195
O O8 0.661775 0.483524 0.225915
O O9 0.110695 0.250000 0.495466
O O10 0.000000 0.000000 0.500000
O O11 0.352129 0.250000 0.218703
O O12 0.228767 0.986168 0.162641
O O13 0.373101 0.067476 0.094480
O O14 0.640101 0.750000 0.041695
O O15 0.736005 0.028957 0.092459
O O16 0.500000 0.000000 0.000000
O O17 0.799024 0.250000 0.225727
O O18 0.073000 0.750000 0.103144
O O19 0.000000 0.000000 0.000000
#
# Coordination Sequence:
#
# PCOD9167264 Si02
#       7
#     4   4   4   4   4   4   4
#     4  11  24  42  64  92 126 166 214 266 319 379
#     4  11  23  39  61  90 127 165 205 257 317 379
#     4  11  23  39  64  96 130 169 212 263 322 384
#     4  11  24  41  63  91 125 166 213 263 320 381
#     4  11  22  35  54  84 122 160 202 253 311 380
#     4  12  23  35  57  89 124 164 207 255 317 381
#     4  11  25  45  69  95 127 169 217 266 319 380
#
# _framework density 19.807493000000001
#
# number of rings (size 3 to 8) (size 9 to 14) (size 15 to 20)
#    0.000    0.857    2.857    4.714    0.000    9.143 
#    0.000    0.714    0.000    0.000    0.000    0.000 
#    0.000    0.000    0.000    0.000    0.000    0.000 
#
# Total GULP energy -156436.611938 kJ/mol
# GULP energy per Si atom -5587.021855 kJ/mol
# Density = 1.976241 g / cm^3
# Si number density = 19.807493 Si / 1000 Ang^3
#
#
#
# Elastic Constant Matrix: (Units=GPa)
#
#
# Indices 1 2 3 4 5 6 
#
# 1 93.7325 16.2993 39.8340 0.0000 13.3903 0.0000
# 2 16.2993 53.5845 36.6512 0.0000 -0.4246 0.0000
# 3 39.8340 36.6512 133.9611 0.0000 17.1031 0.0000
# 4 0.0000 0.0000 0.0000 32.8625 0.0000 2.2729
# 5 13.3903 -0.4246 17.1031 0.0000 31.9380 0.0000
# 6 0.0000 0.0000 0.0000 2.2729 0.0000 27.0682
#
#
#
# Elastic Compliance Matrix: (Units=1/GPa)
#
#
# Indices 1 2 3 4 5 6 
#
# 1 0.012742 -0.002038 -0.002733 0.000000 -0.003906 0.000000
# 2 -0.002038 0.023755 -0.006486 0.000000 0.004644 0.000000
# 3 -0.002733 -0.006486 0.010645 0.000000 -0.004641 0.000000
# 4 0.000000 0.000000 0.000000 0.030608 0.000000 -0.002570
# 5 -0.003906 0.004644 -0.004641 0.000000 0.035495 0.000000
# 6 0.000000 0.000000 0.000000 -0.002570 0.000000 0.037160
#
#
# Mechanical properties :
#
#
# Convention : Reuss Voigt Hill
#
# Bulk Modulus (GPa) = 40.60314 51.87192 46.23753
# Shear Modulus (GPa) = 27.60482 30.93997 29.27240
#
# Velocity S-wave (km/s) = 3.73722 3.95655 3.84844
# Velocity P-wave (km/s) = 6.25826 6.86420 6.56822
#
# Compressibility (1/GPa) = 0.02462864
#
# Stress axis : x y z
#
# Youngs Moduli (GPa) = 78.47833 42.09587 93.94443
#
# Poissons Ratio (x) = 0.08578 0.25673
# Poissons Ratio (y) = 0.15992 0.60935
# Poissons Ratio (z) = 0.21447 0.27305
#
# Static dielectric constant tensor:
#      x y z
#    x 1.693750 0.000000 0.000370 
#    y 0.000000 1.671920 0.000000 
#    z 0.000370 0.000000 1.736110 
# 
# From -- ./inp_files/38425.got.cif
#   From: 2010.05.17/outbox.cif.g08.bks.cpg/sg11_20_cif.got.tgz:38425.got - 2010.06.03 12:22:45.
