data_PCOD9167196
_publ_section_title
;
Structure prediction by ZEFSAII (Michael W. Deem and Ramdas Pophale) SiO2 
 PCOD9167196
Probable space group: P 21/M
;
_chemical_formula_sum "Si O2"
_cell_formula_units_Z 32
_cell_length_a 9.223578
_cell_length_b 19.245678
_cell_length_c 15.496335
_cell_angle_alpha 90.000000
_cell_angle_beta 143.354325
_cell_angle_gamma 90.000000
_cell_volume 1641.865255
_symmetry_space_group_name_H-M "P 21/M"
_symmetry_group_IT_number 11
_symmetry_cell_setting 'monoclinic'
loop_
_space_group_symop_operation_xyz
x,y,z
-x,1/2+y,-z
-x,-y,-z
x,1/2-y,z
loop_
_atom_site_type_symbol
_atom_site_label
_atom_site_fract_x
_atom_site_fract_y
_atom_site_fract_z
Si Si1 0.448875 0.169456 0.171235
Si Si2 0.483211 0.558664 0.303430
Si Si3 0.752561 0.331789 0.141946
Si Si4 0.042880 0.450243 0.726916
Si Si5 0.632646 0.094356 0.419147
Si Si6 0.917539 0.936237 0.066898
Si Si7 0.551307 0.435701 0.902091
Si Si8 0.744938 0.906938 0.602236
O O1 0.381277 0.250000 0.136319
O O2 0.613386 0.153727 0.165684
O O3 0.589119 0.151112 0.325715
O O4 0.215669 0.119441 0.056044
O O5 0.595188 0.481171 0.357172
O O6 0.515971 0.591928 0.225151
O O7 0.599835 0.595985 0.442313
O O8 0.194882 0.551164 0.176575
O O9 0.730223 0.250000 0.113261
O O10 0.034315 0.353264 0.286345
O O11 0.638607 0.377884 0.011006
O O12 0.080419 0.409737 0.833648
O O13 0.307489 0.471897 0.821194
O O14 0.898087 0.405894 0.587895
O O15 0.873520 0.516983 0.665371
O O16 0.439041 0.099020 0.405306
O O17 0.761446 0.006806 0.992852
#
# Coordination Sequence:
#
# PCOD9167196 Si02
#       8
#     4   4   4   4   4   4   4   4
#     4  11  26  43  63  90 125 168 210 253 313 379
#     4  11  23  37  64  99 126 157 204 264 310 359
#     4  11  25  44  62  87 128 168 205 257 316 377
#     4  11  21  37  66  94 125 158 206 260 307 363
#     4  11  22  40  62  94 127 161 204 258 312 370
#     4  12  20  41  63  94 130 161 205 263 311 359
#     4  12  23  37  65  99 123 165 210 256 314 370
#     4  11  22  40  62  93 128 161 204 256 313 369
#
# _framework density 19.490027999999999
#
# number of rings (size 3 to 8) (size 9 to 14) (size 15 to 20)
#    0.000    0.750    6.250    2.250    3.500    1.500 
#    0.000    2.500    0.000    0.000    0.000    0.000 
#    0.000    0.000    0.000    0.000    0.000    0.000 
#
# Total GULP energy -178852.896771 kJ/mol
# GULP energy per Si atom -5589.153024 kJ/mol
# Density = 1.944567 g / cm^3
# Si number density = 19.490028 Si / 1000 Ang^3
#
#
#
# Elastic Constant Matrix: (Units=GPa)
#
#
# Indices 1 2 3 4 5 6 
#
# 1 77.2242 12.7980 38.1976 0.0000 -11.6060 0.0000
# 2 12.7980 60.7698 26.2509 0.0000 -10.1472 0.0000
# 3 38.1976 26.2509 118.9138 0.0000 -14.5966 0.0000
# 4 0.0000 0.0000 0.0000 23.8012 0.0000 -3.7023
# 5 -11.6060 -10.1472 -14.5966 0.0000 39.7809 0.0000
# 6 0.0000 0.0000 0.0000 -3.7023 0.0000 6.7880
#
#
#
# Elastic Compliance Matrix: (Units=1/GPa)
#
#
# Indices 1 2 3 4 5 6 
#
# 1 0.015744 -0.000910 -0.004525 0.000000 0.002701 0.000000
# 2 -0.000910 0.018670 -0.003432 0.000000 0.003238 0.000000
# 3 -0.004525 -0.003432 0.010839 0.000000 0.001782 0.000000
# 4 0.000000 0.000000 0.000000 0.045910 0.000000 0.025040
# 5 0.002701 0.003238 0.001782 0.000000 0.027405 0.000000
# 6 0.000000 0.000000 0.000000 0.025040 0.000000 0.160976
#
#
# Mechanical properties :
#
#
# Convention : Reuss Voigt Hill
#
# Bulk Modulus (GPa) = 36.33704 45.71118 41.02411
# Shear Modulus (GPa) = 16.31576 26.05142 21.18359
#
# Velocity S-wave (km/s) = 2.89647 3.65999 3.30038
# Velocity P-wave (km/s) = 5.46538 6.43158 5.96807
#
# Compressibility (1/GPa) = 0.02752013
#
# Stress axis : x y z
#
# Youngs Moduli (GPa) = 63.51531 53.56109 92.25724
#
# Poissons Ratio (x) = 0.04874 0.41746
# Poissons Ratio (y) = 0.05780 0.31661
# Poissons Ratio (z) = 0.28740 0.18381
#
# Static dielectric constant tensor:
#      x y z
#    x 1.723380 0.000000 -0.026310 
#    y 0.000000 1.655560 0.000000 
#    z -0.026310 0.000000 1.699050 
# 
# From -- ./inp_files/48271.got.cif
#   From: 2010.05.17/outbox.cif.g08.bks.cpg/sg11_25_cif.got.tgz:48271.got - 2010.06.03 12:22:45.
