data_PCOD9167175
_publ_section_title
;
Structure prediction by ZEFSAII (Michael W. Deem and Ramdas Pophale) SiO2 
 PCOD9167175
Probable space group: P 21/M
;
_chemical_formula_sum "Si O2"
_cell_formula_units_Z 24
_cell_length_a 9.815471
_cell_length_b 8.626120
_cell_length_c 20.245584
_cell_angle_alpha 90.000000
_cell_angle_beta 49.864313
_cell_angle_gamma 90.000000
_cell_volume 1310.526574
_symmetry_space_group_name_H-M "P 21/M"
_symmetry_group_IT_number 11
_symmetry_cell_setting 'monoclinic'
loop_
_space_group_symop_operation_xyz
x,y,z
-x,1/2+y,-z
-x,-y,-z
x,1/2-y,z
loop_
_atom_site_type_symbol
_atom_site_label
_atom_site_fract_x
_atom_site_fract_y
_atom_site_fract_z
Si Si1 0.847500 0.064470 0.595107
Si Si2 0.141198 0.435054 0.260879
Si Si3 0.108574 0.435730 0.772969
Si Si4 0.524232 0.564936 0.134674
Si Si5 0.463074 0.564685 0.721107
Si Si6 0.885055 0.435280 0.974833
O O1 0.841304 0.250000 0.594981
O O2 0.880725 0.008461 0.659715
O O3 0.654277 0.995639 0.636869
O O4 0.000000 0.000000 0.500000
O O5 0.142371 0.250000 0.265876
O O6 0.334257 0.492681 0.174859
O O7 0.988690 0.493187 0.259724
O O8 0.121604 0.250000 0.762868
O O9 0.301729 0.507223 0.726466
O O10 0.987663 0.470888 0.875119
O O11 0.511704 0.750000 0.138388
O O12 0.561976 0.507281 0.197782
O O13 0.689180 0.508539 0.039475
O O14 0.464355 0.750000 0.726198
O O15 0.871059 0.250000 0.985840
O O16 0.000000 0.500000 0.000000
#
# Coordination Sequence:
#
# PCOD9167175 Si02
#       6
#     4   4   4   4   4   4
#     4  11  22  41  67  93 120 151 191 236 287 350
#     4  11  23  40  61  87 119 155 195 242 297 351
#     4  11  23  39  58  85 120 159 197 243 299 348
#     4  11  21  36  57  82 115 157 202 247 293 344
#     4  11  21  36  60  88 118 154 197 240 290 348
#     4  11  22  35  56  83 116 155 204 250 293 344
#
# _framework density 18.31325
#
# number of rings (size 3 to 8) (size 9 to 14) (size 15 to 20)
#    0.000    1.000    1.667    9.000    0.000    2.667 
#    0.000    0.833    0.000    0.000    0.000    0.000 
#    0.000    0.000    0.000    0.000    0.000    0.000 
#
# Total GULP energy -134248.439929 kJ/mol
# GULP energy per Si atom -5593.684997 kJ/mol
# Density = 1.827157 g / cm^3
# Si number density = 18.313250 Si / 1000 Ang^3
#
#
#
# Elastic Constant Matrix: (Units=GPa)
#
#
# Indices 1 2 3 4 5 6 
#
# 1 143.1925 46.5990 49.6432 0.0000 -21.3411 0.0000
# 2 46.5990 131.3740 52.0294 0.0000 -8.9790 0.0000
# 3 49.6432 52.0294 109.3363 0.0000 -25.3960 0.0000
# 4 0.0000 0.0000 0.0000 30.5292 0.0000 -4.2066
# 5 -21.3411 -8.9790 -25.3960 0.0000 20.8076 0.0000
# 6 0.0000 0.0000 0.0000 -4.2066 0.0000 34.1115
#
#
#
# Elastic Compliance Matrix: (Units=1/GPa)
#
#
# Indices 1 2 3 4 5 6 
#
# 1 0.009234 -0.002180 -0.001638 0.000000 0.006531 0.000000
# 2 -0.002180 0.009952 -0.004561 0.000000 -0.003508 0.000000
# 3 -0.001638 -0.004561 0.015649 0.000000 0.015452 0.000000
# 4 0.000000 0.000000 0.000000 0.033322 0.000000 0.004109
# 5 0.006531 -0.003508 0.015452 0.000000 0.072103 0.000000
# 6 0.000000 0.000000 0.000000 0.004109 0.000000 0.029822
#
#
# Mechanical properties :
#
#
# Convention : Reuss Voigt Hill
#
# Bulk Modulus (GPa) = 55.31923 75.60513 65.46218
# Shear Modulus (GPa) = 25.92472 32.79840 29.36156
#
# Velocity S-wave (km/s) = 3.76656 4.23657 4.00846
# Velocity P-wave (km/s) = 7.01347 8.08118 7.56618
#
# Compressibility (1/GPa) = 0.01807690
#
# Stress axis : x y z
#
# Youngs Moduli (GPa) = 108.29000 100.48633 63.90098
#
# Poissons Ratio (x) = 0.21909 0.10470
# Poissons Ratio (y) = 0.23610 0.29142
# Poissons Ratio (z) = 0.17742 0.45827
#
# Static dielectric constant tensor:
#      x y z
#    x 1.615550 0.000000 -0.010280 
#    y 0.000000 1.607580 0.000000 
#    z -0.010280 0.000000 1.615800 
# 
# From -- ./inp_files/63162.got.cif
#   From: 2010.05.17/outbox.cif.g08.bks.cpg/sg11_32_cif.got.tgz:63162.got - 2010.06.03 12:22:45.
