data_PCOD9167580
_publ_section_title
;
Structure prediction by ZEFSAII (Michael W. Deem and Ramdas Pophale) SiO2 
 PCOD9167580
Probable space group: P 21/M
;
_chemical_formula_sum "Si O2"
_cell_formula_units_Z 20
_cell_length_a 4.828488
_cell_length_b 20.163018
_cell_length_c 9.804667
_cell_angle_alpha 90.000000
_cell_angle_beta 65.370889
_cell_angle_gamma 90.000000
_cell_volume 867.711043
_symmetry_space_group_name_H-M "P 21/M"
_symmetry_group_IT_number 11
_symmetry_cell_setting 'monoclinic'
loop_
_space_group_symop_operation_xyz
x,y,z
-x,1/2+y,-z
-x,-y,-z
x,1/2-y,z
loop_
_atom_site_type_symbol
_atom_site_label
_atom_site_fract_x
_atom_site_fract_y
_atom_site_fract_z
Si Si1 0.422957 0.385356 0.968634
Si Si2 0.490478 0.116798 0.452752
Si Si3 0.901561 0.750000 0.917191
Si Si4 0.093929 0.420655 0.780043
Si Si5 0.142310 0.057108 0.296676
Si Si6 0.576693 0.750000 0.707344
O O1 0.255714 0.315095 0.991189
O O2 0.345954 0.412826 0.133699
O O3 0.781964 0.381403 0.872227
O O4 0.268182 0.432161 0.886440
O O5 0.425032 0.184510 0.384869
O O6 0.327214 0.115951 0.631540
O O7 0.342509 0.057967 0.391644
O O8 0.151744 0.897220 0.614193
O O9 0.263553 0.750000 0.858876
O O10 0.840186 0.750000 0.766157
O O11 0.981794 0.487415 0.730110
#
# Coordination Sequence:
#
# PCOD9167580 Si02
#       6
#     4   4   2   4   4   2
#     4  12  24  43  67  97 130 178 214 274 325 386
#     4  12  24  42  69  96 131 178 218 272 324 384
#     4  12  24  44  70  90 132 170 230 264 322 400
#     4  12  26  42  66 104 138 163 219 277 334 378
#     4  12  23  45  68  97 133 182 217 260 324 406
#     4  12  22  44  66  94 124 172 230 266 312 404
#
# _framework density 23.049147000000001
#
# number of rings (size 3 to 8) (size 9 to 14) (size 15 to 20)
#    0.000    0.000    4.000    7.200    0.000    1.600 
#    0.000    0.000    0.000    0.000    0.000    0.000 
#    0.000    0.000    0.000    0.000    0.000    0.000 
#
# Total GULP energy -112165.179928 kJ/mol
# GULP energy per Si atom -5608.258996 kJ/mol
# Density = 2.299669 g / cm^3
# Si number density = 23.049147 Si / 1000 Ang^3
#
#
#
# Elastic Constant Matrix: (Units=GPa)
#
#
# Indices 1 2 3 4 5 6 
#
# 1 88.4276 -14.1698 37.2470 0.0000 -3.2754 0.0000
# 2 -14.1698 64.5313 4.3466 0.0000 -20.4687 0.0000
# 3 37.2470 4.3466 133.1325 0.0000 -33.2211 0.0000
# 4 0.0000 0.0000 0.0000 11.7136 0.0000 5.1302
# 5 -3.2754 -20.4687 -33.2211 0.0000 28.2045 0.0000
# 6 0.0000 0.0000 0.0000 5.1302 0.0000 9.1676
#
#
#
# Elastic Compliance Matrix: (Units=1/GPa)
#
#
# Indices 1 2 3 4 5 6 
#
# 1 0.013478 0.002821 -0.004194 0.000000 -0.001328 0.000000
# 2 0.002821 0.022558 0.003741 0.000000 0.021104 0.000000
# 3 -0.004194 0.003741 0.012914 0.000000 0.017439 0.000000
# 4 0.000000 0.000000 0.000000 0.113087 0.000000 -0.063284
# 5 -0.001328 0.021104 0.017439 0.000000 0.071157 0.000000
# 6 0.000000 0.000000 0.000000 -0.063284 0.000000 0.144494
#
#
# Mechanical properties :
#
#
# Convention : Reuss Voigt Hill
#
# Bulk Modulus (GPa) = 18.62736 37.88212 28.25474
# Shear Modulus (GPa) = 12.79265 27.06165 19.92715
#
# Velocity S-wave (km/s) = 2.35843 3.43021 2.94351
# Velocity P-wave (km/s) = 3.93896 5.67093 4.88236
#
# Compressibility (1/GPa) = 0.05368448
#
# Stress axis : x y z
#
# Youngs Moduli (GPa) = 74.19375 44.33034 77.43414
#
# Poissons Ratio (x) = -0.12505 0.32478
# Poissons Ratio (y) = -0.20929 -0.28965
# Poissons Ratio (z) = 0.31119 -0.16582
#
# Static dielectric constant tensor:
#      x y z
#    x 1.821570 0.000000 0.002500 
#    y 0.000000 1.887250 0.000000 
#    z 0.002500 0.000000 1.832870 
# 
# From -- ./inp_files/10246.got.cif
#   From: 2010.05.17/outbox.cif.g08.bks.cpg/sg11_6_cif.got.tgz:10246.got - 2010.06.03 12:22:45.
