data_PCOD9167756
_publ_section_title
;
Structure prediction by ZEFSAII (Michael W. Deem and Ramdas Pophale) SiO2 
 PCOD9167756
Probable space group: P 21/M
;
_chemical_formula_sum "Si O2"
_cell_formula_units_Z 32
_cell_length_a 21.000000
_cell_length_b 9.000000
_cell_length_c 12.000000
_cell_angle_alpha 90.000000
_cell_angle_beta 130.000000
_cell_angle_gamma 90.000000
_cell_volume 1737.388797
_symmetry_space_group_name_H-M "P 21/M"
_symmetry_group_IT_number 11
_symmetry_cell_setting 'monoclinic'
loop_
_space_group_symop_operation_xyz
x,y,z
-x,1/2+y,-z
-x,-y,-z
x,1/2-y,z
loop_
_atom_site_type_symbol
_atom_site_label
_atom_site_fract_x
_atom_site_fract_y
_atom_site_fract_z
Si Si1 0.904141 0.924419 0.991213
Si Si2 0.094540 0.571179 0.233115
Si Si3 0.768075 0.069033 0.452785
Si Si4 0.211974 0.582951 0.985433
Si Si5 0.377897 0.930063 0.552991
Si Si6 0.617029 0.421430 0.694621
Si Si7 0.689932 0.072549 0.131322
Si Si8 0.547719 0.573450 0.836173
O O1 0.904014 0.750000 0.968799
O O2 0.870467 0.007144 0.843465
O O3 0.851578 0.964782 0.039940
O O4 0.998361 0.973773 0.121944
O O5 0.099712 0.750000 0.233326
O O6 0.142320 0.523223 0.398709
O O7 0.767882 0.250000 0.446059
O O8 0.706483 0.023382 0.483165
O O9 0.732306 0.018371 0.293408
O O10 0.176226 0.750000 0.942724
O O11 0.287489 0.584858 0.158873
O O12 0.249474 0.549098 0.906458
O O13 0.376459 0.750000 0.542486
O O14 0.391079 0.980787 0.440403
O O15 0.451068 0.968362 0.721650
O O16 0.585262 0.250000 0.664231
O O17 0.576968 0.520225 0.746274
O O18 0.676448 0.250000 0.125358
O O19 0.603434 0.000459 0.994269
O O20 0.555933 0.750000 0.854126
#
# Coordination Sequence:
#
# PCOD9167756 Si02
#       8
#     4   4   4   4   4   4   4   4
#     4  10  19  30  49  78 105 126 151 187 237 291
#     4   9  18  33  53  75  99 127 157 192 233 279
#     4   9  17  33  54  70  89 123 167 204 231 272
#     4   9  17  30  49  71  94 125 164 199 231 273
#     4   9  17  28  47  74  97 121 157 201 244 283
#     4   9  17  31  50  71  96 127 164 198 231 281
#     4   9  19  35  53  69  88 124 170 204 230 273
#     4  10  19  30  46  71 101 127 153 194 248 290
#
# _framework density 18.418444999999998
#
# number of rings (size 3 to 8) (size 9 to 14) (size 15 to 20)
#    0.000    2.750    0.000    2.625    0.000    5.000 
#    0.000    1.875    0.000    3.000    0.000    0.000 
#    0.000    0.000    0.000    0.000    0.000    0.000 
#
# Total GULP energy -178183.915258 kJ/mol
# GULP energy per Si atom -5568.247352 kJ/mol
# Density = 1.837652 g / cm^3
# Si number density = 18.418445 Si / 1000 Ang^3
#
#
#
# Elastic Constant Matrix: (Units=GPa)
#
#
# Indices 1 2 3 4 5 6 
#
# 1 9.7236 7.3192 23.9010 0.0000 12.7026 0.0000
# 2 7.3192 -0.3332 16.1584 0.0000 5.9044 0.0000
# 3 23.9010 16.1584 149.9788 0.0000 -7.9743 0.0000
# 4 0.0000 0.0000 0.0000 20.9299 0.0000 -0.2757
# 5 12.7026 5.9044 -7.9743 0.0000 10.2565 0.0000
# 6 0.0000 0.0000 0.0000 -0.2757 0.0000 16.3957
#
#
#
# Elastic Compliance Matrix: (Units=1/GPa)
#
#
# Indices 1 2 3 4 5 6 
#
# 1 -0.095960 0.069443 0.012522 0.000000 0.088606 0.000000
# 2 0.069443 -0.198919 0.012392 0.000000 0.038142 0.000000
# 3 0.012522 0.012392 0.002225 0.000000 -0.020912 0.000000
# 4 0.000000 0.000000 0.000000 0.047789 0.000000 0.000804
# 5 0.088606 0.038142 -0.020912 0.000000 -0.050455 0.000000
# 6 0.000000 0.000000 0.000000 0.000804 0.000000 0.061005
#
#
# Mechanical properties :
#
#
# Convention : Reuss Voigt Hill
#
# Bulk Modulus (GPa) = -9.62105 28.23627 9.30761
# Shear Modulus (GPa) = -10.92475 16.98247 3.02886
#
# Velocity S-wave (km/s) = -2.43809 3.03980 1.28376
# Velocity P-wave (km/s) = 3.62776 5.26158 2.69477
#
# Compressibility (1/GPa) = -0.10393871
#
# Stress axis : x y z
#
# Youngs Moduli (GPa) = -10.42096 -5.02718 449.42919
#
# Poissons Ratio (x) = 0.34910 -5.62774
# Poissons Ratio (y) = 0.72367 -5.56949
# Poissons Ratio (z) = 0.13049 0.06230
#
# Static dielectric constant tensor:
#      x y z
#    x 1.665590 0.000000 0.032530 
#    y 0.000000 1.626820 0.000000 
#    z 0.032530 0.000000 1.644110 
# 
# From -- ./inp_files/42882.got.cif
#   From: 2010.05.17/outbox.ucp.g08.bks.cvg/sg11_22_cif.got.tgz:42882.got - 2010.06.11 11:38:39.
