data_PCOD9167944
_publ_section_title
;
Structure prediction by ZEFSAII (Michael W. Deem and Ramdas Pophale) SiO2 
 PCOD9167944
Probable space group: P 21/M
;
_chemical_formula_sum "Si O2"
_cell_formula_units_Z 32
_cell_length_a 24.000000
_cell_length_b 15.000000
_cell_length_c 9.000000
_cell_angle_alpha 90.000000
_cell_angle_beta 30.000000
_cell_angle_gamma 90.000000
_cell_volume 1620.000000
_symmetry_space_group_name_H-M "P 21/M"
_symmetry_group_IT_number 11
_symmetry_cell_setting 'monoclinic'
loop_
_space_group_symop_operation_xyz
x,y,z
-x,1/2+y,-z
-x,-y,-z
x,1/2-y,z
loop_
_atom_site_type_symbol
_atom_site_label
_atom_site_fract_x
_atom_site_fract_y
_atom_site_fract_z
Si Si1 0.670981 0.146119 0.760220
Si Si2 0.854066 0.645983 0.148465
Si Si3 0.901330 0.147375 0.923960
Si Si4 0.867351 0.647205 0.761160
Si Si5 0.445381 0.645389 0.661557
Si Si6 0.920310 0.352323 0.228672
Si Si7 0.343299 0.470630 0.772747
Si Si8 0.704121 0.011678 0.439993
O O1 0.684854 0.250000 0.676407
O O2 0.793473 0.114635 0.536631
O O3 0.641632 0.078355 0.696246
O O4 0.586870 0.146975 0.090207
O O5 0.835440 0.750000 0.240761
O O6 0.758102 0.573200 0.399907
O O7 0.863418 0.648001 0.948710
O O8 0.970947 0.609312 0.943698
O O9 0.865672 0.250000 0.971232
O O10 0.008323 0.125107 0.578661
O O11 0.939617 0.147449 0.007516
O O12 0.803802 0.074542 0.143447
O O13 0.843079 0.750000 0.767382
O O14 0.775902 0.575352 0.921366
O O15 0.441754 0.750000 0.619375
O O16 0.361165 0.572483 0.784877
O O17 0.564615 0.596402 0.371301
O O18 0.916246 0.250000 0.293330
O O19 0.359414 0.475346 0.556907
#
# Coordination Sequence:
#
# PCOD9167944 Si02
#       8
#     4   4   4   4   4   4   4   4
#     4   9  19  35  55  78 103 134 171 213 263 310
#     4   9  18  30  45  70 105 144 179 209 251 307
#     4   9  18  31  49  76 108 141 174 210 258 310
#     4   9  18  33  52  75 108 145 176 211 256 309
#     4  10  22  40  59  78 102 134 174 222 271 316
#     4   8  15  29  46  69 102 134 169 209 247 298
#     4  10  22  37  56  80 104 134 177 221 265 314
#     4  10  20  33  53  78 108 138 171 217 260 310
#
# _framework density 19.753086
#
# number of rings (size 3 to 8) (size 9 to 14) (size 15 to 20)
#    0.000    2.750    0.000    1.500    0.000    9.000 
#    0.000    2.500    0.000    3.000    0.000    0.000 
#    0.000    0.000    0.000    0.000    0.000    0.000 
#
# Total GULP energy -178303.453005 kJ/mol
# GULP energy per Si atom -5571.982906 kJ/mol
# Density = 1.970813 g / cm^3
# Si number density = 19.753086 Si / 1000 Ang^3
#
#
#
# Elastic Constant Matrix: (Units=GPa)
#
#
# Indices 1 2 3 4 5 6 
#
# 1 29.7571 15.6211 -10.7068 0.0000 -10.0337 0.0000
# 2 15.6211 98.1801 -0.2056 0.0000 -3.6109 0.0000
# 3 -10.7068 -0.2056 14.0173 0.0000 13.6703 0.0000
# 4 0.0000 0.0000 0.0000 19.7192 0.0000 4.2007
# 5 -10.0337 -3.6109 13.6703 0.0000 8.7146 0.0000
# 6 0.0000 0.0000 0.0000 4.2007 0.0000 30.6082
#
#
#
# Elastic Compliance Matrix: (Units=1/GPa)
#
#
# Indices 1 2 3 4 5 6 
#
# 1 0.051728 -0.007789 0.029328 0.000000 0.010325 0.000000
# 2 -0.007789 0.011104 0.002883 0.000000 -0.008890 0.000000
# 3 0.029328 0.002883 -0.112655 0.000000 0.211680 0.000000
# 4 0.000000 0.000000 0.000000 0.052239 0.000000 -0.007169
# 5 0.010325 -0.008890 0.211680 0.000000 -0.209101 0.000000
# 6 0.000000 0.000000 0.000000 -0.007169 0.000000 0.033655
#
#
# Mechanical properties :
#
#
# Convention : Reuss Voigt Hill
#
# Bulk Modulus (GPa) = -1020.33240 16.81910 -501.75665
# Shear Modulus (GPa) = -22.50217 20.95813 -0.77202
#
# Velocity S-wave (km/s) = -3.37882 3.26084 -0.62585
# Velocity P-wave (km/s) = 23.08434 4.76556 15.97147
#
# Compressibility (1/GPa) = -0.00098007
#
# Stress axis : x y z
#
# Youngs Moduli (GPa) = 19.33184 90.05954 -8.87662
#
# Poissons Ratio (x) = 0.70149 0.26033
# Poissons Ratio (y) = 0.15058 0.02559
# Poissons Ratio (z) = -0.56696 -0.25964
#
# Static dielectric constant tensor:
#      x y z
#    x 1.714050 0.000000 -0.015540 
#    y 0.000000 1.728990 0.000000 
#    z -0.015540 0.000000 1.705080 
# 
# From -- ./inp_files/27789.got.cif
#   From: 2010.05.17/outbox.ucp.g08.bks.cvg/sg11_14_cif.got.tgz:27789.got - 2010.06.11 11:38:39.
