data_PCOD9167134
_publ_section_title
;
Structure prediction by ZEFSAII (Michael W. Deem and Ramdas Pophale) SiO2 
 PCOD9167134
Probable space group: P 21/M
;
_chemical_formula_sum "Si O2"
_cell_formula_units_Z 28
_cell_length_a 16.282941
_cell_length_b 8.159873
_cell_length_c 11.638027
_cell_angle_alpha 90.000000
_cell_angle_beta 117.691445
_cell_angle_gamma 90.000000
_cell_volume 1369.197315
_symmetry_space_group_name_H-M "P 21/M"
_symmetry_group_IT_number 11
_symmetry_cell_setting 'monoclinic'
loop_
_space_group_symop_operation_xyz
x,y,z
-x,1/2+y,-z
-x,-y,-z
x,1/2-y,z
loop_
_atom_site_type_symbol
_atom_site_label
_atom_site_fract_x
_atom_site_fract_y
_atom_site_fract_z
Si Si1 0.461155 0.555532 0.096744
Si Si2 0.281544 0.450416 0.348935
Si Si3 0.720974 0.943715 0.909684
Si Si4 0.622480 0.949638 0.361353
Si Si5 0.887450 0.056292 0.162283
Si Si6 0.812607 0.551901 0.357566
Si Si7 0.908326 0.949627 0.651568
O O1 0.467159 0.750000 0.103489
O O2 0.355970 0.507257 0.052411
O O3 0.528505 0.489864 0.241682
O O4 0.500000 0.500000 0.000000
O O5 0.283399 0.250000 0.348840
O O6 0.296791 0.510864 0.229971
O O7 0.353869 0.504800 0.494022
O O8 0.179195 0.497750 0.327421
O O9 0.710376 0.750000 0.897734
O O10 0.823125 0.982136 0.022091
O O11 0.620448 0.750000 0.363284
O O12 0.710445 0.992945 0.337972
O O13 0.891879 0.250000 0.145881
O O14 0.992444 0.990792 0.240318
O O15 0.839257 0.022784 0.253599
O O16 0.814899 0.750000 0.348680
O O17 0.884007 0.501757 0.504983
O O18 0.910461 0.750000 0.652644
#
# Coordination Sequence:
#
# PCOD9167134 Si02
#       7
#     4   4   4   4   4   4   4
#     4  11  22  37  58  84 113 140 170 211 262 318
#     4   8  16  34  56  77 102 135 178 220 262 317
#     4  11  23  37  54  76 104 141 183 222 260 310
#     4   8  16  32  56  80 101 133 173 215 262 311
#     4  11  21  32  49  76 110 143 177 221 271 316
#     4   9  16  31  55  80 106 135 173 217 265 325
#     4   8  16  31  53  79 105 137 176 221 270 318
#
# _framework density 20.449938
#
# number of rings (size 3 to 8) (size 9 to 14) (size 15 to 20)
#    0.000    2.571    0.000    4.286    0.000    2.286 
#    0.000    1.429    0.000   12.000    0.000    0.000 
#    0.000    0.000    0.000    0.000    0.000    0.000 
#
# Total GULP energy -156297.620298 kJ/mol
# GULP energy per Si atom -5582.057868 kJ/mol
# Density = 2.040339 g / cm^3
# Si number density = 20.449938 Si / 1000 Ang^3
#
#
#
# Elastic Constant Matrix: (Units=GPa)
#
#
# Indices 1 2 3 4 5 6 
#
# 1 20.9309 4.3915 22.9288 0.0000 3.0529 0.0000
# 2 4.3915 17.3166 10.7193 0.0000 -0.4274 0.0000
# 3 22.9288 10.7193 97.9833 0.0000 7.8051 0.0000
# 4 0.0000 0.0000 0.0000 17.9001 0.0000 -0.1247
# 5 3.0529 -0.4274 7.8051 0.0000 38.5358 0.0000
# 6 0.0000 0.0000 0.0000 -0.1247 0.0000 12.9263
#
#
#
# Elastic Compliance Matrix: (Units=1/GPa)
#
#
# Indices 1 2 3 4 5 6 
#
# 1 0.065378 -0.007815 -0.014254 0.000000 -0.002379 0.000000
# 2 -0.007815 0.063044 -0.005258 0.000000 0.002383 0.000000
# 3 -0.014254 -0.005258 0.014261 0.000000 -0.001818 0.000000
# 4 0.000000 0.000000 0.000000 0.055869 0.000000 0.000539
# 5 -0.002379 0.002383 -0.001818 0.000000 0.026533 0.000000
# 6 0.000000 0.000000 0.000000 0.000539 0.000000 0.077367
#
#
# Mechanical properties :
#
#
# Convention : Reuss Voigt Hill
#
# Bulk Modulus (GPa) = 11.35999 23.58999 17.47499
# Shear Modulus (GPa) = 12.93828 20.41851 16.67840
#
# Velocity S-wave (km/s) = 2.51804 3.16327 2.85892
# Velocity P-wave (km/s) = 3.74448 4.99022 4.41154
#
# Compressibility (1/GPa) = 0.08802825
#
# Stress axis : x y z
#
# Youngs Moduli (GPa) = 15.29566 15.86203 70.11894
#
# Poissons Ratio (x) = 0.12396 0.99951
# Poissons Ratio (y) = 0.11953 0.36869
# Poissons Ratio (z) = 0.21803 0.08340
#
# Static dielectric constant tensor:
#      x y z
#    x 1.674430 0.000000 0.030890 
#    y 0.000000 1.711600 0.000000 
#    z 0.030890 0.000000 1.732020 
# 
# From -- ./inp_files/38448.got.cif
#   From: 2010.05.17/outbox.cif.g08.bks.cpg/sg11_20_cif.got.tgz:38448.got - 2010.06.03 12:22:45.
