data_PCOD9167570
_publ_section_title
;
Structure prediction by ZEFSAII (Michael W. Deem and Ramdas Pophale) SiO2 
 PCOD9167570
Probable space group: P 21/M
;
_chemical_formula_sum "Si O2"
_cell_formula_units_Z 28
_cell_length_a 4.812885
_cell_length_b 19.482484
_cell_length_c 12.633696
_cell_angle_alpha 90.000000
_cell_angle_beta 80.271170
_cell_angle_gamma 90.000000
_cell_volume 1167.586622
_symmetry_space_group_name_H-M "P 21/M"
_symmetry_group_IT_number 11
_symmetry_cell_setting 'monoclinic'
loop_
_space_group_symop_operation_xyz
x,y,z
-x,1/2+y,-z
-x,-y,-z
x,1/2-y,z
loop_
_atom_site_type_symbol
_atom_site_label
_atom_site_fract_x
_atom_site_fract_y
_atom_site_fract_z
Si Si1 0.821746 0.569603 0.501626
Si Si2 0.046137 0.169485 0.174109
Si Si3 0.525262 0.456157 0.842998
Si Si4 0.670391 0.750000 0.289882
Si Si5 0.765238 0.250000 0.851691
Si Si6 0.483905 0.897917 0.735639
Si Si7 0.633049 0.385892 0.623880
Si Si8 0.051969 0.610033 0.048782
O O1 0.658576 0.588487 0.618495
O O2 0.585451 0.565850 0.425643
O O3 0.000000 0.500000 0.500000
O O4 0.069972 0.622212 0.453421
O O5 0.996226 0.250000 0.161235
O O6 0.820772 0.133915 0.266644
O O7 0.352546 0.156664 0.202109
O O8 0.008816 0.126869 0.068589
O O9 0.470216 0.532137 0.804120
O O10 0.687378 0.418335 0.735708
O O11 0.719494 0.447720 0.934130
O O12 0.237046 0.414952 0.879501
O O13 0.545644 0.750000 0.177580
O O14 0.539513 0.816353 0.351806
O O15 0.005811 0.750000 0.258209
O O16 0.825243 0.181069 0.912281
#
# Coordination Sequence:
#
# PCOD9167570 Si02
#       8
#     4   4   4   2   2   4   4   4
#     4  12  26  46  74  97 134 189 233 283 357 417
#     4  12  28  51  73  98 142 196 236 280 342 420
#     4  12  25  42  75 110 141 175 227 302 355 412
#     4  12  24  40  66 103 148 175 224 294 360 410
#     4  12  20  40  66 101 138 193 220 272 344 438
#     4  12  28  48  73 102 139 182 243 296 340 409
#     4  12  24  43  69 106 141 180 228 288 356 422
#     4  12  24  43  73 105 140 185 231 275 353 428
#
# _framework density 23.981088
#
# number of rings (size 3 to 8) (size 9 to 14) (size 15 to 20)
#    0.000    0.000    5.000    5.143    2.000    3.429 
#    7.714    0.000    0.000    0.000    0.000    0.000 
#    0.000    0.000    0.000    0.000    0.000    0.000 
#
# Total GULP energy -157018.884641 kJ/mol
# GULP energy per Si atom -5607.817309 kJ/mol
# Density = 2.392651 g / cm^3
# Si number density = 23.981088 Si / 1000 Ang^3
#
#
#
# Elastic Constant Matrix: (Units=GPa)
#
#
# Indices 1 2 3 4 5 6 
#
# 1 80.7928 -11.6234 6.1500 0.0000 2.3556 0.0000
# 2 -11.6234 72.8186 13.9935 0.0000 -15.1442 0.0000
# 3 6.1500 13.9935 89.9203 0.0000 -5.2842 0.0000
# 4 0.0000 0.0000 0.0000 25.7318 0.0000 0.1591
# 5 2.3556 -15.1442 -5.2842 0.0000 36.4820 0.0000
# 6 0.0000 0.0000 0.0000 0.1591 0.0000 40.3448
#
#
#
# Elastic Compliance Matrix: (Units=1/GPa)
#
#
# Indices 1 2 3 4 5 6 
#
# 1 0.012799 0.002266 -0.001232 0.000000 -0.000064 0.000000
# 2 0.002266 0.015793 -0.002255 0.000000 0.006083 0.000000
# 3 -0.001232 -0.002255 0.011605 0.000000 0.000824 0.000000
# 4 0.000000 0.000000 0.000000 0.038863 0.000000 -0.000153
# 5 -0.000064 0.006083 0.000824 0.000000 0.030059 0.000000
# 6 0.000000 0.000000 0.000000 -0.000153 0.000000 0.024787
#
#
# Mechanical properties :
#
#
# Convention : Reuss Voigt Hill
#
# Bulk Modulus (GPa) = 26.48641 28.95244 27.71943
# Shear Modulus (GPa) = 33.57220 36.17917 34.87569
#
# Velocity S-wave (km/s) = 3.74564 3.88835 3.81767
# Velocity P-wave (km/s) = 5.45666 5.67964 5.56927
#
# Compressibility (1/GPa) = 0.03775521
#
# Stress axis : x y z
#
# Youngs Moduli (GPa) = 78.13094 63.31930 86.17268
#
# Poissons Ratio (x) = -0.14351 0.10615
# Poissons Ratio (y) = -0.17708 0.19434
# Poissons Ratio (z) = 0.09624 0.14280
#
# Static dielectric constant tensor:
#      x y z
#    x 1.860380 0.000000 -0.005640 
#    y 0.000000 1.931200 0.000000 
#    z -0.005640 0.000000 1.936750 
# 
# From -- ./inp_files/29991.got.cif
#   From: 2010.05.17/outbox.cif.g08.bks.cpg/sg11_15_cif.got.tgz:29991.got - 2010.06.03 12:22:45.
