data_PCOD9167442
_publ_section_title
;
Structure prediction by ZEFSAII (Michael W. Deem and Ramdas Pophale) SiO2 
 PCOD9167442
Probable space group: P 21/M
;
_chemical_formula_sum "Si O2"
_cell_formula_units_Z 28
_cell_length_a 9.857189
_cell_length_b 8.866541
_cell_length_c 27.483084
_cell_angle_alpha 90.000000
_cell_angle_beta 38.596086
_cell_angle_gamma 90.000000
_cell_volume 1498.429767
_symmetry_space_group_name_H-M "P 21/M"
_symmetry_group_IT_number 11
_symmetry_cell_setting 'monoclinic'
loop_
_space_group_symop_operation_xyz
x,y,z
-x,1/2+y,-z
-x,-y,-z
x,1/2-y,z
loop_
_atom_site_type_symbol
_atom_site_label
_atom_site_fract_x
_atom_site_fract_y
_atom_site_fract_z
Si Si1 0.486440 0.570063 0.270346
Si Si2 0.597817 0.930099 0.021940
Si Si3 0.693272 0.571119 0.476597
Si Si4 0.117922 0.430602 0.310112
Si Si5 0.042253 0.568532 0.854211
Si Si6 0.200390 0.430631 0.178045
Si Si7 0.240656 0.429699 0.430882
O O1 0.473298 0.750000 0.272803
O O2 0.339441 0.499636 0.268939
O O3 0.733679 0.514141 0.198564
O O4 0.380718 0.507881 0.349879
O O5 0.577493 0.750000 0.026333
O O6 0.439573 0.996238 0.107086
O O7 0.853655 0.966013 0.946632
O O8 0.500000 0.000000 0.000000
O O9 0.500000 0.500000 0.500000
O O10 0.704753 0.750000 0.465166
O O11 0.660013 0.546958 0.543412
O O12 0.919031 0.497429 0.396460
O O13 0.121663 0.250000 0.314257
O O14 0.094735 0.467530 0.259437
O O15 0.075860 0.750000 0.844206
O O16 0.944314 0.525488 0.828368
O O17 0.226617 0.250000 0.167700
O O18 0.227293 0.250000 0.425353
O O19 0.000000 0.500000 0.500000
#
# Coordination Sequence:
#
# PCOD9167442 Si02
#       7
#     4   4   4   4   4   4   4
#     4  12  25  39  58  87 118 154 198 242 291 347
#     4   9  17  32  57  86 117 152 190 235 288 342
#     4  11  25  42  62  89 119 152 194 241 291 347
#     4  11  23  41  62  85 118 158 194 239 296 347
#     4   9  19  37  59  86 117 150 191 239 287 342
#     4   9  20  37  60  88 117 151 192 238 292 346
#     4  11  23  41  64  86 114 154 197 239 287 345
#
# _framework density 18.686226999999999
#
# number of rings (size 3 to 8) (size 9 to 14) (size 15 to 20)
#    0.000    1.714    1.429    3.857    2.000    5.714 
#    0.000    0.714    0.000    0.000    0.000    0.000 
#    0.000    0.000    0.000    0.000    0.000    0.000 
#
# Total GULP energy -156363.495024 kJ/mol
# GULP energy per Si atom -5584.410537 kJ/mol
# Density = 1.864370 g / cm^3
# Si number density = 18.686227 Si / 1000 Ang^3
#
#
#
# Elastic Constant Matrix: (Units=GPa)
#
#
# Indices 1 2 3 4 5 6 
#
# 1 69.9992 23.0561 -0.5575 0.0000 -15.7516 0.0000
# 2 23.0561 46.6698 0.3999 0.0000 -4.8043 0.0000
# 3 -0.5575 0.3999 31.6243 0.0000 -14.7481 0.0000
# 4 0.0000 0.0000 0.0000 37.0994 0.0000 -5.2693
# 5 -15.7516 -4.8043 -14.7481 0.0000 32.4872 0.0000
# 6 0.0000 0.0000 0.0000 -5.2693 0.0000 27.1055
#
#
#
# Elastic Compliance Matrix: (Units=1/GPa)
#
#
# Indices 1 2 3 4 5 6 
#
# 1 0.019571 -0.008615 0.005436 0.000000 0.010683 0.000000
# 2 -0.008615 0.025611 -0.000834 0.000000 -0.000768 0.000000
# 3 0.005436 -0.000834 0.041735 0.000000 0.021458 0.000000
# 4 0.000000 0.000000 0.000000 0.027720 0.000000 0.005389
# 5 0.010683 -0.000768 0.021458 0.000000 0.045589 0.000000
# 6 0.000000 0.000000 0.000000 0.005389 0.000000 0.037940
#
#
# Mechanical properties :
#
#
# Convention : Reuss Voigt Hill
#
# Bulk Modulus (GPa) = 12.67593 21.56562 17.12077
# Shear Modulus (GPa) = 21.50631 27.69808 24.60219
#
# Velocity S-wave (km/s) = 3.39620 3.85421 3.63243
# Velocity P-wave (km/s) = 4.70926 5.60112 5.17444
#
# Compressibility (1/GPa) = 0.07888969
#
# Stress axis : x y z
#
# Youngs Moduli (GPa) = 51.09673 39.04515 23.96077
#
# Poissons Ratio (x) = 0.33639 -0.13025
# Poissons Ratio (y) = 0.44022 0.01999
# Poissons Ratio (z) = -0.27775 0.03257
#
# Static dielectric constant tensor:
#      x y z
#    x 1.605120 0.000000 -0.033780 
#    y 0.000000 1.622130 0.000000 
#    z -0.033780 0.000000 1.589720 
# 
# From -- ./inp_files/70646.got.cif
#   From: 2010.05.17/outbox.cif.g08.bks.cpg/sg11_36_cif.got.tgz:70646.got - 2010.06.03 12:22:45.
