data_PCOD9167862
_publ_section_title
;
Structure prediction by ZEFSAII (Michael W. Deem and Ramdas Pophale) SiO2 
 PCOD9167862
Probable space group: P 21/M
;
_chemical_formula_sum "Si O2"
_cell_formula_units_Z 28
_cell_length_a 30.000000
_cell_length_b 9.000000
_cell_length_c 30.000000
_cell_angle_alpha 90.000000
_cell_angle_beta 10.000000
_cell_angle_gamma 90.000000
_cell_volume 1406.550239
_symmetry_space_group_name_H-M "P 21/M"
_symmetry_group_IT_number 11
_symmetry_cell_setting 'monoclinic'
loop_
_space_group_symop_operation_xyz
x,y,z
-x,1/2+y,-z
-x,-y,-z
x,1/2-y,z
loop_
_atom_site_type_symbol
_atom_site_label
_atom_site_fract_x
_atom_site_fract_y
_atom_site_fract_z
Si Si1 0.598044 0.584155 0.598047
Si Si2 0.162076 0.929924 0.162077
Si Si3 0.114673 0.424215 0.114676
Si Si4 0.545498 0.581755 0.545498
Si Si5 0.688731 0.571207 0.688737
Si Si6 0.260516 0.429660 0.260516
Si Si7 0.975896 0.068293 0.975896
O O1 0.608237 0.750000 0.608241
O O2 0.571646 0.595724 0.571648
O O3 0.854610 0.497177 0.354479
O O4 0.354477 0.497177 0.854612
O O5 0.157829 0.750000 0.157823
O O6 0.927678 0.971751 0.424067
O O7 0.139999 0.024071 0.140003
O O8 0.424062 0.971756 0.927683
O O9 0.111828 0.250000 0.111831
O O10 0.536153 0.750000 0.536154
O O11 0.790760 0.509712 0.282916
O O12 0.282916 0.509712 0.790760
O O13 0.689392 0.750000 0.689410
O O14 0.713865 0.521194 0.713865
O O15 0.258870 0.250000 0.258870
O O16 0.000000 0.500000 0.500000
O O17 0.500000 0.500000 0.000000
O O18 0.975937 0.250000 0.975937
O O19 0.000000 0.000000 0.000000
#
# Coordination Sequence:
#
# PCOD9167862 Si02
#       7
#     4   4   4   4   4   4   4
#     4  11  22  41  66  87 110 157 210 241 275 348
#     4  10  19  36  60  83 107 151 204 239 273 342
#     4  12  25  40  58  90 128 153 180 243 313 351
#     4   9  19  35  57  80 106 141 190 239 273 317
#     4   9  19  35  58  83 111 148 197 244 280 328
#     4  11  22  39  61  89 121 156 195 242 294 347
#     4  10  19  34  54  80 110 142 179 228 282 333
#
# _framework density 19.906860999999999
#
# number of rings (size 3 to 8) (size 9 to 14) (size 15 to 20)
#    0.000    1.714    0.000    5.143    0.000    5.714 
#    0.000    8.571    0.000    0.000    0.000    0.000 
#    0.000    0.000    0.000    0.000    0.000    0.000 
#
# Total GULP energy -156059.857065 kJ/mol
# GULP energy per Si atom -5573.566324 kJ/mol
# Density = 1.986155 g / cm^3
# Si number density = 19.906861 Si / 1000 Ang^3
#
#
#
# Elastic Constant Matrix: (Units=GPa)
#
#
# Indices 1 2 3 4 5 6 
#
# 1 89.8883 36.5289 97.7695 0.0000 2.6898 0.0000
# 2 36.5289 89.7982 73.8273 0.0000 -3.2811 0.0000
# 3 97.7695 73.8273 235.9248 0.0000 -15.6312 0.0000
# 4 0.0000 0.0000 0.0000 152.3695 0.0000 -11.7053
# 5 2.6898 -3.2811 -15.6312 0.0000 -17.7342 0.0000
# 6 0.0000 0.0000 0.0000 -11.7053 0.0000 19.6243
#
#
#
# Elastic Compliance Matrix: (Units=1/GPa)
#
#
# Indices 1 2 3 4 5 6 
#
# 1 0.018806 -0.001891 -0.006604 0.000000 0.009023 0.000000
# 2 -0.001891 0.015153 -0.003933 0.000000 0.000376 0.000000
# 3 -0.006604 -0.003933 0.007736 0.000000 -0.007093 0.000000
# 4 0.000000 0.000000 0.000000 0.006878 0.000000 0.004103
# 5 0.009023 0.000376 -0.007093 0.000000 -0.048838 0.000000
# 6 0.000000 0.000000 0.000000 0.004103 0.000000 0.053404
#
#
# Mechanical properties :
#
#
# Convention : Reuss Voigt Hill
#
# Bulk Modulus (GPa) = 59.38585 92.42921 75.90753
# Shear Modulus (GPa) = 59.80184 44.68428 52.24306
#
# Velocity S-wave (km/s) = 5.48690 4.74293 5.12842
# Velocity P-wave (km/s) = 8.36887 8.74789 8.56048
#
# Compressibility (1/GPa) = 0.01683903
#
# Stress axis : x y z
#
# Youngs Moduli (GPa) = 53.17338 65.99498 129.26247
#
# Poissons Ratio (x) = 0.12481 0.85364
# Poissons Ratio (y) = 0.10056 0.50839
# Poissons Ratio (z) = 0.35115 0.25956
#
# Static dielectric constant tensor:
#      x y z
#    x 1.770550 0.000000 0.011990 
#    y 0.000000 1.698030 0.000000 
#    z 0.011990 0.000000 1.634250 
# 
# From -- ./inp_files/73834.got.cif
#   From: 2010.05.17/outbox.ucp.g08.bks.cvg/sg11_37_cif.got.tgz:73834.got - 2010.06.11 11:38:39.
