data_PCOD9167971
_publ_section_title
;
Structure prediction by ZEFSAII (Michael W. Deem and Ramdas Pophale) SiO2 
 PCOD9167971
Probable space group: P 21/M
;
_chemical_formula_sum "Si O2"
_cell_formula_units_Z 32
_cell_length_a 15.000000
_cell_length_b 9.000000
_cell_length_c 12.000000
_cell_angle_alpha 90.000000
_cell_angle_beta 90.000000
_cell_angle_gamma 90.000000
_cell_volume 1620.000000
_symmetry_space_group_name_H-M "P 21/M"
_symmetry_group_IT_number 11
_symmetry_cell_setting 'monoclinic'
loop_
_space_group_symop_operation_xyz
x,y,z
-x,1/2+y,-z
-x,-y,-z
x,1/2-y,z
loop_
_atom_site_type_symbol
_atom_site_label
_atom_site_fract_x
_atom_site_fract_y
_atom_site_fract_z
Si Si1 0.096578 0.918915 0.212845
Si Si2 0.784939 0.419674 0.003180
Si Si3 0.103822 0.070872 0.805300
Si Si4 0.609203 0.424263 0.269776
Si Si5 0.231411 0.422134 0.617046
Si Si6 0.595639 0.427047 0.018236
Si Si7 0.441838 0.427217 0.401007
Si Si8 0.242094 0.077539 0.362332
O O1 0.086625 0.750000 0.255717
O O2 0.143637 0.914126 0.094035
O O3 0.997840 0.984604 0.196610
O O4 0.167788 0.001630 0.288689
O O5 0.771786 0.250000 0.045556
O O6 0.831241 0.516601 0.097461
O O7 0.687633 0.468046 0.955255
O O8 0.099159 0.250000 0.811323
O O9 0.152626 0.019316 0.693211
O O10 0.625010 0.250000 0.281778
O O11 0.675197 0.503251 0.353821
O O12 0.625886 0.467602 0.143586
O O13 0.505920 0.449855 0.295764
O O14 0.243644 0.250000 0.645808
O O15 0.209134 0.431905 0.488854
O O16 0.581645 0.250000 0.008252
O O17 0.500000 0.500000 0.000000
O O18 0.500000 0.500000 0.500000
O O19 0.433733 0.250000 0.425639
O O20 0.343389 0.484561 0.371643
O O21 0.250560 0.250000 0.328473
#
# Coordination Sequence:
#
# PCOD9167971 Si02
#       8
#     4   4   4   4   4   4   4   4
#     4  10  23  40  57  82 114 146 184 232 281 331
#     4  10  21  39  60  83 113 146 184 229 277 333
#     4  10  21  38  61  86 109 140 186 235 282 333
#     4  10  20  35  55  80 110 145 186 227 271 328
#     4  10  20  36  58  83 112 145 185 232 278 328
#     4  10  22  37  54  81 113 145 181 222 271 327
#     4  10  20  34  54  80 109 143 181 221 265 321
#     4  10  22  38  55  81 115 149 186 227 274 330
#
# _framework density 19.753086
#
# number of rings (size 3 to 8) (size 9 to 14) (size 15 to 20)
#    0.000    2.000    2.500    0.375    1.750    3.500 
#    0.000    0.000    0.000    0.000    0.000    0.000 
#    0.000    0.000    0.000    0.000    0.000    0.000 
#
# Total GULP energy -178187.201523 kJ/mol
# GULP energy per Si atom -5568.350048 kJ/mol
# Density = 1.970813 g / cm^3
# Si number density = 19.753086 Si / 1000 Ang^3
#
#
#
# Elastic Constant Matrix: (Units=GPa)
#
#
# Indices 1 2 3 4 5 6 
#
# 1 130.5000 11.3958 77.1481 0.0000 -55.6493 0.0000
# 2 11.3958 -14.1156 55.3188 0.0000 -59.7588 0.0000
# 3 77.1481 55.3188 -35.8213 0.0000 73.3645 0.0000
# 4 0.0000 0.0000 0.0000 23.2361 0.0000 16.4841
# 5 -55.6493 -59.7588 73.3645 0.0000 -114.4247 0.0000
# 6 0.0000 0.0000 0.0000 16.4841 0.0000 38.7911
#
#
#
# Elastic Compliance Matrix: (Units=1/GPa)
#
#
# Indices 1 2 3 4 5 6 
#
# 1 0.016112 -0.041573 0.003455 0.000000 0.016091 0.000000
# 2 -0.041573 -0.007911 0.165682 0.000000 0.130579 0.000000
# 3 0.003455 0.165682 -0.174779 0.000000 -0.200270 0.000000
# 4 0.000000 0.000000 0.000000 0.061609 0.000000 -0.026181
# 5 0.016091 0.130579 -0.200270 0.000000 -0.213165 0.000000
# 6 0.000000 0.000000 0.000000 -0.026181 0.000000 0.036904
#
#
# Mechanical properties :
#
#
# Convention : Reuss Voigt Hill
#
# Bulk Modulus (GPa) = 11.29299 40.92096 26.10697
# Shear Modulus (GPa) = -9.86504 -14.69945 -12.28225
#
# Velocity S-wave (km/s) = -2.23719 -2.73089 -2.49627
# Velocity P-wave (km/s) = 0.97153 3.28900 2.22190
#
# Compressibility (1/GPa) = 0.08855051
#
# Stress axis : x y z
#
# Youngs Moduli (GPa) = 62.06469 -126.40935 -5.72151
#
# Poissons Ratio (x) = -5.25522 0.01977
# Poissons Ratio (y) = 2.58022 0.94795
# Poissons Ratio (z) = -0.21445 20.94372
#
# Static dielectric constant tensor:
#      x y z
#    x 1.726950 0.000000 -0.068930 
#    y 0.000000 1.709920 0.000000 
#    z -0.068930 0.000000 1.750470 
# 
# From -- ./inp_files/38285.got.cif
#   From: 2010.05.17/outbox.ucp.g08.bks.cvg/sg11_20_cif.got.tgz:38285.got - 2010.06.11 11:38:39.
