data_PCOD9167571
_publ_section_title
;
Structure prediction by ZEFSAII (Michael W. Deem and Ramdas Pophale) SiO2 
 PCOD9167571
Probable space group: P 21/M
;
_chemical_formula_sum "Si O2"
_cell_formula_units_Z 24
_cell_length_a 9.961314
_cell_length_b 13.997785
_cell_length_c 19.919502
_cell_angle_alpha 90.000000
_cell_angle_beta 28.436918
_cell_angle_gamma 90.000000
_cell_volume 1322.621324
_symmetry_space_group_name_H-M "P 21/M"
_symmetry_group_IT_number 11
_symmetry_cell_setting 'monoclinic'
loop_
_space_group_symop_operation_xyz
x,y,z
-x,1/2+y,-z
-x,-y,-z
x,1/2-y,z
loop_
_atom_site_type_symbol
_atom_site_label
_atom_site_fract_x
_atom_site_fract_y
_atom_site_fract_z
Si Si1 0.198347 0.044914 0.117484
Si Si2 0.847337 0.456679 0.133267
Si Si3 0.962342 0.750000 0.758417
Si Si4 0.393453 0.250000 0.476766
Si Si5 0.018627 0.750000 0.572515
Si Si6 0.760803 0.044826 0.558143
Si Si7 0.559475 0.250000 0.251696
Si Si8 0.217391 0.045360 0.596065
O O1 0.182940 0.154240 0.150139
O O2 0.062828 0.040447 0.102179
O O3 0.005433 0.982405 0.250993
O O4 0.500000 0.000000 0.000000
O O5 0.555523 0.513410 0.280376
O O6 0.745314 0.346755 0.166502
O O7 0.000000 0.500000 0.000000
O O8 0.997161 0.750000 0.662776
O O9 0.278983 0.750000 0.647654
O O10 0.399391 0.250000 0.393804
O O11 0.251345 0.156688 0.568728
O O12 0.695017 0.750000 0.689409
O O13 0.183343 0.657373 0.472981
O O14 0.826962 0.002569 0.456006
O O15 0.000000 0.000000 0.500000
O O16 0.500000 0.000000 0.500000
#
# Coordination Sequence:
#
# PCOD9167571 Si02
#       8
#     4   4   2   2   2   4   2   4
#     4  12  27  45  69 102 140 180 230 287 349 413
#     4  12  27  46  69  98 144 185 222 285 349 422
#     4  12  22  43  72  94 134 179 230 288 352 408
#     4  12  20  41  74  96 126 185 232 282 344 404
#     4  12  24  37  74 108 128 177 234 290 341 400
#     4  12  23  42  69 102 134 172 235 285 333 404
#     4  12  22  47  68  94 134 189 226 266 357 420
#     4  12  21  42  69 100 127 175 233 290 332 398
#
# _framework density 18.145783999999999
#
# number of rings (size 3 to 8) (size 9 to 14) (size 15 to 20)
#    0.000    0.000   10.000    0.000    4.667    1.333 
#    0.000    1.667    0.000    0.000    0.000    0.000 
#    0.000    0.000    0.000    0.000    0.000    0.000 
#
# Total GULP energy -134059.582395 kJ/mol
# GULP energy per Si atom -5585.815933 kJ/mol
# Density = 1.810448 g / cm^3
# Si number density = 18.145784 Si / 1000 Ang^3
#
#
#
# Elastic Constant Matrix: (Units=GPa)
#
#
# Indices 1 2 3 4 5 6 
#
# 1 110.7047 28.6727 26.1890 0.0000 -0.4028 0.0000
# 2 28.6727 198.2134 53.9159 0.0000 3.0812 0.0000
# 3 26.1890 53.9159 110.7008 0.0000 -2.7114 0.0000
# 4 0.0000 0.0000 0.0000 76.8951 0.0000 5.9256
# 5 -0.4028 3.0812 -2.7114 0.0000 38.0263 0.0000
# 6 0.0000 0.0000 0.0000 5.9256 0.0000 26.0524
#
#
#
# Elastic Compliance Matrix: (Units=1/GPa)
#
#
# Indices 1 2 3 4 5 6 
#
# 1 0.009705 -0.000900 -0.001857 0.000000 0.000043 0.000000
# 2 -0.000900 0.005916 -0.002685 0.000000 -0.000680 0.000000
# 3 -0.001857 -0.002685 0.010804 0.000000 0.000968 0.000000
# 4 0.000000 0.000000 0.000000 0.013237 0.000000 -0.003011
# 5 0.000043 -0.000680 0.000968 0.000000 0.026422 0.000000
# 6 0.000000 0.000000 0.000000 -0.003011 0.000000 0.039069
#
#
# Mechanical properties :
#
#
# Convention : Reuss Voigt Hill
#
# Bulk Modulus (GPa) = 64.33999 70.79711 67.56855
# Shear Modulus (GPa) = 41.24798 48.91751 45.08275
#
# Velocity S-wave (km/s) = 4.77292 5.19775 4.98986
# Velocity P-wave (km/s) = 8.11841 8.66733 8.39736
#
# Compressibility (1/GPa) = 0.01554243
#
# Stress axis : x y z
#
# Youngs Moduli (GPa) = 103.03483 169.02765 92.55639
#
# Poissons Ratio (x) = 0.15205 0.17187
# Poissons Ratio (y) = 0.09268 0.24854
# Poissons Ratio (z) = 0.19133 0.45389
#
# Static dielectric constant tensor:
#      x y z
#    x 1.608520 0.000000 0.005240 
#    y 0.000000 1.629290 0.000000 
#    z 0.005240 0.000000 1.565010 
# 
# From -- ./inp_files/58082.got.cif
#   From: 2010.05.17/outbox.cif.g08.bks.cpg/sg11_30_cif.got.tgz:58082.got - 2010.06.03 12:22:45.
