data_PCOD9167275
_publ_section_title
;
Structure prediction by ZEFSAII (Michael W. Deem and Ramdas Pophale) SiO2 
 PCOD9167275
Probable space group: P 21/M
;
_chemical_formula_sum "Si O2"
_cell_formula_units_Z 32
_cell_length_a 8.829562
_cell_length_b 20.355958
_cell_length_c 14.873248
_cell_angle_alpha 90.000000
_cell_angle_beta 40.817635
_cell_angle_gamma 90.000000
_cell_volume 1747.367131
_symmetry_space_group_name_H-M "P 21/M"
_symmetry_group_IT_number 11
_symmetry_cell_setting 'monoclinic'
loop_
_space_group_symop_operation_xyz
x,y,z
-x,1/2+y,-z
-x,-y,-z
x,1/2-y,z
loop_
_atom_site_type_symbol
_atom_site_label
_atom_site_fract_x
_atom_site_fract_y
_atom_site_fract_z
Si Si1 0.344595 0.935123 0.574434
Si Si2 0.826340 0.402557 0.830676
Si Si3 0.578036 0.608168 0.864364
Si Si4 0.168233 0.174851 0.412365
Si Si5 0.086615 0.450398 0.136117
Si Si6 0.712530 0.827120 0.436681
Si Si7 0.836394 0.442153 0.535710
Si Si8 0.512396 0.538405 0.166617
O O1 0.503510 0.871265 0.493665
O O2 0.175069 0.943483 0.565840
O O3 0.180686 0.931059 0.735447
O O4 0.500000 0.000000 0.500000
O O5 0.899174 0.473514 0.838396
O O6 0.664706 0.420878 0.817802
O O7 0.046728 0.359724 0.704473
O O8 0.656583 0.369821 0.980403
O O9 0.677149 0.654317 0.742464
O O10 0.762624 0.592430 0.860605
O O11 0.527640 0.537467 0.841546
O O12 0.095024 0.250000 0.437098
O O13 0.293682 0.166878 0.451912
O O14 0.952079 0.125865 0.511136
O O15 0.226327 0.444678 0.979844
O O16 0.700280 0.750000 0.419076
O O17 0.580816 0.450329 0.691811
O O18 0.000000 0.500000 0.500000
#
# Coordination Sequence:
#
# PCOD9167275 Si02
#       8
#     4   4   4   4   4   4   4   4
#     4  12  23  36  58  84 118 151 188 228 288 352
#     4   9  16  33  57  84 114 140 186 230 289 336
#     4   9  17  31  57  87 110 143 181 242 282 325
#     4  11  22  36  56  84 113 147 195 237 275 330
#     4   9  17  33  54  87 112 141 183 237 286 331
#     4  11  24  39  55  80 118 157 186 230 288 347
#     4  12  20  36  62  87 110 146 193 241 281 327
#     4   9  17  30  59  86 112 136 184 244 286 322
#
# _framework density 18.313265999999999
#
# number of rings (size 3 to 8) (size 9 to 14) (size 15 to 20)
#    0.000    1.750    5.000    3.000    0.000    1.000 
#    0.000    1.875    0.000    0.750    0.000    0.000 
#    0.000    0.000    0.000    0.000    0.000    0.000 
#
# Total GULP energy -178494.952257 kJ/mol
# GULP energy per Si atom -5577.967258 kJ/mol
# Density = 1.827158 g / cm^3
# Si number density = 18.313266 Si / 1000 Ang^3
#
#
#
# Elastic Constant Matrix: (Units=GPa)
#
#
# Indices 1 2 3 4 5 6 
#
# 1 21.8025 28.2421 2.3438 0.0000 -6.4247 0.0000
# 2 28.2421 94.3698 36.2858 0.0000 -8.6011 0.0000
# 3 2.3438 36.2858 142.9328 0.0000 -10.1477 0.0000
# 4 0.0000 0.0000 0.0000 23.3226 0.0000 1.9181
# 5 -6.4247 -8.6011 -10.1477 0.0000 26.4222 0.0000
# 6 0.0000 0.0000 0.0000 1.9181 0.0000 19.9827
#
#
#
# Elastic Compliance Matrix: (Units=1/GPa)
#
#
# Indices 1 2 3 4 5 6 
#
# 1 0.082946 -0.025930 0.006225 0.000000 0.014119 0.000000
# 2 -0.025930 0.020047 -0.004779 0.000000 -0.001615 0.000000
# 3 0.006225 -0.004779 0.008332 0.000000 0.003158 0.000000
# 4 0.000000 0.000000 0.000000 0.043218 0.000000 -0.004149
# 5 0.014119 -0.001615 0.003158 0.000000 0.041967 0.000000
# 6 0.000000 0.000000 0.000000 -0.004149 0.000000 0.050441
#
#
# Mechanical properties :
#
#
# Convention : Reuss Voigt Hill
#
# Bulk Modulus (GPa) = 16.03661 43.64985 29.84323
# Shear Modulus (GPa) = 15.78756 26.76107 21.27431
#
# Velocity S-wave (km/s) = 2.93931 3.82683 3.41205
# Velocity P-wave (km/s) = 4.50502 6.58886 5.64395
#
# Compressibility (1/GPa) = 0.06235732
#
# Stress axis : x y z
#
# Youngs Moduli (GPa) = 12.05598 49.88273 120.02556
#
# Poissons Ratio (x) = 1.29347 -0.74716
# Poissons Ratio (y) = 0.31261 0.57356
# Poissons Ratio (z) = -0.07505 0.23837
#
# Static dielectric constant tensor:
#      x y z
#    x 1.655150 0.000000 -0.006420 
#    y 0.000000 1.590570 0.000000 
#    z -0.006420 0.000000 1.685230 
# 
# From -- ./inp_files/23096.got.cif
#   From: 2010.05.17/outbox.cif.g08.bks.cpg/sg11_12_cif.got.tgz:23096.got - 2010.06.03 12:22:45.
