data_PCOD9167751
_publ_section_title
;
Structure prediction by ZEFSAII (Michael W. Deem and Ramdas Pophale) SiO2 
 PCOD9167751
Probable space group: P 21/M
;
_chemical_formula_sum "Si O2"
_cell_formula_units_Z 24
_cell_length_a 12.000000
_cell_length_b 9.000000
_cell_length_c 24.000000
_cell_angle_alpha 90.000000
_cell_angle_beta 150.000000
_cell_angle_gamma 90.000000
_cell_volume 1296.000000
_symmetry_space_group_name_H-M "P 21/M"
_symmetry_group_IT_number 11
_symmetry_cell_setting 'monoclinic'
loop_
_space_group_symop_operation_xyz
x,y,z
-x,1/2+y,-z
-x,-y,-z
x,1/2-y,z
loop_
_atom_site_type_symbol
_atom_site_label
_atom_site_fract_x
_atom_site_fract_y
_atom_site_fract_z
Si Si1 0.740570 0.581314 0.164849
Si Si2 0.857118 0.076984 0.985408
Si Si3 0.269780 0.419451 0.968324
Si Si4 0.993575 0.917072 0.634150
Si Si5 0.549982 0.418818 0.239609
Si Si6 0.779607 0.928606 0.432487
O O1 0.674591 0.750000 0.149884
O O2 0.801291 0.574167 0.126376
O O3 0.944004 0.528814 0.290563
O O4 0.524086 0.478423 0.079225
O O5 0.888595 0.250000 0.997564
O O6 0.607365 0.027989 0.862108
O O7 0.888224 0.013385 0.060408
O O8 0.000000 0.000000 0.000000
O O9 0.271272 0.250000 0.988833
O O10 0.960304 0.750000 0.641316
O O11 0.215443 0.913234 0.691328
O O12 0.798869 0.956074 0.506655
O O13 0.464595 0.250000 0.205576
O O14 0.584502 0.489329 0.315296
O O15 0.778404 0.750000 0.423144
O O16 0.000000 0.000000 0.500000
#
# Coordination Sequence:
#
# PCOD9167751 Si02
#       6
#     4   4   4   4   4   4
#     4  10  19  29  48  73  99 133 166 200 246 295
#     4  12  24  37  54  73  96 131 170 208 249 295
#     4  10  20  34  48  69 100 130 166 207 245 292
#     4   9  17  28  45  69 101 133 162 199 244 293
#     4  10  19  32  48  69  98 130 163 206 248 291
#     4   9  17  28  43  66  96 131 165 200 244 294
#
# _framework density 18.518519000000001
#
# number of rings (size 3 to 8) (size 9 to 14) (size 15 to 20)
#    0.000    2.000    1.667    4.500    0.000    5.333 
#    0.000    0.000    0.000    0.000    0.000    1.167 
#    0.000    0.000    0.000    0.000    0.000    0.000 
#
# Total GULP energy -133699.832824 kJ/mol
# GULP energy per Si atom -5570.826368 kJ/mol
# Density = 1.847637 g / cm^3
# Si number density = 18.518519 Si / 1000 Ang^3
#
#
#
# Elastic Constant Matrix: (Units=GPa)
#
#
# Indices 1 2 3 4 5 6 
#
# 1 59.0800 52.6091 18.9026 0.0000 -15.2186 0.0000
# 2 52.6091 131.9663 21.3683 0.0000 -24.6721 0.0000
# 3 18.9026 21.3683 35.1713 0.0000 -30.8871 0.0000
# 4 0.0000 0.0000 0.0000 22.6458 0.0000 -6.5333
# 5 -15.2186 -24.6721 -30.8871 0.0000 22.3714 0.0000
# 6 0.0000 0.0000 0.0000 -6.5333 0.0000 22.6633
#
#
#
# Elastic Compliance Matrix: (Units=1/GPa)
#
#
# Indices 1 2 3 4 5 6 
#
# 1 0.027006 -0.008425 0.006691 0.000000 0.018318 0.000000
# 2 -0.008425 0.010544 -0.015536 0.000000 -0.015552 0.000000
# 3 0.006691 -0.015536 -0.109313 0.000000 -0.163504 0.000000
# 4 0.000000 0.000000 0.000000 0.048164 0.000000 0.013885
# 5 0.018318 -0.015552 -0.163504 0.000000 -0.185732 0.000000
# 6 0.000000 0.000000 0.000000 0.013885 0.000000 0.048127
#
#
# Mechanical properties :
#
#
# Convention : Reuss Voigt Hill
#
# Bulk Modulus (GPa) = -9.40723 45.77531 18.18404
# Shear Modulus (GPa) = -30.84542 22.42528 -4.21007
#
# Velocity S-wave (km/s) = -4.08567 3.48367 -1.50943
# Velocity P-wave (km/s) = 5.22952 6.39950 2.60823
#
# Compressibility (1/GPa) = -0.10630123
#
# Stress axis : x y z
#
# Youngs Moduli (GPa) = 37.02859 94.83702 -9.14804
#
# Poissons Ratio (x) = 0.79899 0.06121
# Poissons Ratio (y) = 0.31196 -0.14212
# Poissons Ratio (z) = -0.24776 1.47334
#
# Static dielectric constant tensor:
#      x y z
#    x 1.724940 0.000000 0.211940 
#    y 0.000000 1.641350 0.000000 
#    z 0.211940 0.000000 2.794050 
# 
# From -- ./inp_files/37242.got.cif
#   From: 2010.05.17/outbox.ucp.g08.bks.cvg/sg11_19_cif.got.tgz:37242.got - 2010.06.11 11:38:39.
