data_PCOD9167300
_publ_section_title
;
Structure prediction by ZEFSAII (Michael W. Deem and Ramdas Pophale) SiO2 
 PCOD9167300
Probable space group: P 21/M
;
_chemical_formula_sum "Si O2"
_cell_formula_units_Z 24
_cell_length_a 24.867997
_cell_length_b 8.597084
_cell_length_c 18.589113
_cell_angle_alpha 90.000000
_cell_angle_beta 160.850890
_cell_angle_gamma 90.000000
_cell_volume 1303.650556
_symmetry_space_group_name_H-M "P 21/M"
_symmetry_group_IT_number 11
_symmetry_cell_setting 'monoclinic'
loop_
_space_group_symop_operation_xyz
x,y,z
-x,1/2+y,-z
-x,-y,-z
x,1/2-y,z
loop_
_atom_site_type_symbol
_atom_site_label
_atom_site_fract_x
_atom_site_fract_y
_atom_site_fract_z
Si Si1 0.985319 0.435371 0.062282
Si Si2 0.834497 0.937339 0.257422
Si Si3 0.353490 0.439050 0.117563
Si Si4 0.509148 0.563034 0.931615
Si Si5 0.669245 0.562520 0.746421
Si Si6 0.315691 0.938532 0.548752
O O1 0.974749 0.250000 0.046303
O O2 0.147480 0.487889 0.310092
O O3 0.823850 0.501496 0.897039
O O4 0.000000 0.500000 0.000000
O O5 0.841844 0.750000 0.265680
O O6 0.785145 0.989760 0.114582
O O7 0.681235 0.983794 0.113361
O O8 0.000000 0.000000 0.500000
O O9 0.352812 0.250000 0.116540
O O10 0.323628 0.489679 0.161101
O O11 0.531694 0.482976 0.310540
O O12 0.505027 0.750000 0.928859
O O13 0.369314 0.515847 0.697518
O O14 0.500000 0.500000 0.000000
O O15 0.500000 0.500000 0.500000
O O16 0.668926 0.750000 0.744223
O O17 0.301835 0.750000 0.528733
#
# Coordination Sequence:
#
# PCOD9167300 Si02
#       6
#     4   4   4   4   4   4
#     4  12  25  40  58  83 113 146 183 229 280 336
#     4   9  18  34  53  77 106 141 181 222 267 319
#     4   8  17  35  58  78 104 141 180 220 270 326
#     4   9  19  34  54  79 111 147 185 228 276 328
#     4  11  22  38  60  86 113 145 183 226 275 332
#     4   9  18  37  60  81 107 144 186 231 279 329
#
# _framework density 18.409842000000001
#
# number of rings (size 3 to 8) (size 9 to 14) (size 15 to 20)
#    0.000    2.333    0.000    5.000    0.000    4.000 
#    0.000   10.000    0.000    0.000    0.000    0.000 
#    0.000    0.000    0.000    0.000    0.000    0.000 
#
# Total GULP energy -133945.998689 kJ/mol
# GULP energy per Si atom -5581.083279 kJ/mol
# Density = 1.836794 g / cm^3
# Si number density = 18.409842 Si / 1000 Ang^3
#
#
#
# Elastic Constant Matrix: (Units=GPa)
#
#
# Indices 1 2 3 4 5 6 
#
# 1 191.6077 46.3968 111.5864 0.0000 -24.7063 0.0000
# 2 46.3968 52.2674 48.4688 0.0000 -4.4804 0.0000
# 3 111.5864 48.4688 198.5929 0.0000 -16.4033 0.0000
# 4 0.0000 0.0000 0.0000 37.3040 0.0000 -0.3297
# 5 -24.7063 -4.4804 -16.4033 0.0000 23.8584 0.0000
# 6 0.0000 0.0000 0.0000 -0.3297 0.0000 28.7707
#
#
#
# Elastic Compliance Matrix: (Units=1/GPa)
#
#
# Indices 1 2 3 4 5 6 
#
# 1 0.009135 -0.004256 -0.003582 0.000000 0.006197 0.000000
# 2 -0.004256 0.026718 -0.004325 0.000000 -0.002363 0.000000
# 3 -0.003582 -0.004325 0.008196 0.000000 0.001113 0.000000
# 4 0.000000 0.000000 0.000000 0.026810 0.000000 0.000307
# 5 0.006197 -0.002363 0.001113 0.000000 0.048653 0.000000
# 6 0.000000 0.000000 0.000000 0.000307 0.000000 0.034761
#
#
# Mechanical properties :
#
#
# Convention : Reuss Voigt Hill
#
# Bulk Modulus (GPa) = 50.70192 95.04133 72.87163
# Shear Modulus (GPa) = 27.00197 33.72101 30.36149
#
# Velocity S-wave (km/s) = 3.83393 4.28446 4.06544
# Velocity P-wave (km/s) = 6.87016 8.73000 7.85531
#
# Compressibility (1/GPa) = 0.01972312
#
# Stress axis : x y z
#
# Youngs Moduli (GPa) = 109.47257 37.42796 122.01634
#
# Poissons Ratio (x) = 0.15928 0.43708
# Poissons Ratio (y) = 0.46588 0.52770
# Poissons Ratio (z) = 0.39214 0.16187
#
# Static dielectric constant tensor:
#      x y z
#    x 1.629990 0.000000 -0.016860 
#    y 0.000000 1.633010 0.000000 
#    z -0.016860 0.000000 1.611430 
# 
# From -- ./inp_files/20481.got.cif
#   From: 2010.05.17/outbox.cif.g08.bks.cpg/sg11_11_cif.got.tgz:20481.got - 2010.06.03 12:22:45.
