data_PCOD9167257
_publ_section_title
;
Structure prediction by ZEFSAII (Michael W. Deem and Ramdas Pophale) SiO2 
 PCOD9167257
Probable space group: P 21/M
;
_chemical_formula_sum "Si O2"
_cell_formula_units_Z 28
_cell_length_a 18.247482
_cell_length_b 9.173325
_cell_length_c 16.692079
_cell_angle_alpha 90.000000
_cell_angle_beta 26.001121
_cell_angle_gamma 90.000000
_cell_volume 1224.896908
_symmetry_space_group_name_H-M "P 21/M"
_symmetry_group_IT_number 11
_symmetry_cell_setting 'monoclinic'
loop_
_space_group_symop_operation_xyz
x,y,z
-x,1/2+y,-z
-x,-y,-z
x,1/2-y,z
loop_
_atom_site_type_symbol
_atom_site_label
_atom_site_fract_x
_atom_site_fract_y
_atom_site_fract_z
Si Si1 0.738038 0.082471 0.242394
Si Si2 0.679437 0.577543 0.910785
Si Si3 0.893082 0.917648 0.851882
Si Si4 0.549967 0.580133 0.293877
Si Si5 0.918780 0.582575 0.201075
Si Si6 0.352771 0.575579 0.341490
Si Si7 0.157621 0.924622 0.386113
O O1 0.694009 0.250000 0.297266
O O2 0.598876 0.002343 0.326235
O O3 0.787035 0.007355 0.277708
O O4 0.909393 0.079235 0.020867
O O5 0.690434 0.750000 0.878596
O O6 0.830774 0.544715 0.824312
O O7 0.695781 0.474993 0.818349
O O8 0.513412 0.556539 0.125894
O O9 0.950712 0.750000 0.794951
O O10 0.721496 0.922144 0.072655
O O11 0.027157 0.012679 0.767747
O O12 0.515411 0.750000 0.343991
O O13 0.408405 0.516396 0.373377
O O14 0.867544 0.750000 0.259659
O O15 0.334359 0.750000 0.370601
O O16 0.202015 0.525716 0.432827
O O17 0.141057 0.750000 0.402900
O O18 0.000000 0.000000 0.500000
#
# Coordination Sequence:
#
# PCOD9167257 Si02
#       7
#     4   4   4   4   4   4   4
#     4   9  15  21  30  49  79 113 147 182 221 263
#     4   9  17  32  52  72  93 120 155 195 239 284
#     4   8  14  24  39  58  82 111 143 182 227 271
#     4   8  13  24  40  57  79 110 147 184 223 269
#     4   9  15  21  31  49  77 114 151 182 215 260
#     4   8  16  31  51  71  92 121 157 195 236 282
#     4  11  22  35  50  70  96 125 156 192 235 282
#
# _framework density 22.859065999999999
#
# number of rings (size 3 to 8) (size 9 to 14) (size 15 to 20)
#    0.000    3.143    0.000    3.429    0.000    4.000 
#    0.000    4.286    0.000    0.000    0.000    0.000 
#    0.000    1.143    0.000    3.429    0.000    7.143 
#
# Total GULP energy -156469.097008 kJ/mol
# GULP energy per Si atom -5588.182036 kJ/mol
# Density = 2.280704 g / cm^3
# Si number density = 22.859066 Si / 1000 Ang^3
#
#
#
# Elastic Constant Matrix: (Units=GPa)
#
#
# Indices 1 2 3 4 5 6 
#
# 1 223.9720 95.8963 42.3257 0.0000 -33.8815 0.0000
# 2 95.8963 94.2641 7.9431 0.0000 -27.0212 0.0000
# 3 42.3257 7.9431 87.3594 0.0000 -15.7440 0.0000
# 4 0.0000 0.0000 0.0000 3.3058 0.0000 -8.1579
# 5 -33.8815 -27.0212 -15.7440 0.0000 50.3417 0.0000
# 6 0.0000 0.0000 0.0000 -8.1579 0.0000 31.8538
#
#
#
# Elastic Compliance Matrix: (Units=1/GPa)
#
#
# Indices 1 2 3 4 5 6 
#
# 1 0.008861 -0.008655 -0.003464 0.000000 0.000235 0.000000
# 2 -0.008655 0.020992 0.003461 0.000000 0.006525 0.000000
# 3 -0.003464 0.003461 0.013485 0.000000 0.003744 0.000000
# 4 0.000000 0.000000 0.000000 0.822003 0.000000 0.210520
# 5 0.000235 0.006525 0.003744 0.000000 0.024695 0.000000
# 6 0.000000 0.000000 0.000000 0.210520 0.000000 0.085309
#
#
# Mechanical properties :
#
#
# Convention : Reuss Voigt Hill
#
# Bulk Modulus (GPa) = 38.42960 77.54731 57.98845
# Shear Modulus (GPa) = 4.99333 34.39563 19.69448
#
# Velocity S-wave (km/s) = 1.47957 3.88323 2.93842
# Velocity P-wave (km/s) = 4.44600 7.35552 6.07744
#
# Compressibility (1/GPa) = 0.02602161
#
# Stress axis : x y z
#
# Youngs Moduli (GPa) = 112.85900 47.63706 74.15542
#
# Poissons Ratio (x) = 0.41229 0.25686
# Poissons Ratio (y) = 0.97679 -0.25662
# Poissons Ratio (z) = 0.39091 -0.16485
#
# Static dielectric constant tensor:
#      x y z
#    x 1.847740 0.000000 0.015120 
#    y 0.000000 1.748120 0.000000 
#    z 0.015120 0.000000 1.967340 
# 
# From -- ./inp_files/61305.got.cif
#   From: 2010.05.17/outbox.cif.g08.bks.cpg/sg11_31_cif.got.tgz:61305.got - 2010.06.03 12:22:45.
