data_PCOD9167893
_publ_section_title
;
Structure prediction by ZEFSAII (Michael W. Deem and Ramdas Pophale) SiO2 
 PCOD9167893
Probable space group: P 21/M
;
_chemical_formula_sum "Si O2"
_cell_formula_units_Z 28
_cell_length_a 15.000000
_cell_length_b 9.000000
_cell_length_c 18.000000
_cell_angle_alpha 90.000000
_cell_angle_beta 40.000000
_cell_angle_gamma 90.000000
_cell_volume 1561.973892
_symmetry_space_group_name_H-M "P 21/M"
_symmetry_group_IT_number 11
_symmetry_cell_setting 'monoclinic'
loop_
_space_group_symop_operation_xyz
x,y,z
-x,1/2+y,-z
-x,-y,-z
x,1/2-y,z
loop_
_atom_site_type_symbol
_atom_site_label
_atom_site_fract_x
_atom_site_fract_y
_atom_site_fract_z
Si Si1 0.888847 0.929377 0.316008
Si Si2 0.759217 0.927076 0.551114
Si Si3 0.570434 0.927364 0.098918
Si Si4 0.167439 0.426883 0.172321
Si Si5 0.571489 0.427275 0.254575
Si Si6 0.729041 0.930853 0.734048
Si Si7 0.367871 0.070186 0.627195
O O1 0.894030 0.750000 0.313985
O O2 0.839998 0.986998 0.428506
O O3 0.771993 0.968330 0.329602
O O4 0.042165 0.993446 0.209936
O O5 0.783274 0.750000 0.536905
O O6 0.595805 0.948174 0.639172
O O7 0.790344 0.980630 0.614860
O O8 0.550022 0.750000 0.120641
O O9 0.616196 0.998209 0.148496
O O10 0.426438 0.003509 0.166232
O O11 0.688634 0.953013 0.962407
O O12 0.141672 0.250000 0.188954
O O13 0.187718 0.475807 0.245326
O O14 0.598155 0.250000 0.238092
O O15 0.631516 0.504448 0.289903
O O16 0.719352 0.750000 0.740048
O O17 0.380848 0.250000 0.620156
O O18 0.500000 0.000000 0.500000
#
# Coordination Sequence:
#
# PCOD9167893 Si02
#       7
#     4   4   4   4   4   4   4
#     4  10  21  36  53  77 111 147 182 221 267 326
#     4   8  15  31  52  77 108 138 172 219 269 316
#     4  10  20  35  55  81 111 140 183 233 273 319
#     4  10  22  37  52  77 112 148 185 229 272 318
#     4  10  19  35  58  83 110 139 179 227 279 327
#     4   9  18  34  57  80 107 144 184 226 274 322
#     4  11  21  35  57  85 113 142 181 225 272 324
#
# _framework density 17.926036
#
# number of rings (size 3 to 8) (size 9 to 14) (size 15 to 20)
#    0.000    2.286    1.429    2.571    0.000    3.429 
#    0.000    1.429    0.000    0.000    0.000    0.000 
#    0.000    0.000    0.000    0.000    0.000    0.000 
#
# Total GULP energy -156164.316960 kJ/mol
# GULP energy per Si atom -5577.297034 kJ/mol
# Density = 1.788524 g / cm^3
# Si number density = 17.926036 Si / 1000 Ang^3
#
#
#
# Elastic Constant Matrix: (Units=GPa)
#
#
# Indices 1 2 3 4 5 6 
#
# 1 122.6452 25.9623 11.3944 0.0000 9.3340 0.0000
# 2 25.9623 36.1901 3.9849 0.0000 2.7890 0.0000
# 3 11.3944 3.9849 12.3934 0.0000 6.6684 0.0000
# 4 0.0000 0.0000 0.0000 24.8135 0.0000 1.0753
# 5 9.3340 2.7890 6.6684 0.0000 25.2566 0.0000
# 6 0.0000 0.0000 0.0000 1.0753 0.0000 28.6399
#
#
#
# Elastic Compliance Matrix: (Units=1/GPa)
#
#
# Indices 1 2 3 4 5 6 
#
# 1 0.010249 -0.006523 -0.006615 0.000000 -0.001321 0.000000
# 2 -0.006523 0.032813 -0.004547 0.000000 -0.000012 0.000000
# 3 -0.006615 -0.004547 0.100993 0.000000 -0.023718 0.000000
# 4 0.000000 0.000000 0.000000 0.040366 0.000000 -0.001516
# 5 -0.001321 -0.000012 -0.023718 0.000000 0.046345 0.000000
# 6 0.000000 0.000000 0.000000 -0.001516 0.000000 0.034973
#
#
# Mechanical properties :
#
#
# Convention : Reuss Voigt Hill
#
# Bulk Modulus (GPa) = 9.20082 28.21244 18.70663
# Shear Modulus (GPa) = 14.82189 24.40115 19.61152
#
# Velocity S-wave (km/s) = 2.87860 3.69346 3.31119
# Velocity P-wave (km/s) = 4.02395 5.82763 5.00767
#
# Compressibility (1/GPa) = 0.10868598
#
# Stress axis : x y z
#
# Youngs Moduli (GPa) = 97.56594 30.47595 9.90163
#
# Poissons Ratio (x) = 0.19878 0.06550
# Poissons Ratio (y) = 0.63639 0.04502
# Poissons Ratio (z) = 0.64542 0.13858
#
# Static dielectric constant tensor:
#      x y z
#    x 1.601090 0.000000 0.023160 
#    y 0.000000 1.600960 0.000000 
#    z 0.023160 0.000000 1.631790 
# 
# From -- ./inp_files/53208.got.cif
#   From: 2010.05.17/outbox.ucp.g08.bks.cvg/sg11_27_cif.got.tgz:53208.got - 2010.06.11 11:38:39.
