data_PCOD9167501
_publ_section_title
;
Structure prediction by ZEFSAII (Michael W. Deem and Ramdas Pophale) SiO2 
 PCOD9167501
Probable space group: P 21/M
;
_chemical_formula_sum "Si O2"
_cell_formula_units_Z 28
_cell_length_a 18.103498
_cell_length_b 14.444491
_cell_length_c 5.584237
_cell_angle_alpha 90.000000
_cell_angle_beta 117.565669
_cell_angle_gamma 90.000000
_cell_volume 1294.487990
_symmetry_space_group_name_H-M "P 21/M"
_symmetry_group_IT_number 11
_symmetry_cell_setting 'monoclinic'
loop_
_space_group_symop_operation_xyz
x,y,z
-x,1/2+y,-z
-x,-y,-z
x,1/2-y,z
loop_
_atom_site_type_symbol
_atom_site_label
_atom_site_fract_x
_atom_site_fract_y
_atom_site_fract_z
Si Si1 0.826607 0.355160 0.138433
Si Si2 0.949499 0.500079 0.174230
Si Si3 0.222619 0.999924 0.583932
Si Si4 0.826670 0.644859 0.841153
Si Si5 0.679147 0.354262 0.572581
Si Si6 0.679284 0.645720 0.964877
Si Si7 0.499955 0.439324 0.255144
O O1 0.851753 0.250000 0.212392
O O2 0.888833 0.410344 0.059755
O O3 0.829731 0.419751 0.372665
O O4 0.730741 0.355276 0.899789
O O5 0.000000 0.500000 0.500000
O O6 0.888998 0.589950 0.106997
O O7 0.000000 0.500000 0.000000
O O8 0.170201 0.079984 0.383143
O O9 0.280678 0.941958 0.495958
O O10 0.280448 0.058035 0.846081
O O11 0.851736 0.750000 0.841719
O O12 0.730819 0.644756 0.792289
O O13 0.695803 0.250000 0.498637
O O14 0.581774 0.375430 0.405965
O O15 0.695906 0.750000 0.088712
O O16 0.581927 0.624470 0.839607
O O17 0.500000 0.500000 0.500000
O O18 0.500000 0.500000 0.000000
#
# Coordination Sequence:
#
# PCOD9167501 Si02
#       7
#     4   4   4   4   4   4   4
#     4  11  25  45  73 105 145 194 243 297 369 445
#     4  12  27  48  74 106 144 185 235 304 366 429
#     4  12  19  43  70 103 140 192 245 292 360 430
#     4  11  25  45  73 105 145 194 243 297 369 445
#     4  11  24  42  69 104 141 191 241 296 357 431
#     4  11  24  42  69 104 141 191 241 296 357 431
#     4  12  25  44  69 103 147 191 240 300 361 416
#
# _framework density 21.630175000000001
#
# number of rings (size 3 to 8) (size 9 to 14) (size 15 to 20)
#    0.000    0.571    4.286    3.857    0.000    1.143 
#    0.000    1.429    0.000    0.000    0.000    0.000 
#    0.000    0.000    0.000    0.000    0.000    0.000 
#
# Total GULP energy -156076.264482 kJ/mol
# GULP energy per Si atom -5574.152303 kJ/mol
# Density = 2.158094 g / cm^3
# Si number density = 21.630175 Si / 1000 Ang^3
#
#
#
# Elastic Constant Matrix: (Units=GPa)
#
#
# Indices 1 2 3 4 5 6 
#
# 1 95.6804 41.3436 44.8699 0.0000 14.7029 0.0000
# 2 41.3436 217.8869 45.1927 0.0000 -4.1638 0.0000
# 3 44.8699 45.1927 78.9482 0.0000 -1.2018 0.0000
# 4 0.0000 0.0000 0.0000 23.1966 0.0000 -12.5205
# 5 14.7029 -4.1638 -1.2018 0.0000 30.3489 0.0000
# 6 0.0000 0.0000 0.0000 -12.5205 0.0000 8.6995
#
#
#
# Elastic Compliance Matrix: (Units=1/GPa)
#
#
# Indices 1 2 3 4 5 6 
#
# 1 0.016450 -0.001496 -0.008623 0.000000 -0.008516 0.000000
# 2 -0.001496 0.005355 -0.002194 0.000000 0.001372 0.000000
# 3 -0.008623 -0.002194 0.018894 0.000000 0.004625 0.000000
# 4 0.000000 0.000000 0.000000 0.193176 0.000000 0.278024
# 5 -0.008516 0.001372 0.004625 0.000000 0.037447 0.000000
# 6 0.000000 0.000000 0.000000 0.278024 0.000000 0.515091
#
#
# Mechanical properties :
#
#
# Convention : Reuss Voigt Hill
#
# Bulk Modulus (GPa) = 62.21591 72.81421 67.51506
# Shear Modulus (GPa) = 6.12448 29.85627 17.99037
#
# Velocity S-wave (km/s) = 1.68452 3.71928 2.88709
# Velocity P-wave (km/s) = 5.71046 7.22360 6.51114
#
# Compressibility (1/GPa) = 0.01607306
#
# Stress axis : x y z
#
# Youngs Moduli (GPa) = 60.78984 186.75259 52.92748
#
# Poissons Ratio (x) = 0.27931 0.45639
# Poissons Ratio (y) = 0.09092 0.11614
# Poissons Ratio (z) = 0.52418 0.40979
#
# Static dielectric constant tensor:
#      x y z
#    x 1.895080 0.000000 -0.016180 
#    y 0.000000 1.375220 0.000000 
#    z -0.016180 0.000000 1.913110 
# 
# From -- ./inp_files/8141.got.cif
#   From: 2010.05.17/outbox.cif.g08.bks.cpg/sg11_5_cif.got.tgz:8141.got - 2010.06.03 12:22:45.
