data_PCOD9167396
_publ_section_title
;
Structure prediction by ZEFSAII (Michael W. Deem and Ramdas Pophale) SiO2 
 PCOD9167396
Probable space group: P 21/M
;
_chemical_formula_sum "Si O2"
_cell_formula_units_Z 24
_cell_length_a 12.698996
_cell_length_b 7.886109
_cell_length_c 9.832715
_cell_angle_alpha 90.000000
_cell_angle_beta 78.546493
_cell_angle_gamma 90.000000
_cell_volume 965.094565
_symmetry_space_group_name_H-M "P 21/M"
_symmetry_group_IT_number 11
_symmetry_cell_setting 'monoclinic'
loop_
_space_group_symop_operation_xyz
x,y,z
-x,1/2+y,-z
-x,-y,-z
x,1/2-y,z
loop_
_atom_site_type_symbol
_atom_site_label
_atom_site_fract_x
_atom_site_fract_y
_atom_site_fract_z
Si Si1 0.158569 0.544774 0.010122
Si Si2 0.478409 0.559842 0.853030
Si Si3 0.298090 0.552938 0.214802
Si Si4 0.177006 0.448560 0.495199
Si Si5 0.610792 0.455696 0.395328
Si Si6 0.050160 0.048236 0.774086
O O1 0.155953 0.750000 0.008356
O O2 0.260148 0.496243 0.075173
O O3 0.055804 0.480517 0.123855
O O4 0.143634 0.483204 0.861273
O O5 0.438513 0.750000 0.875572
O O6 0.599759 0.551643 0.762621
O O7 0.404480 0.479031 0.756040
O O8 0.500000 0.500000 0.000000
O O9 0.329977 0.750000 0.203381
O O10 0.200621 0.536004 0.345774
O O11 0.158700 0.250000 0.474708
O O12 0.286477 0.470664 0.554402
O O13 0.084364 0.519520 0.618256
O O14 0.500000 0.500000 0.500000
O O15 0.621856 0.250000 0.392133
O O16 0.036689 0.250000 0.762771
#
# Coordination Sequence:
#
# PCOD9167396 Si02
#       6
#     4   4   4   4   4   4
#     4   9  20  39  61  86 118 152 192 240 290 346
#     4  11  25  42  61  87 119 155 196 240 291 348
#     4  11  23  39  60  87 119 155 195 243 293 344
#     4  11  23  38  59  88 119 155 197 241 291 348
#     4  11  23  40  62  86 117 156 196 239 288 345
#     4   9  20  39  61  87 117 152 193 238 290 348
#
# _framework density 24.868027999999999
#
# number of rings (size 3 to 8) (size 9 to 14) (size 15 to 20)
#    0.000    1.667    1.667    2.000    2.333    5.333 
#    0.000    0.000    0.000    0.000    0.000    0.000 
#    0.000    0.000    0.000    0.000    0.000    0.000 
#
# Total GULP energy -134214.555665 kJ/mol
# GULP energy per Si atom -5592.273153 kJ/mol
# Density = 2.481143 g / cm^3
# Si number density = 24.868028 Si / 1000 Ang^3
#
#
#
# Elastic Constant Matrix: (Units=GPa)
#
#
# Indices 1 2 3 4 5 6 
#
# 1 51.0647 -8.8856 -2.4160 0.0000 3.4606 0.0000
# 2 -8.8856 43.5588 -0.5620 0.0000 0.7824 0.0000
# 3 -2.4160 -0.5620 128.3999 0.0000 2.5375 0.0000
# 4 0.0000 0.0000 0.0000 31.9473 0.0000 1.2182
# 5 3.4606 0.7824 2.5375 0.0000 48.0764 0.0000
# 6 0.0000 0.0000 0.0000 1.2182 0.0000 16.9388
#
#
#
# Elastic Compliance Matrix: (Units=1/GPa)
#
#
# Indices 1 2 3 4 5 6 
#
# 1 0.020441 0.004203 0.000434 0.000000 -0.001563 0.000000
# 2 0.004203 0.023830 0.000197 0.000000 -0.000701 0.000000
# 3 0.000434 0.000197 0.007806 0.000000 -0.000446 0.000000
# 4 0.000000 0.000000 0.000000 0.031388 0.000000 -0.002257
# 5 -0.001563 -0.000701 -0.000446 0.000000 0.020948 0.000000
# 6 0.000000 0.000000 0.000000 -0.002257 0.000000 0.059198
#
#
# Mechanical properties :
#
#
# Convention : Reuss Voigt Hill
#
# Bulk Modulus (GPa) = 16.19537 22.14402 19.16970
# Shear Modulus (GPa) = 28.64945 35.05164 31.85055
#
# Velocity S-wave (km/s) = 3.39788 3.75841 3.58269
# Velocity P-wave (km/s) = 4.68197 5.26860 4.98392
#
# Compressibility (1/GPa) = 0.06174605
#
# Stress axis : x y z
#
# Youngs Moduli (GPa) = 48.92160 41.96384 128.10631
#
# Poissons Ratio (x) = -0.17639 -0.05559
# Poissons Ratio (y) = -0.20564 -0.02527
# Poissons Ratio (z) = -0.02123 -0.00828
#
# Static dielectric constant tensor:
#      x y z
#    x 2.022100 0.000000 -0.062040 
#    y 0.000000 1.905070 0.000000 
#    z -0.062040 0.000000 2.023290 
# 
# From -- ./inp_files/20305.got.cif
#   From: 2010.05.17/outbox.cif.g08.bks.cpg/sg11_11_cif.got.tgz:20305.got - 2010.06.03 12:22:45.
