data_PCOD9167019
_publ_section_title
;
Structure prediction by ZEFSAII (Michael W. Deem and Ramdas Pophale) SiO2 
 PCOD9167019
Probable space group: P 21/M
;
_chemical_formula_sum "Si O2"
_cell_formula_units_Z 32
_cell_length_a 20.725834
_cell_length_b 18.546624
_cell_length_c 14.628321
_cell_angle_alpha 90.000000
_cell_angle_beta 159.777564
_cell_angle_gamma 90.000000
_cell_volume 1943.692745
_symmetry_space_group_name_H-M "P 21/M"
_symmetry_group_IT_number 11
_symmetry_cell_setting 'monoclinic'
loop_
_space_group_symop_operation_xyz
x,y,z
-x,1/2+y,-z
-x,-y,-z
x,1/2-y,z
loop_
_atom_site_type_symbol
_atom_site_label
_atom_site_fract_x
_atom_site_fract_y
_atom_site_fract_z
Si Si1 0.950631 0.665753 0.566439
Si Si2 0.703024 0.534542 0.783278
Si Si3 0.674128 0.053027 0.248761
Si Si4 0.450631 0.165754 0.066442
Si Si5 0.429070 0.442552 0.200112
Si Si6 0.796980 0.965455 0.716729
Si Si7 0.174128 0.946973 0.748756
Si Si8 0.070933 0.057451 0.299890
O O1 0.994433 0.750000 0.631812
O O2 0.936740 0.626193 0.645146
O O3 0.101037 0.621227 0.707768
O O4 0.750002 0.657939 0.249999
O O5 0.500000 0.500000 0.500000
O O6 0.680941 0.572910 0.851806
O O7 0.750004 0.574542 0.750007
O O8 0.863458 0.473745 0.006368
O O9 0.601033 0.121228 0.207763
O O10 0.750005 0.073090 0.250010
O O11 0.822171 0.006496 0.503606
O O12 0.500000 0.000000 0.000000
O O13 0.494432 0.250000 0.131813
O O14 0.436748 0.126193 0.145161
O O15 0.636542 0.473750 0.493632
O O16 0.322178 0.506497 0.003606
O O17 0.819065 0.927084 0.648206
O O18 0.000000 0.000000 0.000000
O O19 0.000000 0.000000 0.500000
#
# Coordination Sequence:
#
# PCOD9167019 Si02
#       8
#     4   4   4   4   4   4   4   4
#     4  11  23  36  52  83 120 149 178 218 274 337
#     4   9  19  31  53  87 103 126 187 245 265 303
#     4  12  19  32  56  84 108 143 188 221 259 328
#     4  11  23  36  52  83 120 149 178 218 274 337
#     4  11  17  33  57  79 106 146 175 224 274 320
#     4   9  19  31  53  87 103 126 187 245 265 303
#     4  12  19  32  56  84 108 143 188 221 259 328
#     4  11  17  33  57  79 106 146 175 224 274 320
#
# _framework density 16.463507
#
# number of rings (size 3 to 8) (size 9 to 14) (size 15 to 20)
#    0.000    1.250    7.500    0.000    0.000    0.500 
#    0.000    0.000    0.000    7.500    0.000    0.000 
#    0.000    0.000    0.000    0.000    0.000    0.000 
#
# Total GULP energy -178358.929819 kJ/mol
# GULP energy per Si atom -5573.716557 kJ/mol
# Density = 1.642604 g / cm^3
# Si number density = 16.463507 Si / 1000 Ang^3
#
#
#
# Elastic Constant Matrix: (Units=GPa)
#
#
# Indices 1 2 3 4 5 6 
#
# 1 206.7706 65.2848 15.0352 0.0000 0.1436 0.0000
# 2 65.2848 110.9013 29.8052 0.0000 0.2586 0.0000
# 3 15.0352 29.8052 90.4920 0.0000 0.1715 0.0000
# 4 0.0000 0.0000 0.0000 8.5429 0.0000 7.0157
# 5 0.1436 0.2586 0.1715 0.0000 25.1719 0.0000
# 6 0.0000 0.0000 0.0000 7.0157 0.0000 19.7317
#
#
#
# Elastic Compliance Matrix: (Units=1/GPa)
#
#
# Indices 1 2 3 4 5 6 
#
# 1 0.005943 -0.003547 0.000181 0.000000 0.000001 0.000000
# 2 -0.003547 0.012010 -0.003366 0.000000 -0.000080 0.000000
# 3 0.000181 -0.003366 0.012129 0.000000 -0.000049 0.000000
# 4 0.000000 0.000000 0.000000 0.165331 0.000000 -0.058784
# 5 0.000001 -0.000080 -0.000049 0.000000 0.039728 0.000000
# 6 0.000000 0.000000 0.000000 -0.058784 0.000000 0.071580
#
#
# Mechanical properties :
#
#
# Convention : Reuss Voigt Hill
#
# Bulk Modulus (GPa) = 60.17721 69.82382 65.00051
# Shear Modulus (GPa) = 15.35034 30.55857 22.95446
#
# Velocity S-wave (km/s) = 3.05681 4.31297 3.73803
# Velocity P-wave (km/s) = 7.00643 8.20400 7.62875
#
# Compressibility (1/GPa) = 0.01661759
#
# Stress axis : x y z
#
# Youngs Moduli (GPa) = 168.26271 83.26385 82.44390
#
# Poissons Ratio (x) = 0.29535 -0.01491
# Poissons Ratio (y) = 0.59685 0.27752
# Poissons Ratio (z) = -0.03044 0.28028
#
# Static dielectric constant tensor:
#      x y z
#    x 1.621460 0.000000 -0.017790 
#    y 0.000000 1.502140 0.000000 
#    z -0.017790 0.000000 1.570080 
# 
# From -- ./inp_files/22612.got.cif
#   From: 2010.05.17/outbox.cif.g08.bks.cpg/sg11_12_cif.got.tgz:22612.got - 2010.06.03 12:22:45.
