data_PCOD9167690
_publ_section_title
;
Structure prediction by ZEFSAII (Michael W. Deem and Ramdas Pophale) SiO2 
 PCOD9167690
Probable space group: P 21/M
;
_chemical_formula_sum "Si O2"
_cell_formula_units_Z 32
_cell_length_a 21.000000
_cell_length_b 15.000000
_cell_length_c 15.000000
_cell_angle_alpha 90.000000
_cell_angle_beta 20.000000
_cell_angle_gamma 90.000000
_cell_volume 1616.045177
_symmetry_space_group_name_H-M "P 21/M"
_symmetry_group_IT_number 11
_symmetry_cell_setting 'monoclinic'
loop_
_space_group_symop_operation_xyz
x,y,z
-x,1/2+y,-z
-x,-y,-z
x,1/2-y,z
loop_
_atom_site_type_symbol
_atom_site_label
_atom_site_fract_x
_atom_site_fract_y
_atom_site_fract_z
Si Si1 0.325583 0.646579 0.098315
Si Si2 0.912794 0.853581 0.554069
Si Si3 0.175523 0.529605 0.440074
Si Si4 0.050946 0.985448 0.791202
Si Si5 0.923645 0.854394 0.106900
Si Si6 0.799856 0.644362 0.898644
Si Si7 0.347697 0.489472 0.777643
Si Si8 0.508589 0.149258 0.302912
O O1 0.332213 0.750000 0.119862
O O2 0.328169 0.578768 0.177498
O O3 0.126133 0.635139 0.309148
O O4 0.479857 0.633472 0.818738
O O5 0.894471 0.750000 0.547719
O O6 0.784787 0.865345 0.811290
O O7 0.867290 0.931681 0.544217
O O8 0.197472 0.524622 0.517818
O O9 0.994043 0.593719 0.664588
O O10 0.041614 0.903935 0.874265
O O11 0.849410 0.985377 0.010779
O O12 0.062098 0.079177 0.827978
O O13 0.974409 0.750000 0.052583
O O14 0.700364 0.855982 0.383390
O O15 0.811874 0.750000 0.902220
O O16 0.647704 0.594977 0.160678
O O17 0.500000 0.500000 0.500000
O O18 0.366810 0.576421 0.813426
O O19 0.578131 0.250000 0.225384
#
# Coordination Sequence:
#
# PCOD9167690 Si02
#       8
#     4   4   4   4   4   4   4   4
#     4   9  16  27  47  76 105 135 173 213 262 321
#     4   9  16  27  45  74 109 143 173 210 268 328
#     4  10  17  29  50  78 105 136 174 226 267 313
#     4  10  22  37  56  81 106 136 188 222 266 323
#     4  10  22  41  58  72 103 149 183 218 266 322
#     4   9  18  30  47  74 112 149 175 209 270 333
#     4  11  20  33  54  84 110 136 175 235 272 310
#     4  10  20  35  56  80 109 144 178 216 269 324
#
# _framework density 19.801427
#
# number of rings (size 3 to 8) (size 9 to 14) (size 15 to 20)
#    0.000    2.250    1.250    4.875    0.000    4.000 
#    0.000    0.625    0.000    0.000    0.000    0.000 
#    0.000    0.000    0.000    0.000    0.000    0.000 
#
# Total GULP energy -178447.556488 kJ/mol
# GULP energy per Si atom -5576.486140 kJ/mol
# Density = 1.975636 g / cm^3
# Si number density = 19.801427 Si / 1000 Ang^3
#
#
#
# Elastic Constant Matrix: (Units=GPa)
#
#
# Indices 1 2 3 4 5 6 
#
# 1 61.1528 56.6349 9.1786 0.0000 36.2230 0.0000
# 2 56.6349 156.9330 23.0956 0.0000 38.0623 0.0000
# 3 9.1786 23.0956 39.2595 0.0000 28.2316 0.0000
# 4 0.0000 0.0000 0.0000 26.2106 0.0000 4.3620
# 5 36.2230 38.0623 28.2316 0.0000 29.0676 0.0000
# 6 0.0000 0.0000 0.0000 4.3620 0.0000 9.5634
#
#
#
# Elastic Compliance Matrix: (Units=1/GPa)
#
#
# Indices 1 2 3 4 5 6 
#
# 1 -0.021705 -0.005081 -0.053622 0.000000 0.085781 0.000000
# 2 -0.005081 0.009819 0.000347 0.000000 -0.006863 0.000000
# 3 -0.053622 0.000347 -0.032899 0.000000 0.098321 0.000000
# 4 0.000000 0.000000 0.000000 0.041286 0.000000 -0.018831
# 5 0.085781 -0.006863 0.098321 0.000000 -0.159002 0.000000
# 6 0.000000 0.000000 0.000000 -0.018831 0.000000 0.113154
#
#
# Mechanical properties :
#
#
# Convention : Reuss Voigt Hill
#
# Bulk Modulus (GPa) = -6.19203 48.35149 21.07973
# Shear Modulus (GPa) = 369.47164 24.19741 196.83452
#
# Velocity S-wave (km/s) = 13.67456 3.49951 9.98098
# Velocity P-wave (km/s) = 15.69047 6.38748 11.97895
#
# Compressibility (1/GPa) = -0.16149802
#
# Stress axis : x y z
#
# Youngs Moduli (GPa) = -46.07171 101.84139 -30.39598
#
# Poissons Ratio (x) = 0.51742 -1.62990
# Poissons Ratio (y) = -0.23407 0.01053
# Poissons Ratio (z) = -2.47047 -0.03529
#
# Static dielectric constant tensor:
#      x y z
#    x 1.728600 0.000000 0.039950 
#    y 0.000000 1.686430 0.000000 
#    z 0.039950 0.000000 1.762650 
# 
# From -- ./inp_files/54978.got.cif
#   From: 2010.05.17/outbox.ucp.g08.bks.cvg/sg11_28_cif.got.tgz:54978.got - 2010.06.11 11:38:39.
