data_PCOD9167807
_publ_section_title
;
Structure prediction by ZEFSAII (Michael W. Deem and Ramdas Pophale) SiO2 
 PCOD9167807
Probable space group: P 21/M
;
_chemical_formula_sum "Si O2"
_cell_formula_units_Z 32
_cell_length_a 30.000000
_cell_length_b 9.000000
_cell_length_c 12.000000
_cell_angle_alpha 90.000000
_cell_angle_beta 150.000000
_cell_angle_gamma 90.000000
_cell_volume 1620.000000
_symmetry_space_group_name_H-M "P 21/M"
_symmetry_group_IT_number 11
_symmetry_cell_setting 'monoclinic'
loop_
_space_group_symop_operation_xyz
x,y,z
-x,1/2+y,-z
-x,-y,-z
x,1/2-y,z
loop_
_atom_site_type_symbol
_atom_site_label
_atom_site_fract_x
_atom_site_fract_y
_atom_site_fract_z
Si Si1 0.237872 0.929082 0.336091
Si Si2 0.540870 0.922412 0.413770
Si Si3 0.068701 0.920663 0.071686
Si Si4 0.437320 0.573407 0.774081
Si Si5 0.382176 0.077146 0.189450
Si Si6 0.161455 0.078876 0.952295
Si Si7 0.011984 0.580635 0.300802
Si Si8 0.817855 0.574460 0.256159
O O1 0.231790 0.750000 0.318008
O O2 0.167856 0.983521 0.276913
O O3 0.336316 0.972064 0.580701
O O4 0.209600 0.990622 0.154695
O O5 0.543954 0.750000 0.389094
O O6 0.614274 0.948807 0.669274
O O7 0.547163 0.020488 0.318144
O O8 0.449583 0.965447 0.277867
O O9 0.072360 0.750000 0.108749
O O10 0.000000 0.000000 0.000000
O O11 0.029797 0.953370 0.866215
O O12 0.445424 0.750000 0.797416
O O13 0.500000 0.500000 0.000000
O O14 0.411292 0.250000 0.237958
O O15 0.283974 0.061867 0.927969
O O16 0.190698 0.250000 0.027058
O O17 0.180862 0.030091 0.870530
O O18 0.054369 0.076862 0.737869
O O19 0.004595 0.750000 0.239815
O O20 0.112723 0.533458 0.535917
O O21 0.843823 0.750000 0.320529
#
# Coordination Sequence:
#
# PCOD9167807 Si02
#       8
#     4   4   4   4   4   4   4   4
#     4   9  20  37  58  83 109 139 181 227 274 326
#     4  10  20  37  60  83 110 146 186 233 285 337
#     4  10  20  38  60  81 106 141 182 228 275 325
#     4  11  23  40  60  85 115 148 187 237 290 341
#     4   9  19  35  56  82 112 148 189 230 279 339
#     4   9  18  32  53  79 110 145 181 222 269 322
#     4  10  20  33  50  77 110 144 181 222 269 324
#     4  10  19  32  50  77 112 147 181 221 269 321
#
# _framework density 19.753086
#
# number of rings (size 3 to 8) (size 9 to 14) (size 15 to 20)
#    0.000    2.250    0.000    2.625    0.000    4.500 
#    2.250    0.000    0.000    0.000    0.000    0.000 
#    0.000    0.000    0.000    0.000    0.000    0.000 
#
# Total GULP energy -178255.471341 kJ/mol
# GULP energy per Si atom -5570.483479 kJ/mol
# Density = 1.970813 g / cm^3
# Si number density = 19.753086 Si / 1000 Ang^3
#
#
#
# Elastic Constant Matrix: (Units=GPa)
#
#
# Indices 1 2 3 4 5 6 
#
# 1 47.7645 4.9956 8.7683 0.0000 -0.3911 0.0000
# 2 4.9956 2.3875 15.7952 0.0000 -1.2885 0.0000
# 3 8.7683 15.7952 72.9418 0.0000 4.7402 0.0000
# 4 0.0000 0.0000 0.0000 27.9068 0.0000 -2.9962
# 5 -0.3911 -1.2885 4.7402 0.0000 -5.2955 0.0000
# 6 0.0000 0.0000 0.0000 -2.9962 0.0000 26.0176
#
#
#
# Elastic Compliance Matrix: (Units=1/GPa)
#
#
# Indices 1 2 3 4 5 6 
#
# 1 0.004842 0.221248 -0.042498 0.000000 -0.092234 0.000000
# 2 0.221248 -2.968333 0.538955 0.000000 1.188353 0.000000
# 3 -0.042498 0.538955 -0.084648 0.000000 -0.203771 0.000000
# 4 0.000000 0.000000 0.000000 0.036282 0.000000 0.004178
# 5 -0.092234 1.188353 -0.203771 0.000000 -0.653579 0.000000
# 6 0.000000 0.000000 0.000000 0.004178 0.000000 0.038917
#
#
# Mechanical properties :
#
#
# Convention : Reuss Voigt Hill
#
# Bulk Modulus (GPa) = -0.62007 20.24577 9.81285
# Shear Modulus (GPa) = -0.89294 15.96142 7.53424
#
# Velocity S-wave (km/s) = -0.67308 2.84570 1.95512
# Velocity P-wave (km/s) = 0.95845 4.59010 3.17414
#
# Compressibility (1/GPa) = -1.61272776
#
# Stress axis : x y z
#
# Youngs Moduli (GPa) = 206.51686 -0.33689 -11.81369
#
# Poissons Ratio (x) = 0.07454 -0.50206
# Poissons Ratio (y) = -45.69151 6.36705
# Poissons Ratio (z) = 8.77664 0.18157
#
# Static dielectric constant tensor:
#      x y z
#    x 1.705330 0.000000 0.060840 
#    y 0.000000 1.680550 0.000000 
#    z 0.060840 0.000000 1.723890 
# 
# From -- ./inp_files/42874.got.cif
#   From: 2010.05.17/outbox.ucp.g08.bks.cvg/sg11_22_cif.got.tgz:42874.got - 2010.06.11 11:38:39.
