data_PCOD9167352
_publ_section_title
;
Structure prediction by ZEFSAII (Michael W. Deem and Ramdas Pophale) SiO2 
 PCOD9167352
Probable space group: P 21/M
;
_chemical_formula_sum "Si O2"
_cell_formula_units_Z 28
_cell_length_a 9.403705
_cell_length_b 20.329376
_cell_length_c 14.456928
_cell_angle_alpha 90.000000
_cell_angle_beta 29.079956
_cell_angle_gamma 90.000000
_cell_volume 1343.265467
_symmetry_space_group_name_H-M "P 21/M"
_symmetry_group_IT_number 11
_symmetry_cell_setting 'monoclinic'
loop_
_space_group_symop_operation_xyz
x,y,z
-x,1/2+y,-z
-x,-y,-z
x,1/2-y,z
loop_
_atom_site_type_symbol
_atom_site_label
_atom_site_fract_x
_atom_site_fract_y
_atom_site_fract_z
Si Si1 0.262316 0.925071 0.569497
Si Si2 0.826290 0.140789 0.723544
Si Si3 0.963996 0.675629 0.598185
Si Si4 0.805486 0.442964 0.062391
Si Si5 0.643676 0.536729 0.004498
Si Si6 0.401153 0.429589 0.449369
Si Si7 0.735770 0.323652 0.983570
O O1 0.142794 0.876196 0.559357
O O2 0.492771 0.899387 0.514153
O O3 0.410775 0.991193 0.446633
O O4 0.980787 0.949731 0.788775
O O5 0.930351 0.172995 0.568701
O O6 0.520594 0.104143 0.881950
O O7 0.076976 0.087972 0.604063
O O8 0.795624 0.177097 0.839302
O O9 0.010528 0.750000 0.606675
O O10 0.614004 0.662698 0.804390
O O11 0.604080 0.487267 0.111253
O O12 0.627491 0.407117 0.243534
O O13 0.906926 0.383277 0.937621
O O14 0.000000 0.500000 0.000000
O O15 0.500000 0.500000 0.000000
O O16 0.796812 0.250000 0.985442
#
# Coordination Sequence:
#
# PCOD9167352 Si02
#       7
#     4   4   4   4   4   4   4
#     4  11  22  42  60  98 133 167 216 273 336 385
#     4  12  23  42  69 100 128 174 227 273 328 403
#     4  11  24  44  69  95 132 178 225 270 328 404
#     4  12  23  41  66  99 136 176 223 279 335 400
#     4  12  21  37  66  97 133 165 216 279 335 378
#     4  11  24  38  69  97 133 170 217 279 333 390
#     4  11  24  43  67  97 136 176 222 281 335 399
#
# _framework density 20.844726999999999
#
# number of rings (size 3 to 8) (size 9 to 14) (size 15 to 20)
#    0.000    0.571    7.143    1.286    2.000    1.143 
#    0.000    2.143    0.000    0.857    0.000    0.000 
#    0.000    0.000    0.000    0.000    0.000    0.000 
#
# Total GULP energy -156232.712191 kJ/mol
# GULP energy per Si atom -5579.739721 kJ/mol
# Density = 2.079728 g / cm^3
# Si number density = 20.844727 Si / 1000 Ang^3
#
#
#
# Elastic Constant Matrix: (Units=GPa)
#
#
# Indices 1 2 3 4 5 6 
#
# 1 107.6012 42.3120 15.9759 0.0000 12.2526 0.0000
# 2 42.3120 93.0800 0.8919 0.0000 4.8441 0.0000
# 3 15.9759 0.8919 82.9029 0.0000 20.9880 0.0000
# 4 0.0000 0.0000 0.0000 15.5960 0.0000 -5.2360
# 5 12.2526 4.8441 20.9880 0.0000 30.9515 0.0000
# 6 0.0000 0.0000 0.0000 -5.2360 0.0000 18.8258
#
#
#
# Elastic Compliance Matrix: (Units=1/GPa)
#
#
# Indices 1 2 3 4 5 6 
#
# 1 0.011909 -0.005250 -0.001513 0.000000 -0.002867 0.000000
# 2 -0.005250 0.013156 0.001045 0.000000 -0.000689 0.000000
# 3 -0.001513 0.001045 0.014767 0.000000 -0.009578 0.000000
# 4 0.000000 0.000000 0.000000 0.070723 0.000000 0.019670
# 5 -0.002867 -0.000689 -0.009578 0.000000 0.040046 0.000000
# 6 0.000000 0.000000 0.000000 0.019670 0.000000 0.058590
#
#
# Mechanical properties :
#
#
# Convention : Reuss Voigt Hill
#
# Bulk Modulus (GPa) = 35.21573 44.66042 39.93808
# Shear Modulus (GPa) = 21.73038 28.03495 24.88266
#
# Velocity S-wave (km/s) = 3.23226 3.67132 3.45877
# Velocity P-wave (km/s) = 5.55527 6.28039 5.92892
#
# Compressibility (1/GPa) = 0.02839640
#
# Stress axis : x y z
#
# Youngs Moduli (GPa) = 83.96984 76.01231 67.71647
#
# Poissons Ratio (x) = 0.39905 0.10243
# Poissons Ratio (y) = 0.44083 -0.07074
# Poissons Ratio (z) = 0.12702 -0.07940
#
# Static dielectric constant tensor:
#      x y z
#    x 1.808570 0.000000 0.035990 
#    y 0.000000 1.735110 0.000000 
#    z 0.035990 0.000000 1.762450 
# 
# From -- ./inp_files/23242.got.cif
#   From: 2010.05.17/outbox.cif.g08.bks.cpg/sg11_12_cif.got.tgz:23242.got - 2010.06.03 12:22:45.
