data_PCOD9167713
_publ_section_title
;
Structure prediction by ZEFSAII (Michael W. Deem and Ramdas Pophale) SiO2 
 PCOD9167713
Probable space group: P 21/M
;
_chemical_formula_sum "Si O2"
_cell_formula_units_Z 32
_cell_length_a 21.000000
_cell_length_b 9.000000
_cell_length_c 12.000000
_cell_angle_alpha 90.000000
_cell_angle_beta 130.000000
_cell_angle_gamma 90.000000
_cell_volume 1737.388797
_symmetry_space_group_name_H-M "P 21/M"
_symmetry_group_IT_number 11
_symmetry_cell_setting 'monoclinic'
loop_
_space_group_symop_operation_xyz
x,y,z
-x,1/2+y,-z
-x,-y,-z
x,1/2-y,z
loop_
_atom_site_type_symbol
_atom_site_label
_atom_site_fract_x
_atom_site_fract_y
_atom_site_fract_z
Si Si1 0.226568 0.427633 0.977600
Si Si2 0.485760 0.427910 0.214839
Si Si3 0.371916 0.430410 0.294009
Si Si4 0.914987 0.080883 0.511780
Si Si5 0.662978 0.572158 0.110571
Si Si6 0.358491 0.073877 0.527627
Si Si7 0.071568 0.923704 0.731450
Si Si8 0.267672 0.581363 0.595918
O O1 0.225616 0.250000 0.975097
O O2 0.283842 0.475948 0.143884
O O3 0.272221 0.473644 0.913979
O O4 0.135629 0.491060 0.879565
O O5 0.498286 0.250000 0.233476
O O6 0.438377 0.474572 0.275595
O O7 0.569761 0.517347 0.310090
O O8 0.426398 0.459264 0.044063
O O9 0.375104 0.250000 0.300006
O O10 0.379353 0.484709 0.427810
O O11 0.948644 0.250000 0.549526
O O12 0.909138 0.034205 0.375892
O O13 0.826340 0.080641 0.467989
O O14 0.977972 0.973297 0.643976
O O15 0.670396 0.750000 0.134181
O O16 0.682365 0.490439 0.245685
O O17 0.355036 0.250000 0.520180
O O18 0.277082 0.007928 0.492341
O O19 0.083517 0.750000 0.755891
O O20 0.295542 0.750000 0.609421
#
# Coordination Sequence:
#
# PCOD9167713 Si02
#       8
#     4   4   4   4   4   4   4   4
#     4   9  16  30  53  77 103 133 163 203 255 302
#     4   9  18  35  56  77 101 129 166 213 260 301
#     4   8  17  34  55  77 101 131 169 212 254 299
#     4   9  19  33  48  71 103 137 166 199 246 300
#     4   9  18  32  52  76 101 132 168 205 251 304
#     4  11  22  35  52  75 101 134 175 211 250 300
#     4  10  18  29  49  79 107 130 162 204 248 297
#     4  11  22  36  52  71 103 139 171 207 248 299
#
# _framework density 18.418444999999998
#
# number of rings (size 3 to 8) (size 9 to 14) (size 15 to 20)
#    0.000    2.500    1.250    3.000    0.000    2.500 
#    0.000    3.750    0.000    0.750    0.000    0.000 
#    0.000    0.000    0.000    0.000    0.000    0.000 
#
# Total GULP energy -178271.609438 kJ/mol
# GULP energy per Si atom -5570.987795 kJ/mol
# Density = 1.837652 g / cm^3
# Si number density = 18.418445 Si / 1000 Ang^3
#
#
#
# Elastic Constant Matrix: (Units=GPa)
#
#
# Indices 1 2 3 4 5 6 
#
# 1 29.3104 3.8235 11.3848 0.0000 23.9507 0.0000
# 2 3.8235 -0.3503 11.7871 0.0000 19.2819 0.0000
# 3 11.3848 11.7871 46.0726 0.0000 30.4825 0.0000
# 4 0.0000 0.0000 0.0000 17.2291 0.0000 4.6340
# 5 23.9507 19.2819 30.4825 0.0000 -18.9217 0.0000
# 6 0.0000 0.0000 0.0000 4.6340 0.0000 18.9519
#
#
#
# Elastic Compliance Matrix: (Units=1/GPa)
#
#
# Indices 1 2 3 4 5 6 
#
# 1 -0.000232 0.175749 -0.079001 0.000000 0.051533 0.000000
# 2 0.175749 -1.023500 0.368513 0.000000 -0.226857 0.000000
# 3 -0.079001 0.368513 -0.113924 0.000000 0.092003 0.000000
# 4 0.000000 0.000000 0.000000 0.062127 0.000000 -0.015191
# 5 0.051533 -0.226857 0.092003 0.000000 -0.070582 0.000000
# 6 0.000000 0.000000 0.000000 -0.015191 0.000000 0.056480
#
#
# Mechanical properties :
#
#
# Convention : Reuss Voigt Hill
#
# Bulk Modulus (GPa) = -4.82783 14.33594 4.75405
# Shear Modulus (GPa) = -2.39326 6.65435 2.13054
#
# Velocity S-wave (km/s) = -1.14114 1.90282 1.07669
# Velocity P-wave (km/s) = 2.08882 3.55359 2.03283
#
# Compressibility (1/GPa) = -0.20713221
#
# Stress axis : x y z
#
# Youngs Moduli (GPa) = -4304.49765 -0.97704 -8.77782
#
# Poissons Ratio (x) = 0.17171 -0.69345
# Poissons Ratio (y) = 756.51242 3.23474
# Poissons Ratio (z) = -340.05794 0.36005
#
# Static dielectric constant tensor:
#      x y z
#    x 1.696360 0.000000 0.036320 
#    y 0.000000 1.626870 0.000000 
#    z 0.036320 0.000000 1.634550 
# 
# From -- ./inp_files/42868.got.cif
#   From: 2010.05.17/outbox.ucp.g08.bks.cvg/sg11_22_cif.got.tgz:42868.got - 2010.06.11 11:38:39.
