data_PCOD9167302
_publ_section_title
;
Structure prediction by ZEFSAII (Michael W. Deem and Ramdas Pophale) SiO2 
 PCOD9167302
Probable space group: P 21/M
;
_chemical_formula_sum "Si O2"
_cell_formula_units_Z 32
_cell_length_a 26.862288
_cell_length_b 8.591547
_cell_length_c 21.482201
_cell_angle_alpha 90.000000
_cell_angle_beta 20.764820
_cell_angle_gamma 90.000000
_cell_volume 1757.720014
_symmetry_space_group_name_H-M "P 21/M"
_symmetry_group_IT_number 11
_symmetry_cell_setting 'monoclinic'
loop_
_space_group_symop_operation_xyz
x,y,z
-x,1/2+y,-z
-x,-y,-z
x,1/2-y,z
loop_
_atom_site_type_symbol
_atom_site_label
_atom_site_fract_x
_atom_site_fract_y
_atom_site_fract_z
Si Si1 0.738373 0.438436 0.970939
Si Si2 0.139663 0.562337 0.304730
Si Si3 0.148995 0.936083 0.802898
Si Si4 0.563700 0.437558 0.988628
Si Si5 0.342419 0.062732 0.685590
Si Si6 0.850282 0.563367 0.971179
Si Si7 0.848240 0.562711 0.338843
Si Si8 0.557859 0.560667 0.738591
O O1 0.741449 0.250000 0.970535
O O2 0.829076 0.484776 0.803618
O O3 0.796071 0.504935 0.967806
O O4 0.576705 0.486319 0.145804
O O5 0.134887 0.750000 0.310196
O O6 0.000000 0.500000 0.500000
O O7 0.276281 0.513581 0.184754
O O8 0.146875 0.750000 0.803648
O O9 0.262681 0.995752 0.719012
O O10 0.171376 0.003010 0.708205
O O11 0.000000 0.000000 0.000000
O O12 0.562088 0.250000 0.989138
O O13 0.474900 0.488365 0.152713
O O14 0.500000 0.500000 0.000000
O O15 0.342537 0.250000 0.682893
O O16 0.500000 0.000000 0.500000
O O17 0.256176 0.015473 0.848647
O O18 0.855840 0.750000 0.964586
O O19 0.005232 0.499613 0.805412
O O20 0.853504 0.750000 0.333108
O O21 0.709908 0.509577 0.537922
O O22 0.557511 0.750000 0.738034
#
# Coordination Sequence:
#
# PCOD9167302 Si02
#       8
#     4   4   4   4   4   4   4   4
#     4   9  19  38  60  81 110 151 192 235 285 340
#     4   9  19  35  56  82 113 149 190 233 283 339
#     4  12  24  41  63  88 119 154 193 241 293 347
#     4   9  18  35  56  81 114 147 185 232 278 332
#     4  11  25  43  62  87 119 154 195 242 294 349
#     4  11  24  40  57  84 119 151 187 237 290 342
#     4  11  22  38  62  88 113 151 195 237 288 345
#     4   8  18  37  59  83 110 145 190 233 278 336
#
# _framework density 18.205403
#
# number of rings (size 3 to 8) (size 9 to 14) (size 15 to 20)
#    0.000    2.000    1.250    3.750    1.750    3.500 
#    0.000    7.500    0.000    0.000    0.000    0.000 
#    0.000    0.000    0.000    0.000    0.000    0.000 
#
# Total GULP energy -178656.494369 kJ/mol
# GULP energy per Si atom -5583.015449 kJ/mol
# Density = 1.816397 g / cm^3
# Si number density = 18.205403 Si / 1000 Ang^3
#
#
#
# Elastic Constant Matrix: (Units=GPa)
#
#
# Indices 1 2 3 4 5 6 
#
# 1 205.6344 42.7952 117.8259 0.0000 -6.2497 0.0000
# 2 42.7952 43.7443 43.5572 0.0000 -1.4977 0.0000
# 3 117.8259 43.5572 207.7485 0.0000 -4.0472 0.0000
# 4 0.0000 0.0000 0.0000 27.3701 0.0000 -0.4040
# 5 -6.2497 -1.4977 -4.0472 0.0000 21.2590 0.0000
# 6 0.0000 0.0000 0.0000 -0.4040 0.0000 35.7605
#
#
#
# Elastic Compliance Matrix: (Units=1/GPa)
#
#
# Indices 1 2 3 4 5 6 
#
# 1 0.007768 -0.004035 -0.003534 0.000000 0.001327 0.000000
# 2 -0.004035 0.031005 -0.004208 0.000000 0.000197 0.000000
# 3 -0.003534 -0.004208 0.007702 0.000000 0.000131 0.000000
# 4 0.000000 0.000000 0.000000 0.036542 0.000000 0.000413
# 5 0.001327 0.000197 0.000131 0.000000 0.047468 0.000000
# 6 0.000000 0.000000 0.000000 0.000413 0.000000 0.027969
#
#
# Mechanical properties :
#
#
# Convention : Reuss Voigt Hill
#
# Bulk Modulus (GPa) = 43.62823 96.16486 69.89654
# Shear Modulus (GPa) = 26.36463 33.74119 30.05291
#
# Velocity S-wave (km/s) = 3.80962 4.30974 4.06737
# Velocity P-wave (km/s) = 6.58539 8.81487 7.78040
#
# Compressibility (1/GPa) = 0.02292094
#
# Stress axis : x y z
#
# Youngs Moduli (GPa) = 128.73503 32.25314 129.82810
#
# Poissons Ratio (x) = 0.13015 0.45877
# Poissons Ratio (y) = 0.51949 0.54632
# Poissons Ratio (z) = 0.45491 0.13572
#
# Static dielectric constant tensor:
#      x y z
#    x 1.683040 0.000000 -0.011430 
#    y 0.000000 1.617810 0.000000 
#    z -0.011430 0.000000 1.625550 
# 
# From -- ./inp_files/66950.got.cif
#   From: 2010.05.17/outbox.cif.g08.bks.cpg/sg11_34_cif.got.tgz:66950.got - 2010.06.03 12:22:45.
