data_PCOD9167621
_publ_section_title
;
Structure prediction by ZEFSAII (Michael W. Deem and Ramdas Pophale) SiO2 
 PCOD9167621
Probable space group: P 21/M
;
_chemical_formula_sum "Si O2"
_cell_formula_units_Z 32
_cell_length_a 9.293779
_cell_length_b 22.821810
_cell_length_c 6.943724
_cell_angle_alpha 90.000000
_cell_angle_beta 129.749165
_cell_angle_gamma 90.000000
_cell_volume 1132.340772
_symmetry_space_group_name_H-M "P 21/M"
_symmetry_group_IT_number 11
_symmetry_cell_setting 'monoclinic'
loop_
_space_group_symop_operation_xyz
x,y,z
-x,1/2+y,-z
-x,-y,-z
x,1/2-y,z
loop_
_atom_site_type_symbol
_atom_site_label
_atom_site_fract_x
_atom_site_fract_y
_atom_site_fract_z
Si Si1 0.231633 0.811847 0.479961
Si Si2 0.177245 0.062812 0.055722
Si Si3 0.649929 0.439827 0.810760
Si Si4 0.654712 0.186492 0.846120
Si Si5 0.814513 0.812403 0.937780
Si Si6 0.220302 0.935822 0.492077
Si Si7 0.223908 0.439435 0.548921
Si Si8 0.218907 0.313345 0.549649
O O1 0.261912 0.750000 0.607781
O O2 0.362081 0.813052 0.402008
O O3 0.257916 0.872411 0.614251
O O4 0.022147 0.811538 0.208401
O O5 0.275157 0.124763 0.089884
O O6 0.157406 0.058888 0.269586
O O7 0.266123 0.002323 0.065508
O O8 0.973797 0.066790 0.789779
O O9 0.746187 0.377834 0.950507
O O10 0.635298 0.442804 0.563410
O O11 0.446675 0.434614 0.726594
O O12 0.745784 0.250000 0.968979
O O13 0.445447 0.187362 0.752073
O O14 0.723139 0.750000 0.912135
O O15 0.829884 0.813261 0.719177
O O16 0.200514 0.993976 0.601328
O O17 0.153954 0.377096 0.572185
O O18 0.152400 0.250000 0.570712
#
# Coordination Sequence:
#
# PCOD9167621 Si02
#       8
#     4   4   4   4   4   4   4   4
#     4   8  13  19  24  28  32  37  43  48  52  56
#     4   9  14  18  23  28  33  38  42  47  52  57
#     4   9  14  18  23  28  33  38  42  47  52  57
#     4   8  13  19  24  28  32  37  43  48  52  56
#     4   8  13  19  24  28  32  37  43  48  52  56
#     4   9  14  18  23  28  33  38  42  47  52  57
#     4   9  14  18  23  28  33  38  42  47  52  57
#     4   8  13  19  24  28  32  37  43  48  52  56
#
# _framework density 28.260041999999999
#
# number of rings (size 3 to 8) (size 9 to 14) (size 15 to 20)
#    0.000    3.500    0.000    3.000    0.000    2.000 
#    0.000    0.000    0.000    0.000    0.000    0.000 
#    0.000    0.000    0.000    0.000    0.000    0.000 
#
# Total GULP energy -178698.103465 kJ/mol
# GULP energy per Si atom -5584.315733 kJ/mol
# Density = 2.819572 g / cm^3
# Si number density = 28.260042 Si / 1000 Ang^3
#
#
#
# Elastic Constant Matrix: (Units=GPa)
#
#
# Indices 1 2 3 4 5 6 
#
# 1 61.4399 4.5712 24.1006 0.0000 -18.7581 0.0000
# 2 4.5712 399.7879 17.6593 0.0000 1.9147 0.0000
# 3 24.1006 17.6593 56.1708 0.0000 -5.2510 0.0000
# 4 0.0000 0.0000 0.0000 9.5400 0.0000 34.5477
# 5 -18.7581 1.9147 -5.2510 0.0000 48.1262 0.0000
# 6 0.0000 0.0000 0.0000 34.5477 0.0000 -38.3337
#
#
#
# Elastic Compliance Matrix: (Units=1/GPa)
#
#
# Indices 1 2 3 4 5 6 
#
# 1 0.022040 0.000099 -0.008774 0.000000 0.007629 0.000000
# 2 0.000099 0.002539 -0.000855 0.000000 -0.000156 0.000000
# 3 -0.008774 -0.000855 0.021742 0.000000 -0.001014 0.000000
# 4 0.000000 0.000000 0.000000 0.024585 0.000000 0.022157
# 5 0.007629 -0.000156 -0.001014 0.000000 0.023648 0.000000
# 6 0.000000 0.000000 0.000000 0.022157 0.000000 -0.006118
#
#
# Mechanical properties :
#
#
# Convention : Reuss Voigt Hill
#
# Bulk Modulus (GPa) = 36.68485 67.78454 52.23470
# Shear Modulus (GPa) = 42.88839 35.27100 39.07970
#
# Velocity S-wave (km/s) = 3.89991 3.53666 3.72272
# Velocity P-wave (km/s) = 5.76961 6.38086 6.08292
#
# Compressibility (1/GPa) = 0.02725921
#
# Stress axis : x y z
#
# Youngs Moduli (GPa) = 45.37260 393.90015 45.99477
#
# Poissons Ratio (x) = -0.03901 0.40357
# Poissons Ratio (y) = -0.00449 0.03933
# Poissons Ratio (z) = 0.39811 0.33686
#
# Static dielectric constant tensor:
#      x y z
#    x 2.126020 0.000000 0.043530 
#    y 0.000000 2.316330 0.000000 
#    z 0.043530 0.000000 2.129470 
# 
# From -- ./inp_files/36498.got.cif
#   From: 2010.05.17/outbox.cif.g08.bks.cpg/sg11_19_cif.got.tgz:36498.got - 2010.06.03 12:22:45.
