data_PCOD9167286
_publ_section_title
;
Structure prediction by ZEFSAII (Michael W. Deem and Ramdas Pophale) SiO2 
 PCOD9167286
Probable space group: P 21/M
;
_chemical_formula_sum "Si O2"
_cell_formula_units_Z 28
_cell_length_a 13.969693
_cell_length_b 8.482812
_cell_length_c 12.727559
_cell_angle_alpha 90.000000
_cell_angle_beta 55.456275
_cell_angle_gamma 90.000000
_cell_volume 1242.331699
_symmetry_space_group_name_H-M "P 21/M"
_symmetry_group_IT_number 11
_symmetry_cell_setting 'monoclinic'
loop_
_space_group_symop_operation_xyz
x,y,z
-x,1/2+y,-z
-x,-y,-z
x,1/2-y,z
loop_
_atom_site_type_symbol
_atom_site_label
_atom_site_fract_x
_atom_site_fract_y
_atom_site_fract_z
Si Si1 0.458862 0.077255 0.630932
Si Si2 0.817246 0.926507 0.222767
Si Si3 0.552888 0.943063 0.130615
Si Si4 0.181883 0.058736 0.008705
Si Si5 0.837708 0.437066 0.441902
Si Si6 0.303888 0.557592 0.272148
Si Si7 0.917587 0.061805 0.723137
O O1 0.514387 0.250000 0.601855
O O2 0.320763 0.090659 0.709291
O O3 0.478145 0.001803 0.731390
O O4 0.500000 0.000000 0.500000
O O5 0.867800 0.750000 0.203560
O O6 0.852298 0.997517 0.087567
O O7 0.826027 0.014026 0.327756
O O8 0.557509 0.750000 0.124339
O O9 0.687420 0.993733 0.035299
O O10 0.431756 0.993121 0.150898
O O11 0.182849 0.250000 0.003217
O O12 0.093511 0.000441 0.151140
O O13 0.841364 0.250000 0.445791
O O14 0.736230 0.490734 0.584859
O O15 0.962198 0.503058 0.399889
O O16 0.306297 0.750000 0.269379
O O17 0.197422 0.504383 0.265740
O O18 0.916572 0.250000 0.722874
#
# Coordination Sequence:
#
# PCOD9167286 Si02
#       7
#     4   4   4   4   4   4   4
#     4   9  16  27  47  75 107 142 175 212 262 319
#     4   9  19  35  54  79 111 143 177 222 274 322
#     4   8  15  31  54  78 107 141 175 214 264 321
#     4   9  19  37  59  82 110 145 182 218 264 325
#     4  11  22  37  59  83 107 141 186 228 271 328
#     4   9  19  35  56  83 111 142 180 223 273 323
#     4  11  23  38  56  78 110 147 183 229 274 314
#
# _framework density 22.538264000000002
#
# number of rings (size 3 to 8) (size 9 to 14) (size 15 to 20)
#    0.000    2.571    0.000    3.857    0.000    3.429 
#    0.000    4.286    0.000    4.286    0.000    0.000 
#    0.000    0.000    0.000    0.000    0.000    0.000 
#
# Total GULP energy -156068.273234 kJ/mol
# GULP energy per Si atom -5573.866901 kJ/mol
# Density = 2.248697 g / cm^3
# Si number density = 22.538264 Si / 1000 Ang^3
#
#
#
# Elastic Constant Matrix: (Units=GPa)
#
#
# Indices 1 2 3 4 5 6 
#
# 1 62.7888 -2.8613 23.0110 0.0000 -0.2335 0.0000
# 2 -2.8613 12.0142 7.3753 0.0000 3.7862 0.0000
# 3 23.0110 7.3753 103.6302 0.0000 -12.7050 0.0000
# 4 0.0000 0.0000 0.0000 18.3109 0.0000 -1.4255
# 5 -0.2335 3.7862 -12.7050 0.0000 25.5990 0.0000
# 6 0.0000 0.0000 0.0000 -1.4255 0.0000 18.0040
#
#
#
# Elastic Compliance Matrix: (Units=1/GPa)
#
#
# Indices 1 2 3 4 5 6 
#
# 1 0.018171 0.008599 -0.005092 0.000000 -0.003633 0.000000
# 2 0.008599 0.098639 -0.011402 0.000000 -0.020170 0.000000
# 3 -0.005092 -0.011402 0.012557 0.000000 0.007872 0.000000
# 4 0.000000 0.000000 0.000000 0.054951 0.000000 0.004351
# 5 -0.003633 -0.020170 0.007872 0.000000 0.045921 0.000000
# 6 0.000000 0.000000 0.000000 0.004351 0.000000 0.055888
#
#
# Mechanical properties :
#
#
# Convention : Reuss Voigt Hill
#
# Bulk Modulus (GPa) = 8.80473 25.94260 17.37366
# Shear Modulus (GPa) = 14.71553 22.44332 18.57943
#
# Velocity S-wave (km/s) = 2.55799 3.15903 2.87427
# Velocity P-wave (km/s) = 3.55520 4.98412 4.32902
#
# Compressibility (1/GPa) = 0.11357535
#
# Stress axis : x y z
#
# Youngs Moduli (GPa) = 55.03292 10.13797 79.63663
#
# Poissons Ratio (x) = -0.08717 0.40553
# Poissons Ratio (y) = -0.47321 0.90803
# Poissons Ratio (z) = 0.28024 0.11560
#
# Static dielectric constant tensor:
#      x y z
#    x 1.923660 0.000000 0.037470 
#    y 0.000000 1.733900 0.000000 
#    z 0.037470 0.000000 1.897680 
# 
# From -- ./inp_files/51573.got.cif
#   From: 2010.05.17/outbox.cif.g08.bks.cpg/sg11_26_cif.got.tgz:51573.got - 2010.06.03 12:22:45.
