data_PCOD9167434
_publ_section_title
;
Structure prediction by ZEFSAII (Michael W. Deem and Ramdas Pophale) SiO2 
 PCOD9167434
Probable space group: P 21/M
;
_chemical_formula_sum "Si O2"
_cell_formula_units_Z 28
_cell_length_a 6.531662
_cell_length_b 15.789459
_cell_length_c 12.755632
_cell_angle_alpha 90.000000
_cell_angle_beta 122.176874
_cell_angle_gamma 90.000000
_cell_volume 1113.455297
_symmetry_space_group_name_H-M "P 21/M"
_symmetry_group_IT_number 11
_symmetry_cell_setting 'monoclinic'
loop_
_space_group_symop_operation_xyz
x,y,z
-x,1/2+y,-z
-x,-y,-z
x,1/2-y,z
loop_
_atom_site_type_symbol
_atom_site_label
_atom_site_fract_x
_atom_site_fract_y
_atom_site_fract_z
Si Si1 0.634461 0.655551 0.546630
Si Si2 0.906276 0.843784 0.837525
Si Si3 0.659913 0.412433 0.945832
Si Si4 0.073164 0.250000 0.715597
Si Si5 0.832507 0.422518 0.581514
Si Si6 0.890654 0.411276 0.361224
Si Si7 0.671777 0.250000 0.809895
Si Si8 0.542564 0.894081 0.898890
O O1 0.531466 0.750000 0.514411
O O2 0.729115 0.641120 0.691247
O O3 0.435415 0.592651 0.446509
O O4 0.884216 0.649331 0.553873
O O5 0.018478 0.750000 0.853277
O O6 0.746626 0.842633 0.897537
O O7 0.101880 0.915607 0.915321
O O8 0.716602 0.340932 0.877209
O O9 0.588097 0.505562 0.889778
O O10 0.463946 0.381710 0.978476
O O11 0.983284 0.338909 0.644825
O O12 0.883925 0.250000 0.772982
O O13 0.365579 0.250000 0.753506
O O14 0.779344 0.431568 0.442742
O O15 0.986232 0.504338 0.652102
O O16 0.703797 0.372252 0.229499
#
# Coordination Sequence:
#
# PCOD9167434 Si02
#       8
#     4   4   4   2   4   4   2   4
#     4  11  23  40  67 102 137 182 236 297 372 439
#     4  11  23  40  67 102 137 182 236 297 372 439
#     4  11  25  45  70 100 144 190 243 301 374 433
#     4  12  30  52  76 110 150 200 256 308 376 456
#     4  11  25  45  70 100 144 190 243 301 374 433
#     4  11  24  43  69 104 140 187 244 303 367 445
#     4  12  30  52  76 110 150 200 256 308 376 456
#     4  11  24  43  69 104 140 187 244 303 367 445
#
# _framework density 25.146944000000001
#
# number of rings (size 3 to 8) (size 9 to 14) (size 15 to 20)
#    0.000    0.857    4.286    1.714    6.000    1.714 
#    0.000    0.000    0.000    0.000    0.000    0.000 
#    0.000    0.000    0.000    0.000    0.000    0.000 
#
# Total GULP energy -156066.192005 kJ/mol
# GULP energy per Si atom -5573.792572 kJ/mol
# Density = 2.508971 g / cm^3
# Si number density = 25.146944 Si / 1000 Ang^3
#
#
#
# Elastic Constant Matrix: (Units=GPa)
#
#
# Indices 1 2 3 4 5 6 
#
# 1 109.5865 22.3701 28.8014 0.0000 -0.4529 0.0000
# 2 22.3701 69.8250 13.8277 0.0000 -18.5647 0.0000
# 3 28.8014 13.8277 37.9149 0.0000 9.5882 0.0000
# 4 0.0000 0.0000 0.0000 23.6212 0.0000 0.4871
# 5 -0.4529 -18.5647 9.5882 0.0000 45.1096 0.0000
# 6 0.0000 0.0000 0.0000 0.4871 0.0000 28.1433
#
#
#
# Elastic Compliance Matrix: (Units=1/GPa)
#
#
# Indices 1 2 3 4 5 6 
#
# 1 0.011745 -0.001731 -0.008602 0.000000 0.001234 0.000000
# 2 -0.001731 0.018989 -0.008013 0.000000 0.009501 0.000000
# 3 -0.008602 -0.008013 0.038772 0.000000 -0.011625 0.000000
# 4 0.000000 0.000000 0.000000 0.042350 0.000000 -0.000733
# 5 0.001234 0.009501 -0.011625 0.000000 0.028562 0.000000
# 6 0.000000 0.000000 0.000000 -0.000733 0.000000 0.035545
#
#
# Mechanical properties :
#
#
# Convention : Reuss Voigt Hill
#
# Bulk Modulus (GPa) = 30.47615 38.59166 34.53390
# Shear Modulus (GPa) = 22.36219 29.52996 25.94607
#
# Velocity S-wave (km/s) = 2.98528 3.43052 3.21562
# Velocity P-wave (km/s) = 4.90184 5.57414 5.24877
#
# Compressibility (1/GPa) = 0.03281254
#
# Stress axis : x y z
#
# Youngs Moduli (GPa) = 85.14618 52.66232 25.79204
#
# Poissons Ratio (x) = 0.09116 0.22187
# Poissons Ratio (y) = 0.14739 0.20667
# Poissons Ratio (z) = 0.73245 0.42198
#
# Static dielectric constant tensor:
#      x y z
#    x 2.141740 0.000000 -0.004680 
#    y 0.000000 1.921940 0.000000 
#    z -0.004680 0.000000 1.965540 
# 
# From -- ./inp_files/46102.got.cif
#   From: 2010.05.17/outbox.cif.g08.bks.cpg/sg11_24_cif.got.tgz:46102.got - 2010.06.03 12:22:45.
