data_PCOD9167380
_publ_section_title
;
Structure prediction by ZEFSAII (Michael W. Deem and Ramdas Pophale) SiO2 
 PCOD9167380
Probable space group: P 21/M
;
_chemical_formula_sum "Si O2"
_cell_formula_units_Z 24
_cell_length_a 14.642259
_cell_length_b 7.553514
_cell_length_c 17.264796
_cell_angle_alpha 90.000000
_cell_angle_beta 153.188942
_cell_angle_gamma 90.000000
_cell_volume 861.277434
_symmetry_space_group_name_H-M "P 21/M"
_symmetry_group_IT_number 11
_symmetry_cell_setting 'monoclinic'
loop_
_space_group_symop_operation_xyz
x,y,z
-x,1/2+y,-z
-x,-y,-z
x,1/2-y,z
loop_
_atom_site_type_symbol
_atom_site_label
_atom_site_fract_x
_atom_site_fract_y
_atom_site_fract_z
Si Si1 0.894643 0.960015 0.627071
Si Si2 0.496747 0.038266 0.596078
Si Si3 0.735351 0.959228 0.177598
Si Si4 0.733851 0.957785 0.342168
Si Si5 0.094633 0.962532 0.156904
Si Si6 0.314952 0.461696 0.090565
O O1 0.858856 0.750000 0.601289
O O2 0.733583 0.033543 0.567676
O O3 0.821354 0.035350 0.487783
O O4 0.133351 0.983819 0.796580
O O5 0.495165 0.250000 0.584569
O O6 0.674084 0.965393 0.673682
O O7 0.591146 0.003578 0.753293
O O8 0.755948 0.750000 0.195529
O O9 0.803222 0.035907 0.312694
O O10 0.500000 0.000000 0.000000
O O11 0.780841 0.750000 0.378040
O O12 0.490115 0.971619 0.166446
O O13 0.102376 0.750000 0.170295
O O14 0.917528 0.031760 0.080243
O O15 0.000000 0.000000 0.000000
O O16 0.302478 0.250000 0.070878
#
# Coordination Sequence:
#
# PCOD9167380 Si02
#       6
#     4   4   4   4   4   4
#     4   9  17  31  51  73  96 124 157 191 229 275
#     4   8  14  25  40  60  92 128 155 183 225 275
#     4  11  23  37  52  70  93 122 156 195 239 285
#     4   9  19  34  50  69  95 127 158 189 233 285
#     4   8  13  21  34  57  90 124 153 182 221 267
#     4   9  15  22  38  65  93 121 155 192 226 263
#
# _framework density 27.865587000000001
#
# number of rings (size 3 to 8) (size 9 to 14) (size 15 to 20)
#    0.000    3.000    0.000    2.500    0.000    4.667 
#    0.000    0.000    0.000    0.000    0.000    1.167 
#    0.000    0.000    0.000    0.000    0.000    0.000 
#
# Total GULP energy -134172.772012 kJ/mol
# GULP energy per Si atom -5590.532167 kJ/mol
# Density = 2.780216 g / cm^3
# Si number density = 27.865587 Si / 1000 Ang^3
#
#
#
# Elastic Constant Matrix: (Units=GPa)
#
#
# Indices 1 2 3 4 5 6 
#
# 1 220.2280 7.6025 39.9915 0.0000 70.3375 0.0000
# 2 7.6025 111.0031 -0.9378 0.0000 5.7245 0.0000
# 3 39.9915 -0.9378 188.2258 0.0000 58.4494 0.0000
# 4 0.0000 0.0000 0.0000 25.1904 0.0000 5.4566
# 5 70.3375 5.7245 58.4494 0.0000 63.4673 0.0000
# 6 0.0000 0.0000 0.0000 5.4566 0.0000 21.7149
#
#
#
# Elastic Compliance Matrix: (Units=1/GPa)
#
#
# Indices 1 2 3 4 5 6 
#
# 1 0.007262 -0.000007 0.001339 0.000000 -0.009280 0.000000
# 2 -0.000007 0.009074 0.000418 0.000000 -0.001195 0.000000
# 3 0.001339 0.000418 0.007707 0.000000 -0.008619 0.000000
# 4 0.000000 0.000000 0.000000 0.041983 0.000000 -0.010550
# 5 -0.009280 -0.001195 -0.008619 0.000000 0.034086 0.000000
# 6 0.000000 0.000000 0.000000 -0.010550 0.000000 0.048702
#
#
# Mechanical properties :
#
#
# Convention : Reuss Voigt Hill
#
# Bulk Modulus (GPa) = 36.30858 68.08547 52.19703
# Shear Modulus (GPa) = 32.36314 53.59456 42.97885
#
# Velocity S-wave (km/s) = 3.41163 4.39033 3.93155
# Velocity P-wave (km/s) = 5.34576 7.08425 6.27550
#
# Compressibility (1/GPa) = 0.02754170
#
# Stress axis : x y z
#
# Youngs Moduli (GPa) = 137.70579 110.19977 129.75507
#
# Poissons Ratio (x) = 0.00082 -0.17372
# Poissons Ratio (y) = 0.00103 -0.05422
# Poissons Ratio (z) = -0.18437 -0.04605
#
# Static dielectric constant tensor:
#      x y z
#    x 2.147820 0.000000 -0.077580 
#    y 0.000000 1.981640 0.000000 
#    z -0.077580 0.000000 2.401380 
# 
# From -- ./inp_files/61847.got.cif
#   From: 2010.05.17/outbox.cif.g08.bks.cpg/sg11_31_cif.got.tgz:61847.got - 2010.06.03 12:22:45.
