data_PCOD9167187
_publ_section_title
;
Structure prediction by ZEFSAII (Michael W. Deem and Ramdas Pophale) SiO2 
 PCOD9167187
Probable space group: P 21/M
;
_chemical_formula_sum "Si O2"
_cell_formula_units_Z 28
_cell_length_a 20.302106
_cell_length_b 8.654575
_cell_length_c 17.331167
_cell_angle_alpha 90.000000
_cell_angle_beta 149.035733
_cell_angle_gamma 90.000000
_cell_volume 1566.761492
_symmetry_space_group_name_H-M "P 21/M"
_symmetry_group_IT_number 11
_symmetry_cell_setting 'monoclinic'
loop_
_space_group_symop_operation_xyz
x,y,z
-x,1/2+y,-z
-x,-y,-z
x,1/2-y,z
loop_
_atom_site_type_symbol
_atom_site_label
_atom_site_fract_x
_atom_site_fract_y
_atom_site_fract_z
Si Si1 0.011491 0.435797 0.097287
Si Si2 0.847627 0.936212 0.509570
Si Si3 0.855840 0.065300 0.356929
Si Si4 0.233887 0.433713 0.061318
Si Si5 0.150333 0.563904 0.820104
Si Si6 0.482669 0.936130 0.396205
Si Si7 0.266287 0.437796 0.444194
O O1 0.005010 0.250000 0.090524
O O2 0.146439 0.482396 0.270450
O O3 0.895904 0.501238 0.031573
O O4 0.000000 0.500000 0.000000
O O5 0.845524 0.750000 0.504017
O O6 0.765927 0.989042 0.501195
O O7 0.998395 0.978955 0.672385
O O8 0.799008 0.000175 0.378968
O O9 0.860598 0.250000 0.365828
O O10 0.801859 0.024009 0.218221
O O11 0.000000 0.000000 0.500000
O O12 0.237309 0.250000 0.071520
O O13 0.352742 0.505078 0.226765
O O14 0.228123 0.484709 0.966351
O O15 0.156574 0.750000 0.835737
O O16 0.482033 0.750000 0.398778
O O17 0.601921 0.987893 0.462485
O O18 0.500000 0.000000 0.500000
O O19 0.268591 0.250000 0.448574
#
# Coordination Sequence:
#
# PCOD9167187 Si02
#       7
#     4   4   4   4   4   4   4
#     4  11  21  37  58  83 112 140 179 231 287 338
#     4   9  16  31  53  79 110 142 178 223 279 336
#     4   9  17  28  46  76 112 146 178 219 272 328
#     4  12  24  37  55  82 114 149 190 231 275 330
#     4   9  17  32  53  77 110 147 182 225 277 326
#     4  11  23  41  62  82 109 147 189 234 285 341
#     4   9  19  36  58  80 107 143 182 227 281 338
#
# _framework density 17.871258999999998
#
# number of rings (size 3 to 8) (size 9 to 14) (size 15 to 20)
#    0.000    2.000    1.429    4.286    0.000    4.000 
#    0.000    3.571    0.000    0.857    0.000    0.000 
#    0.000    0.000    0.000    0.000    0.000    0.000 
#
# Total GULP energy -156237.888393 kJ/mol
# GULP energy per Si atom -5579.924585 kJ/mol
# Density = 1.783058 g / cm^3
# Si number density = 17.871259 Si / 1000 Ang^3
#
#
#
# Elastic Constant Matrix: (Units=GPa)
#
#
# Indices 1 2 3 4 5 6 
#
# 1 59.2251 12.8969 1.9583 0.0000 -24.6842 0.0000
# 2 12.8969 49.7647 19.6805 0.0000 -9.9660 0.0000
# 3 1.9583 19.6805 59.1765 0.0000 -12.4984 0.0000
# 4 0.0000 0.0000 0.0000 19.7051 0.0000 -10.3822
# 5 -24.6842 -9.9660 -12.4984 0.0000 36.7432 0.0000
# 6 0.0000 0.0000 0.0000 -10.3822 0.0000 29.6538
#
#
#
# Elastic Compliance Matrix: (Units=1/GPa)
#
#
# Indices 1 2 3 4 5 6 
#
# 1 0.024796 -0.004763 0.004319 0.000000 0.016835 0.000000
# 2 -0.004763 0.024595 -0.007853 0.000000 0.000800 0.000000
# 3 0.004319 -0.007853 0.021042 0.000000 0.007929 0.000000
# 4 0.000000 0.000000 0.000000 0.062227 0.000000 0.021787
# 5 0.016835 0.000800 0.007929 0.000000 0.041440 0.000000
# 6 0.000000 0.000000 0.000000 0.021787 0.000000 0.041350
#
#
# Mechanical properties :
#
#
# Convention : Reuss Voigt Hill
#
# Bulk Modulus (GPa) = 18.57370 26.35974 22.46672
# Shear Modulus (GPa) = 20.00083 26.12912 23.06497
#
# Velocity S-wave (km/s) = 3.34902 3.82786 3.59642
# Velocity P-wave (km/s) = 5.03688 5.85820 5.46300
#
# Compressibility (1/GPa) = 0.05383956
#
# Stress axis : x y z
#
# Youngs Moduli (GPa) = 40.32949 40.65918 47.52395
#
# Poissons Ratio (x) = 0.19364 -0.20526
# Poissons Ratio (y) = 0.19207 0.37320
# Poissons Ratio (z) = -0.17419 0.31929
#
# Static dielectric constant tensor:
#      x y z
#    x 1.630700 0.000000 -0.016370 
#    y 0.000000 1.603890 0.000000 
#    z -0.016370 0.000000 1.584950 
# 
# From -- ./inp_files/61281.got.cif
#   From: 2010.05.17/outbox.cif.g08.bks.cpg/sg11_31_cif.got.tgz:61281.got - 2010.06.03 12:22:45.
