data_PCOD9167145
_publ_section_title
;
Structure prediction by ZEFSAII (Michael W. Deem and Ramdas Pophale) SiO2 
 PCOD9167145
Probable space group: P 21/M
;
_chemical_formula_sum "Si O2"
_cell_formula_units_Z 28
_cell_length_a 26.072655
_cell_length_b 7.919180
_cell_length_c 9.748278
_cell_angle_alpha 90.000000
_cell_angle_beta 40.449957
_cell_angle_gamma 90.000000
_cell_volume 1305.849946
_symmetry_space_group_name_H-M "P 21/M"
_symmetry_group_IT_number 11
_symmetry_cell_setting 'monoclinic'
loop_
_space_group_symop_operation_xyz
x,y,z
-x,1/2+y,-z
-x,-y,-z
x,1/2-y,z
loop_
_atom_site_type_symbol
_atom_site_label
_atom_site_fract_x
_atom_site_fract_y
_atom_site_fract_z
Si Si1 0.324201 0.955817 0.696664
Si Si2 0.762187 0.447095 0.868753
Si Si3 0.579137 0.056222 0.916335
Si Si4 0.501533 0.452039 0.656461
Si Si5 0.168256 0.953663 0.846890
Si Si6 0.913942 0.553848 0.724056
Si Si7 0.246105 0.958294 0.422360
O O1 0.325225 0.750000 0.698112
O O2 0.410712 0.007683 0.473737
O O3 0.251322 0.003612 0.749583
O O4 0.302591 0.019230 0.893624
O O5 0.742116 0.250000 0.893327
O O6 0.845198 0.459096 0.779996
O O7 0.767275 0.517687 0.705760
O O8 0.587231 0.250000 0.861707
O O9 0.561744 0.035016 0.114078
O O10 0.666001 0.981781 0.712372
O O11 0.500000 0.000000 0.000000
O O12 0.500000 0.500000 0.500000
O O13 0.494229 0.250000 0.684926
O O14 0.162532 0.750000 0.862759
O O15 0.179396 0.008959 0.667484
O O16 0.100872 0.022169 0.084125
O O17 0.902388 0.750000 0.719385
O O18 0.000000 0.500000 0.500000
O O19 0.246162 0.750000 0.423688
#
# Coordination Sequence:
#
# PCOD9167145 Si02
#       7
#     4   4   4   4   4   4   4
#     4   8  15  29  50  71 100 140 182 220 263 319
#     4   9  17  34  58  82 105 139 181 222 265 319
#     4  11  22  37  54  77 109 150 194 237 281 329
#     4  11  21  34  51  75 105 142 186 235 284 332
#     4   9  17  34  58  81 102 135 178 218 258 314
#     4  11  22  38  59  85 112 140 171 211 260 317
#     4   9  18  34  58  81 108 146 186 221 270 334
#
# _framework density 21.441972
#
# number of rings (size 3 to 8) (size 9 to 14) (size 15 to 20)
#    0.000    2.286    0.000    4.714    0.000    4.571 
#    0.000   15.714    0.000    0.000    0.000    0.000 
#    0.000    0.000    0.000    0.000    0.000    0.000 
#
# Total GULP energy -156270.231671 kJ/mol
# GULP energy per Si atom -5581.079703 kJ/mol
# Density = 2.139317 g / cm^3
# Si number density = 21.441972 Si / 1000 Ang^3
#
#
#
# Elastic Constant Matrix: (Units=GPa)
#
#
# Indices 1 2 3 4 5 6 
#
# 1 29.9987 -8.0228 19.6849 0.0000 14.7214 0.0000
# 2 -8.0228 23.1428 -6.2141 0.0000 2.2678 0.0000
# 3 19.6849 -6.2141 149.1453 0.0000 7.5885 0.0000
# 4 0.0000 0.0000 0.0000 19.2066 0.0000 1.8749
# 5 14.7214 2.2678 7.5885 0.0000 36.2222 0.0000
# 6 0.0000 0.0000 0.0000 1.8749 0.0000 15.0832
#
#
#
# Elastic Compliance Matrix: (Units=1/GPa)
#
#
# Indices 1 2 3 4 5 6 
#
# 1 0.052107 0.018806 -0.005010 0.000000 -0.021305 0.000000
# 2 0.018806 0.050845 0.000189 0.000000 -0.010866 0.000000
# 3 -0.005010 0.000189 0.007349 0.000000 0.000485 0.000000
# 4 0.000000 0.000000 0.000000 0.052705 0.000000 -0.006551
# 5 -0.021305 -0.010866 0.000485 0.000000 0.036845 0.000000
# 6 0.000000 0.000000 0.000000 -0.006551 0.000000 0.067113
#
#
# Mechanical properties :
#
#
# Convention : Reuss Voigt Hill
#
# Bulk Modulus (GPa) = 7.23212 23.68699 15.45955
# Shear Modulus (GPa) = 17.53869 27.22497 22.38183
#
# Velocity S-wave (km/s) = 2.86310 3.56716 3.23434
# Velocity P-wave (km/s) = 3.78286 5.29501 4.60148
#
# Compressibility (1/GPa) = 0.13827203
#
# Stress axis : x y z
#
# Youngs Moduli (GPa) = 19.19141 19.66760 136.06716
#
# Poissons Ratio (x) = -0.36987 0.68166
# Poissons Ratio (y) = -0.36092 -0.02574
# Poissons Ratio (z) = 0.09614 -0.00372
#
# Static dielectric constant tensor:
#      x y z
#    x 1.757340 0.000000 0.064960 
#    y 0.000000 1.815080 0.000000 
#    z 0.064960 0.000000 1.772600 
# 
# From -- ./inp_files/28277.got.cif
#   From: 2010.05.17/outbox.cif.g08.bks.cpg/sg11_15_cif.got.tgz:28277.got - 2010.06.03 12:22:45.
