data_PCOD9167981
_publ_section_title
;
Structure prediction by ZEFSAII (Michael W. Deem and Ramdas Pophale) SiO2 
 PCOD9167981
Probable space group: P 21/M
;
_chemical_formula_sum "Si O2"
_cell_formula_units_Z 28
_cell_length_a 21.000000
_cell_length_b 9.000000
_cell_length_c 15.000000
_cell_angle_alpha 90.000000
_cell_angle_beta 150.000000
_cell_angle_gamma 90.000000
_cell_volume 1417.500000
_symmetry_space_group_name_H-M "P 21/M"
_symmetry_group_IT_number 11
_symmetry_cell_setting 'monoclinic'
loop_
_space_group_symop_operation_xyz
x,y,z
-x,1/2+y,-z
-x,-y,-z
x,1/2-y,z
loop_
_atom_site_type_symbol
_atom_site_label
_atom_site_fract_x
_atom_site_fract_y
_atom_site_fract_z
Si Si1 0.844153 0.073575 0.061493
Si Si2 0.022141 0.069622 0.431226
Si Si3 0.608495 0.077348 0.572819
Si Si4 0.530522 0.927478 0.909699
Si Si5 0.397694 0.077827 0.187723
Si Si6 0.302504 0.426733 0.713166
Si Si7 0.895510 0.427676 0.933595
O O1 0.835558 0.250000 0.057390
O O2 0.911175 0.017012 0.230969
O O3 0.924665 0.038484 0.071897
O O4 0.703848 0.010993 0.878822
O O5 0.021343 0.250000 0.436494
O O6 0.157885 0.026545 0.553171
O O7 0.000000 0.000000 0.500000
O O8 0.616011 0.250000 0.610006
O O9 0.541628 0.071150 0.395624
O O10 0.751169 0.017719 0.741847
O O11 0.500000 0.000000 0.500000
O O12 0.519627 0.750000 0.888767
O O13 0.603914 0.985084 0.912921
O O14 0.390157 0.994198 0.747113
O O15 0.618985 0.959392 0.101297
O O16 0.358525 0.250000 0.142577
O O17 0.304054 0.250000 0.700038
O O18 0.895707 0.250000 0.921480
O O19 0.000000 0.500000 0.000000
#
# Coordination Sequence:
#
# PCOD9167981 Si02
#       7
#     4   4   4   4   4   4   4
#     4  10  21  37  56  80 112 147 185 232 280 334
#     4  10  21  36  55  79 109 145 184 226 275 332
#     4  10  20  36  58  82 110 143 183 229 276 331
#     4   9  18  32  50  74 103 134 172 221 268 315
#     4  10  20  34  56  83 108 139 183 229 276 329
#     4   9  18  33  50  70 102 139 175 216 264 319
#     4  10  22  39  57  82 117 153 191 236 286 342
#
# _framework density 19.753086
#
# number of rings (size 3 to 8) (size 9 to 14) (size 15 to 20)
#    0.000    2.286    1.429    0.857    0.000    5.143 
#    0.000    2.857    0.000    0.000    0.000    0.000 
#    0.000    0.000    0.000    0.000    0.000    0.000 
#
# Total GULP energy -155907.059627 kJ/mol
# GULP energy per Si atom -5568.109272 kJ/mol
# Density = 1.970813 g / cm^3
# Si number density = 19.753086 Si / 1000 Ang^3
#
#
#
# Elastic Constant Matrix: (Units=GPa)
#
#
# Indices 1 2 3 4 5 6 
#
# 1 110.1045 27.8534 56.3335 0.0000 11.8348 0.0000
# 2 27.8534 -15.3855 32.9468 0.0000 -9.1833 0.0000
# 3 56.3335 32.9468 97.3741 0.0000 20.1085 0.0000
# 4 0.0000 0.0000 0.0000 21.2964 0.0000 7.9972
# 5 11.8348 -9.1833 20.1085 0.0000 21.4799 0.0000
# 6 0.0000 0.0000 0.0000 7.9972 0.0000 27.7368
#
#
#
# Elastic Compliance Matrix: (Units=1/GPa)
#
#
# Indices 1 2 3 4 5 6 
#
# 1 0.012584 0.002737 -0.008698 0.000000 0.002379 0.000000
# 2 0.002737 -0.023627 0.010919 0.000000 -0.021832 0.000000
# 3 -0.008698 0.010919 0.011967 0.000000 -0.001742 0.000000
# 4 0.000000 0.000000 0.000000 0.052658 0.000000 -0.015182
# 5 0.002379 -0.021832 -0.001742 0.000000 0.037542 0.000000
# 6 0.000000 0.000000 0.000000 -0.015182 0.000000 0.040431
#
#
# Mechanical properties :
#
#
# Convention : Reuss Voigt Hill
#
# Bulk Modulus (GPa) = 92.24325 47.37337 69.80831
# Shear Modulus (GPa) = 39.92033 19.09991 29.51012
#
# Velocity S-wave (km/s) = 4.50039 3.11293 3.86936
# Velocity P-wave (km/s) = 8.59094 6.07908 7.44176
#
# Compressibility (1/GPa) = 0.01084090
#
# Stress axis : x y z
#
# Youngs Moduli (GPa) = 79.46456 -42.32365 83.56574
#
# Poissons Ratio (x) = 0.11584 0.72682
# Poissons Ratio (y) = -0.21749 -0.91249
# Poissons Ratio (z) = 0.69115 0.46215
#
# Static dielectric constant tensor:
#      x y z
#    x 1.743250 0.000000 -0.048230 
#    y 0.000000 1.679220 0.000000 
#    z -0.048230 0.000000 1.756750 
# 
# From -- ./inp_files/54577.got.cif
#   From: 2010.05.17/outbox.ucp.g08.bks.cvg/sg11_28_cif.got.tgz:54577.got - 2010.06.11 11:38:39.
