data_PCOD9167727
_publ_section_title
;
Structure prediction by ZEFSAII (Michael W. Deem and Ramdas Pophale) SiO2 
 PCOD9167727
Probable space group: P 21/M
;
_chemical_formula_sum "Si O2"
_cell_formula_units_Z 32
_cell_length_a 21.000000
_cell_length_b 9.000000
_cell_length_c 27.000000
_cell_angle_alpha 90.000000
_cell_angle_beta 20.000000
_cell_angle_gamma 90.000000
_cell_volume 1745.328791
_symmetry_space_group_name_H-M "P 21/M"
_symmetry_group_IT_number 11
_symmetry_cell_setting 'monoclinic'
loop_
_space_group_symop_operation_xyz
x,y,z
-x,1/2+y,-z
-x,-y,-z
x,1/2-y,z
loop_
_atom_site_type_symbol
_atom_site_label
_atom_site_fract_x
_atom_site_fract_y
_atom_site_fract_z
Si Si1 0.428182 0.075542 0.903819
Si Si2 0.382615 0.076570 0.819980
Si Si3 0.809994 0.429575 0.490389
Si Si4 0.156951 0.931268 0.419733
Si Si5 0.964468 0.931266 0.773498
Si Si6 0.392902 0.427682 0.645148
Si Si7 0.219047 0.427685 0.671432
Si Si8 0.186409 0.925255 0.882475
O O1 0.443589 0.250000 0.905172
O O2 0.375577 0.065746 0.884245
O O3 0.640029 0.017025 0.749140
O O4 0.252496 0.019017 0.064020
O O5 0.350917 0.250000 0.829903
O O6 0.590103 0.033542 0.649754
O O7 0.234098 0.971415 0.903148
O O8 0.819207 0.250000 0.483130
O O9 0.869446 0.475132 0.502879
O O10 0.928947 0.478591 0.355298
O O11 0.154681 0.750000 0.420223
O O12 0.000000 0.000000 0.500000
O O13 0.969961 0.750000 0.771606
O O14 0.068701 0.994126 0.746034
O O15 0.419209 0.250000 0.628862
O O16 0.231965 0.455916 0.721351
O O17 0.582235 0.507194 0.490817
O O18 0.339779 0.497540 0.735958
O O19 0.209497 0.250000 0.671595
O O20 0.181541 0.750000 0.879653
O O21 0.000000 0.000000 0.000000
#
# Coordination Sequence:
#
# PCOD9167727 Si02
#       8
#     4   4   4   4   4   4   4   4
#     4   8  17  32  53  79 106 136 176 218 263 318
#     4   9  17  34  54  73  98 135 176 221 269 323
#     4   8  16  31  54  78 103 134 172 211 256 314
#     4   9  17  34  56  79 107 140 174 210 252 310
#     4  10  18  31  53  78 101 136 179 218 263 318
#     4  10  21  38  54  72 100 137 181 223 272 330
#     4  10  21  35  53  77 105 136 171 222 276 323
#     4  12  25  37  51  73 102 137 179 230 281 328
#
# _framework density 18.334654
#
# number of rings (size 3 to 8) (size 9 to 14) (size 15 to 20)
#    0.000    2.500    0.000    4.125    1.750    2.500 
#    0.000    4.375    0.000    0.000    0.000    0.000 
#    0.000    0.000    0.000    0.000    0.000    0.000 
#
# Total GULP energy -178323.191895 kJ/mol
# GULP energy per Si atom -5572.599747 kJ/mol
# Density = 1.829292 g / cm^3
# Si number density = 18.334654 Si / 1000 Ang^3
#
#
#
# Elastic Constant Matrix: (Units=GPa)
#
#
# Indices 1 2 3 4 5 6 
#
# 1 71.0565 19.7474 27.5110 0.0000 -20.1290 0.0000
# 2 19.7474 5.4035 2.3637 0.0000 5.1522 0.0000
# 3 27.5110 2.3637 91.0476 0.0000 -0.4511 0.0000
# 4 0.0000 0.0000 0.0000 16.5807 0.0000 -5.9219
# 5 -20.1290 5.1522 -0.4511 0.0000 21.6695 0.0000
# 6 0.0000 0.0000 0.0000 -5.9219 0.0000 30.8163
#
#
#
# Elastic Compliance Matrix: (Units=1/GPa)
#
#
# Indices 1 2 3 4 5 6 
#
# 1 -0.010700 0.061937 0.001503 0.000000 -0.024635 0.000000
# 2 0.061937 -0.115286 -0.015303 0.000000 0.084626 0.000000
# 3 0.001503 -0.015303 0.010952 0.000000 0.005263 0.000000
# 4 0.000000 0.000000 0.000000 0.064756 0.000000 0.012444
# 5 -0.024635 0.084626 0.005263 0.000000 0.003253 0.000000
# 6 0.000000 0.000000 0.000000 0.012444 0.000000 0.034842
#
#
# Mechanical properties :
#
#
# Convention : Reuss Voigt Hill
#
# Bulk Modulus (GPa) = -53.30922 29.63909 -11.83506
# Shear Modulus (GPa) = -43.58756 21.67234 -10.95761
#
# Velocity S-wave (km/s) = -4.88108 3.44181 -2.44733
# Velocity P-wave (km/s) = 7.80419 5.65646 3.80196
#
# Compressibility (1/GPa) = -0.01875848
#
# Stress axis : x y z
#
# Youngs Moduli (GPa) = -93.45533 -8.67410 91.30415
#
# Poissons Ratio (x) = 0.53725 -0.13725
# Poissons Ratio (y) = 5.78835 1.39720
# Poissons Ratio (z) = 0.14048 -0.13274
#
# Static dielectric constant tensor:
#      x y z
#    x 1.644420 0.000000 0.003780 
#    y 0.000000 1.610850 0.000000 
#    z 0.003780 0.000000 1.655820 
# 
# From -- ./inp_files/72020.got.cif
#   From: 2010.05.17/outbox.ucp.g08.bks.cvg/sg11_37_cif.got.tgz:72020.got - 2010.06.11 11:38:39.
