data_PCOD9167315
_publ_section_title
;
Structure prediction by ZEFSAII (Michael W. Deem and Ramdas Pophale) SiO2 
 PCOD9167315
Probable space group: P 21/M
;
_chemical_formula_sum "Si O2"
_cell_formula_units_Z 20
_cell_length_a 9.151891
_cell_length_b 8.526569
_cell_length_c 26.419101
_cell_angle_alpha 90.000000
_cell_angle_beta 150.002582
_cell_angle_gamma 90.000000
_cell_volume 1030.716644
_symmetry_space_group_name_H-M "P 21/M"
_symmetry_group_IT_number 11
_symmetry_cell_setting 'monoclinic'
loop_
_space_group_symop_operation_xyz
x,y,z
-x,1/2+y,-z
-x,-y,-z
x,1/2-y,z
loop_
_atom_site_type_symbol
_atom_site_label
_atom_site_fract_x
_atom_site_fract_y
_atom_site_fract_z
Si Si1 0.669888 0.562791 0.901619
Si Si2 0.658932 0.561221 0.097833
Si Si3 0.326620 0.061192 0.496705
Si Si4 0.333898 0.061172 0.702363
Si Si5 0.664912 0.440748 0.699569
O O1 0.673797 0.750000 0.903532
O O2 0.505255 0.500762 0.901942
O O3 0.500970 0.503218 0.801367
O O4 0.000000 0.500000 0.000000
O O5 0.652777 0.750000 0.096200
O O6 0.997734 0.509132 0.199828
O O7 0.500000 0.500000 0.000000
O O8 0.321560 0.250000 0.494244
O O9 0.493215 0.009139 0.597781
O O10 0.500000 0.000000 0.500000
O O11 0.997810 0.997819 0.397776
O O12 0.336127 0.250000 0.704923
O O13 0.499900 0.009307 0.701034
O O14 0.665130 0.250000 0.699624
#
# Coordination Sequence:
#
# PCOD9167315 Si02
#       5
#     4   4   4   4   4
#     4  12  25  42  63  91 123 161 206 256 310 369
#     4  11  22  40  64  92 124 163 207 255 305 363
#     4  11  22  39  61  89 121 160 205 252 304 364
#     4  11  22  40  63  90 122 159 200 251 308 368
#     4   9  21  39  61  86 119 159 202 248 301 360
#
# _framework density 19.403974000000002
#
# number of rings (size 3 to 8) (size 9 to 14) (size 15 to 20)
#    0.000    1.200    0.000    6.600    0.000    3.200 
#    0.000    9.000    0.000    0.000    0.000    0.000 
#    0.000    0.000    0.000    0.000    0.000    0.000 
#
# Total GULP energy -111913.811946 kJ/mol
# GULP energy per Si atom -5595.690597 kJ/mol
# Density = 1.935981 g / cm^3
# Si number density = 19.403974 Si / 1000 Ang^3
#
#
#
# Elastic Constant Matrix: (Units=GPa)
#
#
# Indices 1 2 3 4 5 6 
#
# 1 246.9763 61.8631 150.4536 0.0000 0.0729 0.0000
# 2 61.8631 99.6871 61.8147 0.0000 -0.0994 0.0000
# 3 150.4536 61.8147 246.0509 0.0000 0.0967 0.0000
# 4 0.0000 0.0000 0.0000 37.4476 0.0000 0.7942
# 5 0.0729 -0.0994 0.0967 0.0000 48.1128 0.0000
# 6 0.0000 0.0000 0.0000 0.7942 0.0000 34.4908
#
#
#
# Elastic Compliance Matrix: (Units=1/GPa)
#
#
# Indices 1 2 3 4 5 6 
#
# 1 0.006752 -0.001931 -0.003644 0.000000 -0.000007 0.000000
# 2 -0.001931 0.012435 -0.001943 0.000000 0.000033 0.000000
# 3 -0.003644 -0.001943 0.006780 0.000000 -0.000012 0.000000
# 4 0.000000 0.000000 0.000000 0.026717 0.000000 -0.000615
# 5 -0.000007 0.000033 -0.000012 0.000000 0.020785 0.000000
# 6 0.000000 0.000000 0.000000 -0.000615 0.000000 0.029007
#
#
# Mechanical properties :
#
#
# Convention : Reuss Voigt Hill
#
# Bulk Modulus (GPa) = 91.47750 126.77522 109.12636
# Shear Modulus (GPa) = 41.26902 45.24910 43.25906
#
# Velocity S-wave (km/s) = 4.61676 4.83427 4.72677
# Velocity P-wave (km/s) = 8.69858 9.83040 9.28176
#
# Compressibility (1/GPa) = 0.01093165
#
# Stress axis : x y z
#
# Youngs Moduli (GPa) = 148.09642 80.42040 147.48198
#
# Poissons Ratio (x) = 0.15528 0.53739
# Poissons Ratio (y) = 0.28595 0.28660
# Poissons Ratio (z) = 0.53963 0.15628
#
# Static dielectric constant tensor:
#      x y z
#    x 1.629960 0.000000 -0.003480 
#    y 0.000000 1.665150 0.000000 
#    z -0.003480 0.000000 1.637590 
# 
# From -- ./inp_files/15875.got.cif
#   From: 2010.05.17/outbox.cif.g08.bks.cpg/sg11_8_cif.got.tgz:15875.got - 2010.06.03 12:22:45.
