data_PCOD9167703
_publ_section_title
;
Structure prediction by ZEFSAII (Michael W. Deem and Ramdas Pophale) SiO2 
 PCOD9167703
Probable space group: P 21/M
;
_chemical_formula_sum "Si O2"
_cell_formula_units_Z 32
_cell_length_a 12.000000
_cell_length_b 9.000000
_cell_length_c 21.000000
_cell_angle_alpha 90.000000
_cell_angle_beta 60.000000
_cell_angle_gamma 90.000000
_cell_volume 1964.145616
_symmetry_space_group_name_H-M "P 21/M"
_symmetry_group_IT_number 11
_symmetry_cell_setting 'monoclinic'
loop_
_space_group_symop_operation_xyz
x,y,z
-x,1/2+y,-z
-x,-y,-z
x,1/2-y,z
loop_
_atom_site_type_symbol
_atom_site_label
_atom_site_fract_x
_atom_site_fract_y
_atom_site_fract_z
Si Si1 0.598694 0.429721 0.258828
Si Si2 0.954449 0.571451 0.785508
Si Si3 0.198513 0.429015 0.544670
Si Si4 0.767201 0.928610 0.320755
Si Si5 0.078653 0.071307 0.350094
Si Si6 0.689586 0.569539 0.623511
Si Si7 0.185167 0.571081 0.905392
Si Si8 0.077565 0.928396 0.072881
O O1 0.604384 0.250000 0.262253
O O2 0.666493 0.503023 0.300462
O O3 0.448621 0.474847 0.307603
O O4 0.684305 0.467975 0.171151
O O5 0.962582 0.750000 0.790659
O O6 0.894324 0.539322 0.732642
O O7 0.892101 0.501845 0.867132
O O8 0.096405 0.500854 0.737631
O O9 0.186643 0.250000 0.544776
O O10 0.258817 0.464248 0.597098
O O11 0.276738 0.477774 0.459027
O O12 0.055228 0.497722 0.589407
O O13 0.773990 0.750000 0.312596
O O14 0.063989 0.250000 0.359113
O O15 0.194491 0.023576 0.362937
O O16 0.688643 0.750000 0.622652
O O17 0.168107 0.750000 0.904177
O O18 0.063176 0.490574 0.907433
O O19 0.171285 0.537350 0.985364
O O20 0.072321 0.750000 0.081170
#
# Coordination Sequence:
#
# PCOD9167703 Si02
#       8
#     4   4   4   4   4   4   4   4
#     4  10  19  32  50  68  94 129 160 190 227 282
#     4  10  18  29  47  71  96 122 155 196 237 281
#     4   9  18  32  50  71  96 122 154 199 243 280
#     4  10  19  30  45  69  98 126 154 190 238 284
#     4   9  18  32  51  72  93 120 160 203 237 274
#     4   9  18  33  51  70  92 125 163 196 234 278
#     4   9  18  30  45  69  97 125 157 190 228 280
#     4  10  18  28  46  71  97 123 152 192 239 280
#
# _framework density 16.292071
#
# number of rings (size 3 to 8) (size 9 to 14) (size 15 to 20)
#    0.000    2.500    1.250    1.500    0.000    2.000 
#    0.000    1.250    0.000    0.750    0.000    0.000 
#    0.000    0.000    0.000    0.000    0.000    0.750 
#
# Total GULP energy -178251.529954 kJ/mol
# GULP energy per Si atom -5570.360311 kJ/mol
# Density = 1.625499 g / cm^3
# Si number density = 16.292071 Si / 1000 Ang^3
#
#
#
# Elastic Constant Matrix: (Units=GPa)
#
#
# Indices 1 2 3 4 5 6 
#
# 1 57.4924 11.5691 53.7571 0.0000 -1.8648 0.0000
# 2 11.5691 28.9138 30.6885 0.0000 2.5861 0.0000
# 3 53.7571 30.6885 174.0996 0.0000 3.8458 0.0000
# 4 0.0000 0.0000 0.0000 26.4277 0.0000 1.5704
# 5 -1.8648 2.5861 3.8458 0.0000 23.5151 0.0000
# 6 0.0000 0.0000 0.0000 1.5704 0.0000 15.8519
#
#
#
# Elastic Compliance Matrix: (Units=1/GPa)
#
#
# Indices 1 2 3 4 5 6 
#
# 1 0.024838 -0.002491 -0.007306 0.000000 0.003439 0.000000
# 2 -0.002491 0.043078 -0.006740 0.000000 -0.003833 0.000000
# 3 -0.007306 -0.006740 0.009217 0.000000 -0.001346 0.000000
# 4 0.000000 0.000000 0.000000 0.038063 0.000000 -0.003771
# 5 0.003439 -0.003833 -0.001346 0.000000 0.043440 0.000000
# 6 0.000000 0.000000 0.000000 -0.003771 0.000000 0.063458
#
#
# Mechanical properties :
#
#
# Convention : Reuss Voigt Hill
#
# Bulk Modulus (GPa) = 22.69636 50.28171 36.48904
# Shear Modulus (GPa) = 18.52848 24.12501 21.32675
#
# Velocity S-wave (km/s) = 3.37600 3.85227 3.62197
# Velocity P-wave (km/s) = 5.39979 7.12154 6.31957
#
# Compressibility (1/GPa) = 0.04405992
#
# Stress axis : x y z
#
# Youngs Moduli (GPa) = 40.26122 23.21354 108.49003
#
# Poissons Ratio (x) = 0.05783 0.79263
# Poissons Ratio (y) = 0.10030 0.73117
# Poissons Ratio (z) = 0.29415 0.15645
#
# Static dielectric constant tensor:
#      x y z
#    x 1.539850 0.000000 0.020230 
#    y 0.000000 1.541720 0.000000 
#    z 0.020230 0.000000 1.569670 
# 
# From -- ./inp_files/42415.got.cif
#   From: 2010.05.17/outbox.ucp.g08.bks.cvg/sg11_22_cif.got.tgz:42415.got - 2010.06.11 11:38:39.
