data_PCOD9167974
_publ_section_title
;
Structure prediction by ZEFSAII (Michael W. Deem and Ramdas Pophale) SiO2 
 PCOD9167974
Probable space group: P 21/M
;
_chemical_formula_sum "Si O2"
_cell_formula_units_Z 28
_cell_length_a 21.000000
_cell_length_b 9.000000
_cell_length_c 15.000000
_cell_angle_alpha 90.000000
_cell_angle_beta 30.000000
_cell_angle_gamma 90.000000
_cell_volume 1417.500000
_symmetry_space_group_name_H-M "P 21/M"
_symmetry_group_IT_number 11
_symmetry_cell_setting 'monoclinic'
loop_
_space_group_symop_operation_xyz
x,y,z
-x,1/2+y,-z
-x,-y,-z
x,1/2-y,z
loop_
_atom_site_type_symbol
_atom_site_label
_atom_site_fract_x
_atom_site_fract_y
_atom_site_fract_z
Si Si1 0.541483 0.915712 0.361896
Si Si2 0.187240 0.426176 0.700542
Si Si3 0.422737 0.570477 0.010883
Si Si4 0.599339 0.080409 0.650452
Si Si5 0.134998 0.571192 0.309309
Si Si6 0.106391 0.580479 0.961135
Si Si7 0.225718 0.581454 0.005918
O O1 0.571297 0.750000 0.353858
O O2 0.439167 0.913894 0.406847
O O3 0.500000 0.000000 0.500000
O O4 0.659123 0.985044 0.167754
O O5 0.205657 0.250000 0.676481
O O6 0.267376 0.496653 0.522911
O O7 0.201414 0.483912 0.785513
O O8 0.039618 0.467284 0.866413
O O9 0.431471 0.750000 0.001616
O O10 0.495506 0.506369 0.835303
O O11 0.500000 0.500000 0.000000
O O12 0.270749 0.531488 0.192757
O O13 0.609895 0.250000 0.670864
O O14 0.122420 0.750000 0.331698
O O15 0.000000 0.500000 0.500000
O O16 0.160672 0.530056 0.175028
O O17 0.117160 0.750000 0.913952
O O18 0.136300 0.582895 0.028831
O O19 0.271789 0.750000 0.967250
#
# Coordination Sequence:
#
# PCOD9167974 Si02
#       7
#     4   4   4   4   4   4   4
#     4  11  23  36  56  87 122 159 199 244 299 361
#     4  10  20  34  54  83 120 161 203 246 300 366
#     4  11  24  44  68  95 126 164 211 266 327 389
#     4  11  23  39  59  86 120 158 202 253 308 368
#     4  10  23  42  66  94 125 162 208 266 328 388
#     4   9  19  35  55  81 116 158 202 248 303 365
#     4  10  20  38  60  83 115 152 196 249 303 363
#
# _framework density 19.753086
#
# number of rings (size 3 to 8) (size 9 to 14) (size 15 to 20)
#    0.000    1.714    1.429    2.571    0.000    9.143 
#    0.000    1.429    0.000    0.000    0.000    0.000 
#    0.000    0.000    0.000    0.000    0.000    0.000 
#
# Total GULP energy -156031.044799 kJ/mol
# GULP energy per Si atom -5572.537314 kJ/mol
# Density = 1.970813 g / cm^3
# Si number density = 19.753086 Si / 1000 Ang^3
#
#
#
# Elastic Constant Matrix: (Units=GPa)
#
#
# Indices 1 2 3 4 5 6 
#
# 1 63.9834 33.8217 47.5509 0.0000 3.0594 0.0000
# 2 33.8217 77.8743 87.7620 0.0000 4.1348 0.0000
# 3 47.5509 87.7620 173.1111 0.0000 1.1183 0.0000
# 4 0.0000 0.0000 0.0000 39.1313 0.0000 6.1963
# 5 3.0594 4.1348 1.1183 0.0000 27.2150 0.0000
# 6 0.0000 0.0000 0.0000 6.1963 0.0000 23.3195
#
#
#
# Elastic Compliance Matrix: (Units=1/GPa)
#
#
# Indices 1 2 3 4 5 6 
#
# 1 0.020840 -0.005923 -0.002713 0.000000 -0.001331 0.000000
# 2 -0.005923 0.032066 -0.014606 0.000000 -0.003606 0.000000
# 3 -0.002713 -0.014606 0.013914 0.000000 0.001952 0.000000
# 4 0.000000 0.000000 0.000000 0.026677 0.000000 -0.007089
# 5 -0.001331 -0.003606 0.001952 0.000000 0.037362 0.000000
# 6 0.000000 0.000000 0.000000 -0.007089 0.000000 0.044766
#
#
# Mechanical properties :
#
#
# Convention : Reuss Voigt Hill
#
# Bulk Modulus (GPa) = 49.17457 72.58202 60.87829
# Shear Modulus (GPa) = 21.84482 27.65542 24.75012
#
# Velocity S-wave (km/s) = 3.32911 3.74579 3.54358
# Velocity P-wave (km/s) = 6.30285 7.45200 6.90139
#
# Compressibility (1/GPa) = 0.02033571
#
# Stress axis : x y z
#
# Youngs Moduli (GPa) = 47.98511 31.18607 71.86925
#
# Poissons Ratio (x) = 0.18470 0.19500
# Poissons Ratio (y) = 0.28420 1.04973
# Poissons Ratio (z) = 0.13019 0.45551
#
# Static dielectric constant tensor:
#      x y z
#    x 1.789430 0.000000 0.058960 
#    y 0.000000 1.745520 0.000000 
#    z 0.058960 0.000000 1.499870 
# 
# From -- ./inp_files/54474.got.cif
#   From: 2010.05.17/outbox.ucp.g08.bks.cvg/sg11_28_cif.got.tgz:54474.got - 2010.06.11 11:38:39.
