data_PCOD9167171
_publ_section_title
;
Structure prediction by ZEFSAII (Michael W. Deem and Ramdas Pophale) SiO2 
 PCOD9167171
Probable space group: P 21/M
;
_chemical_formula_sum "Si O2"
_cell_formula_units_Z 28
_cell_length_a 17.605642
_cell_length_b 8.803967
_cell_length_c 10.057704
_cell_angle_alpha 90.000000
_cell_angle_beta 81.839663
_cell_angle_gamma 90.000000
_cell_volume 1543.154322
_symmetry_space_group_name_H-M "P 21/M"
_symmetry_group_IT_number 11
_symmetry_cell_setting 'monoclinic'
loop_
_space_group_symop_operation_xyz
x,y,z
-x,1/2+y,-z
-x,-y,-z
x,1/2-y,z
loop_
_atom_site_type_symbol
_atom_site_label
_atom_site_fract_x
_atom_site_fract_y
_atom_site_fract_z
Si Si1 0.038348 0.931198 0.359675
Si Si2 0.196336 0.929618 0.442782
Si Si3 0.198961 0.430002 0.728171
Si Si4 0.047422 0.930305 0.868271
Si Si5 0.501936 0.932028 0.851084
Si Si6 0.373529 0.568434 0.375149
Si Si7 0.366500 0.933322 0.683019
O O1 0.024624 0.750000 0.353304
O O2 0.129706 0.955695 0.352813
O O3 0.000000 0.000000 0.500000
O O4 0.999450 0.017395 0.249050
O O5 0.193507 0.750000 0.480319
O O6 0.282960 0.961698 0.375843
O O7 0.180629 0.023786 0.580100
O O8 0.198585 0.250000 0.742399
O O9 0.133000 0.503239 0.834295
O O10 0.283561 0.496068 0.732900
O O11 0.051486 0.750000 0.876496
O O12 0.000000 0.000000 0.000000
O O13 0.502332 0.750000 0.861182
O O14 0.428459 0.977030 0.778595
O O15 0.574471 0.986765 0.746236
O O16 0.500000 0.000000 0.000000
O O17 0.385905 0.750000 0.362252
O O18 0.389784 0.522557 0.525357
O O19 0.359439 0.750000 0.683593
#
# Coordination Sequence:
#
# PCOD9167171 Si02
#       7
#     4   4   4   4   4   4   4
#     4  11  21  36  61  90 119 158 201 242 293 346
#     4   9  19  36  59  87 120 155 192 237 292 346
#     4  11  21  35  60  90 118 149 194 245 296 346
#     4  12  25  42  60  83 119 160 202 247 297 354
#     4  11  23  39  59  85 118 156 191 232 288 346
#     4   9  18  36  61  87 115 149 191 237 285 341
#     4   9  20  39  62  86 114 152 193 235 291 348
#
# _framework density 18.144653000000002
#
# number of rings (size 3 to 8) (size 9 to 14) (size 15 to 20)
#    0.000    1.714    1.429    4.714    0.000    4.000 
#    2.571    0.000    0.000    0.000    0.000    0.000 
#    0.000    0.000    0.000    0.000    0.000    0.000 
#
# Total GULP energy -156368.017565 kJ/mol
# GULP energy per Si atom -5584.572056 kJ/mol
# Density = 1.810336 g / cm^3
# Si number density = 18.144653 Si / 1000 Ang^3
#
#
#
# Elastic Constant Matrix: (Units=GPa)
#
#
# Indices 1 2 3 4 5 6 
#
# 1 114.8554 49.6674 74.5962 0.0000 -12.2827 0.0000
# 2 49.6674 77.3223 49.4017 0.0000 -13.3661 0.0000
# 3 74.5962 49.4017 136.6183 0.0000 -17.4127 0.0000
# 4 0.0000 0.0000 0.0000 33.4991 0.0000 -2.9740
# 5 -12.2827 -13.3661 -17.4127 0.0000 26.0153 0.0000
# 6 0.0000 0.0000 0.0000 -2.9740 0.0000 32.6212
#
#
#
# Elastic Compliance Matrix: (Units=1/GPa)
#
#
# Indices 1 2 3 4 5 6 
#
# 1 0.015276 -0.005824 -0.006228 0.000000 0.000051 0.000000
# 2 -0.005824 0.019655 -0.003269 0.000000 0.005160 0.000000
# 3 -0.006228 -0.003269 0.012369 0.000000 0.003658 0.000000
# 4 0.000000 0.000000 0.000000 0.030095 0.000000 0.002744
# 5 0.000051 0.005160 0.003658 0.000000 0.043563 0.000000
# 6 0.000000 0.000000 0.000000 0.002744 0.000000 0.030905
#
#
# Mechanical properties :
#
#
# Convention : Reuss Voigt Hill
#
# Bulk Modulus (GPa) = 60.03938 75.12519 67.58228
# Shear Modulus (GPa) = 26.58745 28.76917 27.67831
#
# Velocity S-wave (km/s) = 3.83208 3.98621 3.90991
# Velocity P-wave (km/s) = 7.26230 7.91706 7.59674
#
# Compressibility (1/GPa) = 0.01665574
#
# Stress axis : x y z
#
# Youngs Moduli (GPa) = 65.46305 50.87804 80.84726
#
# Poissons Ratio (x) = 0.29632 0.50354
# Poissons Ratio (y) = 0.38126 0.26433
# Poissons Ratio (z) = 0.40773 0.16635
#
# Static dielectric constant tensor:
#      x y z
#    x 1.633930 0.000000 0.005010 
#    y 0.000000 1.609550 0.000000 
#    z 0.005010 0.000000 1.572710 
# 
# From -- ./inp_files/23987.got.cif
#   From: 2010.05.17/outbox.cif.g08.bks.cpg/sg11_12_cif.got.tgz:23987.got - 2010.06.03 12:22:45.
