data_PCOD9167595
_publ_section_title
;
Structure prediction by ZEFSAII (Michael W. Deem and Ramdas Pophale) SiO2 
 PCOD9167595
Probable space group: P 21/M
;
_chemical_formula_sum "Si O2"
_cell_formula_units_Z 26
_cell_length_a 7.347445
_cell_length_b 14.723389
_cell_length_c 12.721832
_cell_angle_alpha 90.000000
_cell_angle_beta 47.166888
_cell_angle_gamma 90.000000
_cell_volume 1009.246922
_symmetry_space_group_name_H-M "P 21/M"
_symmetry_group_IT_number 11
_symmetry_cell_setting 'monoclinic'
loop_
_space_group_symop_operation_xyz
x,y,z
-x,1/2+y,-z
-x,-y,-z
x,1/2-y,z
loop_
_atom_site_type_symbol
_atom_site_label
_atom_site_fract_x
_atom_site_fract_y
_atom_site_fract_z
Si Si1 0.428246 0.393129 0.530164
Si Si2 0.473165 0.855353 0.219425
Si Si3 0.901828 0.106358 0.819781
Si Si4 0.065830 0.098275 0.111682
Si Si5 0.717051 0.970993 0.620763
Si Si6 0.136507 0.750000 0.666627
Si Si7 0.611595 0.147299 0.139749
O O1 0.500000 0.500000 0.500000
O O2 0.331113 0.393130 0.446667
O O3 0.663361 0.329092 0.447073
O O4 0.187692 0.366578 0.692418
O O5 0.477095 0.750000 0.251114
O O6 0.244408 0.871163 0.229026
O O7 0.433330 0.933493 0.322319
O O8 0.716692 0.878493 0.055780
O O9 0.748952 0.149708 0.974776
O O10 0.906996 0.000587 0.849889
O O11 0.043886 0.172073 0.210618
O O12 0.812557 0.108070 0.143667
O O13 0.617001 0.921768 0.764713
O O14 0.000000 0.000000 0.500000
O O15 0.546358 0.250000 0.195703
#
# Coordination Sequence:
#
# PCOD9167595 Si02
#       7
#     4   4   4   4   4   2   4
#     4  12  26  47  72 107 146 187 236 300 366 425
#     4  12  27  46  70 108 146 192 240 302 363 432
#     4  12  26  45  74 106 146 192 241 303 362 429
#     4  12  23  47  74 103 142 193 248 297 357 427
#     4  12  26  46  72 101 145 193 236 298 365 426
#     4  12  24  46  74 106 146 192 236 302 366 424
#     4  12  25  46  74 110 142 195 245 299 362 438
#
# _framework density 25.761782
#
# number of rings (size 3 to 8) (size 9 to 14) (size 15 to 20)
#    0.000    0.000    7.692    1.385    4.308    0.615 
#    1.385    0.000    0.000    0.000    0.000    0.000 
#    0.000    0.000    0.000    0.000    0.000    0.000 
#
# Total GULP energy -145239.822083 kJ/mol
# GULP energy per Si atom -5586.147003 kJ/mol
# Density = 2.570315 g / cm^3
# Si number density = 25.761782 Si / 1000 Ang^3
#
#
#
# Elastic Constant Matrix: (Units=GPa)
#
#
# Indices 1 2 3 4 5 6 
#
# 1 47.1221 -1.8108 3.5792 0.0000 -4.1017 0.0000
# 2 -1.8108 214.7324 66.1493 0.0000 -4.0488 0.0000
# 3 3.5792 66.1493 194.1456 0.0000 -37.4013 0.0000
# 4 0.0000 0.0000 0.0000 58.5181 0.0000 -4.5841
# 5 -4.1017 -4.0488 -37.4013 0.0000 36.3814 0.0000
# 6 0.0000 0.0000 0.0000 -4.5841 0.0000 14.3821
#
#
#
# Elastic Compliance Matrix: (Units=1/GPa)
#
#
# Indices 1 2 3 4 5 6 
#
# 1 0.021443 0.000228 -0.000003 0.000000 0.002440 0.000000
# 2 0.000228 0.005277 -0.002100 0.000000 -0.001546 0.000000
# 3 -0.000003 -0.002100 0.007259 0.000000 0.007228 0.000000
# 4 0.000000 0.000000 0.000000 0.017526 0.000000 0.005586
# 5 0.002440 -0.001546 0.007228 0.000000 0.035020 0.000000
# 6 0.000000 0.000000 0.000000 0.005586 0.000000 0.071311
#
#
# Mechanical properties :
#
#
# Convention : Reuss Voigt Hill
#
# Bulk Modulus (GPa) = 33.08173 65.75950 49.42062
# Shear Modulus (GPa) = 29.12693 47.72849 38.42771
#
# Velocity S-wave (km/s) = 3.36613 4.30895 3.86639
# Velocity P-wave (km/s) = 5.28933 7.09489 6.25758
#
# Compressibility (1/GPa) = 0.03022817
#
# Stress axis : x y z
#
# Youngs Moduli (GPa) = 46.63572 189.51615 137.76444
#
# Poissons Ratio (x) = -0.04316 0.00040
# Poissons Ratio (y) = -0.01062 0.28928
# Poissons Ratio (z) = 0.00013 0.39795
#
# Static dielectric constant tensor:
#      x y z
#    x 2.415570 0.000000 0.171270 
#    y 0.000000 1.745170 0.000000 
#    z 0.171270 0.000000 2.039930 
# 
# From -- ./inp_files/47744.got.cif
#   From: 2010.05.17/outbox.cif.g08.bks.cpg/sg11_24_cif.got.tgz:47744.got - 2010.06.03 12:22:45.
