data_PCOD9167077
_publ_section_title
;
Structure prediction by ZEFSAII (Michael W. Deem and Ramdas Pophale) SiO2 
 PCOD9167077
Probable space group: P 21/M
;
_chemical_formula_sum "Si O2"
_cell_formula_units_Z 24
_cell_length_a 9.831020
_cell_length_b 9.936080
_cell_length_c 19.834757
_cell_angle_alpha 90.000000
_cell_angle_beta 137.318405
_cell_angle_gamma 90.000000
_cell_volume 1313.473365
_symmetry_space_group_name_H-M "P 21/M"
_symmetry_group_IT_number 11
_symmetry_cell_setting 'monoclinic'
loop_
_space_group_symop_operation_xyz
x,y,z
-x,1/2+y,-z
-x,-y,-z
x,1/2-y,z
loop_
_atom_site_type_symbol
_atom_site_label
_atom_site_fract_x
_atom_site_fract_y
_atom_site_fract_z
Si Si1 0.771918 0.906381 0.619316
Si Si2 0.646064 0.250000 0.001648
Si Si3 0.710029 0.750000 0.902255
Si Si4 0.811331 0.250000 0.913965
Si Si5 0.950392 0.462097 0.167705
Si Si6 0.675173 0.517940 0.789639
Si Si7 0.769691 0.750000 0.079989
Si Si8 0.464677 0.090147 0.591079
O O1 0.709834 0.750000 0.610257
O O2 0.737270 0.925645 0.526842
O O3 0.985286 0.927674 0.732592
O O4 0.632188 0.015866 0.606058
O O5 0.759933 0.378132 0.074499
O O6 0.687880 0.250000 0.937794
O O7 0.415086 0.250000 0.936299
O O8 0.630396 0.620938 0.833060
O O9 0.679762 0.750000 0.971325
O O10 0.952584 0.750000 0.983966
O O11 0.757429 0.381779 0.852378
O O12 0.902635 0.618047 0.139725
O O13 0.142147 0.425835 0.190375
O O14 0.492618 0.480631 0.673282
O O15 0.504985 0.250000 0.612647
#
# Coordination Sequence:
#
# PCOD9167077 Si02
#       8
#     4   2   2   2   4   4   2   4
#     4   9  18  31  51  77 111 143 174 216 278 329
#     4  12  24  38  55  79 109 147 188 224 264 325
#     4  12  22  36  53  77 107 147 184 220 270 322
#     4  12  20  36  55  79 105 147 184 218 268 324
#     4  11  20  36  55  80 108 147 183 219 273 322
#     4  11  20  33  56  82 107 143 180 222 273 320
#     4  12  26  38  53  79 113 147 184 230 266 315
#     4   9  18  31  48  81 113 137 171 225 275 324
#
# _framework density 18.272164
#
# number of rings (size 3 to 8) (size 9 to 14) (size 15 to 20)
#    0.000    1.333    5.000    2.000    7.000    0.000 
#    0.000    0.000    0.000    0.000    0.000    7.000 
#    0.000    0.000    0.000    0.000    0.000    0.000 
#
# Total GULP energy -133837.055582 kJ/mol
# GULP energy per Si atom -5576.543983 kJ/mol
# Density = 1.823058 g / cm^3
# Si number density = 18.272164 Si / 1000 Ang^3
#
#
#
# Elastic Constant Matrix: (Units=GPa)
#
#
# Indices 1 2 3 4 5 6 
#
# 1 44.8445 -13.1792 9.6847 0.0000 -7.5955 0.0000
# 2 -13.1792 90.9496 21.7351 0.0000 -11.4973 0.0000
# 3 9.6847 21.7351 115.5566 0.0000 -32.7375 0.0000
# 4 0.0000 0.0000 0.0000 12.9780 0.0000 -46.4455
# 5 -7.5955 -11.4973 -32.7375 0.0000 18.6042 0.0000
# 6 0.0000 0.0000 0.0000 -46.4455 0.0000 -52.3342
#
#
#
# Elastic Compliance Matrix: (Units=1/GPa)
#
#
# Indices 1 2 3 4 5 6 
#
# 1 0.026498 0.005621 0.001537 0.000000 0.016997 0.000000
# 2 0.005621 0.013125 0.000017 0.000000 0.010435 0.000000
# 3 0.001537 0.000017 0.017354 0.000000 0.031175 0.000000
# 4 0.000000 0.000000 0.000000 0.018451 0.000000 -0.016375
# 5 0.016997 0.010435 0.031175 0.000000 0.121998 0.000000
# 6 0.000000 0.000000 0.000000 -0.016375 0.000000 -0.004576
#
#
# Mechanical properties :
#
#
# Convention : Reuss Voigt Hill
#
# Bulk Modulus (GPa) = 14.01999 31.98132 23.00066
# Shear Modulus (GPa) = 24.71873 11.39027 18.05450
#
# Velocity S-wave (km/s) = 3.68204 2.49944 3.14680
# Velocity P-wave (km/s) = 5.07603 5.08629 5.08117
#
# Compressibility (1/GPa) = 0.07132672
#
# Stress axis : x y z
#
# Youngs Moduli (GPa) = 37.73849 76.19156 57.62429
#
# Poissons Ratio (x) = -0.42828 -0.08859
# Poissons Ratio (y) = -0.21213 -0.00095
# Poissons Ratio (z) = -0.05802 -0.00126
#
# Static dielectric constant tensor:
#      x y z
#    x 1.593800 0.000000 -0.021840 
#    y 0.000000 1.658240 0.000000 
#    z -0.021840 0.000000 1.682000 
# 
# From -- ./inp_files/42682.got.cif
#   From: 2010.05.17/outbox.cif.g08.bks.cpg/sg11_22_cif.got.tgz:42682.got - 2010.06.03 12:22:45.
