data_PCOD9167821
_publ_section_title
;
Structure prediction by ZEFSAII (Michael W. Deem and Ramdas Pophale) SiO2 
 PCOD9167821
Probable space group: P 21/M
;
_chemical_formula_sum "Si O2"
_cell_formula_units_Z 28
_cell_length_a 12.000000
_cell_length_b 9.000000
_cell_length_c 15.000000
_cell_angle_alpha 90.000000
_cell_angle_beta 120.000000
_cell_angle_gamma 90.000000
_cell_volume 1402.961154
_symmetry_space_group_name_H-M "P 21/M"
_symmetry_group_IT_number 11
_symmetry_cell_setting 'monoclinic'
loop_
_space_group_symop_operation_xyz
x,y,z
-x,1/2+y,-z
-x,-y,-z
x,1/2-y,z
loop_
_atom_site_type_symbol
_atom_site_label
_atom_site_fract_x
_atom_site_fract_y
_atom_site_fract_z
Si Si1 0.422654 0.570056 0.651144
Si Si2 0.814047 0.073350 0.554357
Si Si3 0.329843 0.573960 0.313575
Si Si4 0.545128 0.918069 0.883689
Si Si5 0.699558 0.083981 0.084533
Si Si6 0.943142 0.927269 0.249254
Si Si7 0.079969 0.572835 0.112444
O O1 0.416466 0.750000 0.650268
O O2 0.283202 0.515514 0.560711
O O3 0.538171 0.516063 0.634471
O O4 0.475279 0.518050 0.768377
O O5 0.829607 0.250000 0.544040
O O6 0.738283 0.058703 0.617826
O O7 0.957180 0.015076 0.635247
O O8 0.354462 0.750000 0.310053
O O9 0.226786 0.524316 0.195945
O O10 0.588813 0.750000 0.881213
O O11 0.431043 0.909040 0.910591
O O12 0.661111 0.005387 0.976654
O O13 0.745902 0.250000 0.084649
O O14 0.804795 0.001003 0.185969
O O15 0.930381 0.750000 0.255387
O O16 0.005629 0.951843 0.176376
O O17 0.084864 0.750000 0.099059
O O18 0.000000 0.500000 0.000000
#
# Coordination Sequence:
#
# PCOD9167821 Si02
#       7
#     4   4   4   4   4   4   4
#     4  10  19  32  53  76  98 130 171 206 242 293
#     4   8  16  33  53  73 100 135 168 198 240 297
#     4   9  18  32  48  71 103 134 163 200 246 289
#     4   9  20  36  52  74 102 129 163 208 253 300
#     4  10  20  35  54  74  99 130 165 208 255 299
#     4   9  18  34  54  72  97 134 167 199 246 300
#     4   9  19  32  46  68 100 132 163 200 241 289
#
# _framework density 19.957787
#
# number of rings (size 3 to 8) (size 9 to 14) (size 15 to 20)
#    0.000    2.857    0.000    2.571    2.000    2.286 
#    0.000    3.571    0.000    0.000    0.000    0.000 
#    0.000    0.000    0.000    0.000    0.000    0.000 
#
# Total GULP energy -155991.777390 kJ/mol
# GULP energy per Si atom -5571.134907 kJ/mol
# Density = 1.991236 g / cm^3
# Si number density = 19.957787 Si / 1000 Ang^3
#
#
#
# Elastic Constant Matrix: (Units=GPa)
#
#
# Indices 1 2 3 4 5 6 
#
# 1 12.5911 3.4440 -2.5796 0.0000 20.9681 0.0000
# 2 3.4440 -3.0834 -8.3171 0.0000 8.2188 0.0000
# 3 -2.5796 -8.3171 75.9753 0.0000 30.9888 0.0000
# 4 0.0000 0.0000 0.0000 16.4029 0.0000 8.4926
# 5 20.9681 8.2188 30.9888 0.0000 35.0838 0.0000
# 6 0.0000 0.0000 0.0000 8.4926 0.0000 17.8202
#
#
#
# Elastic Compliance Matrix: (Units=1/GPa)
#
#
# Indices 1 2 3 4 5 6 
#
# 1 -0.429631 0.353573 -0.073202 0.000000 0.238601 0.000000
# 2 0.353573 -0.390973 0.028197 0.000000 -0.144631 0.000000
# 3 -0.073202 0.028197 -0.002168 0.000000 0.039059 0.000000
# 4 0.000000 0.000000 0.000000 0.080935 0.000000 -0.038571
# 5 0.238601 -0.144631 0.039059 0.000000 -0.114717 0.000000
# 6 0.000000 0.000000 0.000000 -0.038571 0.000000 0.074498
#
#
# Mechanical properties :
#
#
# Convention : Reuss Voigt Hill
#
# Bulk Modulus (GPa) = -4.86296 7.84197 1.48950
# Shear Modulus (GPa) = -3.40660 20.05712 8.32526
#
# Velocity S-wave (km/s) = -1.30790 3.17358 2.04462
# Velocity P-wave (km/s) = 2.17318 4.16732 2.51435
#
# Compressibility (1/GPa) = -0.20563592
#
# Stress axis : x y z
#
# Youngs Moduli (GPa) = -2.32758 -2.55772 -461.27476
#
# Poissons Ratio (x) = 0.90434 -33.76622
# Poissons Ratio (y) = 0.82297 13.00656
# Poissons Ratio (z) = -0.17038 0.07212
#
# Static dielectric constant tensor:
#      x y z
#    x 1.750620 0.000000 -0.006470 
#    y 0.000000 1.690940 0.000000 
#    z -0.006470 0.000000 1.748550 
# 
# From -- ./inp_files/37860.got.cif
#   From: 2010.05.17/outbox.ucp.g08.bks.cvg/sg11_19_cif.got.tgz:37860.got - 2010.06.11 11:38:39.
