data_PCOD9167255
_publ_section_title
;
Structure prediction by ZEFSAII (Michael W. Deem and Ramdas Pophale) SiO2 
 PCOD9167255
Probable space group: P 21/M
;
_chemical_formula_sum "Si O2"
_cell_formula_units_Z 28
_cell_length_a 11.826427
_cell_length_b 8.770884
_cell_length_c 15.140079
_cell_angle_alpha 90.000000
_cell_angle_beta 117.962479
_cell_angle_gamma 90.000000
_cell_volume 1387.110604
_symmetry_space_group_name_H-M "P 21/M"
_symmetry_group_IT_number 11
_symmetry_cell_setting 'monoclinic'
loop_
_space_group_symop_operation_xyz
x,y,z
-x,1/2+y,-z
-x,-y,-z
x,1/2-y,z
loop_
_atom_site_type_symbol
_atom_site_label
_atom_site_fract_x
_atom_site_fract_y
_atom_site_fract_z
Si Si1 0.744001 0.577901 0.697618
Si Si2 0.124742 0.431829 0.995255
Si Si3 0.963645 0.426007 0.211510
Si Si4 0.076796 0.067967 0.612907
Si Si5 0.374012 0.930266 0.180506
Si Si6 0.373545 0.926142 0.493862
Si Si7 0.643537 0.072286 0.302169
O O1 0.693215 0.750000 0.688941
O O2 0.664901 0.468657 0.732470
O O3 0.734774 0.524052 0.593497
O O4 0.892546 0.575966 0.774836
O O5 0.121197 0.250000 0.002959
O O6 0.116877 0.481635 0.889911
O O7 0.256978 0.495915 0.083558
O O8 0.000000 0.500000 0.000000
O O9 0.920771 0.250000 0.202903
O O10 0.968248 0.500953 0.309553
O O11 0.061711 0.250000 0.605410
O O12 0.226385 0.020066 0.666186
O O13 0.000000 0.000000 0.500000
O O14 0.378318 0.750000 0.168429
O O15 0.513295 0.003281 0.214131
O O16 0.361670 0.750000 0.463906
O O17 0.373417 0.934109 0.598265
O O18 0.500000 0.000000 0.500000
O O19 0.658907 0.250000 0.282261
#
# Coordination Sequence:
#
# PCOD9167255 Si02
#       7
#     4   4   4   4   4   4   4
#     4  11  22  36  58  89 128 167 211 264 323 388
#     4  12  24  41  66  98 136 176 221 274 332 394
#     4  11  24  43  68  97 131 172 222 275 332 394
#     4  12  26  46  71  99 133 176 227 276 329 392
#     4  12  24  39  63  94 131 171 215 267 329 392
#     4  11  22  34  55  85 123 163 208 260 320 389
#     4  11  24  43  65  92 130 173 220 273 333 395
#
# _framework density 20.185843999999999
#
# number of rings (size 3 to 8) (size 9 to 14) (size 15 to 20)
#    0.000    0.571    2.857    6.429    0.000    5.714 
#    0.000    0.714    0.000    0.000    0.000    0.000 
#    0.000    0.000    0.000    0.000    0.000    0.000 
#
# Total GULP energy -156533.813978 kJ/mol
# GULP energy per Si atom -5590.493356 kJ/mol
# Density = 2.013990 g / cm^3
# Si number density = 20.185844 Si / 1000 Ang^3
#
#
#
# Elastic Constant Matrix: (Units=GPa)
#
#
# Indices 1 2 3 4 5 6 
#
# 1 83.6973 30.4500 31.0768 0.0000 14.0336 0.0000
# 2 30.4500 161.2925 54.7563 0.0000 9.2749 0.0000
# 3 31.0768 54.7563 132.6527 0.0000 18.4491 0.0000
# 4 0.0000 0.0000 0.0000 35.3247 0.0000 3.2786
# 5 14.0336 9.2749 18.4491 0.0000 36.2941 0.0000
# 6 0.0000 0.0000 0.0000 3.2786 0.0000 29.5340
#
#
#
# Elastic Compliance Matrix: (Units=1/GPa)
#
#
# Indices 1 2 3 4 5 6 
#
# 1 0.013986 -0.001730 -0.002014 0.000000 -0.003942 0.000000
# 2 -0.001730 0.007429 -0.002680 0.000000 0.000133 0.000000
# 3 -0.002014 -0.002680 0.009591 0.000000 -0.003412 0.000000
# 4 0.000000 0.000000 0.000000 0.028604 0.000000 -0.003175
# 5 -0.003942 0.000133 -0.003412 0.000000 0.030777 0.000000
# 6 0.000000 0.000000 0.000000 -0.003175 0.000000 0.034212
#
#
# Mechanical properties :
#
#
# Convention : Reuss Voigt Hill
#
# Bulk Modulus (GPa) = 55.07171 67.80096 61.43634
# Shear Modulus (GPa) = 34.84371 37.65454 36.24912
#
# Velocity S-wave (km/s) = 4.15920 4.32371 4.24225
# Velocity P-wave (km/s) = 7.09978 7.65423 7.38221
#
# Compressibility (1/GPa) = 0.01815814
#
# Stress axis : x y z
#
# Youngs Moduli (GPa) = 71.50005 134.61614 104.26546
#
# Poissons Ratio (x) = 0.23287 0.21001
# Poissons Ratio (y) = 0.12369 0.27938
# Poissons Ratio (z) = 0.14402 0.36071
#
# Static dielectric constant tensor:
#      x y z
#    x 1.716690 0.000000 0.017570 
#    y 0.000000 1.701400 0.000000 
#    z 0.017570 0.000000 1.749930 
# 
# From -- ./inp_files/49463.got.cif
#   From: 2010.05.17/outbox.cif.g08.bks.cpg/sg11_25_cif.got.tgz:49463.got - 2010.06.03 12:22:45.
