data_PCOD9167119
_publ_section_title
;
Structure prediction by ZEFSAII (Michael W. Deem and Ramdas Pophale) SiO2 
 PCOD9167119
Probable space group: P 21/M
;
_chemical_formula_sum "Si O2"
_cell_formula_units_Z 28
_cell_length_a 8.981566
_cell_length_b 14.253329
_cell_length_c 11.776829
_cell_angle_alpha 90.000000
_cell_angle_beta 117.216102
_cell_angle_gamma 90.000000
_cell_volume 1340.723178
_symmetry_space_group_name_H-M "P 21/M"
_symmetry_group_IT_number 11
_symmetry_cell_setting 'monoclinic'
loop_
_space_group_symop_operation_xyz
x,y,z
-x,1/2+y,-z
-x,-y,-z
x,1/2-y,z
loop_
_atom_site_type_symbol
_atom_site_label
_atom_site_fract_x
_atom_site_fract_y
_atom_site_fract_z
Si Si1 0.911081 0.403135 0.508403
Si Si2 0.821042 0.644957 0.224522
Si Si3 0.382567 0.647242 0.746931
Si Si4 0.740986 0.144487 0.047216
Si Si5 0.984295 0.991954 0.858554
Si Si6 0.486411 0.557365 0.212669
Si Si7 0.655321 0.047984 0.617519
O O1 0.806276 0.361723 0.367881
O O2 0.767706 0.410995 0.555533
O O3 0.000000 0.500000 0.500000
O O4 0.058575 0.350071 0.623733
O O5 0.792599 0.750000 0.169753
O O6 0.651137 0.598671 0.210782
O O7 0.913010 0.576860 0.166493
O O8 0.449378 0.750000 0.734796
O O9 0.369442 0.644812 0.878145
O O10 0.478796 0.552166 0.748220
O O11 0.748594 0.250000 0.004224
O O12 0.921409 0.103640 0.140399
O O13 0.658669 0.075392 0.927962
O O14 0.798139 0.993613 0.741217
O O15 0.000000 0.000000 0.000000
O O16 0.434063 0.606422 0.312697
O O17 0.500000 0.000000 0.500000
#
# Coordination Sequence:
#
# PCOD9167119 Si02
#       7
#     4   4   4   4   4   4   4
#     4  11  20  42  69  95 136 182 222 283 351 416
#     4  11  24  41  67 101 135 181 234 281 346 422
#     4  11  22  38  65  94 130 176 224 278 342 408
#     4  11  24  42  67  98 129 179 229 276 343 411
#     4  11  23  43  67  96 139 180 222 285 344 406
#     4  12  22  43  66  94 141 171 230 286 342 404
#     4  11  22  40  72  98 133 182 221 279 353 407
#
# _framework density 20.884250999999999
#
# number of rings (size 3 to 8) (size 9 to 14) (size 15 to 20)
#    0.000    0.857    5.714    2.143    0.000    0.571 
#    0.000    2.857    0.000    0.857    0.000    0.000 
#    0.000    0.000    0.000    0.000    0.000    0.000 
#
# Total GULP energy -156099.915762 kJ/mol
# GULP energy per Si atom -5574.996991 kJ/mol
# Density = 2.083672 g / cm^3
# Si number density = 20.884251 Si / 1000 Ang^3
#
#
#
# Elastic Constant Matrix: (Units=GPa)
#
#
# Indices 1 2 3 4 5 6 
#
# 1 116.8174 32.5399 27.2771 0.0000 5.7893 0.0000
# 2 32.5399 110.3696 19.0129 0.0000 4.9232 0.0000
# 3 27.2771 19.0129 120.8036 0.0000 2.8277 0.0000
# 4 0.0000 0.0000 0.0000 16.4074 0.0000 2.3828
# 5 5.7893 4.9232 2.8277 0.0000 43.1896 0.0000
# 6 0.0000 0.0000 0.0000 2.3828 0.0000 2.2916
#
#
#
# Elastic Compliance Matrix: (Units=1/GPa)
#
#
# Indices 1 2 3 4 5 6 
#
# 1 0.009722 -0.002520 -0.001778 0.000000 -0.000900 0.000000
# 2 -0.002520 0.010007 -0.000989 0.000000 -0.000738 0.000000
# 3 -0.001778 -0.000989 0.008840 0.000000 -0.000228 0.000000
# 4 0.000000 0.000000 0.000000 0.071789 0.000000 -0.074647
# 5 -0.000900 -0.000738 -0.000228 0.000000 0.023373 0.000000
# 6 0.000000 0.000000 0.000000 -0.074647 0.000000 0.513993
#
#
# Mechanical properties :
#
#
# Convention : Reuss Voigt Hill
#
# Bulk Modulus (GPa) = 55.56621 56.18338 55.87479
# Shear Modulus (GPa) = 7.64181 30.32177 18.98179
#
# Velocity S-wave (km/s) = 1.91496 3.81451 3.01808
# Velocity P-wave (km/s) = 5.61729 6.80891 6.24160
#
# Compressibility (1/GPa) = 0.01799655
#
# Stress axis : x y z
#
# Youngs Moduli (GPa) = 102.86002 99.93351 113.11974
#
# Poissons Ratio (x) = 0.25183 0.20107
# Poissons Ratio (y) = 0.25920 0.11183
# Poissons Ratio (z) = 0.18284 0.09880
#
# Static dielectric constant tensor:
#      x y z
#    x 1.805490 0.000000 -0.015190 
#    y 0.000000 1.770720 0.000000 
#    z -0.015190 0.000000 1.774090 
# 
# From -- ./inp_files/31718.got.cif
#   From: 2010.05.17/outbox.cif.g08.bks.cpg/sg11_16_cif.got.tgz:31718.got - 2010.06.03 12:22:45.
