data_PCOD9167017
_publ_section_title
;
Structure prediction by ZEFSAII (Michael W. Deem and Ramdas Pophale) SiO2 
 PCOD9167017
Probable space group: P 21/M
;
_chemical_formula_sum "Si O2"
_cell_formula_units_Z 24
_cell_length_a 11.372836
_cell_length_b 16.846946
_cell_length_c 8.935961
_cell_angle_alpha 90.000000
_cell_angle_beta 60.592527
_cell_angle_gamma 90.000000
_cell_volume 1491.502736
_symmetry_space_group_name_H-M "P 21/M"
_symmetry_group_IT_number 11
_symmetry_cell_setting 'monoclinic'
loop_
_space_group_symop_operation_xyz
x,y,z
-x,1/2+y,-z
-x,-y,-z
x,1/2-y,z
loop_
_atom_site_type_symbol
_atom_site_label
_atom_site_fract_x
_atom_site_fract_y
_atom_site_fract_z
Si Si1 0.893099 0.839988 0.301698
Si Si2 0.793569 0.340660 0.992142
Si Si3 0.172057 0.419602 0.943252
Si Si4 0.875383 0.079378 0.222677
Si Si5 0.657003 0.007370 0.934443
Si Si6 0.849026 0.990483 0.530780
O O1 0.877870 0.750000 0.363801
O O2 0.817070 0.853114 0.190761
O O3 0.845293 0.905980 0.448179
O O4 0.052519 0.854225 0.164339
O O5 0.755992 0.250000 0.982687
O O6 0.803720 0.355134 0.164879
O O7 0.699347 0.407298 0.977840
O O8 0.144994 0.499163 0.862292
O O9 0.292522 0.441099 0.978298
O O10 0.035791 0.404536 0.122860
O O11 0.826790 0.058178 0.418307
O O12 0.743249 0.996581 0.729875
O O13 0.500000 0.000000 0.000000
O O14 0.000000 0.000000 0.500000
#
# Coordination Sequence:
#
# PCOD9167017 Si02
#       6
#     4   4   4   4   4   4
#     4   9  17  31  54  79  99 130 175 224 264 293
#     4   9  17  33  53  75 102 134 174 217 259 304
#     4   8  14  29  48  69  97 128 163 202 243 305
#     4   8  14  27  51  72  90 125 167 206 251 289
#     4  11  21  33  51  77 107 144 172 200 259 322
#     4  11  17  31  53  77 105 131 169 219 257 299
#
# _framework density 16.091154
#
# number of rings (size 3 to 8) (size 9 to 14) (size 15 to 20)
#    0.000    2.667    3.333    2.000    0.000    0.000 
#    0.000   11.667    0.000    0.000    0.000    0.000 
#    0.000    0.000    0.000    0.000    0.000    0.000 
#
# Total GULP energy -133608.983704 kJ/mol
# GULP energy per Si atom -5567.040988 kJ/mol
# Density = 1.605453 g / cm^3
# Si number density = 16.091154 Si / 1000 Ang^3
#
#
#
# Elastic Constant Matrix: (Units=GPa)
#
#
# Indices 1 2 3 4 5 6 
#
# 1 122.0300 39.6335 56.3387 0.0000 -0.3770 0.0000
# 2 39.6335 83.2119 25.9958 0.0000 3.6969 0.0000
# 3 56.3387 25.9958 81.6488 0.0000 5.9925 0.0000
# 4 0.0000 0.0000 0.0000 14.0439 0.0000 5.0575
# 5 -0.3770 3.6969 5.9925 0.0000 18.8933 0.0000
# 6 0.0000 0.0000 0.0000 5.0575 0.0000 17.7360
#
#
#
# Elastic Compliance Matrix: (Units=1/GPa)
#
#
# Indices 1 2 3 4 5 6 
#
# 1 0.013245 -0.003921 -0.008156 0.000000 0.003619 0.000000
# 2 -0.003921 0.014537 -0.001749 0.000000 -0.002368 0.000000
# 3 -0.008156 -0.001749 0.018858 0.000000 -0.005802 0.000000
# 4 0.000000 0.000000 0.000000 0.079354 0.000000 -0.022628
# 5 0.003619 -0.002368 -0.005802 0.000000 0.055304 0.000000
# 6 0.000000 0.000000 0.000000 -0.022628 0.000000 0.062835
#
#
# Mechanical properties :
#
#
# Convention : Reuss Voigt Hill
#
# Bulk Modulus (GPa) = 52.66712 58.98075 55.82394
# Shear Modulus (GPa) = 17.97814 21.12950 19.55382
#
# Velocity S-wave (km/s) = 3.34618 3.62762 3.48974
# Velocity P-wave (km/s) = 6.90875 7.36749 7.14180
#
# Compressibility (1/GPa) = 0.01898718
#
# Stress axis : x y z
#
# Youngs Moduli (GPa) = 75.49978 68.79131 53.02737
#
# Poissons Ratio (x) = 0.26975 0.43251
# Poissons Ratio (y) = 0.29605 0.09273
# Poissons Ratio (z) = 0.61580 0.12030
#
# Static dielectric constant tensor:
#      x y z
#    x 1.540830 0.000000 0.026190 
#    y 0.000000 1.568130 0.000000 
#    z 0.026190 0.000000 1.534520 
# 
# From -- ./inp_files/13279.got.cif
#   From: 2010.05.17/outbox.cif.g08.bks.cpg/sg11_7_cif.got.tgz:13279.got - 2010.06.03 12:22:45.
