data_PCOD9167693
_publ_section_title
;
Structure prediction by ZEFSAII (Michael W. Deem and Ramdas Pophale) SiO2 
 PCOD9167693
Probable space group: P 21/M
;
_chemical_formula_sum "Si O2"
_cell_formula_units_Z 32
_cell_length_a 15.000000
_cell_length_b 18.000000
_cell_length_c 12.000000
_cell_angle_alpha 90.000000
_cell_angle_beta 150.000000
_cell_angle_gamma 90.000000
_cell_volume 1620.000000
_symmetry_space_group_name_H-M "P 21/M"
_symmetry_group_IT_number 11
_symmetry_cell_setting 'monoclinic'
loop_
_space_group_symop_operation_xyz
x,y,z
-x,1/2+y,-z
-x,-y,-z
x,1/2-y,z
loop_
_atom_site_type_symbol
_atom_site_label
_atom_site_fract_x
_atom_site_fract_y
_atom_site_fract_z
Si Si1 0.017845 0.659301 0.588604
Si Si2 0.034465 0.160646 0.221093
Si Si3 0.308802 0.159495 0.917067
Si Si4 0.387794 0.659641 0.908333
Si Si5 0.456703 0.161159 0.681119
Si Si6 0.841575 0.160551 0.785103
Si Si7 0.813118 0.839667 0.969665
Si Si8 0.503483 0.411680 0.502713
O O1 0.017732 0.750000 0.592308
O O2 0.036216 0.633446 0.735956
O O3 0.835651 0.637470 0.332255
O O4 0.184197 0.635467 0.694218
O O5 0.012893 0.250000 0.197738
O O6 0.245420 0.146735 0.447436
O O7 0.938197 0.135720 0.004719
O O8 0.310591 0.250000 0.922518
O O9 0.497876 0.133749 0.073200
O O10 0.247547 0.136160 0.973070
O O11 0.512829 0.750000 0.298937
O O12 0.473709 0.640068 0.121126
O O13 0.609529 0.250000 0.092590
O O14 0.541705 0.120101 0.667773
O O15 0.812914 0.250000 0.756559
O O16 0.653708 0.119672 0.581733
O O17 0.981523 0.144438 0.838310
O O18 0.791733 0.750000 0.936274
O O19 0.683649 0.878091 0.740965
O O20 0.500000 0.500000 0.500000
#
# Coordination Sequence:
#
# PCOD9167693 Si02
#       8
#     4   4   4   4   4   4   4   4
#     4   9  15  24  41  73 108 133 162 209 272 329
#     4   9  15  27  51  80 108 133 168 223 279 323
#     4   9  17  29  47  76 111 141 172 217 271 323
#     4   9  16  26  48  80 112 138 167 221 281 326
#     4  10  17  32  56  81 109 141 180 229 281 330
#     4  10  20  36  60  85 107 141 185 229 276 330
#     4  10  21  38  58  80 111 150 189 228 270 327
#     4  12  25  38  55  81 114 150 186 234 285 334
#
# _framework density 19.753086
#
# number of rings (size 3 to 8) (size 9 to 14) (size 15 to 20)
#    0.000    2.250    2.500    1.875    0.000    3.500 
#    0.000    3.750    0.000    0.750    0.000    2.625 
#    0.000    0.000    0.000    0.000    0.000    0.000 
#
# Total GULP energy -178513.325461 kJ/mol
# GULP energy per Si atom -5578.541421 kJ/mol
# Density = 1.970813 g / cm^3
# Si number density = 19.753086 Si / 1000 Ang^3
#
#
#
# Elastic Constant Matrix: (Units=GPa)
#
#
# Indices 1 2 3 4 5 6 
#
# 1 145.3560 19.5837 7.2671 0.0000 17.5552 0.0000
# 2 19.5837 18.5137 1.3438 0.0000 9.2849 0.0000
# 3 7.2671 1.3438 10.2708 0.0000 15.6284 0.0000
# 4 0.0000 0.0000 0.0000 2.0733 0.0000 -0.7602
# 5 17.5552 9.2849 15.6284 0.0000 30.3121 0.0000
# 6 0.0000 0.0000 0.0000 -0.7602 0.0000 -0.1346
#
#
#
# Elastic Compliance Matrix: (Units=1/GPa)
#
#
# Indices 1 2 3 4 5 6 
#
# 1 0.008259 -0.009155 -0.007586 0.000000 0.001932 0.000000
# 2 -0.009155 0.107121 0.159293 0.000000 -0.109639 0.000000
# 3 -0.007586 0.159293 0.693608 0.000000 -0.402013 0.000000
# 4 0.000000 0.000000 0.000000 0.157082 0.000000 -0.887034
# 5 0.001932 -0.109639 -0.402013 0.000000 0.272726 0.000000
# 6 0.000000 0.000000 0.000000 -0.887034 0.000000 -2.419143
#
#
# Mechanical properties :
#
#
# Convention : Reuss Voigt Hill
#
# Bulk Modulus (GPa) = 0.91400 25.61441 13.26420
# Shear Modulus (GPa) = -4.54234 16.17985 5.81876
#
# Velocity S-wave (km/s) = -1.51807 2.86511 1.71818
# Velocity P-wave (km/s) = 1.61525 4.89291 3.26585
#
# Compressibility (1/GPa) = 1.09409220
#
# Stress axis : x y z
#
# Youngs Moduli (GPa) = 121.08048 9.33524 1.44174
#
# Poissons Ratio (x) = 0.08546 0.01094
# Poissons Ratio (y) = 1.10845 -0.22966
# Poissons Ratio (z) = 0.91851 -1.48704
#
# Static dielectric constant tensor:
#      x y z
#    x 1.734330 0.000000 0.019480 
#    y 0.000000 1.657780 0.000000 
#    z 0.019480 0.000000 1.703790 
# 
# From -- ./inp_files/32253.got.cif
#   From: 2010.05.17/outbox.ucp.g08.bks.cvg/sg11_17_cif.got.tgz:32253.got - 2010.06.11 11:38:39.
