data_PCOD9167828
_publ_section_title
;
Structure prediction by ZEFSAII (Michael W. Deem and Ramdas Pophale) SiO2 
 PCOD9167828
Probable space group: P 21/M
;
_chemical_formula_sum "Si O2"
_cell_formula_units_Z 20
_cell_length_a 21.000000
_cell_length_b 9.000000
_cell_length_c 9.000000
_cell_angle_alpha 90.000000
_cell_angle_beta 40.000000
_cell_angle_gamma 90.000000
_cell_volume 1093.381724
_symmetry_space_group_name_H-M "P 21/M"
_symmetry_group_IT_number 11
_symmetry_cell_setting 'monoclinic'
loop_
_space_group_symop_operation_xyz
x,y,z
-x,1/2+y,-z
-x,-y,-z
x,1/2-y,z
loop_
_atom_site_type_symbol
_atom_site_label
_atom_site_fract_x
_atom_site_fract_y
_atom_site_fract_z
Si Si1 0.784118 0.570514 0.208342
Si Si2 0.624464 0.570493 0.894537
Si Si3 0.838809 0.928626 0.450396
Si Si4 0.031641 0.569261 0.286227
Si Si5 0.585273 0.427649 0.642044
O O1 0.784380 0.750000 0.195132
O O2 0.819452 0.528489 0.313578
O O3 0.671500 0.509390 0.395166
O O4 0.863882 0.497020 0.956092
O O5 0.620716 0.750000 0.873404
O O6 0.739368 0.532161 0.722675
O O7 0.603406 0.484162 0.778594
O O8 0.532501 0.538384 0.169562
O O9 0.843098 0.750000 0.443412
O O10 0.943020 0.978509 0.331506
O O11 0.035914 0.750000 0.284893
O O12 0.000000 0.500000 0.500000
O O13 0.598562 0.250000 0.607783
#
# Coordination Sequence:
#
# PCOD9167828 Si02
#       5
#     4   4   4   4   4
#     4  10  19  33  52  74 100 129 163 201 241 286
#     4   8  14  26  44  69 100 129 157 192 237 286
#     4   8  16  31  52  75  99 128 161 199 241 286
#     4  11  22  36  52  71  97 129 165 203 246 292
#     4   9  15  24  43  72 102 128 155 192 238 286
#
# _framework density 18.291872999999999
#
# number of rings (size 3 to 8) (size 9 to 14) (size 15 to 20)
#    0.000    2.800    0.000    3.600    0.000    0.800 
#    0.000    9.000    0.000    1.200    0.000    0.000 
#    0.000    0.000    0.000    0.000    0.000    0.000 
#
# Total GULP energy -111346.399921 kJ/mol
# GULP energy per Si atom -5567.319996 kJ/mol
# Density = 1.825024 g / cm^3
# Si number density = 18.291873 Si / 1000 Ang^3
#
#
#
# Elastic Constant Matrix: (Units=GPa)
#
#
# Indices 1 2 3 4 5 6 
#
# 1 5.7761 7.3368 29.2202 0.0000 -5.5070 0.0000
# 2 7.3368 70.6132 52.1641 0.0000 -6.9973 0.0000
# 3 29.2202 52.1641 190.1292 0.0000 -30.3418 0.0000
# 4 0.0000 0.0000 0.0000 35.4789 0.0000 -3.1018
# 5 -5.5070 -6.9973 -30.3418 0.0000 23.9818 0.0000
# 6 0.0000 0.0000 0.0000 -3.1018 0.0000 15.1007
#
#
#
# Elastic Compliance Matrix: (Units=1/GPa)
#
#
# Indices 1 2 3 4 5 6 
#
# 1 0.805605 0.008909 -0.120685 0.000000 0.034902 0.000000
# 2 0.008909 0.017889 -0.006413 0.000000 -0.000848 0.000000
# 3 -0.120685 -0.006413 0.026119 0.000000 0.003461 0.000000
# 4 0.000000 0.000000 0.000000 0.028701 0.000000 0.005895
# 5 0.034902 -0.000848 0.003461 0.000000 0.053845 0.000000
# 6 0.000000 0.000000 0.000000 0.005895 0.000000 0.067433
#
#
# Mechanical properties :
#
#
# Convention : Reuss Voigt Hill
#
# Bulk Modulus (GPa) = 1.63069 49.32896 25.47982
# Shear Modulus (GPa) = 3.47130 26.76545 15.11838
#
# Velocity S-wave (km/s) = 1.37908 3.82939 2.87802
# Velocity P-wave (km/s) = 1.85182 6.82484 5.00039
#
# Compressibility (1/GPa) = 0.61323676
#
# Stress axis : x y z
#
# Youngs Moduli (GPa) = 1.24130 55.89982 38.28648
#
# Poissons Ratio (x) = -0.49801 4.62059
# Poissons Ratio (y) = -0.01106 0.24552
# Poissons Ratio (z) = 0.14981 0.35846
#
# Static dielectric constant tensor:
#      x y z
#    x 1.643260 0.000000 -0.034320 
#    y 0.000000 1.604130 0.000000 
#    z -0.034320 0.000000 1.670770 
# 
# From -- ./inp_files/15879.got.cif
#   From: 2010.05.17/outbox.ucp.g08.bks.cvg/sg11_8_cif.got.tgz:15879.got - 2010.06.11 11:38:39.
