data_PCOD9167912
_publ_section_title
;
Structure prediction by ZEFSAII (Michael W. Deem and Ramdas Pophale) SiO2 
 PCOD9167912
Probable space group: P 21/M
;
_chemical_formula_sum "Si O2"
_cell_formula_units_Z 32
_cell_length_a 12.000000
_cell_length_b 9.000000
_cell_length_c 30.000000
_cell_angle_alpha 90.000000
_cell_angle_beta 150.000000
_cell_angle_gamma 90.000000
_cell_volume 1620.000000
_symmetry_space_group_name_H-M "P 21/M"
_symmetry_group_IT_number 11
_symmetry_cell_setting 'monoclinic'
loop_
_space_group_symop_operation_xyz
x,y,z
-x,1/2+y,-z
-x,-y,-z
x,1/2-y,z
loop_
_atom_site_type_symbol
_atom_site_label
_atom_site_fract_x
_atom_site_fract_y
_atom_site_fract_z
Si Si1 0.206328 0.570538 0.178881
Si Si2 0.368066 0.074560 0.495836
Si Si3 0.052692 0.087937 0.774405
Si Si4 0.770000 0.072026 0.988459
Si Si5 0.885748 0.080461 0.291795
Si Si6 0.614415 0.574544 0.846511
Si Si7 0.429219 0.579558 0.931236
Si Si8 0.578215 0.417795 0.654922
O O1 0.177546 0.750000 0.171418
O O2 0.340489 0.517795 0.182195
O O3 0.339651 0.520103 0.269282
O O4 0.965973 0.494494 0.087309
O O5 0.432145 0.250000 0.517931
O O6 0.420492 0.009358 0.563159
O O7 0.103388 0.070087 0.397441
O O8 0.500000 0.000000 0.500000
O O9 0.154298 0.250000 0.820210
O O10 0.803454 0.093827 0.704360
O O11 0.076455 0.046738 0.731419
O O12 0.168689 0.950356 0.838611
O O13 0.781690 0.250000 0.990345
O O14 0.761492 0.997022 0.936962
O O15 0.541561 0.013440 0.930859
O O16 0.886253 0.250000 0.272298
O O17 0.646235 0.064306 0.231417
O O18 0.670853 0.750000 0.860980
O O19 0.492549 0.750000 0.950364
O O20 0.500000 0.500000 0.000000
O O21 0.492834 0.250000 0.635025
#
# Coordination Sequence:
#
# PCOD9167912 Si02
#       8
#     4   4   4   4   4   4   4   4
#     4  11  23  41  62  85 117 161 205 252 303 359
#     4  10  19  36  60  90 120 155 195 242 301 364
#     4  11  20  34  58  86 118 155 196 243 297 357
#     4  12  24  40  62  89 117 156 203 252 302 360
#     4  10  21  36  59  87 119 154 193 243 301 355
#     4  11  23  41  61  86 120 159 203 254 300 354
#     4  12  24  38  55  83 122 162 201 245 298 357
#     4   9  20  37  59  87 121 156 195 245 302 358
#
# _framework density 19.753086
#
# number of rings (size 3 to 8) (size 9 to 14) (size 15 to 20)
#    0.000    1.250    2.500    4.500    0.000    1.500 
#    0.000    3.750    0.000    0.000    0.000    0.000 
#    0.000    0.000    0.000    0.000    0.000    0.000 
#
# Total GULP energy -178382.081120 kJ/mol
# GULP energy per Si atom -5574.440035 kJ/mol
# Density = 1.970813 g / cm^3
# Si number density = 19.753086 Si / 1000 Ang^3
#
#
#
# Elastic Constant Matrix: (Units=GPa)
#
#
# Indices 1 2 3 4 5 6 
#
# 1 40.2017 18.9279 24.5227 0.0000 -6.2578 0.0000
# 2 18.9279 81.5106 27.8449 0.0000 -6.2865 0.0000
# 3 24.5227 27.8449 98.0717 0.0000 -27.4442 0.0000
# 4 0.0000 0.0000 0.0000 22.5513 0.0000 0.1527
# 5 -6.2578 -6.2865 -27.4442 0.0000 25.4623 0.0000
# 6 0.0000 0.0000 0.0000 0.1527 0.0000 22.6364
#
#
#
# Elastic Compliance Matrix: (Units=1/GPa)
#
#
# Indices 1 2 3 4 5 6 
#
# 1 0.031136 -0.005049 -0.006529 0.000000 -0.000631 0.000000
# 2 -0.005049 0.014428 -0.003128 0.000000 -0.001050 0.000000
# 3 -0.006529 -0.003128 0.017257 0.000000 0.016224 0.000000
# 4 0.000000 0.000000 0.000000 0.044345 0.000000 -0.000299
# 5 -0.000631 -0.001050 0.016224 0.000000 0.056346 0.000000
# 6 0.000000 0.000000 0.000000 -0.000299 0.000000 0.044179
#
#
# Mechanical properties :
#
#
# Convention : Reuss Voigt Hill
#
# Bulk Modulus (GPa) = 29.93040 40.26388 35.09714
# Shear Modulus (GPa) = 20.14194 24.02924 22.08559
#
# Velocity S-wave (km/s) = 3.19672 3.49159 3.34740
# Velocity P-wave (km/s) = 5.36754 6.05663 5.72247
#
# Compressibility (1/GPa) = 0.03341085
#
# Stress axis : x y z
#
# Youngs Moduli (GPa) = 32.11739 69.30848 57.94687
#
# Poissons Ratio (x) = 0.34991 0.37832
# Poissons Ratio (y) = 0.16215 0.18125
# Poissons Ratio (z) = 0.20968 0.21679
#
# Static dielectric constant tensor:
#      x y z
#    x 1.677910 0.000000 -0.004900 
#    y 0.000000 1.706690 0.000000 
#    z -0.004900 0.000000 1.766750 
# 
# From -- ./inp_files/64454.got.cif
#   From: 2010.05.17/outbox.ucp.g08.bks.cvg/sg11_33_cif.got.tgz:64454.got - 2010.06.11 11:38:39.
