data_PCOD9167336
_publ_section_title
;
Structure prediction by ZEFSAII (Michael W. Deem and Ramdas Pophale) SiO2 
 PCOD9167336
Probable space group: P 21/M
;
_chemical_formula_sum "Si O2"
_cell_formula_units_Z 32
_cell_length_a 16.475667
_cell_length_b 17.101313
_cell_length_c 12.799679
_cell_angle_alpha 90.000000
_cell_angle_beta 154.586494
_cell_angle_gamma 90.000000
_cell_volume 1547.671170
_symmetry_space_group_name_H-M "P 21/M"
_symmetry_group_IT_number 11
_symmetry_cell_setting 'monoclinic'
loop_
_space_group_symop_operation_xyz
x,y,z
-x,1/2+y,-z
-x,-y,-z
x,1/2-y,z
loop_
_atom_site_type_symbol
_atom_site_label
_atom_site_fract_x
_atom_site_fract_y
_atom_site_fract_z
Si Si1 0.035068 0.409252 0.512084
Si Si2 0.079135 0.838651 0.053425
Si Si3 0.014222 0.950718 0.166784
Si Si4 0.871966 0.660321 0.587797
Si Si5 0.399959 0.048064 0.633338
Si Si6 0.159592 0.659219 0.518384
Si Si7 0.540388 0.566126 0.959350
Si Si8 0.356281 0.556776 0.274659
O O1 0.007794 0.386474 0.359322
O O2 0.000000 0.500000 0.500000
O O3 0.915839 0.358012 0.453277
O O4 0.256970 0.396383 0.789541
O O5 0.085182 0.750000 0.099446
O O6 0.993932 0.896169 0.041266
O O7 0.284829 0.872418 0.263198
O O8 0.967324 0.838908 0.813326
O O9 0.048026 0.896221 0.306946
O O10 0.206611 0.002022 0.376842
O O11 0.832789 0.006081 0.967973
O O12 0.849164 0.750000 0.527612
O O13 0.675930 0.614285 0.376464
O O14 0.525508 0.083837 0.688044
O O15 0.527691 0.983371 0.838196
O O16 0.141995 0.750000 0.471216
O O17 0.374361 0.629032 0.765092
O O18 0.500000 0.500000 0.000000
O O19 0.500000 0.500000 0.500000
#
# Coordination Sequence:
#
# PCOD9167336 Si02
#       8
#     4   4   4   4   4   4   4   4
#     4  12  23  43  68  96 131 174 228 271 328 406
#     4  11  24  42  65  95 135 172 211 274 336 385
#     4  11  22  46  68  92 134 172 220 274 326 397
#     4  11  24  41  63  95 135 174 209 268 340 392
#     4  11  22  40  67  95 123 170 223 264 323 394
#     4  11  25  42  68  99 130 174 223 280 337 389
#     4  11  22  41  64  95 125 169 220 268 327 392
#     4  12  23  38  69 100 122 173 227 260 322 401
#
# _framework density 20.676227000000001
#
# number of rings (size 3 to 8) (size 9 to 14) (size 15 to 20)
#    0.000    0.750    5.000    3.375    1.750    1.500 
#    0.000    1.250    0.000    0.000    0.000    0.000 
#    0.000    0.000    0.000    0.000    0.000    0.000 
#
# Total GULP energy -178884.033311 kJ/mol
# GULP energy per Si atom -5590.126041 kJ/mol
# Density = 2.062917 g / cm^3
# Si number density = 20.676227 Si / 1000 Ang^3
#
#
#
# Elastic Constant Matrix: (Units=GPa)
#
#
# Indices 1 2 3 4 5 6 
#
# 1 108.8063 22.7748 -4.3629 0.0000 0.8201 0.0000
# 2 22.7748 116.7129 5.0855 0.0000 -0.8374 0.0000
# 3 -4.3629 5.0855 60.9707 0.0000 -1.2173 0.0000
# 4 0.0000 0.0000 0.0000 22.0444 0.0000 1.1093
# 5 0.8201 -0.8374 -1.2173 0.0000 25.3066 0.0000
# 6 0.0000 0.0000 0.0000 1.1093 0.0000 29.7263
#
#
#
# Elastic Compliance Matrix: (Units=1/GPa)
#
#
# Indices 1 2 3 4 5 6 
#
# 1 0.009628 -0.001918 0.000842 0.000000 -0.000335 0.000000
# 2 -0.001918 0.008983 -0.000880 0.000000 0.000317 0.000000
# 3 0.000842 -0.000880 0.016550 0.000000 0.000740 0.000000
# 4 0.000000 0.000000 0.000000 0.045448 0.000000 -0.001696
# 5 -0.000335 0.000317 0.000740 0.000000 0.039572 0.000000
# 6 0.000000 0.000000 0.000000 -0.001696 0.000000 0.033704
#
#
# Mechanical properties :
#
#
# Convention : Reuss Voigt Hill
#
# Bulk Modulus (GPa) = 32.00058 37.05383 34.52721
# Shear Modulus (GPa) = 29.72415 32.94830 31.33622
#
# Velocity S-wave (km/s) = 3.79568 3.99624 3.89725
# Velocity P-wave (km/s) = 5.89239 6.26523 6.08167
#
# Compressibility (1/GPa) = 0.03124943
#
# Stress axis : x y z
#
# Youngs Moduli (GPa) = 103.85949 111.32243 60.42374
#
# Poissons Ratio (x) = 0.21351 -0.05089
# Poissons Ratio (y) = 0.19920 0.05318
# Poissons Ratio (z) = -0.08748 0.09798
#
# Static dielectric constant tensor:
#      x y z
#    x 1.763510 0.000000 -0.052810 
#    y 0.000000 1.757510 0.000000 
#    z -0.052810 0.000000 1.763580 
# 
# From -- ./inp_files/40061.got.cif
#   From: 2010.05.17/outbox.cif.g08.bks.cpg/sg11_21_cif.got.tgz:40061.got - 2010.06.03 12:22:45.
