data_PCOD9167657
_publ_section_title
;
Structure prediction by ZEFSAII (Michael W. Deem and Ramdas Pophale) SiO2 
 PCOD9167657
Probable space group: P 21/M
;
_chemical_formula_sum "Si O2"
_cell_formula_units_Z 28
_cell_length_a 18.684619
_cell_length_b 9.454042
_cell_length_c 20.583001
_cell_angle_alpha 90.000000
_cell_angle_beta 160.318553
_cell_angle_gamma 90.000000
_cell_volume 1224.532031
_symmetry_space_group_name_H-M "P 21/M"
_symmetry_group_IT_number 11
_symmetry_cell_setting 'monoclinic'
loop_
_space_group_symop_operation_xyz
x,y,z
-x,1/2+y,-z
-x,-y,-z
x,1/2-y,z
loop_
_atom_site_type_symbol
_atom_site_label
_atom_site_fract_x
_atom_site_fract_y
_atom_site_fract_z
Si Si1 0.561870 0.590377 0.146851
Si Si2 0.661182 0.586728 0.784322
Si Si3 0.417675 0.587896 0.160921
Si Si4 0.284181 0.579703 0.294488
Si Si5 0.852109 0.089454 0.683274
Si Si6 0.917468 0.910222 0.618117
Si Si7 0.827745 0.410629 0.285360
O O1 0.627164 0.750000 0.220289
O O2 0.440436 0.534080 0.106558
O O3 0.760936 0.503728 0.289871
O O4 0.389341 0.599095 0.942498
O O5 0.731323 0.750000 0.840259
O O6 0.686359 0.517163 0.876472
O O7 0.763869 0.490613 0.815779
O O8 0.404318 0.587603 0.550625
O O9 0.334678 0.750000 0.093051
O O10 0.664823 0.595999 0.394072
O O11 0.500000 0.500000 0.500000
O O12 0.313124 0.750000 0.313460
O O13 0.133633 0.554409 0.228055
O O14 0.924302 0.250000 0.734917
O O15 0.957407 0.989466 0.719690
O O16 0.002168 0.750000 0.694026
O O17 0.011501 0.971409 0.631506
O O18 0.886031 0.250000 0.353765
#
# Coordination Sequence:
#
# PCOD9167657 Si02
#       7
#     4   4   4   4   4   4   4
#     4   9  18  32  48  64  84 112 144 175 211 257
#     4   9  16  25  38  59  86 115 145 177 215 256
#     4   9  17  29  44  63  87 114 143 175 213 257
#     4   9  15  23  36  56  84 117 149 179 213 253
#     4   8  15  25  37  57  85 114 143 174 209 250
#     4   9  17  28  43  63  87 113 141 175 214 253
#     4   9  18  32  47  64  86 111 141 177 214 253
#
# _framework density 22.865877999999999
#
# number of rings (size 3 to 8) (size 9 to 14) (size 15 to 20)
#    0.000    3.143    0.000    1.714    0.000    5.714 
#    0.000    0.000    0.000    0.000    0.000    1.000 
#    0.000    0.000    0.000    0.000    0.000    0.000 
#
# Total GULP energy -156356.671981 kJ/mol
# GULP energy per Si atom -5584.166856 kJ/mol
# Density = 2.281383 g / cm^3
# Si number density = 22.865878 Si / 1000 Ang^3
#
#
#
# Elastic Constant Matrix: (Units=GPa)
#
#
# Indices 1 2 3 4 5 6 
#
# 1 218.1090 111.6404 16.1100 0.0000 -6.4363 0.0000
# 2 111.6404 104.4216 9.8455 0.0000 3.0061 0.0000
# 3 16.1100 9.8455 58.6950 0.0000 2.6283 0.0000
# 4 0.0000 0.0000 0.0000 8.7719 0.0000 -0.0082
# 5 -6.4363 3.0061 2.6283 0.0000 43.4376 0.0000
# 6 0.0000 0.0000 0.0000 -0.0082 0.0000 46.3173
#
#
#
# Elastic Compliance Matrix: (Units=1/GPa)
#
#
# Indices 1 2 3 4 5 6 
#
# 1 0.010421 -0.011106 -0.001104 0.000000 0.002380 0.000000
# 2 -0.011106 0.021581 -0.000432 0.000000 -0.003113 0.000000
# 3 -0.001104 -0.000432 0.017466 0.000000 -0.001191 0.000000
# 4 0.000000 0.000000 0.000000 0.114001 0.000000 0.000020
# 5 0.002380 -0.003113 -0.001191 0.000000 0.023662 0.000000
# 6 0.000000 0.000000 0.000000 0.000020 0.000000 0.021590
#
#
# Mechanical properties :
#
#
# Convention : Reuss Voigt Hill
#
# Bulk Modulus (GPa) = 41.35052 72.93525 57.14288
# Shear Modulus (GPa) = 20.65540 35.94733 28.30136
#
# Velocity S-wave (km/s) = 3.00880 3.96927 3.52193
# Velocity P-wave (km/s) = 5.49488 7.27826 6.44852
#
# Compressibility (1/GPa) = 0.02418350
#
# Stress axis : x y z
#
# Youngs Moduli (GPa) = 95.95577 46.33692 57.25393
#
# Poissons Ratio (x) = 0.51463 0.06321
# Poissons Ratio (y) = 1.06572 0.02475
# Poissons Ratio (z) = 0.10593 0.02003
#
# Static dielectric constant tensor:
#      x y z
#    x 1.845360 0.000000 -0.009700 
#    y 0.000000 1.797650 0.000000 
#    z -0.009700 0.000000 1.968270 
# 
# From -- ./inp_files/42588.got.cif
#   From: 2010.05.17/outbox.cif.g08.bks.cpg/sg11_22_cif.got.tgz:42588.got - 2010.06.03 12:22:45.
