data_PCOD9167329
_publ_section_title
;
Structure prediction by ZEFSAII (Michael W. Deem and Ramdas Pophale) SiO2 
 PCOD9167329
Probable space group: P 21/M
;
_chemical_formula_sum "Si O2"
_cell_formula_units_Z 22
_cell_length_a 14.528137
_cell_length_b 7.545473
_cell_length_c 8.134412
_cell_angle_alpha 90.000000
_cell_angle_beta 85.549725
_cell_angle_gamma 90.000000
_cell_volume 889.019337
_symmetry_space_group_name_H-M "P 21/M"
_symmetry_group_IT_number 11
_symmetry_cell_setting 'monoclinic'
loop_
_space_group_symop_operation_xyz
x,y,z
-x,1/2+y,-z
-x,-y,-z
x,1/2-y,z
loop_
_atom_site_type_symbol
_atom_site_label
_atom_site_fract_x
_atom_site_fract_y
_atom_site_fract_z
Si Si1 0.604318 0.552063 0.533393
Si Si2 0.953423 0.042056 0.831229
Si Si3 0.401152 0.961513 0.089291
Si Si4 0.804933 0.045985 0.412965
Si Si5 0.780105 0.463397 0.053002
Si Si6 0.079947 0.250000 0.403544
O O1 0.500000 0.500000 0.500000
O O2 0.617287 0.750000 0.470216
O O3 0.608894 0.542893 0.729857
O O4 0.693380 0.450509 0.453925
O O5 0.964763 0.250000 0.787080
O O6 0.979280 0.906607 0.687018
O O7 0.846816 0.996790 0.891493
O O8 0.000000 0.000000 0.000000
O O9 0.390261 0.750000 0.110343
O O10 0.321368 0.026476 0.978079
O O11 0.500000 0.000000 0.000000
O O12 0.834468 0.250000 0.436240
O O13 0.818226 0.979433 0.223299
O O14 0.854691 0.906598 0.522802
O O15 0.778606 0.250000 0.066809
#
# Coordination Sequence:
#
# PCOD9167329 Si02
#       6
#     4   4   4   4   4   2
#     4  12  24  40  61  94 135 184 232 285 344 403
#     4  11  23  46  74 103 137 177 233 286 344 418
#     4  11  22  40  63  96 131 179 232 283 337 404
#     4  11  23  44  67  99 138 179 228 282 345 413
#     4   9  22  42  70  94 135 184 224 280 345 408
#     4  12  24  42  70 104 132 176 224 272 354 408
#
# _framework density 24.746366999999999
#
# number of rings (size 3 to 8) (size 9 to 14) (size 15 to 20)
#    0.000    1.091    1.818    4.909    0.000    3.636 
#    4.909    0.909    0.000    0.000    0.000    0.000 
#    0.000    0.000    0.000    0.000    0.000    0.000 
#
# Total GULP energy -122744.831527 kJ/mol
# GULP energy per Si atom -5579.310524 kJ/mol
# Density = 2.469004 g / cm^3
# Si number density = 24.746367 Si / 1000 Ang^3
#
#
#
# Elastic Constant Matrix: (Units=GPa)
#
#
# Indices 1 2 3 4 5 6 
#
# 1 113.1170 44.0154 29.2396 0.0000 11.4328 0.0000
# 2 44.0154 184.6769 38.3845 0.0000 12.2690 0.0000
# 3 29.2396 38.3845 103.6071 0.0000 20.6817 0.0000
# 4 0.0000 0.0000 0.0000 11.7823 0.0000 23.4751
# 5 11.4328 12.2690 20.6817 0.0000 52.6385 0.0000
# 6 0.0000 0.0000 0.0000 23.4751 0.0000 31.1217
#
#
#
# Elastic Compliance Matrix: (Units=1/GPa)
#
#
# Indices 1 2 3 4 5 6 
#
# 1 0.010209 -0.001961 -0.001957 0.000000 -0.000992 0.000000
# 2 -0.001961 0.006258 -0.001692 0.000000 -0.000368 0.000000
# 3 -0.001957 -0.001692 0.011575 0.000000 -0.003729 0.000000
# 4 0.000000 0.000000 0.000000 -0.168780 0.000000 0.127311
# 5 -0.000992 -0.000368 -0.003729 0.000000 0.020764 0.000000
# 6 0.000000 0.000000 0.000000 0.127311 0.000000 -0.063898
#
#
# Mechanical properties :
#
#
# Convention : Reuss Voigt Hill
#
# Bulk Modulus (GPa) = 59.43851 69.40888 64.42369
# Shear Modulus (GPa) = -29.93198 38.42595 4.24698
#
# Velocity S-wave (km/s) = -3.48163 3.94482 1.31146
# Velocity P-wave (km/s) = 2.81227 6.98984 5.32760
#
# Compressibility (1/GPa) = 0.01682411
#
# Stress axis : x y z
#
# Youngs Moduli (GPa) = 97.94902 159.78930 86.39188
#
# Poissons Ratio (x) = 0.31329 0.16906
# Poissons Ratio (y) = 0.19204 0.14615
# Poissons Ratio (z) = 0.19168 0.27032
#
# Static dielectric constant tensor:
#      x y z
#    x 1.963820 0.000000 -0.040180 
#    y 0.000000 2.146100 0.000000 
#    z -0.040180 0.000000 1.974270 
# 
# From -- ./inp_files/20648.got.cif
#   From: 2010.05.17/outbox.cif.g08.bks.cpg/sg11_11_cif.got.tgz:20648.got - 2010.06.03 12:22:45.
