data_PCOD9167598
_publ_section_title
;
Structure prediction by ZEFSAII (Michael W. Deem and Ramdas Pophale) SiO2 
 PCOD9167598
Probable space group: P 21/M
;
_chemical_formula_sum "Si O2"
_cell_formula_units_Z 20
_cell_length_a 8.863626
_cell_length_b 20.892421
_cell_length_c 5.994891
_cell_angle_alpha 90.000000
_cell_angle_beta 57.069271
_cell_angle_gamma 90.000000
_cell_volume 931.780066
_symmetry_space_group_name_H-M "P 21/M"
_symmetry_group_IT_number 11
_symmetry_cell_setting 'monoclinic'
loop_
_space_group_symop_operation_xyz
x,y,z
-x,1/2+y,-z
-x,-y,-z
x,1/2-y,z
loop_
_atom_site_type_symbol
_atom_site_label
_atom_site_fract_x
_atom_site_fract_y
_atom_site_fract_z
Si Si1 0.685476 0.012000 0.225631
Si Si2 0.877659 0.250000 0.699949
Si Si3 0.080850 0.250000 0.027081
Si Si4 0.372046 0.874587 0.067148
Si Si5 0.241893 0.124833 0.065232
Si Si6 0.092596 0.944228 0.563936
O O1 0.855209 0.026796 0.242803
O O2 0.500000 0.000000 0.500000
O O3 0.656251 0.077672 0.114976
O O4 0.722299 0.945537 0.067172
O O5 0.747304 0.311325 0.830870
O O6 0.969976 0.250000 0.366918
O O7 0.989257 0.250000 0.850736
O O8 0.200342 0.185366 0.942460
O O9 0.284683 0.918481 0.329511
O O10 0.581806 0.860610 0.932854
O O11 0.051840 0.112339 0.337462
O O12 0.000000 0.000000 0.500000
#
# Coordination Sequence:
#
# PCOD9167598 Si02
#       6
#     4   2   2   4   4   4
#     4  12  25  44  75 112 146 197 250 313 381 454
#     4  12  29  52  79 107 157 198 261 307 385 450
#     4  12  29  50  79 111 147 210 251 313 383 460
#     4  12  26  48  72 108 149 198 246 322 372 456
#     4  12  25  47  72 108 148 193 253 309 381 449
#     4  12  24  42  73 105 148 189 250 308 381 440
#
# _framework density 21.464292
#
# number of rings (size 3 to 8) (size 9 to 14) (size 15 to 20)
#    0.000    0.000    6.000    4.200    2.800    1.600 
#    0.000    3.000    0.000    0.000    0.000    0.000 
#    0.000    0.000    0.000    0.000    0.000    0.000 
#
# Total GULP energy -111389.529607 kJ/mol
# GULP energy per Si atom -5569.476480 kJ/mol
# Density = 2.141544 g / cm^3
# Si number density = 21.464292 Si / 1000 Ang^3
#
#
#
# Elastic Constant Matrix: (Units=GPa)
#
#
# Indices 1 2 3 4 5 6 
#
# 1 174.4794 32.3606 34.1824 0.0000 10.7907 0.0000
# 2 32.3606 94.7542 11.6437 0.0000 5.1574 0.0000
# 3 34.1824 11.6437 81.7359 0.0000 -5.6032 0.0000
# 4 0.0000 0.0000 0.0000 -0.3779 0.0000 -12.3292
# 5 10.7907 5.1574 -5.6032 0.0000 31.8231 0.0000
# 6 0.0000 0.0000 0.0000 -12.3292 0.0000 43.3002
#
#
#
# Elastic Compliance Matrix: (Units=1/GPa)
#
#
# Indices 1 2 3 4 5 6 
#
# 1 0.006761 -0.001838 -0.002736 0.000000 -0.002476 0.000000
# 2 -0.001838 0.011373 -0.000946 0.000000 -0.001387 0.000000
# 3 -0.002736 -0.000946 0.013753 0.000000 0.003503 0.000000
# 4 0.000000 0.000000 0.000000 -0.257173 0.000000 -0.073227
# 5 -0.002476 -0.001387 0.003503 0.000000 0.033105 0.000000
# 6 0.000000 0.000000 0.000000 -0.073227 0.000000 0.002244
#
#
# Mechanical properties :
#
#
# Convention : Reuss Voigt Hill
#
# Bulk Modulus (GPa) = 47.96717 56.37143 52.16930
# Shear Modulus (GPa) = -29.07893 33.13460 2.02783
#
# Velocity S-wave (km/s) = -3.68470 3.93327 0.97304
# Velocity P-wave (km/s) = 2.07202 6.85181 5.06165
#
# Compressibility (1/GPa) = 0.02084759
#
# Stress axis : x y z
#
# Youngs Moduli (GPa) = 147.89964 87.92621 72.70883
#
# Poissons Ratio (x) = 0.16163 0.19890
# Poissons Ratio (y) = 0.27187 0.06882
# Poissons Ratio (z) = 0.40458 0.08322
#
# Static dielectric constant tensor:
#      x y z
#    x 1.736020 0.000000 -0.065540 
#    y 0.000000 1.774620 0.000000 
#    z -0.065540 0.000000 1.793150 
# 
# From -- ./inp_files/2300.got.cif
#   From: 2010.05.17/outbox.cif.g08.bks.cpg/sg11_2_cif.got.tgz:2300.got - 2010.06.03 12:22:45.
