data_PCOD9167475
_publ_section_title
;
Structure prediction by ZEFSAII (Michael W. Deem and Ramdas Pophale) SiO2 
 PCOD9167475
Probable space group: P 21/M
;
_chemical_formula_sum "Si O2"
_cell_formula_units_Z 16
_cell_length_a 11.772618
_cell_length_b 13.092178
_cell_length_c 6.642070
_cell_angle_alpha 90.000000
_cell_angle_beta 55.653480
_cell_angle_gamma 90.000000
_cell_volume 845.238712
_symmetry_space_group_name_H-M "P 21/M"
_symmetry_group_IT_number 11
_symmetry_cell_setting 'monoclinic'
loop_
_space_group_symop_operation_xyz
x,y,z
-x,1/2+y,-z
-x,-y,-z
x,1/2-y,z
loop_
_atom_site_type_symbol
_atom_site_label
_atom_site_fract_x
_atom_site_fract_y
_atom_site_fract_z
Si Si1 0.081028 0.040744 0.224907
Si Si2 0.354062 0.131963 0.133217
Si Si3 0.418972 0.540744 0.386962
Si Si4 0.145937 0.631963 0.841342
O O1 0.211384 0.106031 0.165047
O O2 0.978211 0.104303 0.185886
O O3 0.000000 0.000000 0.500000
O O4 0.132440 0.943830 0.044024
O O5 0.359720 0.250000 0.186728
O O6 0.367560 0.056170 0.308904
O O7 0.478211 0.104303 0.857692
O O8 0.500000 0.500000 0.500000
O O9 0.288616 0.606031 0.587815
O O10 0.140280 0.750000 0.906167
#
# Coordination Sequence:
#
# PCOD9167475 Si02
#       4
#     4   4   4   4
#     4  11  23  45  63  95 132 163 216 264 310 385
#     4  11  24  42  68  94 128 171 210 264 321 371
#     4  11  23  45  63  95 132 163 216 264 310 385
#     4  11  24  42  68  94 128 171 210 264 321 371
#
# _framework density 18.929562000000001
#
# number of rings (size 3 to 8) (size 9 to 14) (size 15 to 20)
#    0.000    1.000    5.000    1.500    0.000    4.000 
#    0.000    0.000    0.000    0.000    0.000    0.000 
#    0.000    0.000    0.000    0.000    0.000    0.000 
#
# Total GULP energy -89493.516580 kJ/mol
# GULP energy per Si atom -5593.344786 kJ/mol
# Density = 1.888648 g / cm^3
# Si number density = 18.929562 Si / 1000 Ang^3
#
#
#
# Elastic Constant Matrix: (Units=GPa)
#
#
# Indices 1 2 3 4 5 6 
#
# 1 85.5694 10.7141 2.4337 0.0000 -8.5933 0.0000
# 2 10.7141 82.6794 -3.8188 0.0000 -12.5848 0.0000
# 3 2.4337 -3.8188 63.1240 0.0000 -10.8437 0.0000
# 4 0.0000 0.0000 0.0000 15.0561 0.0000 -1.0494
# 5 -8.5933 -12.5848 -10.8437 0.0000 34.6575 0.0000
# 6 0.0000 0.0000 0.0000 -1.0494 0.0000 16.2676
#
#
#
# Elastic Compliance Matrix: (Units=1/GPa)
#
#
# Indices 1 2 3 4 5 6 
#
# 1 0.012092 -0.001186 -0.000102 0.000000 0.002536 0.000000
# 2 -0.001186 0.013086 0.001694 0.000000 0.004988 0.000000
# 3 -0.000102 0.001694 0.016961 0.000000 0.005897 0.000000
# 4 0.000000 0.000000 0.000000 0.066718 0.000000 0.004304
# 5 0.002536 0.004988 0.005897 0.000000 0.033139 0.000000
# 6 0.000000 0.000000 0.000000 0.004304 0.000000 0.061750
#
#
# Mechanical properties :
#
#
# Convention : Reuss Voigt Hill
#
# Bulk Modulus (GPa) = 23.28189 27.78121 25.53155
# Shear Modulus (GPa) = 23.01484 27.99917 25.50701
#
# Velocity S-wave (km/s) = 3.49064 3.85011 3.67477
# Velocity P-wave (km/s) = 5.34528 5.87132 5.61446
#
# Compressibility (1/GPa) = 0.04295184
#
# Stress axis : x y z
#
# Youngs Moduli (GPa) = 82.69624 76.41735 58.95804
#
# Poissons Ratio (x) = 0.09061 0.00603
# Poissons Ratio (y) = 0.09806 -0.09989
# Poissons Ratio (z) = 0.00846 -0.12947
#
# Static dielectric constant tensor:
#      x y z
#    x 1.641130 0.000000 -0.007800 
#    y 0.000000 1.611430 0.000000 
#    z -0.007800 0.000000 1.632120 
# 
# From -- ./inp_files/3827.got.cif
#   From: 2010.05.17/outbox.cif.g08.bks.cpg/sg11_2_cif.got.tgz:3827.got - 2010.06.03 12:22:45.
