data_PCOD9167953
_publ_section_title
;
Structure prediction by ZEFSAII (Michael W. Deem and Ramdas Pophale) SiO2 
 PCOD9167953
Probable space group: P 21/M
;
_chemical_formula_sum "Si O2"
_cell_formula_units_Z 32
_cell_length_a 27.000000
_cell_length_b 9.000000
_cell_length_c 21.000000
_cell_angle_alpha 90.000000
_cell_angle_beta 20.000000
_cell_angle_gamma 90.000000
_cell_volume 1745.328791
_symmetry_space_group_name_H-M "P 21/M"
_symmetry_group_IT_number 11
_symmetry_cell_setting 'monoclinic'
loop_
_space_group_symop_operation_xyz
x,y,z
-x,1/2+y,-z
-x,-y,-z
x,1/2-y,z
loop_
_atom_site_type_symbol
_atom_site_label
_atom_site_fract_x
_atom_site_fract_y
_atom_site_fract_z
Si Si1 0.332250 0.081334 0.143223
Si Si2 0.186606 0.927858 0.094782
Si Si3 0.319210 0.921067 0.288537
Si Si4 0.101889 0.071990 0.066770
Si Si5 0.407904 0.570854 0.667725
Si Si6 0.768079 0.429512 0.461968
Si Si7 0.121865 0.574740 0.311505
Si Si8 0.481399 0.427232 0.324330
O O1 0.280898 0.250000 0.197585
O O2 0.279251 0.019976 0.275696
O O3 0.271102 0.980362 0.161282
O O4 0.505753 0.080569 0.927459
O O5 0.175671 0.750000 0.094069
O O6 0.108536 0.965691 0.254190
O O7 0.120529 0.021014 0.117334
O O8 0.358067 0.958597 0.897592
O O9 0.268863 0.750000 0.340928
O O10 0.270137 0.972316 0.418266
O O11 0.115563 0.250000 0.044029
O O12 0.937558 0.030420 0.243982
O O13 0.243590 0.993619 0.864880
O O14 0.500000 0.500000 0.500000
O O15 0.401001 0.750000 0.672173
O O16 0.489380 0.533750 0.636376
O O17 0.757730 0.250000 0.471815
O O18 0.649382 0.495166 0.556049
O O19 0.114408 0.750000 0.325185
O O20 0.000000 0.500000 0.500000
O O21 0.456768 0.250000 0.350679
#
# Coordination Sequence:
#
# PCOD9167953 Si02
#       8
#     4   4   4   4   4   4   4   4
#     4  10  20  34  51  74 100 136 187 233 289 349
#     4   9  20  38  56  77 107 145 192 240 286 342
#     4   9  19  35  53  73 104 142 181 232 282 335
#     4  10  21  36  57  87 119 151 188 229 279 335
#     4  10  21  40  65  92 120 152 190 227 270 327
#     4  10  21  35  54  83 115 147 187 232 279 332
#     4  11  23  36  51  72 103 139 184 239 293 344
#     4   9  19  36  59  86 113 144 183 227 276 331
#
# _framework density 18.334654
#
# number of rings (size 3 to 8) (size 9 to 14) (size 15 to 20)
#    0.000    2.250    0.000    3.000    1.750    5.500 
#    0.000    0.625    0.000    0.000    0.000    0.000 
#    0.000    0.000    0.000    0.000    0.000    0.000 
#
# Total GULP energy -178474.040631 kJ/mol
# GULP energy per Si atom -5577.313770 kJ/mol
# Density = 1.829292 g / cm^3
# Si number density = 18.334654 Si / 1000 Ang^3
#
#
#
# Elastic Constant Matrix: (Units=GPa)
#
#
# Indices 1 2 3 4 5 6 
#
# 1 57.6097 26.0163 45.3219 0.0000 4.1040 0.0000
# 2 26.0163 26.2874 38.7364 0.0000 10.0847 0.0000
# 3 45.3219 38.7364 91.8400 0.0000 4.7047 0.0000
# 4 0.0000 0.0000 0.0000 28.0298 0.0000 -4.0530
# 5 4.1040 10.0847 4.7047 0.0000 36.5711 0.0000
# 6 0.0000 0.0000 0.0000 -4.0530 0.0000 35.0478
#
#
#
# Elastic Compliance Matrix: (Units=1/GPa)
#
#
# Indices 1 2 3 4 5 6 
#
# 1 0.033374 -0.026653 -0.005449 0.000000 0.004305 0.000000
# 2 -0.026653 0.144089 -0.046043 0.000000 -0.030819 0.000000
# 3 -0.005449 -0.046043 0.032530 0.000000 0.009123 0.000000
# 4 0.000000 0.000000 0.000000 0.036283 0.000000 0.004196
# 5 0.004305 -0.030819 0.009123 0.000000 0.034186 0.000000
# 6 0.000000 0.000000 0.000000 0.004196 0.000000 0.029018
#
#
# Mechanical properties :
#
#
# Convention : Reuss Voigt Hill
#
# Bulk Modulus (GPa) = 18.62006 43.98737 31.30372
# Shear Modulus (GPa) = 10.33762 24.30723 17.32243
#
# Velocity S-wave (km/s) = 2.37709 3.64504 3.07708
# Velocity P-wave (km/s) = 4.20853 6.46209 5.45300
#
# Compressibility (1/GPa) = 0.05370552
#
# Stress axis : x y z
#
# Youngs Moduli (GPa) = 29.96312 6.94013 30.74088
#
# Poissons Ratio (x) = 0.18497 0.16750
# Poissons Ratio (y) = 0.79860 1.41539
# Poissons Ratio (z) = 0.16326 0.31954
#
# Static dielectric constant tensor:
#      x y z
#    x 1.622980 0.000000 -0.005230 
#    y 0.000000 1.627170 0.000000 
#    z -0.005230 0.000000 1.666870 
# 
# From -- ./inp_files/66999.got.cif
#   From: 2010.05.17/outbox.ucp.g08.bks.cvg/sg11_34_cif.got.tgz:66999.got - 2010.06.11 11:38:39.
