data_PCOD9167065
_publ_section_title
;
Structure prediction by ZEFSAII (Michael W. Deem and Ramdas Pophale) SiO2 
 PCOD9167065
Probable space group: P 21/M
;
_chemical_formula_sum "Si O2"
_cell_formula_units_Z 24
_cell_length_a 12.513370
_cell_length_b 8.581398
_cell_length_c 12.434074
_cell_angle_alpha 90.000000
_cell_angle_beta 100.868510
_cell_angle_gamma 90.000000
_cell_volume 1311.248194
_symmetry_space_group_name_H-M "P 21/M"
_symmetry_group_IT_number 11
_symmetry_cell_setting 'monoclinic'
loop_
_space_group_symop_operation_xyz
x,y,z
-x,1/2+y,-z
-x,-y,-z
x,1/2-y,z
loop_
_atom_site_type_symbol
_atom_site_label
_atom_site_fract_x
_atom_site_fract_y
_atom_site_fract_z
Si Si1 0.494528 0.067266 0.146325
Si Si2 0.723600 0.062973 0.129064
Si Si3 0.619227 0.564950 0.552344
Si Si4 0.711841 0.067468 0.790296
Si Si5 0.335772 0.434407 0.673404
Si Si6 0.121055 0.433848 0.026141
O O1 0.470808 0.250000 0.126421
O O2 0.595069 0.016129 0.087891
O O3 0.385329 0.972481 0.144282
O O4 0.559838 0.037692 0.271663
O O5 0.724503 0.250000 0.136368
O O6 0.748622 0.987113 0.250592
O O7 0.805139 0.006383 0.054524
O O8 0.500000 0.500000 0.500000
O O9 0.611928 0.750000 0.570525
O O10 0.671430 0.484459 0.665559
O O11 0.688483 0.540026 0.455711
O O12 0.732667 0.250000 0.797074
O O13 0.817445 0.977545 0.852038
O O14 0.361245 0.250000 0.691983
O O15 0.118751 0.250000 0.012254
O O16 0.000000 0.500000 0.000000
#
# Coordination Sequence:
#
# PCOD9167065 Si02
#       6
#     4   4   4   4   4   4
#     4   9  18  32  53  83 119 152 188 231 284 343
#     4   9  19  36  59  86 117 151 192 237 289 349
#     4  11  20  31  52  83 123 161 195 234 286 349
#     4  12  24  37  57  86 122 159 200 241 290 349
#     4   9  17  30  51  82 117 155 190 227 280 340
#     4  12  26  45  66  84 111 149 197 248 296 346
#
# _framework density 18.303170999999999
#
# number of rings (size 3 to 8) (size 9 to 14) (size 15 to 20)
#    1.000    0.667    1.667    4.500    0.000    2.667 
#    0.000    0.000    0.000    1.000    0.000    0.000 
#    0.000    0.000    0.000    0.000    0.000    0.000 
#
# Total GULP energy -133777.316068 kJ/mol
# GULP energy per Si atom -5574.054836 kJ/mol
# Density = 1.826151 g / cm^3
# Si number density = 18.303171 Si / 1000 Ang^3
#
#
#
# Elastic Constant Matrix: (Units=GPa)
#
#
# Indices 1 2 3 4 5 6 
#
# 1 89.9965 22.4955 45.7333 0.0000 2.0446 0.0000
# 2 22.4955 67.7185 1.7940 0.0000 -4.5644 0.0000
# 3 45.7333 1.7940 90.8316 0.0000 -9.5390 0.0000
# 4 0.0000 0.0000 0.0000 26.5868 0.0000 -3.5030
# 5 2.0446 -4.5644 -9.5390 0.0000 20.3655 0.0000
# 6 0.0000 0.0000 0.0000 -3.5030 0.0000 29.4369
#
#
#
# Elastic Compliance Matrix: (Units=1/GPa)
#
#
# Indices 1 2 3 4 5 6 
#
# 1 0.017693 -0.006139 -0.009590 0.000000 -0.007644 0.000000
# 2 -0.006139 0.017124 0.003387 0.000000 0.006040 0.000000
# 3 -0.009590 0.003387 0.016777 0.000000 0.009580 0.000000
# 4 0.000000 0.000000 0.000000 0.038212 0.000000 0.004547
# 5 -0.007644 0.006040 0.009580 0.000000 0.055711 0.000000
# 6 0.000000 0.000000 0.000000 0.004547 0.000000 0.034512
#
#
# Mechanical properties :
#
#
# Convention : Reuss Voigt Hill
#
# Bulk Modulus (GPa) = 37.16015 43.17691 40.16853
# Shear Modulus (GPa) = 23.39934 27.17943 25.28939
#
# Velocity S-wave (km/s) = 3.57939 3.85769 3.72115
# Velocity P-wave (km/s) = 6.11796 6.59420 6.36054
#
# Compressibility (1/GPa) = 0.02691055
#
# Stress axis : x y z
#
# Youngs Moduli (GPa) = 56.52022 58.39891 59.60557
#
# Poissons Ratio (x) = 0.35849 0.57160
# Poissons Ratio (y) = 0.34695 -0.20188
# Poissons Ratio (z) = 0.54201 -0.19779
#
# Static dielectric constant tensor:
#      x y z
#    x 1.636670 0.000000 -0.037980 
#    y 0.000000 1.609310 0.000000 
#    z -0.037980 0.000000 1.708160 
# 
# From -- ./inp_files/48831.got.cif
#   From: 2010.05.17/outbox.cif.g08.bks.cpg/sg11_25_cif.got.tgz:48831.got - 2010.06.03 12:22:45.
