data_PCOD9167745
_publ_section_title
;
Structure prediction by ZEFSAII (Michael W. Deem and Ramdas Pophale) SiO2 
 PCOD9167745
Probable space group: P 21/M
;
_chemical_formula_sum "Si O2"
_cell_formula_units_Z 32
_cell_length_a 15.000000
_cell_length_b 18.000000
_cell_length_c 12.000000
_cell_angle_alpha 90.000000
_cell_angle_beta 30.000000
_cell_angle_gamma 90.000000
_cell_volume 1620.000000
_symmetry_space_group_name_H-M "P 21/M"
_symmetry_group_IT_number 11
_symmetry_cell_setting 'monoclinic'
loop_
_space_group_symop_operation_xyz
x,y,z
-x,1/2+y,-z
-x,-y,-z
x,1/2-y,z
loop_
_atom_site_type_symbol
_atom_site_label
_atom_site_fract_x
_atom_site_fract_y
_atom_site_fract_z
Si Si1 0.440883 0.660967 0.979319
Si Si2 0.388623 0.589478 0.803982
Si Si3 0.596867 0.588182 0.203620
Si Si4 0.861249 0.839262 0.527896
Si Si5 0.301071 0.661398 0.378874
Si Si6 0.701274 0.660647 0.327000
Si Si7 0.910930 0.660625 0.724459
Si Si8 0.957873 0.160318 0.899303
O O1 0.415061 0.750000 0.991212
O O2 0.357820 0.619061 0.963522
O O3 0.651425 0.643894 0.752213
O O4 0.368877 0.642639 0.180238
O O5 0.402847 0.500751 0.787540
O O6 0.567655 0.627945 0.564302
O O7 0.229537 0.618406 0.896828
O O8 0.410676 0.617518 0.353495
O O9 0.647577 0.624383 0.267606
O O10 0.746658 0.617260 0.955187
O O11 0.877911 0.750000 0.507615
O O12 0.936843 0.862122 0.566774
O O13 0.952790 0.864543 0.314947
O O14 0.331604 0.750000 0.361488
O O15 0.089557 0.648035 0.602221
O O16 0.681825 0.750000 0.342165
O O17 0.902290 0.645114 0.152868
O O18 0.874162 0.750000 0.765174
O O19 0.929503 0.250000 0.927113
#
# Coordination Sequence:
#
# PCOD9167745 Si02
#       8
#     4   4   4   4   4   4   4   4
#     4  10  18  36  65  92 120 160 210 258 299 349
#     4  12  25  40  62  92 129 162 195 251 318 373
#     4  12  26  41  59  90 131 167 196 244 310 378
#     4   9  16  33  63  91 117 151 200 261 306 338
#     4  10  21  39  66  92 121 164 212 255 293 352
#     4  11  24  44  67  87 113 157 214 264 298 352
#     4  10  20  38  62  88 119 160 208 253 298 356
#     4  10  21  39  65  93 116 152 207 261 306 353
#
# _framework density 19.753086
#
# number of rings (size 3 to 8) (size 9 to 14) (size 15 to 20)
#    0.000    1.500    2.500    3.375    0.000    5.000 
#    0.000    2.500    0.000    0.000    0.000    0.000 
#    0.000    0.000    0.000    0.000    0.000    0.000 
#
# Total GULP energy -178843.501983 kJ/mol
# GULP energy per Si atom -5588.859437 kJ/mol
# Density = 1.970813 g / cm^3
# Si number density = 19.753086 Si / 1000 Ang^3
#
#
#
# Elastic Constant Matrix: (Units=GPa)
#
#
# Indices 1 2 3 4 5 6 
#
# 1 140.9745 47.4774 5.2608 0.0000 -15.8192 0.0000
# 2 47.4774 73.6315 5.4319 0.0000 -13.9670 0.0000
# 3 5.2608 5.4319 13.9336 0.0000 -13.1674 0.0000
# 4 0.0000 0.0000 0.0000 12.6101 0.0000 0.7607
# 5 -15.8192 -13.9670 -13.1674 0.0000 31.0603 0.0000
# 6 0.0000 0.0000 0.0000 0.7607 0.0000 11.5099
#
#
#
# Elastic Compliance Matrix: (Units=1/GPa)
#
#
# Indices 1 2 3 4 5 6 
#
# 1 0.009211 -0.005511 0.001271 0.000000 0.002752 0.000000
# 2 -0.005511 0.018151 0.000109 0.000000 0.005402 0.000000
# 3 0.001271 0.000109 0.119966 0.000000 0.051554 0.000000
# 4 0.000000 0.000000 0.000000 0.079619 0.000000 -0.005262
# 5 0.002752 0.005402 0.051554 0.000000 0.057881 0.000000
# 6 0.000000 0.000000 0.000000 -0.005262 0.000000 0.087230
#
#
# Mechanical properties :
#
#
# Convention : Reuss Voigt Hill
#
# Bulk Modulus (GPa) = 7.19078 38.31998 22.75538
# Shear Modulus (GPa) = 11.71856 22.39402 17.05629
#
# Velocity S-wave (km/s) = 2.43832 3.37069 2.94168
# Velocity P-wave (km/s) = 3.40227 5.88136 4.80447
#
# Compressibility (1/GPa) = 0.13906702
#
# Stress axis : x y z
#
# Youngs Moduli (GPa) = 108.56827 55.09307 8.33572
#
# Poissons Ratio (x) = 0.30361 -0.01060
# Poissons Ratio (y) = 0.59830 -0.00091
# Poissons Ratio (z) = -0.13804 -0.00601
#
# Static dielectric constant tensor:
#      x y z
#    x 1.696340 0.000000 -0.005230 
#    y 0.000000 1.654660 0.000000 
#    z -0.005230 0.000000 1.719120 
# 
# From -- ./inp_files/39973.got.cif
#   From: 2010.05.17/outbox.ucp.g08.bks.cvg/sg11_20_cif.got.tgz:39973.got - 2010.06.11 11:38:39.
