data_PCOD9167056
_publ_section_title
;
Structure prediction by ZEFSAII (Michael W. Deem and Ramdas Pophale) SiO2 
 PCOD9167056
Probable space group: P 21/M
;
_chemical_formula_sum "Si O2"
_cell_formula_units_Z 24
_cell_length_a 12.412791
_cell_length_b 8.007555
_cell_length_c 20.938249
_cell_angle_alpha 90.000000
_cell_angle_beta 140.034580
_cell_angle_gamma 90.000000
_cell_volume 1336.794549
_symmetry_space_group_name_H-M "P 21/M"
_symmetry_group_IT_number 11
_symmetry_cell_setting 'monoclinic'
loop_
_space_group_symop_operation_xyz
x,y,z
-x,1/2+y,-z
-x,-y,-z
x,1/2-y,z
loop_
_atom_site_type_symbol
_atom_site_label
_atom_site_fract_x
_atom_site_fract_y
_atom_site_fract_z
Si Si1 0.845501 0.451723 0.385789
Si Si2 0.909547 0.551153 0.137143
Si Si3 0.447742 0.447453 0.068525
Si Si4 0.522983 0.552470 0.765406
Si Si5 0.818886 0.452054 0.228024
Si Si6 0.122210 0.052061 0.113608
O O1 0.834604 0.250000 0.378924
O O2 0.665024 0.515720 0.329690
O O3 0.866086 0.506542 0.321181
O O4 0.000000 0.500000 0.500000
O O5 0.903829 0.750000 0.127098
O O6 0.935424 0.508465 0.222989
O O7 0.040107 0.488017 0.144239
O O8 0.725052 0.478880 0.035657
O O9 0.448941 0.250000 0.053041
O O10 0.446048 0.458853 0.144460
O O11 0.627900 0.516438 0.128908
O O12 0.514703 0.750000 0.745232
O O13 0.689519 0.479786 0.808518
O O14 0.813814 0.250000 0.226004
O O15 0.137418 0.250000 0.114257
O O16 0.000000 0.000000 0.000000
#
# Coordination Sequence:
#
# PCOD9167056 Si02
#       6
#     4   4   4   4   4   4
#     4   9  18  34  57  78  98 124 159 207 259 304
#     4  11  20  30  46  70 103 137 168 204 243 286
#     4   8  14  27  46  67  96 131 165 198 236 288
#     4   8  15  30  50  71  98 133 165 198 245 297
#     4   9  18  32  49  70  97 131 167 201 246 302
#     4  11  20  32  50  71 101 139 176 204 236 289
#
# _framework density 17.953395
#
# number of rings (size 3 to 8) (size 9 to 14) (size 15 to 20)
#    0.000    2.667    1.667    3.500    0.000    0.667 
#    0.000    2.500    0.000    1.000    0.000    0.000 
#    0.000    0.000    0.000    0.000    0.000    0.000 
#
# Total GULP energy -133714.037882 kJ/mol
# GULP energy per Si atom -5571.418245 kJ/mol
# Density = 1.791253 g / cm^3
# Si number density = 17.953395 Si / 1000 Ang^3
#
#
#
# Elastic Constant Matrix: (Units=GPa)
#
#
# Indices 1 2 3 4 5 6 
#
# 1 148.1324 6.4404 66.0182 0.0000 15.5656 0.0000
# 2 6.4404 22.3604 7.7117 0.0000 3.6365 0.0000
# 3 66.0182 7.7117 108.0100 0.0000 17.2013 0.0000
# 4 0.0000 0.0000 0.0000 19.5171 0.0000 -2.7694
# 5 15.5656 3.6365 17.2013 0.0000 10.0598 0.0000
# 6 0.0000 0.0000 0.0000 -2.7694 0.0000 19.4507
#
#
#
# Elastic Compliance Matrix: (Units=1/GPa)
#
#
# Indices 1 2 3 4 5 6 
#
# 1 0.009588 -0.000030 -0.004806 0.000000 -0.006607 0.000000
# 2 -0.000030 0.047579 -0.000889 0.000000 -0.015633 0.000000
# 3 -0.004806 -0.000889 0.015149 0.000000 -0.018146 0.000000
# 4 0.000000 0.000000 0.000000 0.052294 0.000000 0.007445
# 5 -0.006607 -0.015633 -0.018146 0.000000 0.146308 0.000000
# 6 0.000000 0.000000 0.000000 0.007445 0.000000 0.052472
#
#
# Mechanical properties :
#
#
# Convention : Reuss Voigt Hill
#
# Bulk Modulus (GPa) = 16.42931 48.76039 32.59485
# Shear Modulus (GPa) = 14.07934 23.02769 18.55351
#
# Velocity S-wave (km/s) = 2.80342 3.58528 3.21818
# Velocity P-wave (km/s) = 4.43282 6.66013 5.65717
#
# Compressibility (1/GPa) = 0.06086682
#
# Stress axis : x y z
#
# Youngs Moduli (GPa) = 104.29409 21.01748 66.00905
#
# Poissons Ratio (x) = 0.00062 0.31725
# Poissons Ratio (y) = 0.00309 0.05870
# Poissons Ratio (z) = 0.50126 0.01869
#
# Static dielectric constant tensor:
#      x y z
#    x 1.653060 0.000000 0.024940 
#    y 0.000000 1.658530 0.000000 
#    z 0.024940 0.000000 1.614860 
# 
# From -- ./inp_files/42253.got.cif
#   From: 2010.05.17/outbox.cif.g08.bks.cpg/sg11_22_cif.got.tgz:42253.got - 2010.06.03 12:22:45.
