data_PCOD9167269
_publ_section_title
;
Structure prediction by ZEFSAII (Michael W. Deem and Ramdas Pophale) SiO2 
 PCOD9167269
Probable space group: P 21/M
;
_chemical_formula_sum "Si O2"
_cell_formula_units_Z 28
_cell_length_a 7.421724
_cell_length_b 14.714722
_cell_length_c 12.409607
_cell_angle_alpha 90.000000
_cell_angle_beta 117.037905
_cell_angle_gamma 90.000000
_cell_volume 1207.116703
_symmetry_space_group_name_H-M "P 21/M"
_symmetry_group_IT_number 11
_symmetry_cell_setting 'monoclinic'
loop_
_space_group_symop_operation_xyz
x,y,z
-x,1/2+y,-z
-x,-y,-z
x,1/2-y,z
loop_
_atom_site_type_symbol
_atom_site_label
_atom_site_fract_x
_atom_site_fract_y
_atom_site_fract_z
Si Si1 0.777381 0.144880 0.620522
Si Si2 0.133853 0.140130 0.411654
Si Si3 0.694785 0.647863 0.890470
Si Si4 0.124097 0.014367 0.211544
Si Si5 0.675476 0.941321 0.097435
Si Si6 0.311708 0.641179 0.635146
Si Si7 0.252499 0.145442 0.673262
O O1 0.724957 0.250000 0.630340
O O2 0.660619 0.110627 0.481350
O O3 0.014427 0.143476 0.645433
O O4 0.767656 0.078308 0.719912
O O5 0.141708 0.250000 0.401947
O O6 0.186734 0.089211 0.317717
O O7 0.261838 0.115219 0.552242
O O8 0.904425 0.110019 0.378508
O O9 0.760415 0.750000 0.876156
O O10 0.829682 0.564184 0.887102
O O11 0.483576 0.628863 0.770956
O O12 0.689233 0.642593 0.017959
O O13 0.887030 0.993726 0.153713
O O14 0.632310 0.912108 0.207276
O O15 0.500000 0.000000 0.000000
O O16 0.290498 0.750000 0.616456
O O17 0.315430 0.250000 0.695034
#
# Coordination Sequence:
#
# PCOD9167269 Si02
#       7
#     4   4   4   4   4   4   4
#     4   8  16  32  54  80 110 143 183 232 284 341
#     4   9  17  33  58  87 114 138 178 235 285 338
#     4  11  23  39  57  80 117 156 186 225 282 346
#     4  11  22  35  57  87 114 147 187 230 290 348
#     4  11  23  38  57  80 111 152 203 244 273 326
#     4   8  16  32  54  80 109 146 187 225 277 338
#     4   8  16  33  57  82 107 141 186 236 289 333
#
# _framework density 23.195768999999999
#
# number of rings (size 3 to 8) (size 9 to 14) (size 15 to 20)
#    0.000    2.571    0.000    3.857    0.000    7.429 
#    0.000    2.143    0.000    3.429    0.000    1.000 
#    0.000    0.000    0.000    0.000    0.000    0.000 
#
# Total GULP energy -156478.044965 kJ/mol
# GULP energy per Si atom -5588.501606 kJ/mol
# Density = 2.314297 g / cm^3
# Si number density = 23.195769 Si / 1000 Ang^3
#
#
#
# Elastic Constant Matrix: (Units=GPa)
#
#
# Indices 1 2 3 4 5 6 
#
# 1 29.3078 15.1135 15.9243 0.0000 3.2926 0.0000
# 2 15.1135 101.0843 47.0297 0.0000 -4.2821 0.0000
# 3 15.9243 47.0297 126.3046 0.0000 3.7313 0.0000
# 4 0.0000 0.0000 0.0000 47.8491 0.0000 -7.5486
# 5 3.2926 -4.2821 3.7313 0.0000 33.9593 0.0000
# 6 0.0000 0.0000 0.0000 -7.5486 0.0000 18.1433
#
#
#
# Elastic Compliance Matrix: (Units=1/GPa)
#
#
# Indices 1 2 3 4 5 6 
#
# 1 0.038556 -0.004506 -0.003066 0.000000 -0.003970 0.000000
# 2 -0.004506 0.012630 -0.004208 0.000000 0.002492 0.000000
# 3 -0.003066 -0.004208 0.009910 0.000000 -0.001322 0.000000
# 4 0.000000 0.000000 0.000000 0.022367 0.000000 0.009306
# 5 -0.003970 0.002492 -0.001322 0.000000 0.030291 0.000000
# 6 0.000000 0.000000 0.000000 0.009306 0.000000 0.058988
#
#
# Mechanical properties :
#
#
# Convention : Reuss Voigt Hill
#
# Bulk Modulus (GPa) = 26.64177 45.87021 36.25599
# Shear Modulus (GPa) = 23.94453 31.89896 27.92175
#
# Velocity S-wave (km/s) = 3.21640 3.71240 3.47326
# Velocity P-wave (km/s) = 5.03032 6.18013 5.63464
#
# Compressibility (1/GPa) = 0.03753505
#
# Stress axis : x y z
#
# Youngs Moduli (GPa) = 25.93610 79.17679 100.90913
#
# Poissons Ratio (x) = 0.35681 0.30937
# Poissons Ratio (y) = 0.11688 0.42465
# Poissons Ratio (z) = 0.07952 0.33319
#
# Static dielectric constant tensor:
#      x y z
#    x 1.903940 0.000000 -0.005510 
#    y 0.000000 1.889560 0.000000 
#    z -0.005510 0.000000 1.866130 
# 
# From -- ./inp_files/31947.got.cif
#   From: 2010.05.17/outbox.cif.g08.bks.cpg/sg11_16_cif.got.tgz:31947.got - 2010.06.03 12:22:45.
