data_PCOD9167793
_publ_section_title
;
Structure prediction by ZEFSAII (Michael W. Deem and Ramdas Pophale) SiO2 
 PCOD9167793
Probable space group: P 21/M
;
_chemical_formula_sum "Si O2"
_cell_formula_units_Z 32
_cell_length_a 21.000000
_cell_length_b 9.000000
_cell_length_c 27.000000
_cell_angle_alpha 90.000000
_cell_angle_beta 20.000000
_cell_angle_gamma 90.000000
_cell_volume 1745.328791
_symmetry_space_group_name_H-M "P 21/M"
_symmetry_group_IT_number 11
_symmetry_cell_setting 'monoclinic'
loop_
_space_group_symop_operation_xyz
x,y,z
-x,1/2+y,-z
-x,-y,-z
x,1/2-y,z
loop_
_atom_site_type_symbol
_atom_site_label
_atom_site_fract_x
_atom_site_fract_y
_atom_site_fract_z
Si Si1 0.070593 0.923668 0.604275
Si Si2 0.963277 0.425691 0.213687
Si Si3 0.733484 0.422980 0.187949
Si Si4 0.980791 0.571757 0.936943
Si Si5 0.796426 0.426124 0.879575
Si Si6 0.979585 0.926964 0.567508
Si Si7 0.628748 0.081077 0.530217
Si Si8 0.432225 0.427290 0.099497
O O1 0.011137 0.750000 0.646353
O O2 0.245841 0.931425 0.512325
O O3 0.107224 0.970712 0.521103
O O4 0.908598 0.013627 0.749998
O O5 0.004266 0.250000 0.184240
O O6 0.763817 0.441978 0.385115
O O7 0.972021 0.482308 0.151861
O O8 0.109760 0.505386 0.141282
O O9 0.767643 0.250000 0.155266
O O10 0.526611 0.458430 0.354398
O O11 0.863810 0.477668 0.137485
O O12 0.788450 0.511308 0.098688
O O13 0.979410 0.750000 0.937616
O O14 0.813420 0.250000 0.868141
O O15 0.581740 0.469098 0.031728
O O16 0.993713 0.750000 0.550768
O O17 0.774674 0.968648 0.735914
O O18 0.000000 0.000000 0.500000
O O19 0.552769 0.250000 0.583721
O O20 0.438072 0.250000 0.089416
O O21 0.500000 0.500000 0.000000
#
# Coordination Sequence:
#
# PCOD9167793 Si02
#       8
#     4   4   4   4   4   4   4   4
#     4   9  18  35  56  74 102 142 179 212 253 311
#     4   9  19  36  56  77 104 140 176 213 255 306
#     4  10  20  34  54  80 107 138 174 213 259 308
#     4   9  19  37  57  76 104 140 177 214 254 305
#     4  10  19  31  52  82 109 132 167 217 268 309
#     4  10  21  37  54  75 105 139 176 218 262 308
#     4   9  18  33  54  78 104 136 175 213 254 308
#     4  10  20  34  55  79 104 135 174 217 260 309
#
# _framework density 18.334654
#
# number of rings (size 3 to 8) (size 9 to 14) (size 15 to 20)
#    0.000    2.500    1.250    1.500    0.000    5.000 
#    2.250    0.000    0.000    0.000    0.000    0.000 
#    0.000    0.000    0.000    0.000    0.000    0.000 
#
# Total GULP energy -178182.065625 kJ/mol
# GULP energy per Si atom -5568.189551 kJ/mol
# Density = 1.829292 g / cm^3
# Si number density = 18.334654 Si / 1000 Ang^3
#
#
#
# Elastic Constant Matrix: (Units=GPa)
#
#
# Indices 1 2 3 4 5 6 
#
# 1 107.6679 34.0238 40.8670 0.0000 37.6531 0.0000
# 2 34.0238 -3.0636 20.8470 0.0000 2.9309 0.0000
# 3 40.8670 20.8470 38.1825 0.0000 15.4604 0.0000
# 4 0.0000 0.0000 0.0000 21.9298 0.0000 1.5009
# 5 37.6531 2.9309 15.4604 0.0000 22.4514 0.0000
# 6 0.0000 0.0000 0.0000 1.5009 0.0000 20.5167
#
#
#
# Elastic Compliance Matrix: (Units=1/GPa)
#
#
# Indices 1 2 3 4 5 6 
#
# 1 0.017156 0.019861 -0.022888 0.000000 -0.015604 0.000000
# 2 0.019861 -0.038279 0.015400 0.000000 -0.038916 0.000000
# 3 -0.022888 0.015400 0.038202 0.000000 0.010068 0.000000
# 4 0.000000 0.000000 0.000000 0.045829 0.000000 -0.003353
# 5 -0.015604 -0.038916 0.010068 0.000000 0.068858 0.000000
# 6 0.000000 0.000000 0.000000 -0.003353 0.000000 0.048986
#
#
# Mechanical properties :
#
#
# Convention : Reuss Voigt Hill
#
# Bulk Modulus (GPa) = 23.90895 37.14028 30.52461
# Shear Modulus (GPa) = 29.42097 16.11619 22.76858
#
# Velocity S-wave (km/s) = 4.01017 2.96801 3.52779
# Velocity P-wave (km/s) = 5.87457 5.66095 5.76875
#
# Compressibility (1/GPa) = 0.04182534
#
# Stress axis : x y z
#
# Youngs Moduli (GPa) = 58.28837 -26.12365 26.17671
#
# Poissons Ratio (x) = 0.51883 0.59912
# Poissons Ratio (y) = -1.15765 -0.40313
# Poissons Ratio (z) = 1.33408 0.40231
#
# Static dielectric constant tensor:
#      x y z
#    x 1.694570 0.000000 -0.039550 
#    y 0.000000 1.589270 0.000000 
#    z -0.039550 0.000000 1.647600 
# 
# From -- ./inp_files/71969.got.cif
#   From: 2010.05.17/outbox.ucp.g08.bks.cvg/sg11_36_cif.got.tgz:71969.got - 2010.06.11 11:38:39.
