data_PCOD9167913
_publ_section_title
;
Structure prediction by ZEFSAII (Michael W. Deem and Ramdas Pophale) SiO2 
 PCOD9167913
Probable space group: P 21/M
;
_chemical_formula_sum "Si O2"
_cell_formula_units_Z 28
_cell_length_a 21.000000
_cell_length_b 15.000000
_cell_length_c 9.000000
_cell_angle_alpha 90.000000
_cell_angle_beta 150.000000
_cell_angle_gamma 90.000000
_cell_volume 1417.500000
_symmetry_space_group_name_H-M "P 21/M"
_symmetry_group_IT_number 11
_symmetry_cell_setting 'monoclinic'
loop_
_space_group_symop_operation_xyz
x,y,z
-x,1/2+y,-z
-x,-y,-z
x,1/2-y,z
loop_
_atom_site_type_symbol
_atom_site_label
_atom_site_fract_x
_atom_site_fract_y
_atom_site_fract_z
Si Si1 0.053039 0.355702 0.786506
Si Si2 0.789918 0.147843 0.769757
Si Si3 0.673152 0.651218 0.516133
Si Si4 0.955754 0.643202 0.564810
Si Si5 0.107381 0.937576 0.292307
Si Si6 0.285680 0.410645 0.726770
Si Si7 0.457807 0.523355 0.744277
O O1 0.024431 0.250000 0.726766
O O2 0.069272 0.387498 0.652112
O O3 0.944250 0.406145 0.655262
O O4 0.184505 0.366518 0.139816
O O5 0.760161 0.250000 0.748250
O O6 0.856879 0.142838 0.743420
O O7 0.663805 0.087958 0.514101
O O8 0.905548 0.109438 0.103286
O O9 0.633339 0.750000 0.481340
O O10 0.683366 0.646501 0.357339
O O11 0.583604 0.573544 0.396371
O O12 0.968652 0.750000 0.592774
O O13 0.834111 0.623338 0.421444
O O14 0.233167 0.995460 0.561666
O O15 0.000000 0.000000 0.000000
O O16 0.418633 0.429745 0.076505
O O17 0.500000 0.500000 0.000000
#
# Coordination Sequence:
#
# PCOD9167913 Si02
#       7
#     4   4   4   4   4   4   4
#     4  10  21  37  58  86 117 152 197 245 295 351
#     4  11  21  37  62  88 118 154 193 247 302 347
#     4  10  19  36  61  82 115 158 194 241 294 344
#     4  10  22  38  59  87 115 153 201 242 293 356
#     4  12  19  35  58  86 120 147 191 247 290 348
#     4  11  21  36  58  86 119 149 194 243 287 352
#     4  10  21  38  55  88 121 150 197 243 286 355
#
# _framework density 19.753086
#
# number of rings (size 3 to 8) (size 9 to 14) (size 15 to 20)
#    0.000    1.429    5.714    0.857    0.000    5.714 
#    0.000    0.714    0.000    0.000    0.000    0.000 
#    0.000    0.000    0.000    0.000    0.000    0.000 
#
# Total GULP energy -156071.991814 kJ/mol
# GULP energy per Si atom -5573.999708 kJ/mol
# Density = 1.970813 g / cm^3
# Si number density = 19.753086 Si / 1000 Ang^3
#
#
#
# Elastic Constant Matrix: (Units=GPa)
#
#
# Indices 1 2 3 4 5 6 
#
# 1 39.8244 4.4859 52.0948 0.0000 4.0585 0.0000
# 2 4.4859 66.2153 57.7121 0.0000 9.1222 0.0000
# 3 52.0948 57.7121 83.2725 0.0000 45.3389 0.0000
# 4 0.0000 0.0000 0.0000 26.6798 0.0000 5.6623
# 5 4.0585 9.1222 45.3389 0.0000 20.6704 0.0000
# 6 0.0000 0.0000 0.0000 5.6623 0.0000 11.7984
#
#
#
# Elastic Compliance Matrix: (Units=1/GPa)
#
#
# Indices 1 2 3 4 5 6 
#
# 1 0.012025 -0.008283 0.012803 0.000000 -0.026789 0.000000
# 2 -0.008283 0.012369 0.006713 0.000000 -0.018556 0.000000
# 3 0.012803 0.006713 -0.011987 0.000000 0.020817 0.000000
# 4 0.000000 0.000000 0.000000 0.041732 0.000000 -0.020028
# 5 -0.026789 -0.018556 0.020817 0.000000 0.016166 0.000000
# 6 0.000000 0.000000 0.000000 -0.020028 0.000000 0.094369
#
#
# Mechanical properties :
#
#
# Convention : Reuss Voigt Hill
#
# Bulk Modulus (GPa) = 28.67589 46.43308 37.55449
# Shear Modulus (GPa) = 32.50276 16.83101 24.66689
#
# Velocity S-wave (km/s) = 4.06082 2.92219 3.53762
# Velocity P-wave (km/s) = 6.04448 5.91129 5.97825
#
# Compressibility (1/GPa) = 0.03487250
#
# Stress axis : x y z
#
# Youngs Moduli (GPa) = 83.15878 80.84647 -83.42044
#
# Poissons Ratio (x) = 0.66967 1.06806
# Poissons Ratio (y) = 0.68882 0.55998
# Poissons Ratio (z) = -1.06471 -0.54270
#
# Static dielectric constant tensor:
#      x y z
#    x 1.710490 0.000000 -0.016760 
#    y 0.000000 1.749220 0.000000 
#    z -0.016760 0.000000 1.718970 
# 
# From -- ./inp_files/26876.got.cif
#   From: 2010.05.17/outbox.ucp.g08.bks.cvg/sg11_14_cif.got.tgz:26876.got - 2010.06.11 11:38:39.
