data_PCOD9167398
_publ_section_title
;
Structure prediction by ZEFSAII (Michael W. Deem and Ramdas Pophale) SiO2 
 PCOD9167398
Probable space group: P 21/M
;
_chemical_formula_sum "Si O2"
_cell_formula_units_Z 20
_cell_length_a 11.272025
_cell_length_b 8.928148
_cell_length_c 9.760479
_cell_angle_alpha 90.000000
_cell_angle_beta 91.921795
_cell_angle_gamma 90.000000
_cell_volume 981.725586
_symmetry_space_group_name_H-M "P 21/M"
_symmetry_group_IT_number 11
_symmetry_cell_setting 'monoclinic'
loop_
_space_group_symop_operation_xyz
x,y,z
-x,1/2+y,-z
-x,-y,-z
x,1/2-y,z
loop_
_atom_site_type_symbol
_atom_site_label
_atom_site_fract_x
_atom_site_fract_y
_atom_site_fract_z
Si Si1 0.382015 0.427001 0.058525
Si Si2 0.002393 0.928390 0.652019
Si Si3 0.612958 0.076443 0.435672
Si Si4 0.762483 0.076358 0.712394
Si Si5 0.764799 0.926151 0.215066
O O1 0.401046 0.250000 0.081138
O O2 0.277517 0.445540 0.942140
O O3 0.500000 0.500000 0.000000
O O4 0.337872 0.506818 0.194196
O O5 0.005057 0.750000 0.639704
O O6 0.883362 0.983198 0.723079
O O7 0.000000 0.000000 0.500000
O O8 0.117380 0.986108 0.737613
O O9 0.588984 0.250000 0.401389
O O10 0.715623 0.071669 0.554729
O O11 0.500000 0.000000 0.500000
O O12 0.659099 0.987680 0.306460
O O13 0.782820 0.250000 0.749456
O O14 0.782333 0.750000 0.242564
#
# Coordination Sequence:
#
# PCOD9167398 Si02
#       5
#     4   4   4   4   4
#     4  11  25  44  66  95 131 173 217 265 323 383
#     4  12  24  41  67  97 130 168 212 266 324 381
#     4  11  23  38  61  92 125 164 214 266 321 382
#     4  11  24  42  65  94 128 170 216 264 320 382
#     4  11  24  42  65  93 128 169 215 265 320 383
#
# _framework density 20.372292000000002
#
# number of rings (size 3 to 8) (size 9 to 14) (size 15 to 20)
#    0.000    0.800    2.000    5.400    0.000   11.200 
#    0.000    0.000    0.000    0.000    0.000    0.000 
#    0.000    0.000    0.000    0.000    0.000    0.000 
#
# Total GULP energy -111969.079189 kJ/mol
# GULP energy per Si atom -5598.453959 kJ/mol
# Density = 2.032592 g / cm^3
# Si number density = 20.372292 Si / 1000 Ang^3
#
#
#
# Elastic Constant Matrix: (Units=GPa)
#
#
# Indices 1 2 3 4 5 6 
#
# 1 82.4231 28.3332 -9.9743 0.0000 -3.2186 0.0000
# 2 28.3332 151.6126 26.1094 0.0000 9.3487 0.0000
# 3 -9.9743 26.1094 61.2185 0.0000 -5.6488 0.0000
# 4 0.0000 0.0000 0.0000 32.2471 0.0000 -2.7994
# 5 -3.2186 9.3487 -5.6488 0.0000 33.0598 0.0000
# 6 0.0000 0.0000 0.0000 -2.7994 0.0000 40.4452
#
#
#
# Elastic Compliance Matrix: (Units=1/GPa)
#
#
# Indices 1 2 3 4 5 6 
#
# 1 0.013938 -0.003487 0.004038 0.000000 0.003033 0.000000
# 2 -0.003487 0.008213 -0.004386 0.000000 -0.003411 0.000000
# 3 0.004038 -0.004386 0.019319 0.000000 0.004934 0.000000
# 4 0.000000 0.000000 0.000000 0.031198 0.000000 0.002159
# 5 0.003033 -0.003411 0.004934 0.000000 0.032351 0.000000
# 6 0.000000 0.000000 0.000000 0.002159 0.000000 0.024874
#
#
# Mechanical properties :
#
#
# Convention : Reuss Voigt Hill
#
# Bulk Modulus (GPa) = 29.58548 42.68787 36.13667
# Shear Modulus (GPa) = 33.59531 37.86948 35.73239
#
# Velocity S-wave (km/s) = 4.06528 4.31614 4.19259
# Velocity P-wave (km/s) = 6.04890 6.77039 6.41979
#
# Compressibility (1/GPa) = 0.03380037
#
# Stress axis : x y z
#
# Youngs Moduli (GPa) = 71.74440 121.75689 51.76333
#
# Poissons Ratio (x) = 0.42459 -0.20903
# Poissons Ratio (y) = 0.25019 0.22702
# Poissons Ratio (z) = -0.28971 0.53400
#
# Static dielectric constant tensor:
#      x y z
#    x 1.721120 0.000000 0.016580 
#    y 0.000000 1.683200 0.000000 
#    z 0.016580 0.000000 1.703760 
# 
# From -- ./inp_files/15896.got.cif
#   From: 2010.05.17/outbox.cif.g08.bks.cpg/sg11_8_cif.got.tgz:15896.got - 2010.06.03 12:22:45.
