data_PCOD9167826
_publ_section_title
;
Structure prediction by ZEFSAII (Michael W. Deem and Ramdas Pophale) SiO2 
 PCOD9167826
Probable space group: P 21/M
;
_chemical_formula_sum "Si O2"
_cell_formula_units_Z 32
_cell_length_a 9.000000
_cell_length_b 21.000000
_cell_length_c 12.000000
_cell_angle_alpha 90.000000
_cell_angle_beta 130.000000
_cell_angle_gamma 90.000000
_cell_volume 1737.388797
_symmetry_space_group_name_H-M "P 21/M"
_symmetry_group_IT_number 11
_symmetry_cell_setting 'monoclinic'
loop_
_space_group_symop_operation_xyz
x,y,z
-x,1/2+y,-z
-x,-y,-z
x,1/2-y,z
loop_
_atom_site_type_symbol
_atom_site_label
_atom_site_fract_x
_atom_site_fract_y
_atom_site_fract_z
Si Si1 0.543189 0.495219 0.852595
Si Si2 0.065380 0.961474 0.837906
Si Si3 0.072841 0.678869 0.498732
Si Si4 0.469115 0.176938 0.326083
Si Si5 0.156354 0.820961 0.800266
Si Si6 0.432592 0.366808 0.058824
Si Si7 0.384991 0.041271 0.354316
Si Si8 0.811332 0.581274 0.241781
O O1 0.493631 0.559447 0.898073
O O2 0.526228 0.519247 0.719566
O O3 0.393561 0.438767 0.802496
O O4 0.762855 0.477223 0.991781
O O5 0.084251 0.886148 0.821313
O O6 0.843359 0.973008 0.763315
O O7 0.101867 0.013609 0.757288
O O8 0.000409 0.750000 0.432797
O O9 0.296792 0.674466 0.568320
O O10 0.081937 0.675701 0.636941
O O11 0.948914 0.621901 0.387468
O O12 0.413687 0.250000 0.327913
O O13 0.395239 0.159514 0.165053
O O14 0.406918 0.118075 0.374084
O O15 0.105668 0.750000 0.820280
O O16 0.390815 0.827004 0.906891
O O17 0.244629 0.374407 0.891192
O O18 0.500000 0.000000 0.500000
#
# Coordination Sequence:
#
# PCOD9167826 Si02
#       8
#     4   4   4   4   4   4   4   4
#     4  10  20  37  55  81 112 145 176 230 284 332
#     4  11  21  37  56  83 111 145 184 234 283 325
#     4   9  20  33  51  81 113 144 177 227 279 325
#     4   9  19  38  57  77 111 150 190 228 271 333
#     4  10  19  33  51  77 112 144 178 221 273 329
#     4   9  16  33  55  83 106 138 179 221 272 330
#     4  11  24  37  57  83 110 149 197 232 279 328
#     4  11  19  33  60  85 116 138 180 230 286 334
#
# _framework density 18.418444999999998
#
# number of rings (size 3 to 8) (size 9 to 14) (size 15 to 20)
#    0.000    2.000    2.500    3.000    1.750    2.000 
#    0.000    0.000    0.000    0.750    0.000    0.000 
#    0.000    0.000    0.000    0.000    0.000    0.000 
#
# Total GULP energy -178336.610971 kJ/mol
# GULP energy per Si atom -5573.019093 kJ/mol
# Density = 1.837652 g / cm^3
# Si number density = 18.418445 Si / 1000 Ang^3
#
#
#
# Elastic Constant Matrix: (Units=GPa)
#
#
# Indices 1 2 3 4 5 6 
#
# 1 27.0462 12.4467 10.8832 0.0000 6.8180 0.0000
# 2 12.4467 133.6040 49.7269 0.0000 1.2502 0.0000
# 3 10.8832 49.7269 61.3761 0.0000 5.2337 0.0000
# 4 0.0000 0.0000 0.0000 34.1245 0.0000 1.2640
# 5 6.8180 1.2502 5.2337 0.0000 16.3927 0.0000
# 6 0.0000 0.0000 0.0000 1.2640 0.0000 22.1461
#
#
#
# Elastic Compliance Matrix: (Units=1/GPa)
#
#
# Indices 1 2 3 4 5 6 
#
# 1 0.044054 -0.002248 -0.004567 0.000000 -0.016693 0.000000
# 2 -0.002248 0.010896 -0.008674 0.000000 0.002874 0.000000
# 3 -0.004567 -0.008674 0.024581 0.000000 -0.005287 0.000000
# 4 0.000000 0.000000 0.000000 0.029367 0.000000 -0.001676
# 5 -0.016693 0.002874 -0.005287 0.000000 0.069415 0.000000
# 6 0.000000 0.000000 0.000000 -0.001676 0.000000 0.045250
#
#
# Mechanical properties :
#
#
# Convention : Reuss Voigt Hill
#
# Bulk Modulus (GPa) = 20.59592 40.90442 30.75017
# Shear Modulus (GPa) = 18.46888 24.46396 21.46642
#
# Velocity S-wave (km/s) = 3.17004 3.64845 3.41762
# Velocity P-wave (km/s) = 4.96038 6.32494 5.68376
#
# Compressibility (1/GPa) = 0.04855330
#
# Stress axis : x y z
#
# Youngs Moduli (GPa) = 22.69935 91.77777 40.68104
#
# Poissons Ratio (x) = 0.20634 0.18577
# Poissons Ratio (y) = 0.05103 0.35288
# Poissons Ratio (z) = 0.10366 0.79610
#
# Static dielectric constant tensor:
#      x y z
#    x 1.673570 0.000000 -0.013840 
#    y 0.000000 1.648960 0.000000 
#    z -0.013840 0.000000 1.627290 
# 
# From -- ./inp_files/19426.got.cif
#   From: 2010.05.17/outbox.ucp.g08.bks.cvg/sg11_10_cif.got.tgz:19426.got - 2010.06.11 11:38:39.
