data_PCOD9167834
_publ_section_title
;
Structure prediction by ZEFSAII (Michael W. Deem and Ramdas Pophale) SiO2 
 PCOD9167834
Probable space group: P 21/M
;
_chemical_formula_sum "Si O2"
_cell_formula_units_Z 24
_cell_length_a 21.000000
_cell_length_b 9.000000
_cell_length_c 9.000000
_cell_angle_alpha 90.000000
_cell_angle_beta 50.000000
_cell_angle_gamma 90.000000
_cell_volume 1303.041598
_symmetry_space_group_name_H-M "P 21/M"
_symmetry_group_IT_number 11
_symmetry_cell_setting 'monoclinic'
loop_
_space_group_symop_operation_xyz
x,y,z
-x,1/2+y,-z
-x,-y,-z
x,1/2-y,z
loop_
_atom_site_type_symbol
_atom_site_label
_atom_site_fract_x
_atom_site_fract_y
_atom_site_fract_z
Si Si1 0.087271 0.922426 0.393097
Si Si2 0.231971 0.920924 0.939214
Si Si3 0.707046 0.926290 0.421872
Si Si4 0.519000 0.930047 0.633007
Si Si5 0.361568 0.420748 0.949319
Si Si6 0.215779 0.420260 0.405538
O O1 0.073652 0.750000 0.442062
O O2 0.140921 0.994702 0.442756
O O3 0.149186 0.936807 0.159773
O O4 0.000000 0.000000 0.500000
O O5 0.240624 0.750000 0.879740
O O6 0.234859 0.034568 0.801586
O O7 0.312559 0.970504 0.912027
O O8 0.702015 0.750000 0.452276
O O9 0.612530 0.973840 0.536272
O O10 0.751534 0.995533 0.495717
O O11 0.512000 0.750000 0.641399
O O12 0.500000 0.000000 0.500000
O O13 0.450739 0.006075 0.841651
O O14 0.370384 0.250000 0.878567
O O15 0.298218 0.414236 0.180425
O O16 0.188391 0.250000 0.469497
#
# Coordination Sequence:
#
# PCOD9167834 Si02
#       6
#     4   4   4   4   4   4
#     4  10  21  38  61  87 109 136 175 219 267 326
#     4  10  20  34  55  81 108 139 180 223 265 318
#     4  10  21  36  54  78 110 147 183 223 273 319
#     4  11  21  32  50  77 109 145 191 232 265 312
#     4  10  19  33  53  76 105 145 187 226 270 315
#     4   9  20  38  57  79 110 144 179 223 273 323
#
# _framework density 18.418444999999998
#
# number of rings (size 3 to 8) (size 9 to 14) (size 15 to 20)
#    0.000    2.000    1.667    2.000    0.000    4.667 
#    0.000    0.833    0.000    0.000    0.000    0.000 
#    0.000    0.000    0.000    0.000    0.000    0.000 
#
# Total GULP energy -133681.272918 kJ/mol
# GULP energy per Si atom -5570.053038 kJ/mol
# Density = 1.837652 g / cm^3
# Si number density = 18.418445 Si / 1000 Ang^3
#
#
#
# Elastic Constant Matrix: (Units=GPa)
#
#
# Indices 1 2 3 4 5 6 
#
# 1 105.8206 50.7041 39.1593 0.0000 -5.6191 0.0000
# 2 50.7041 47.3318 18.9407 0.0000 -30.3944 0.0000
# 3 39.1593 18.9407 2.9498 0.0000 -12.0026 0.0000
# 4 0.0000 0.0000 0.0000 21.4305 0.0000 -8.0088
# 5 -5.6191 -30.3944 -12.0026 0.0000 15.7724 0.0000
# 6 0.0000 0.0000 0.0000 -8.0088 0.0000 10.5212
#
#
#
# Elastic Compliance Matrix: (Units=1/GPa)
#
#
# Indices 1 2 3 4 5 6 
#
# 1 0.003012 0.005824 0.013046 0.000000 0.022223 0.000000
# 2 0.005824 -0.107753 0.105842 0.000000 -0.125027 0.000000
# 3 0.013046 0.105842 -0.159816 0.000000 0.086994 0.000000
# 4 0.000000 0.000000 0.000000 0.065214 0.000000 0.049641
# 5 0.022223 -0.125027 0.086994 0.000000 -0.103415 0.000000
# 6 0.000000 0.000000 0.000000 0.049641 0.000000 0.132832
#
#
# Mechanical properties :
#
#
# Convention : Reuss Voigt Hill
#
# Bulk Modulus (GPa) = -66.07471 41.52339 -12.27566
# Shear Modulus (GPa) = -11.78154 12.69804 0.45825
#
# Velocity S-wave (km/s) = -2.53189 2.62853 0.49934
# Velocity P-wave (km/s) = 6.67079 5.63965 2.51930
#
# Compressibility (1/GPa) = -0.01513438
#
# Stress axis : x y z
#
# Youngs Moduli (GPa) = 332.00493 -9.28051 -6.25719
#
# Poissons Ratio (x) = 0.05405 0.08163
# Poissons Ratio (y) = -1.93350 0.66227
# Poissons Ratio (z) = -4.33121 0.98227
#
# Static dielectric constant tensor:
#      x y z
#    x 1.678220 0.000000 0.160060 
#    y 0.000000 1.622240 0.000000 
#    z 0.160060 0.000000 1.933360 
# 
# From -- ./inp_files/23811.got.cif
#   From: 2010.05.17/outbox.ucp.g08.bks.cvg/sg11_12_cif.got.tgz:23811.got - 2010.06.11 11:38:39.
