data_PCOD9167316
_publ_section_title
;
Structure prediction by ZEFSAII (Michael W. Deem and Ramdas Pophale) SiO2 
 PCOD9167316
Probable space group: P 21/M
;
_chemical_formula_sum "Si O2"
_cell_formula_units_Z 20
_cell_length_a 14.027589
_cell_length_b 16.734078
_cell_length_c 12.211957
_cell_angle_alpha 90.000000
_cell_angle_beta 20.562374
_cell_angle_gamma 90.000000
_cell_volume 1006.833866
_symmetry_space_group_name_H-M "P 21/M"
_symmetry_group_IT_number 11
_symmetry_cell_setting 'monoclinic'
loop_
_space_group_symop_operation_xyz
x,y,z
-x,1/2+y,-z
-x,-y,-z
x,1/2-y,z
loop_
_atom_site_type_symbol
_atom_site_label
_atom_site_fract_x
_atom_site_fract_y
_atom_site_fract_z
Si Si1 0.440514 0.895293 0.426437
Si Si2 0.784714 0.017141 0.638071
Si Si3 0.253490 0.066519 0.552831
Si Si4 0.301821 0.656064 0.811280
Si Si5 0.011187 0.658380 0.719492
O O1 0.458849 0.864525 0.529995
O O2 0.210142 0.846062 0.609975
O O3 0.341701 0.986817 0.524002
O O4 0.727386 0.883493 0.057132
O O5 0.839326 0.106131 0.533579
O O6 0.799382 0.962012 0.514161
O O7 0.000000 0.000000 0.500000
O O8 0.500000 0.000000 0.000000
O O9 0.504647 0.126370 0.298979
O O10 0.978166 0.107054 0.890240
O O11 0.248289 0.750000 0.875588
O O12 0.961549 0.750000 0.742278
#
# Coordination Sequence:
#
# PCOD9167316 Si02
#       5
#     4   4   4   4   4
#     4  11  22  39  64  90 125 164 201 247 308 373
#     4  11  23  43  65  84 115 160 206 252 307 359
#     4  11  23  41  62  88 121 163 212 252 300 375
#     4  12  23  38  60  93 131 166 198 244 305 374
#     4  11  22  39  63  95 121 151 205 267 310 355
#
# _framework density 19.864250999999999
#
# number of rings (size 3 to 8) (size 9 to 14) (size 15 to 20)
#    0.000    0.800    0.000   10.800    0.000    0.000 
#    0.000    6.000    0.000    0.000    0.000    0.000 
#    0.000    0.000    0.000    0.000    0.000    0.000 
#
# Total GULP energy -111854.982965 kJ/mol
# GULP energy per Si atom -5592.749148 kJ/mol
# Density = 1.981904 g / cm^3
# Si number density = 19.864251 Si / 1000 Ang^3
#
#
#
# Elastic Constant Matrix: (Units=GPa)
#
#
# Indices 1 2 3 4 5 6 
#
# 1 97.3374 33.9187 6.7999 0.0000 -12.7999 0.0000
# 2 33.9187 142.4243 60.9932 0.0000 9.1758 0.0000
# 3 6.7999 60.9932 120.1468 0.0000 -21.5059 0.0000
# 4 0.0000 0.0000 0.0000 8.6272 0.0000 -9.8769
# 5 -12.7999 9.1758 -21.5059 0.0000 35.2097 0.0000
# 6 0.0000 0.0000 0.0000 -9.8769 0.0000 23.9221
#
#
#
# Elastic Compliance Matrix: (Units=1/GPa)
#
#
# Indices 1 2 3 4 5 6 
#
# 1 0.012802 -0.004920 0.003184 0.000000 0.007881 0.000000
# 2 -0.004920 0.012034 -0.007536 0.000000 -0.009528 0.000000
# 3 0.003184 -0.007536 0.014065 0.000000 0.011712 0.000000
# 4 0.000000 0.000000 0.000000 0.219814 0.000000 0.090756
# 5 0.007881 -0.009528 0.011712 0.000000 0.040903 0.000000
# 6 0.000000 0.000000 0.000000 0.090756 0.000000 0.079273
#
#
# Mechanical properties :
#
#
# Convention : Reuss Voigt Hill
#
# Bulk Modulus (GPa) = 49.12461 62.59245 55.85853
# Shear Modulus (GPa) = 12.36943 30.76491 21.56717
#
# Velocity S-wave (km/s) = 2.49810 3.93970 3.29861
# Velocity P-wave (km/s) = 5.75365 7.23004 6.53368
#
# Compressibility (1/GPa) = 0.02035639
#
# Stress axis : x y z
#
# Youngs Moduli (GPa) = 78.11358 83.09651 71.09724
#
# Poissons Ratio (x) = 0.40883 -0.22635
# Poissons Ratio (y) = 0.38431 0.53581
# Poissons Ratio (z) = -0.24869 0.62623
#
# Static dielectric constant tensor:
#      x y z
#    x 1.713580 0.000000 0.009820 
#    y 0.000000 1.722590 0.000000 
#    z 0.009820 0.000000 1.687110 
# 
# From -- ./inp_files/4355.got.cif
#   From: 2010.05.17/outbox.cif.g08.bks.cpg/sg11_3_cif.got.tgz:4355.got - 2010.06.03 12:22:45.
