data_PCOD9167199
_publ_section_title
;
Structure prediction by ZEFSAII (Michael W. Deem and Ramdas Pophale) SiO2 
 PCOD9167199
Probable space group: P 21/M
;
_chemical_formula_sum "Si O2"
_cell_formula_units_Z 28
_cell_length_a 30.673340
_cell_length_b 8.691496
_cell_length_c 10.434706
_cell_angle_alpha 90.000000
_cell_angle_beta 33.882525
_cell_angle_gamma 90.000000
_cell_volume 1550.866473
_symmetry_space_group_name_H-M "P 21/M"
_symmetry_group_IT_number 11
_symmetry_cell_setting 'monoclinic'
loop_
_space_group_symop_operation_xyz
x,y,z
-x,1/2+y,-z
-x,-y,-z
x,1/2-y,z
loop_
_atom_site_type_symbol
_atom_site_label
_atom_site_fract_x
_atom_site_fract_y
_atom_site_fract_z
Si Si1 0.238620 0.564870 0.923760
Si Si2 0.158668 0.433986 0.373472
Si Si3 0.001614 0.434567 0.140126
Si Si4 0.824778 0.565732 0.186264
Si Si5 0.424698 0.565065 0.843398
Si Si6 0.738430 0.064582 0.643386
Si Si7 0.589310 0.434895 0.419942
O O1 0.234817 0.750000 0.940497
O O2 0.200825 0.506372 0.885325
O O3 0.330092 0.518634 0.709912
O O4 0.194858 0.495044 0.153196
O O5 0.161091 0.250000 0.372203
O O6 0.208905 0.501815 0.368718
O O7 0.070380 0.492618 0.607750
O O8 0.992840 0.250000 0.156876
O O9 0.085249 0.471239 0.998704
O O10 0.000000 0.500000 0.000000
O O11 0.817566 0.750000 0.198673
O O12 0.771528 0.500903 0.430732
O O13 0.428535 0.750000 0.834772
O O14 0.509335 0.500239 0.672734
O O15 0.407944 0.516351 0.736740
O O16 0.351244 0.518612 0.109062
O O17 0.742948 0.250000 0.632002
O O18 0.585082 0.250000 0.432115
#
# Coordination Sequence:
#
# PCOD9167199 Si02
#       7
#     4   4   4   4   4   4   4
#     4  11  23  42  63  87 122 163 201 244 303 361
#     4  12  24  38  62  92 121 157 202 250 298 353
#     4  11  23  40  63  90 122 156 199 250 301 355
#     4  11  25  42  61  90 122 156 200 248 302 361
#     4   9  18  33  56  88 119 151 195 245 294 349
#     4  11  21  38  62  89 121 159 202 246 298 357
#     4   9  18  34  56  86 119 153 195 244 295 351
#
# _framework density 18.054423
#
# number of rings (size 3 to 8) (size 9 to 14) (size 15 to 20)
#    0.000    1.429    2.857    3.000    0.000    4.571 
#    0.000    0.714    0.000    0.000    0.000    0.000 
#    0.000    0.000    0.000    0.000    0.000    0.000 
#
# Total GULP energy -156463.000908 kJ/mol
# GULP energy per Si atom -5587.964318 kJ/mol
# Density = 1.801333 g / cm^3
# Si number density = 18.054423 Si / 1000 Ang^3
#
#
#
# Elastic Constant Matrix: (Units=GPa)
#
#
# Indices 1 2 3 4 5 6 
#
# 1 112.7009 35.6582 59.5342 0.0000 -8.2747 0.0000
# 2 35.6582 52.6840 39.7746 0.0000 -11.8204 0.0000
# 3 59.5342 39.7746 137.7144 0.0000 -19.0697 0.0000
# 4 0.0000 0.0000 0.0000 34.4640 0.0000 0.4558
# 5 -8.2747 -11.8204 -19.0697 0.0000 34.2424 0.0000
# 6 0.0000 0.0000 0.0000 0.4558 0.0000 30.3964
#
#
#
# Elastic Compliance Matrix: (Units=1/GPa)
#
#
# Indices 1 2 3 4 5 6 
#
# 1 0.012750 -0.005893 -0.003971 0.000000 -0.001165 0.000000
# 2 -0.005893 0.027764 -0.004704 0.000000 0.005540 0.000000
# 3 -0.003971 -0.004704 0.010813 0.000000 0.003438 0.000000
# 4 0.000000 0.000000 0.000000 0.029022 0.000000 -0.000435
# 5 -0.001165 0.005540 0.003438 0.000000 0.032749 0.000000
# 6 0.000000 0.000000 0.000000 -0.000435 0.000000 0.032905
#
#
# Mechanical properties :
#
#
# Convention : Reuss Voigt Hill
#
# Bulk Modulus (GPa) = 45.06401 63.67039 54.36720
# Shear Modulus (GPa) = 27.39198 31.02940 29.21069
#
# Velocity S-wave (km/s) = 3.89934 4.15017 4.02671
# Velocity P-wave (km/s) = 6.72959 7.63594 7.19705
#
# Compressibility (1/GPa) = 0.02219066
#
# Stress axis : x y z
#
# Youngs Moduli (GPa) = 78.43348 36.01794 92.48249
#
# Poissons Ratio (x) = 0.21224 0.36725
# Poissons Ratio (y) = 0.46218 0.43505
# Poissons Ratio (z) = 0.31146 0.16944
#
# Static dielectric constant tensor:
#      x y z
#    x 1.592920 0.000000 -0.017270 
#    y 0.000000 1.592230 0.000000 
#    z -0.017270 0.000000 1.607250 
# 
# From -- ./inp_files/28275.got.cif
#   From: 2010.05.17/outbox.cif.g08.bks.cpg/sg11_15_cif.got.tgz:28275.got - 2010.06.03 12:22:45.
