data_PCOD9167664
_publ_section_title
;
Structure prediction by ZEFSAII (Michael W. Deem and Ramdas Pophale) SiO2 
 PCOD9167664
Probable space group: P 21/M
;
_chemical_formula_sum "Si O2"
_cell_formula_units_Z 20
_cell_length_a 16.558538
_cell_length_b 7.628345
_cell_length_c 28.438302
_cell_angle_alpha 90.000000
_cell_angle_beta 163.412923
_cell_angle_gamma 90.000000
_cell_volume 1025.462579
_symmetry_space_group_name_H-M "P 21/M"
_symmetry_group_IT_number 11
_symmetry_cell_setting 'monoclinic'
loop_
_space_group_symop_operation_xyz
x,y,z
-x,1/2+y,-z
-x,-y,-z
x,1/2-y,z
loop_
_atom_site_type_symbol
_atom_site_label
_atom_site_fract_x
_atom_site_fract_y
_atom_site_fract_z
Si Si1 0.956154 0.544013 0.620830
Si Si2 0.187648 0.457877 0.845779
Si Si3 0.603886 0.458419 0.740344
Si Si4 0.561924 0.534779 0.920754
Si Si5 0.229901 0.037967 0.064669
O O1 0.958904 0.750000 0.610922
O O2 0.670955 0.468682 0.439363
O O3 0.975461 0.528942 0.688101
O O4 0.249792 0.473511 0.762740
O O5 0.148770 0.250000 0.824737
O O6 0.500000 0.500000 0.000000
O O7 0.210841 0.520482 0.912545
O O8 0.611473 0.250000 0.735620
O O9 0.908192 0.527608 0.892791
O O10 0.595692 0.485763 0.791786
O O11 0.559654 0.750000 0.920390
O O12 0.642910 0.478284 0.913791
O O13 0.223780 0.250000 0.060402
#
# Coordination Sequence:
#
# PCOD9167664 Si02
#       5
#     4   4   4   4   4
#     4   9  17  30  46  65  90 117 145 178 217 258
#     4   9  16  28  46  67  91 117 145 177 216 259
#     4   9  18  31  46  64  88 116 145 181 221 257
#     4   8  15  28  46  65  86 114 145 177 214 258
#     4   9  17  31  48  63  84 117 150 177 215 265
#
# _framework density 19.503392999999999
#
# number of rings (size 3 to 8) (size 9 to 14) (size 15 to 20)
#    0.000    3.200    0.000    1.800    0.000    1.600 
#    0.000    6.000    0.000    0.000    0.000    0.000 
#    0.000    0.000    0.000    0.000    0.000    0.000 
#
# Total GULP energy -111386.858403 kJ/mol
# GULP energy per Si atom -5569.342920 kJ/mol
# Density = 1.945900 g / cm^3
# Si number density = 19.503393 Si / 1000 Ang^3
#
#
#
# Elastic Constant Matrix: (Units=GPa)
#
#
# Indices 1 2 3 4 5 6 
#
# 1 -36.0866 2.6623 51.8937 0.0000 -6.5071 0.0000
# 2 2.6623 30.0303 1.0058 0.0000 5.6299 0.0000
# 3 51.8937 1.0058 167.1046 0.0000 -33.6647 0.0000
# 4 0.0000 0.0000 0.0000 9.3560 0.0000 -9.2113
# 5 -6.5071 5.6299 -33.6647 0.0000 16.5912 0.0000
# 6 0.0000 0.0000 0.0000 -9.2113 0.0000 16.2386
#
#
#
# Elastic Compliance Matrix: (Units=1/GPa)
#
#
# Indices 1 2 3 4 5 6 
#
# 1 -0.018591 0.000002 0.007280 0.000000 0.007480 0.000000
# 2 0.000002 0.037656 -0.004738 0.000000 -0.022391 0.000000
# 3 0.007280 -0.004738 0.007867 0.000000 0.020425 0.000000
# 4 0.000000 0.000000 0.000000 0.242079 0.000000 0.137320
# 5 0.007480 -0.022391 0.020425 0.000000 0.112249 0.000000
# 6 0.000000 0.000000 0.000000 0.137320 0.000000 0.139477
#
#
# Mechanical properties :
#
#
# Convention : Reuss Voigt Hill
#
# Bulk Modulus (GPa) = 31.23036 30.24133 30.73584
# Shear Modulus (GPa) = 9.49988 15.46960 12.48474
#
# Velocity S-wave (km/s) = 2.20940 2.81939 2.53283
# Velocity P-wave (km/s) = 4.74933 5.11253 4.93427
#
# Compressibility (1/GPa) = 0.03202013
#
# Stress axis : x y z
#
# Youngs Moduli (GPa) = -53.79044 26.55626 127.11555
#
# Poissons Ratio (x) = -0.00005 -0.92542
# Poissons Ratio (y) = 0.00011 0.60229
# Poissons Ratio (z) = 0.39160 0.12583
#
# Static dielectric constant tensor:
#      x y z
#    x 1.674240 0.000000 -0.012170 
#    y 0.000000 1.720920 0.000000 
#    z -0.012170 0.000000 1.698000 
# 
# From -- ./inp_files/16370.got.cif
#   From: 2010.05.17/outbox.cif.g08.bks.cpg/sg11_9_cif.got.tgz:16370.got - 2010.06.03 12:22:45.
