data_PCOD9167925
_publ_section_title
;
Structure prediction by ZEFSAII (Michael W. Deem and Ramdas Pophale) SiO2 
 PCOD9167925
Probable space group: P 21/M
;
_chemical_formula_sum "Si O2"
_cell_formula_units_Z 28
_cell_length_a 21.000000
_cell_length_b 9.000000
_cell_length_c 18.000000
_cell_angle_alpha 90.000000
_cell_angle_beta 150.000000
_cell_angle_gamma 90.000000
_cell_volume 1701.000000
_symmetry_space_group_name_H-M "P 21/M"
_symmetry_group_IT_number 11
_symmetry_cell_setting 'monoclinic'
loop_
_space_group_symop_operation_xyz
x,y,z
-x,1/2+y,-z
-x,-y,-z
x,1/2-y,z
loop_
_atom_site_type_symbol
_atom_site_label
_atom_site_fract_x
_atom_site_fract_y
_atom_site_fract_z
Si Si1 0.819544 0.928413 0.042153
Si Si2 0.637189 0.572845 0.124785
Si Si3 0.116803 0.572262 0.353437
Si Si4 0.624639 0.428799 0.960477
Si Si5 0.323121 0.072992 0.668834
Si Si6 0.144072 0.419282 0.225453
Si Si7 0.836427 0.080453 0.903040
O O1 0.809690 0.750000 0.036291
O O2 0.966664 0.969925 0.212752
O O3 0.712092 0.004323 0.984171
O O4 0.801063 0.985082 0.939281
O O5 0.626812 0.750000 0.102938
O O6 0.682122 0.494298 0.095297
O O7 0.705402 0.548102 0.272423
O O8 0.500000 0.500000 0.000000
O O9 0.120843 0.750000 0.356320
O O10 0.216817 0.509606 0.513742
O O11 0.160258 0.508003 0.317850
O O12 0.630022 0.250000 0.966542
O O13 0.472404 0.469642 0.803656
O O14 0.315505 0.250000 0.647298
O O15 0.190202 0.250000 0.278108
O O16 0.200922 0.502423 0.211626
O O17 0.990895 0.413035 0.059169
O O18 0.789885 0.250000 0.861286
#
# Coordination Sequence:
#
# PCOD9167925 Si02
#       7
#     4   4   4   4   4   4   4
#     4  10  20  33  49  73 103 132 164 203 246 292
#     4   9  17  31  51  74  98 126 163 205 244 288
#     4  10  20  32  49  74 102 131 165 203 244 291
#     4  10  20  34  53  76  99 128 166 205 246 293
#     4   9  19  34  52  74  99 127 162 202 244 292
#     4   9  16  27  45  68  96 129 163 201 243 285
#     4   9  16  27  45  69  96 127 164 203 241 285
#
# _framework density 16.460905
#
# number of rings (size 3 to 8) (size 9 to 14) (size 15 to 20)
#    0.000    2.571    0.000    3.429    0.000    8.571 
#    0.000    0.714    0.000    0.857    0.000    0.000 
#    0.000    0.000    0.000    0.000    0.000    0.000 
#
# Total GULP energy -155934.910801 kJ/mol
# GULP energy per Si atom -5569.103957 kJ/mol
# Density = 1.642344 g / cm^3
# Si number density = 16.460905 Si / 1000 Ang^3
#
#
#
# Elastic Constant Matrix: (Units=GPa)
#
#
# Indices 1 2 3 4 5 6 
#
# 1 80.5232 15.6080 -9.6112 0.0000 4.0284 0.0000
# 2 15.6080 47.6718 -5.6669 0.0000 3.9461 0.0000
# 3 -9.6112 -5.6669 -0.9865 0.0000 7.1980 0.0000
# 4 0.0000 0.0000 0.0000 27.0996 0.0000 -4.0966
# 5 4.0284 3.9461 7.1980 0.0000 13.2801 0.0000
# 6 0.0000 0.0000 0.0000 -4.0966 0.0000 33.3168
#
#
#
# Elastic Compliance Matrix: (Units=1/GPa)
#
#
# Indices 1 2 3 4 5 6 
#
# 1 0.011234 -0.006334 -0.016992 0.000000 0.007685 0.000000
# 2 -0.006334 0.020531 -0.017502 0.000000 0.005307 0.000000
# 3 -0.016992 -0.017502 -0.135633 0.000000 0.083870 0.000000
# 4 0.000000 0.000000 0.000000 0.037600 0.000000 0.004623
# 5 0.007685 0.005307 0.083870 0.000000 0.025933 0.000000
# 6 0.000000 0.000000 0.000000 0.004623 0.000000 0.030583
#
#
# Mechanical properties :
#
#
# Convention : Reuss Voigt Hill
#
# Bulk Modulus (GPa) = -5.39010 14.20759 4.40875
# Shear Modulus (GPa) = 496.83540 23.19788 260.01664
#
# Velocity S-wave (km/s) = 17.39203 3.75810 12.58185
# Velocity P-wave (km/s) = 20.00072 5.24223 14.62036
#
# Compressibility (1/GPa) = -0.18552546
#
# Stress axis : x y z
#
# Youngs Moduli (GPa) = 89.01650 48.70746 -7.37284
#
# Poissons Ratio (x) = 0.30852 -0.12528
# Poissons Ratio (y) = 0.56384 -0.12904
# Poissons Ratio (z) = 1.51261 0.85248
#
# Static dielectric constant tensor:
#      x y z
#    x 1.541650 0.000000 -0.025470 
#    y 0.000000 1.553820 0.000000 
#    z -0.025470 0.000000 1.542180 
# 
# From -- ./inp_files/42344.got.cif
#   From: 2010.05.17/outbox.ucp.g08.bks.cvg/sg11_22_cif.got.tgz:42344.got - 2010.06.11 11:38:39.
