data_PCOD9167947
_publ_section_title
;
Structure prediction by ZEFSAII (Michael W. Deem and Ramdas Pophale) SiO2 
 PCOD9167947
Probable space group: P 21/M
;
_chemical_formula_sum "Si O2"
_cell_formula_units_Z 32
_cell_length_a 24.000000
_cell_length_b 9.000000
_cell_length_c 15.000000
_cell_angle_alpha 90.000000
_cell_angle_beta 150.000000
_cell_angle_gamma 90.000000
_cell_volume 1620.000000
_symmetry_space_group_name_H-M "P 21/M"
_symmetry_group_IT_number 11
_symmetry_cell_setting 'monoclinic'
loop_
_space_group_symop_operation_xyz
x,y,z
-x,1/2+y,-z
-x,-y,-z
x,1/2-y,z
loop_
_atom_site_type_symbol
_atom_site_label
_atom_site_fract_x
_atom_site_fract_y
_atom_site_fract_z
Si Si1 0.801740 0.422957 0.895112
Si Si2 0.593363 0.571953 0.693913
Si Si3 0.747127 0.078123 0.616749
Si Si4 0.918326 0.072375 0.314557
Si Si5 0.712714 0.428411 0.137629
Si Si6 0.498178 0.071356 0.234210
Si Si7 0.124048 0.424591 0.494284
Si Si8 0.055393 0.074979 0.204990
O O1 0.811700 0.250000 0.939322
O O2 0.717063 0.508403 0.843190
O O3 0.739663 0.425390 0.713542
O O4 0.928560 0.477527 0.050016
O O5 0.500000 0.500000 0.500000
O O6 0.594414 0.750000 0.682978
O O7 0.552275 0.539901 0.737491
O O8 0.756778 0.250000 0.602260
O O9 0.628394 0.020486 0.413375
O O10 0.864743 0.001930 0.755872
O O11 0.916929 0.250000 0.322081
O O12 0.793417 0.024710 0.165748
O O13 0.992811 0.037986 0.331774
O O14 0.000000 0.000000 0.500000
O O15 0.703180 0.250000 0.126517
O O16 0.786601 0.483573 0.324575
O O17 0.590873 0.499148 0.957036
O O18 0.498722 0.250000 0.223035
O O19 0.138618 0.250000 0.537895
O O20 0.130213 0.441711 0.397744
O O21 0.043707 0.250000 0.167589
#
# Coordination Sequence:
#
# PCOD9167947 Si02
#       8
#     4   4   4   4   4   4   4   4
#     4  10  21  39  61  87 121 154 188 236 293 349
#     4  11  22  38  60  88 121 155 192 236 288 347
#     4  10  21  40  60  80 115 155 192 239 291 342
#     4   8  15  28  47  72 103 139 175 215 272 328
#     4  10  20  33  55  85 111 146 193 237 279 339
#     4  10  22  39  57  82 117 157 191 229 290 345
#     4   9  18  35  54  77 114 152 185 232 289 341
#     4  10  22  37  60  88 114 151 197 242 288 341
#
# _framework density 19.753086
#
# number of rings (size 3 to 8) (size 9 to 14) (size 15 to 20)
#    0.000    2.250    1.250    1.125    1.750    3.500 
#    0.000    0.625    0.000    0.000    0.000    0.000 
#    0.000    0.000    0.000    0.000    0.000    0.000 
#
# Total GULP energy -178292.236110 kJ/mol
# GULP energy per Si atom -5571.632378 kJ/mol
# Density = 1.970813 g / cm^3
# Si number density = 19.753086 Si / 1000 Ang^3
#
#
#
# Elastic Constant Matrix: (Units=GPa)
#
#
# Indices 1 2 3 4 5 6 
#
# 1 56.5615 20.8369 12.5895 0.0000 18.3697 0.0000
# 2 20.8369 27.7917 21.6576 0.0000 8.9657 0.0000
# 3 12.5895 21.6576 117.0011 0.0000 28.0673 0.0000
# 4 0.0000 0.0000 0.0000 29.1501 0.0000 11.4986
# 5 18.3697 8.9657 28.0673 0.0000 37.5448 0.0000
# 6 0.0000 0.0000 0.0000 11.4986 0.0000 22.6817
#
#
#
# Elastic Compliance Matrix: (Units=1/GPa)
#
#
# Indices 1 2 3 4 5 6 
#
# 1 0.028008 -0.019970 0.003444 0.000000 -0.011509 0.000000
# 2 -0.019970 0.057118 -0.009134 0.000000 0.002959 0.000000
# 3 0.003444 -0.009134 0.011878 0.000000 -0.008384 0.000000
# 4 0.000000 0.000000 0.000000 0.042880 0.000000 -0.021738
# 5 -0.011509 0.002959 -0.008384 0.000000 0.037827 0.000000
# 6 0.000000 0.000000 0.000000 -0.021738 0.000000 0.055109
#
#
# Mechanical properties :
#
#
# Convention : Reuss Voigt Hill
#
# Bulk Modulus (GPa) = 21.88952 34.61359 28.25156
# Shear Modulus (GPa) = 16.70185 27.62665 22.16425
#
# Velocity S-wave (km/s) = 2.91096 3.74384 3.35336
# Velocity P-wave (km/s) = 4.73327 6.02077 5.41542
#
# Compressibility (1/GPa) = 0.04568396
#
# Stress axis : x y z
#
# Youngs Moduli (GPa) = 35.70401 17.50769 84.18744
#
# Poissons Ratio (x) = 0.34963 -0.28992
# Poissons Ratio (y) = 0.71301 0.76896
# Poissons Ratio (z) = -0.12296 0.15991
#
# Static dielectric constant tensor:
#      x y z
#    x 1.772680 0.000000 -0.019060 
#    y 0.000000 1.682590 0.000000 
#    z -0.019060 0.000000 1.693750 
# 
# From -- ./inp_files/45170.got.cif
#   From: 2010.05.17/outbox.ucp.g08.bks.cvg/sg11_23_cif.got.tgz:45170.got - 2010.06.11 11:38:39.
