data_PCOD9167353
_publ_section_title
;
Structure prediction by ZEFSAII (Michael W. Deem and Ramdas Pophale) SiO2 
 PCOD9167353
Probable space group: P 21/M
;
_chemical_formula_sum "Si O2"
_cell_formula_units_Z 24
_cell_length_a 9.497231
_cell_length_b 21.308222
_cell_length_c 7.742780
_cell_angle_alpha 90.000000
_cell_angle_beta 52.171785
_cell_angle_gamma 90.000000
_cell_volume 1237.620395
_symmetry_space_group_name_H-M "P 21/M"
_symmetry_group_IT_number 11
_symmetry_cell_setting 'monoclinic'
loop_
_space_group_symop_operation_xyz
x,y,z
-x,1/2+y,-z
-x,-y,-z
x,1/2-y,z
loop_
_atom_site_type_symbol
_atom_site_label
_atom_site_fract_x
_atom_site_fract_y
_atom_site_fract_z
Si Si1 0.502303 0.140822 0.038337
Si Si2 0.721476 0.250000 0.353013
Si Si3 0.146107 0.563251 0.207787
Si Si4 0.040640 0.640822 0.961663
Si Si5 0.712696 0.250000 0.735765
Si Si6 0.051539 0.250000 0.735765
Si Si7 0.108985 0.414189 0.282031
Si Si8 0.425511 0.250000 0.353013
O O1 0.304802 0.114807 0.161994
O O2 0.495315 0.187456 0.207116
O O3 0.649875 0.086448 0.934279
O O4 0.585629 0.189313 0.837656
O O5 0.800662 0.250000 0.483989
O O6 0.509741 0.250000 0.480517
O O7 0.797569 0.187456 0.207116
O O8 0.084154 0.586448 0.065721
O O9 0.128880 0.489010 0.242240
O O10 0.023681 0.594280 0.452637
O O11 0.923285 0.689313 0.162344
O O12 0.966796 0.614807 0.838006
O O13 0.862086 0.250000 0.775828
O O14 0.215349 0.250000 0.483989
#
# Coordination Sequence:
#
# PCOD9167353 Si02
#       8
#     4   2   4   4   2   2   4   2
#     4  11  22  42  63  94 126 164 210 260 313 374
#     4  11  23  38  64  95 126 167 205 258 323 375
#     4  11  22  47  63  90 132 165 216 262 307 365
#     4  11  22  42  63  94 126 164 210 260 313 374
#     4  11  23  40  66  93 130 167 203 262 319 377
#     4  11  23  40  66  93 130 167 203 262 319 377
#     4  11  26  39  69  94 120 177 212 256 313 375
#     4  11  23  38  64  95 126 167 205 258 323 375
#
# _framework density 19.392052
#
# number of rings (size 3 to 8) (size 9 to 14) (size 15 to 20)
#    0.000    1.000    3.333    4.000    4.667    1.333 
#    0.000    0.000    0.000    8.000    0.000    0.000 
#    0.000    0.000    0.000    0.000    0.000    0.000 
#
# Total GULP energy -133778.155132 kJ/mol
# GULP energy per Si atom -5574.089797 kJ/mol
# Density = 1.934792 g / cm^3
# Si number density = 19.392052 Si / 1000 Ang^3
#
#
#
# Elastic Constant Matrix: (Units=GPa)
#
#
# Indices 1 2 3 4 5 6 
#
# 1 151.5782 59.2898 76.8055 0.0000 -0.3272 0.0000
# 2 59.2898 96.6284 35.0526 0.0000 -2.4799 0.0000
# 3 76.8055 35.0526 106.2781 0.0000 -4.3078 0.0000
# 4 0.0000 0.0000 0.0000 20.8063 0.0000 -1.6799
# 5 -0.3272 -2.4799 -4.3078 0.0000 35.3802 0.0000
# 6 0.0000 0.0000 0.0000 -1.6799 0.0000 37.2242
#
#
#
# Elastic Compliance Matrix: (Units=1/GPa)
#
#
# Indices 1 2 3 4 5 6 
#
# 1 0.012162 -0.004869 -0.007228 0.000000 -0.001109 0.000000
# 2 -0.004869 0.013709 -0.000971 0.000000 0.000798 0.000000
# 3 -0.007228 -0.000971 0.015022 0.000000 0.001694 0.000000
# 4 0.000000 0.000000 0.000000 0.048238 0.000000 0.002177
# 5 -0.001109 0.000798 0.001694 0.000000 0.028516 0.000000
# 6 0.000000 0.000000 0.000000 0.002177 0.000000 0.026963
#
#
# Mechanical properties :
#
#
# Convention : Reuss Voigt Hill
#
# Bulk Modulus (GPa) = 67.76288 77.42007 72.59148
# Shear Modulus (GPa) = 28.46343 30.90458 29.68401
#
# Velocity S-wave (km/s) = 3.83533 3.99641 3.91670
# Velocity P-wave (km/s) = 7.39138 7.82977 7.61373
#
# Compressibility (1/GPa) = 0.01475734
#
# Stress axis : x y z
#
# Youngs Moduli (GPa) = 82.22398 72.94564 66.56946
#
# Poissons Ratio (x) = 0.35515 0.48119
# Poissons Ratio (y) = 0.40032 0.06461
# Poissons Ratio (z) = 0.59435 0.07080
#
# Static dielectric constant tensor:
#      x y z
#    x 1.676180 0.000000 0.001410 
#    y 0.000000 1.674520 0.000000 
#    z 0.001410 0.000000 1.690000 
# 
# From -- ./inp_files/14265.got.cif
#   From: 2010.05.17/outbox.cif.g08.bks.cpg/sg11_8_cif.got.tgz:14265.got - 2010.06.03 12:22:45.
