data_PCOD9167518
_publ_section_title
;
Structure prediction by ZEFSAII (Michael W. Deem and Ramdas Pophale) SiO2 
 PCOD9167518
Probable space group: P 21/M
;
_chemical_formula_sum "Si O2"
_cell_formula_units_Z 20
_cell_length_a 24.636595
_cell_length_b 8.615851
_cell_length_c 7.987140
_cell_angle_alpha 90.000000
_cell_angle_beta 36.055429
_cell_angle_gamma 90.000000
_cell_volume 997.852932
_symmetry_space_group_name_H-M "P 21/M"
_symmetry_group_IT_number 11
_symmetry_cell_setting 'monoclinic'
loop_
_space_group_symop_operation_xyz
x,y,z
-x,1/2+y,-z
-x,-y,-z
x,1/2-y,z
loop_
_atom_site_type_symbol
_atom_site_label
_atom_site_fract_x
_atom_site_fract_y
_atom_site_fract_z
Si Si1 0.095818 0.935321 0.331748
Si Si2 0.720327 0.935647 0.270442
Si Si3 0.713282 0.434962 0.638343
Si Si4 0.603091 0.936186 0.231664
Si Si5 0.098537 0.064578 0.696493
O O1 0.091187 0.750000 0.359837
O O2 0.113002 0.012652 0.469077
O O3 0.000000 0.000000 0.500000
O O4 0.180761 0.984130 0.003358
O O5 0.732154 0.750000 0.245587
O O6 0.658026 0.975717 0.265103
O O7 0.679453 0.994095 0.547419
O O8 0.711373 0.250000 0.636087
O O9 0.817736 0.493690 0.406885
O O10 0.654740 0.493551 0.942445
O O11 0.602635 0.750000 0.217638
O O12 0.500000 0.000000 0.500000
O O13 0.099977 0.250000 0.706383
O O14 0.000000 0.000000 0.000000
#
# Coordination Sequence:
#
# PCOD9167518 Si02
#       5
#     4   4   4   4   4
#     4  12  24  40  63  94 133 177 224 275 333 398
#     4  11  24  44  69  98 135 178 224 277 337 400
#     4  12  25  43  69 100 136 177 224 279 339 403
#     4  11  25  46  73 101 135 177 226 283 343 404
#     4  12  24  41  63  93 133 177 225 276 333 399
#
# _framework density 20.043032
#
# number of rings (size 3 to 8) (size 9 to 14) (size 15 to 20)
#    0.000    0.400    2.000    7.800    0.000    3.200 
#    0.000    0.000    0.000    0.000    0.000    0.000 
#    0.000    0.000    0.000    0.000    0.000    0.000 
#
# Total GULP energy -112025.415191 kJ/mol
# GULP energy per Si atom -5601.270760 kJ/mol
# Density = 1.999741 g / cm^3
# Si number density = 20.043032 Si / 1000 Ang^3
#
#
#
# Elastic Constant Matrix: (Units=GPa)
#
#
# Indices 1 2 3 4 5 6 
#
# 1 110.2040 34.3503 55.2452 0.0000 15.5199 0.0000
# 2 34.3503 99.1099 30.4703 0.0000 -3.9265 0.0000
# 3 55.2452 30.4703 117.8254 0.0000 -0.0317 0.0000
# 4 0.0000 0.0000 0.0000 39.3256 0.0000 5.8817
# 5 15.5199 -3.9265 -0.0317 0.0000 41.9936 0.0000
# 6 0.0000 0.0000 0.0000 5.8817 0.0000 31.3908
#
#
#
# Elastic Compliance Matrix: (Units=1/GPa)
#
#
# Indices 1 2 3 4 5 6 
#
# 1 0.013613 -0.003223 -0.005551 0.000000 -0.005336 0.000000
# 2 -0.003223 0.011768 -0.001532 0.000000 0.002290 0.000000
# 3 -0.005551 -0.001532 0.011486 0.000000 0.001917 0.000000
# 4 0.000000 0.000000 0.000000 0.026162 0.000000 -0.004902
# 5 -0.005336 0.002290 0.001917 0.000000 0.026001 0.000000
# 6 0.000000 0.000000 0.000000 -0.004902 0.000000 0.032775
#
#
# Mechanical properties :
#
#
# Convention : Reuss Voigt Hill
#
# Bulk Modulus (GPa) = 61.51158 63.03010 62.27084
# Shear Modulus (GPa) = 33.82155 36.34688 35.08422
#
# Velocity S-wave (km/s) = 4.11231 4.26307 4.18837
# Velocity P-wave (km/s) = 7.30099 7.46642 7.38417
#
# Compressibility (1/GPa) = 0.01625710
#
# Stress axis : x y z
#
# Youngs Moduli (GPa) = 73.46076 84.97290 87.06044
#
# Poissons Ratio (x) = 0.27386 0.48324
# Poissons Ratio (y) = 0.23676 0.13334
# Poissons Ratio (z) = 0.40775 0.13015
#
# Static dielectric constant tensor:
#      x y z
#    x 1.706610 0.000000 -0.002020 
#    y 0.000000 1.660780 0.000000 
#    z -0.002020 0.000000 1.689240 
# 
# From -- ./inp_files/27978.got.cif
#   From: 2010.05.17/outbox.cif.g08.bks.cpg/sg11_14_cif.got.tgz:27978.got - 2010.06.03 12:22:45.
