data_PCOD9167522
_publ_section_title
;
Structure prediction by ZEFSAII (Michael W. Deem and Ramdas Pophale) SiO2 
 PCOD9167522
Probable space group: P 21/M
;
_chemical_formula_sum "Si O2"
_cell_formula_units_Z 24
_cell_length_a 9.500404
_cell_length_b 14.906014
_cell_length_c 7.068053
_cell_angle_alpha 90.000000
_cell_angle_beta 90.785810
_cell_angle_gamma 90.000000
_cell_volume 1000.835149
_symmetry_space_group_name_H-M "P 21/M"
_symmetry_group_IT_number 11
_symmetry_cell_setting 'monoclinic'
loop_
_space_group_symop_operation_xyz
x,y,z
-x,1/2+y,-z
-x,-y,-z
x,1/2-y,z
loop_
_atom_site_type_symbol
_atom_site_label
_atom_site_fract_x
_atom_site_fract_y
_atom_site_fract_z
Si Si1 0.688394 0.643897 0.389572
Si Si2 0.864067 0.466309 0.383371
Si Si3 0.341208 0.402247 0.171276
Si Si4 0.978658 0.895967 0.956411
Si Si5 0.433318 0.609434 0.110018
Si Si6 0.167122 0.657853 0.290576
O O1 0.733141 0.750000 0.366721
O O2 0.782211 0.557127 0.321909
O O3 0.666190 0.623387 0.610461
O O4 0.542283 0.629743 0.279309
O O5 0.919625 0.395149 0.227593
O O6 0.788293 0.414901 0.553063
O O7 0.000000 0.500000 0.500000
O O8 0.376572 0.506317 0.120223
O O9 0.184649 0.377053 0.092650
O O10 0.477116 0.361208 0.070635
O O11 0.033497 0.853064 0.150759
O O12 0.000000 0.000000 0.000000
O O13 0.291286 0.660510 0.142756
O O14 0.148650 0.750000 0.398367
#
# Coordination Sequence:
#
# PCOD9167522 Si02
#       6
#     4   4   4   4   4   4
#     4  12  26  43  69 109 145 185 243 296 357 432
#     4  12  24  46  73 101 146 191 239 296 365 423
#     4  11  24  44  76 101 137 193 237 292 359 431
#     4  12  22  46  72 103 140 186 241 296 360 426
#     4  11  24  46  74 102 142 190 237 292 363 426
#     4  12  28  47  72 108 145 189 246 301 359 429
#
# _framework density 23.979972
#
# number of rings (size 3 to 8) (size 9 to 14) (size 15 to 20)
#    0.000    0.333    6.667    2.000    2.333    3.333 
#    0.000    0.000    0.000    0.000    0.000    0.000 
#    0.000    0.000    0.000    0.000    0.000    0.000 
#
# Total GULP energy -133793.528938 kJ/mol
# GULP energy per Si atom -5574.730372 kJ/mol
# Density = 2.392539 g / cm^3
# Si number density = 23.979972 Si / 1000 Ang^3
#
#
#
# Elastic Constant Matrix: (Units=GPa)
#
#
# Indices 1 2 3 4 5 6 
#
# 1 103.1153 18.6725 25.0069 0.0000 -15.4691 0.0000
# 2 18.6725 121.3881 -1.9501 0.0000 -4.7815 0.0000
# 3 25.0069 -1.9501 79.9134 0.0000 -20.8516 0.0000
# 4 0.0000 0.0000 0.0000 6.9075 0.0000 14.5109
# 5 -15.4691 -4.7815 -20.8516 0.0000 45.0343 0.0000
# 6 0.0000 0.0000 0.0000 14.5109 0.0000 -21.3998
#
#
#
# Elastic Compliance Matrix: (Units=1/GPa)
#
#
# Indices 1 2 3 4 5 6 
#
# 1 0.011043 -0.001656 -0.002903 0.000000 0.002273 0.000000
# 2 -0.001656 0.008538 0.000927 0.000000 0.000767 0.000000
# 3 -0.002903 0.000927 0.015025 0.000000 0.006058 0.000000
# 4 0.000000 0.000000 0.000000 0.059712 0.000000 0.040490
# 5 0.002273 0.000767 0.006058 0.000000 0.025873 0.000000
# 6 0.000000 0.000000 0.000000 0.040490 0.000000 -0.019274
#
#
# Mechanical properties :
#
#
# Convention : Reuss Voigt Hill
#
# Bulk Modulus (GPa) = 36.57400 43.09726 39.83563
# Shear Modulus (GPa) = 42.62798 23.62090 33.12444
#
# Velocity S-wave (km/s) = 4.22079 3.14192 3.72067
# Velocity P-wave (km/s) = 6.24808 5.58331 5.92503
#
# Compressibility (1/GPa) = 0.02734183
#
# Stress axis : x y z
#
# Youngs Moduli (GPa) = 90.55755 117.12589 66.55462
#
# Poissons Ratio (x) = 0.19393 0.19319
# Poissons Ratio (y) = 0.14994 -0.06167
# Poissons Ratio (z) = 0.26287 -0.10852
#
# Static dielectric constant tensor:
#      x y z
#    x 1.940520 0.000000 -0.065280 
#    y 0.000000 2.178350 0.000000 
#    z -0.065280 0.000000 2.338830 
# 
# From -- ./inp_files/12532.got.cif
#   From: 2010.05.17/outbox.cif.g08.bks.cpg/sg11_7_cif.got.tgz:12532.got - 2010.06.03 12:22:45.
