data_PCOD9167827
_publ_section_title
;
Structure prediction by ZEFSAII (Michael W. Deem and Ramdas Pophale) SiO2 
 PCOD9167827
Probable space group: P 21/M
;
_chemical_formula_sum "Si O2"
_cell_formula_units_Z 28
_cell_length_a 15.000000
_cell_length_b 9.000000
_cell_length_c 18.000000
_cell_angle_alpha 90.000000
_cell_angle_beta 40.000000
_cell_angle_gamma 90.000000
_cell_volume 1561.973892
_symmetry_space_group_name_H-M "P 21/M"
_symmetry_group_IT_number 11
_symmetry_cell_setting 'monoclinic'
loop_
_space_group_symop_operation_xyz
x,y,z
-x,1/2+y,-z
-x,-y,-z
x,1/2-y,z
loop_
_atom_site_type_symbol
_atom_site_label
_atom_site_fract_x
_atom_site_fract_y
_atom_site_fract_z
Si Si1 0.576997 0.427336 0.880971
Si Si2 0.903021 0.925806 0.124636
Si Si3 0.406525 0.071589 0.284087
Si Si4 0.849392 0.428331 0.936893
Si Si5 0.866206 0.070573 0.763237
Si Si6 0.910743 0.930110 0.490830
Si Si7 0.673730 0.071854 0.192380
O O1 0.557141 0.250000 0.894287
O O2 0.539521 0.497333 0.826054
O O3 0.740070 0.461369 0.788640
O O4 0.500000 0.500000 0.000000
O O5 0.897781 0.750000 0.115724
O O6 0.990134 0.952625 0.143522
O O7 0.752871 0.995903 0.209659
O O8 0.000000 0.000000 0.000000
O O9 0.409447 0.250000 0.271304
O O10 0.249565 0.025530 0.401518
O O11 0.513538 0.037189 0.281657
O O12 0.825900 0.250000 0.949864
O O13 0.827538 0.490306 0.868929
O O14 0.752652 0.480175 0.066201
O O15 0.872353 0.250000 0.766502
O O16 0.010728 0.023560 0.634882
O O17 0.916890 0.750000 0.492143
O O18 0.000000 0.000000 0.500000
O O19 0.691399 0.250000 0.186731
#
# Coordination Sequence:
#
# PCOD9167827 Si02
#       7
#     4   4   4   4   4   4   4
#     4  11  21  32  48  71 100 131 161 198 246 297
#     4   9  16  27  46  71  96 125 158 196 240 292
#     4  10  20  33  50  71  97 129 166 206 246 291
#     4   8  14  26  45  67  92 121 156 192 233 288
#     4   9  17  30  48  69  94 127 162 198 242 292
#     4  10  19  33  52  71  93 125 169 210 245 290
#     4   9  17  30  47  68  96 129 160 198 245 294
#
# _framework density 17.926036
#
# number of rings (size 3 to 8) (size 9 to 14) (size 15 to 20)
#    0.000    2.571    1.429    2.571    0.000    2.857 
#    0.000    0.000    0.000    7.714    0.000    0.000 
#    0.000    0.000    0.000    0.000    0.000    0.571 
#
# Total GULP energy -155906.416914 kJ/mol
# GULP energy per Si atom -5568.086318 kJ/mol
# Density = 1.788524 g / cm^3
# Si number density = 17.926036 Si / 1000 Ang^3
#
#
#
# Elastic Constant Matrix: (Units=GPa)
#
#
# Indices 1 2 3 4 5 6 
#
# 1 55.2218 21.7933 -0.8873 0.0000 -24.8450 0.0000
# 2 21.7933 15.6345 4.5211 0.0000 -13.4955 0.0000
# 3 -0.8873 4.5211 50.3231 0.0000 -20.5078 0.0000
# 4 0.0000 0.0000 0.0000 14.7254 0.0000 -2.9432
# 5 -24.8450 -13.4955 -20.5078 0.0000 26.9370 0.0000
# 6 0.0000 0.0000 0.0000 -2.9432 0.0000 23.3053
#
#
#
# Elastic Compliance Matrix: (Units=1/GPa)
#
#
# Indices 1 2 3 4 5 6 
#
# 1 0.061102 -0.046782 0.027105 0.000000 0.053555 0.000000
# 2 -0.046782 0.162087 0.000177 0.000000 0.038192 0.000000
# 3 0.027105 0.000177 0.044303 0.000000 0.058818 0.000000
# 4 0.000000 0.000000 0.000000 0.069668 0.000000 0.008798
# 5 0.053555 0.038192 0.058818 0.000000 0.150434 0.000000
# 6 0.000000 0.000000 0.000000 0.008798 0.000000 0.044020
#
#
# Mechanical properties :
#
#
# Convention : Reuss Voigt Hill
#
# Bulk Modulus (GPa) = 4.37650 19.11485 11.74568
# Shear Modulus (GPa) = 7.73063 19.37701 13.55382
#
# Velocity S-wave (km/s) = 2.07891 3.29134 2.75270
# Velocity P-wave (km/s) = 2.86517 5.01300 4.08285
#
# Compressibility (1/GPa) = 0.22849317
#
# Stress axis : x y z
#
# Youngs Moduli (GPa) = 16.36614 6.16952 22.57165
#
# Poissons Ratio (x) = 0.28862 -0.61181
# Poissons Ratio (y) = 0.76564 -0.00400
# Poissons Ratio (z) = -0.44361 -0.00109
#
# Static dielectric constant tensor:
#      x y z
#    x 1.706880 0.000000 -0.030590 
#    y 0.000000 1.600220 0.000000 
#    z -0.030590 0.000000 1.625440 
# 
# From -- ./inp_files/42381.got.cif
#   From: 2010.05.17/outbox.ucp.g08.bks.cvg/sg11_22_cif.got.tgz:42381.got - 2010.06.11 11:38:39.
