data_PCOD9167841
_publ_section_title
;
Structure prediction by ZEFSAII (Michael W. Deem and Ramdas Pophale) SiO2 
 PCOD9167841
Probable space group: P 21/M
;
_chemical_formula_sum "Si O2"
_cell_formula_units_Z 32
_cell_length_a 15.000000
_cell_length_b 15.000000
_cell_length_c 21.000000
_cell_angle_alpha 90.000000
_cell_angle_beta 160.000000
_cell_angle_gamma 90.000000
_cell_volume 1616.045177
_symmetry_space_group_name_H-M "P 21/M"
_symmetry_group_IT_number 11
_symmetry_cell_setting 'monoclinic'
loop_
_space_group_symop_operation_xyz
x,y,z
-x,1/2+y,-z
-x,-y,-z
x,1/2-y,z
loop_
_atom_site_type_symbol
_atom_site_label
_atom_site_fract_x
_atom_site_fract_y
_atom_site_fract_z
Si Si1 0.987351 0.507828 0.890527
Si Si2 0.441023 0.351686 0.936262
Si Si3 0.649063 0.418606 0.203922
Si Si4 0.126696 0.151724 0.895487
Si Si5 0.391634 0.900569 0.082866
Si Si6 0.217224 0.352365 0.546484
Si Si7 0.883364 0.145731 0.591903
Si Si8 0.542685 0.496773 0.691979
O O1 0.019113 0.416188 0.874319
O O2 0.702567 0.510090 0.732614
O O3 0.103522 0.578580 0.916992
O O4 0.217120 0.510712 0.097550
O O5 0.434405 0.250000 0.957119
O O6 0.608886 0.353639 0.985419
O O7 0.137336 0.374905 0.719035
O O8 0.556946 0.413621 0.068595
O O9 0.558438 0.509687 0.177245
O O10 0.952545 0.392799 0.401094
O O11 0.440853 0.353384 0.098823
O O12 0.048564 0.250000 0.861399
O O13 0.999115 0.131442 0.740853
O O14 0.562456 0.852368 0.250780
O O15 0.163123 0.250000 0.490174
O O16 0.345706 0.414087 0.576630
O O17 0.816711 0.250000 0.539712
O O18 0.639018 0.082409 0.417404
#
# Coordination Sequence:
#
# PCOD9167841 Si02
#       8
#     4   4   4   4   4   4   4   4
#     4   9  21  37  54  74 102 141 186 224 265 318
#     4  10  19  33  54  81 111 138 171 214 266 329
#     4  10  19  34  54  79 109 142 174 212 265 326
#     4   9  18  34  55  80 108 136 173 220 269 322
#     4  10  20  35  54  77 105 140 179 221 267 316
#     4  11  22  35  53  79 111 143 178 222 271 321
#     4   9  19  35  56  82 109 139 175 220 271 320
#     4  10  21  39  55  75 106 142 185 228 268 316
#
# _framework density 19.801427
#
# number of rings (size 3 to 8) (size 9 to 14) (size 15 to 20)
#    0.000    2.250    0.000    3.750    0.000    5.500 
#    0.000    6.875    0.000    1.500    0.000    0.000 
#    0.000    0.000    0.000    0.000    0.000    0.000 
#
# Total GULP energy -178240.315209 kJ/mol
# GULP energy per Si atom -5570.009850 kJ/mol
# Density = 1.975636 g / cm^3
# Si number density = 19.801427 Si / 1000 Ang^3
#
#
#
# Elastic Constant Matrix: (Units=GPa)
#
#
# Indices 1 2 3 4 5 6 
#
# 1 98.6998 17.7936 3.4932 0.0000 26.6659 0.0000
# 2 17.7936 70.8993 7.6413 0.0000 5.6582 0.0000
# 3 3.4932 7.6413 32.0601 0.0000 18.7687 0.0000
# 4 0.0000 0.0000 0.0000 27.3463 0.0000 2.5914
# 5 26.6659 5.6582 18.7687 0.0000 17.8431 0.0000
# 6 0.0000 0.0000 0.0000 2.5914 0.0000 32.2164
#
#
#
# Elastic Compliance Matrix: (Units=1/GPa)
#
#
# Indices 1 2 3 4 5 6 
#
# 1 0.132438 -0.024433 0.267373 0.000000 -0.471420 0.000000
# 2 -0.024433 0.019027 -0.051318 0.000000 0.084460 0.000000
# 3 0.267373 -0.051318 0.621246 0.000000 -1.036780 0.000000
# 4 0.000000 0.000000 0.000000 0.036849 0.000000 -0.002964
# 5 -0.471420 0.084460 -1.036780 0.000000 1.824345 0.000000
# 6 0.000000 0.000000 0.000000 -0.002964 0.000000 0.031279
#
#
# Mechanical properties :
#
#
# Convention : Reuss Voigt Hill
#
# Bulk Modulus (GPa) = 0.86508 28.83505 14.85007
# Shear Modulus (GPa) = 1.87459 26.99656 14.43557
#
# Velocity S-wave (km/s) = 0.97404 3.69638 2.70296
# Velocity P-wave (km/s) = 1.30492 5.72812 4.15417
#
# Compressibility (1/GPa) = 1.15595595
#
# Stress axis : x y z
#
# Youngs Moduli (GPa) = 7.55071 52.55720 1.60967
#
# Poissons Ratio (x) = 1.28412 -0.43038
# Poissons Ratio (y) = 0.18448 0.08260
# Poissons Ratio (z) = -2.01886 2.69713
#
# Static dielectric constant tensor:
#      x y z
#    x 1.726000 0.000000 -0.018050 
#    y 0.000000 1.751440 0.000000 
#    z -0.018050 0.000000 1.689870 
# 
# From -- ./inp_files/22186.got.cif
#   From: 2010.05.17/outbox.ucp.g08.bks.cvg/sg11_12_cif.got.tgz:22186.got - 2010.06.11 11:38:39.
