data_PCOD9167505
_publ_section_title
;
Structure prediction by ZEFSAII (Michael W. Deem and Ramdas Pophale) SiO2 
 PCOD9167505
Probable space group: P 21/M
;
_chemical_formula_sum "Si O2"
_cell_formula_units_Z 18
_cell_length_a 7.584227
_cell_length_b 14.591538
_cell_length_c 8.720161
_cell_angle_alpha 90.000000
_cell_angle_beta 85.564681
_cell_angle_gamma 90.000000
_cell_volume 962.131318
_symmetry_space_group_name_H-M "P 21/M"
_symmetry_group_IT_number 11
_symmetry_cell_setting 'monoclinic'
loop_
_space_group_symop_operation_xyz
x,y,z
-x,1/2+y,-z
-x,-y,-z
x,1/2-y,z
loop_
_atom_site_type_symbol
_atom_site_label
_atom_site_fract_x
_atom_site_fract_y
_atom_site_fract_z
Si Si1 0.491630 0.250000 0.121366
Si Si2 0.902812 0.250000 0.066311
Si Si3 0.378980 0.433600 0.298915
Si Si4 0.766426 0.750000 0.154354
Si Si5 0.700006 0.563344 0.336720
Si Si6 0.006811 0.049526 0.164918
O O1 0.693816 0.250000 0.050301
O O2 0.457465 0.339958 0.225417
O O3 0.352330 0.250000 0.991358
O O4 0.954081 0.156344 0.150736
O O5 0.028448 0.250000 0.909251
O O6 0.528178 0.511529 0.282106
O O7 0.326096 0.423762 0.480442
O O8 0.204425 0.457528 0.215421
O O9 0.724547 0.659810 0.252700
O O10 0.868615 0.500725 0.285203
O O11 0.000000 0.000000 0.000000
#
# Coordination Sequence:
#
# PCOD9167505 Si02
#       6
#     2   2   4   2   4   4
#     4  12  23  41  67  91 129 163 213 264 316 375
#     4  12  24  39  64  97 122 165 213 261 317 367
#     4  11  24  43  65  95 129 170 207 263 320 378
#     4  12  25  42  65  94 125 168 212 267 313 376
#     4  11  25  42  65  94 130 168 213 257 322 381
#     4  12  23  42  67  94 130 167 214 260 313 377
#
# _framework density 18.708465
#
# number of rings (size 3 to 8) (size 9 to 14) (size 15 to 20)
#    0.000    0.444    6.667    1.333    3.111    1.778 
#    0.000    0.000    0.000    0.000    0.000    0.000 
#    0.000    0.000    0.000    0.000    0.000    0.000 
#
# Total GULP energy -100692.449651 kJ/mol
# GULP energy per Si atom -5594.024981 kJ/mol
# Density = 1.866588 g / cm^3
# Si number density = 18.708465 Si / 1000 Ang^3
#
#
#
# Elastic Constant Matrix: (Units=GPa)
#
#
# Indices 1 2 3 4 5 6 
#
# 1 172.2770 69.0124 68.9744 0.0000 -11.3764 0.0000
# 2 69.0124 171.1551 75.2521 0.0000 -8.2637 0.0000
# 3 68.9744 75.2521 82.0376 0.0000 -16.0796 0.0000
# 4 0.0000 0.0000 0.0000 27.4937 0.0000 6.4350
# 5 -11.3764 -8.2637 -16.0796 0.0000 34.2440 0.0000
# 6 0.0000 0.0000 0.0000 6.4350 0.0000 -8.3140
#
#
#
# Elastic Compliance Matrix: (Units=1/GPa)
#
#
# Indices 1 2 3 4 5 6 
#
# 1 0.008783 -0.000462 -0.007061 0.000000 -0.000509 0.000000
# 2 -0.000462 0.009947 -0.009137 0.000000 -0.002043 0.000000
# 3 -0.007061 -0.009137 0.028212 0.000000 0.008697 0.000000
# 4 0.000000 0.000000 0.000000 0.030794 0.000000 0.023834
# 5 -0.000509 -0.002043 0.008697 0.000000 0.032624 0.000000
# 6 0.000000 0.000000 0.000000 0.023834 0.000000 -0.101832
#
#
# Mechanical properties :
#
#
# Convention : Reuss Voigt Hill
#
# Bulk Modulus (GPa) = 73.40310 94.66086 84.03198
# Shear Modulus (GPa) = 107.78892 24.83345 66.31118
#
# Velocity S-wave (km/s) = 7.59869 3.64729 5.95999
# Velocity P-wave (km/s) = 10.78458 8.27313 9.61124
#
# Compressibility (1/GPa) = 0.01362340
#
# Stress axis : x y z
#
# Youngs Moduli (GPa) = 113.85978 100.52853 35.44628
#
# Poissons Ratio (x) = 0.04640 0.25027
# Poissons Ratio (y) = 0.05255 0.32388
# Poissons Ratio (z) = 0.80392 0.91854
#
# Static dielectric constant tensor:
#      x y z
#    x 1.624490 0.000000 -0.012960 
#    y 0.000000 1.632150 0.000000 
#    z -0.012960 0.000000 1.618830 
# 
# From -- ./inp_files/11763.got.cif
#   From: 2010.05.17/outbox.cif.g08.bks.cpg/sg11_6_cif.got.tgz:11763.got - 2010.06.03 12:22:45.
