data_PCOD9167809
_publ_section_title
;
Structure prediction by ZEFSAII (Michael W. Deem and Ramdas Pophale) SiO2 
 PCOD9167809
Probable space group: P 21/M
;
_chemical_formula_sum "Si O2"
_cell_formula_units_Z 32
_cell_length_a 12.000000
_cell_length_b 9.000000
_cell_length_c 30.000000
_cell_angle_alpha 90.000000
_cell_angle_beta 150.000000
_cell_angle_gamma 90.000000
_cell_volume 1620.000000
_symmetry_space_group_name_H-M "P 21/M"
_symmetry_group_IT_number 11
_symmetry_cell_setting 'monoclinic'
loop_
_space_group_symop_operation_xyz
x,y,z
-x,1/2+y,-z
-x,-y,-z
x,1/2-y,z
loop_
_atom_site_type_symbol
_atom_site_label
_atom_site_fract_x
_atom_site_fract_y
_atom_site_fract_z
Si Si1 0.365273 0.427013 0.153539
Si Si2 0.351840 0.414334 0.614097
Si Si3 0.895177 0.412406 0.405729
Si Si4 0.931946 0.428172 0.873126
Si Si5 0.894434 0.427667 0.235715
Si Si6 0.153769 0.077203 0.691114
Si Si7 0.611993 0.927765 0.940241
Si Si8 0.779845 0.424471 0.720385
O O1 0.376504 0.250000 0.163370
O O2 0.206721 0.497380 0.135446
O O3 0.608485 0.501465 0.237200
O O4 0.298951 0.454874 0.079045
O O5 0.422587 0.250000 0.656299
O O6 0.322682 0.535462 0.642470
O O7 0.515025 0.451350 0.629874
O O8 0.103643 0.397220 0.510360
O O9 0.860745 0.250000 0.372695
O O10 0.969179 0.538349 0.396883
O O11 0.932759 0.250000 0.881154
O O12 0.833193 0.455830 0.790480
O O13 0.187922 0.482742 0.960144
O O14 0.891443 0.250000 0.237506
O O15 0.952603 0.496699 0.303650
O O16 0.638800 0.483629 0.139070
O O17 0.067036 0.481380 0.258781
O O18 0.178470 0.250000 0.707935
O O19 0.593545 0.750000 0.939068
O O20 0.821269 0.250000 0.725526
#
# Coordination Sequence:
#
# PCOD9167809 Si02
#       8
#     4   4   4   4   4   4   4   4
#     4  10  19  32  51  78 111 140 173 217 263 311
#     4   9  19  35  54  80 115 147 173 209 258 312
#     4  10  19  33  56  84 112 140 173 213 259 311
#     4  10  19  32  52  77 107 142 177 214 261 315
#     4  10  21  38  56  74 101 137 179 224 265 306
#     4  11  21  35  56  79 104 136 176 217 264 320
#     4   8  17  33  51  74 105 139 174 217 264 309
#     4  10  21  36  53  75 104 139 178 216 258 310
#
# _framework density 19.753086
#
# number of rings (size 3 to 8) (size 9 to 14) (size 15 to 20)
#    0.000    2.250    0.000    4.125    0.000    3.000 
#    0.000    3.750    0.000    0.000    0.000    0.000 
#    0.000    0.000    0.000    0.000    0.000    0.000 
#
# Total GULP energy -178171.399496 kJ/mol
# GULP energy per Si atom -5567.856234 kJ/mol
# Density = 1.970813 g / cm^3
# Si number density = 19.753086 Si / 1000 Ang^3
#
#
#
# Elastic Constant Matrix: (Units=GPa)
#
#
# Indices 1 2 3 4 5 6 
#
# 1 110.3805 65.9604 22.8030 0.0000 38.4911 0.0000
# 2 65.9604 80.5923 15.7210 0.0000 5.1257 0.0000
# 3 22.8030 15.7210 20.8567 0.0000 -2.9667 0.0000
# 4 0.0000 0.0000 0.0000 3.3458 0.0000 0.3526
# 5 38.4911 5.1257 -2.9667 0.0000 4.1243 0.0000
# 6 0.0000 0.0000 0.0000 0.3526 0.0000 34.1474
#
#
#
# Elastic Compliance Matrix: (Units=1/GPa)
#
#
# Indices 1 2 3 4 5 6 
#
# 1 -0.002459 -0.001555 0.008244 0.000000 0.030813 0.000000
# 2 -0.001555 0.017500 -0.013946 0.000000 -0.017266 0.000000
# 3 0.008244 -0.013946 0.045636 0.000000 -0.026778 0.000000
# 4 0.000000 0.000000 0.000000 0.299209 0.000000 -0.003089
# 5 0.030813 -0.017266 -0.026778 0.000000 -0.042911 0.000000
# 6 0.000000 0.000000 0.000000 -0.003089 0.000000 0.029317
#
#
# Mechanical properties :
#
#
# Convention : Reuss Voigt Hill
#
# Bulk Modulus (GPa) = 21.66309 46.75539 34.20924
# Shear Modulus (GPa) = 13.29103 15.47984 14.38544
#
# Velocity S-wave (km/s) = 2.59677 2.80244 2.70156
# Velocity P-wave (km/s) = 4.47009 5.84747 5.20454
#
# Compressibility (1/GPa) = 0.04616147
#
# Stress axis : x y z
#
# Youngs Moduli (GPa) = -406.64110 57.14427 21.91246
#
# Poissons Ratio (x) = 0.08887 -0.18064
# Poissons Ratio (y) = -0.63240 0.30560
# Poissons Ratio (z) = 3.35229 0.79695
#
# Static dielectric constant tensor:
#      x y z
#    x 1.660750 0.000000 -0.042460 
#    y 0.000000 1.722970 0.000000 
#    z -0.042460 0.000000 1.844330 
# 
# From -- ./inp_files/66955.got.cif
#   From: 2010.05.17/outbox.ucp.g08.bks.cvg/sg11_34_cif.got.tgz:66955.got - 2010.06.11 11:38:39.
