data_PCOD9167812
_publ_section_title
;
Structure prediction by ZEFSAII (Michael W. Deem and Ramdas Pophale) SiO2 
 PCOD9167812
Probable space group: P 21/M
;
_chemical_formula_sum "Si O2"
_cell_formula_units_Z 32
_cell_length_a 21.000000
_cell_length_b 9.000000
_cell_length_c 15.000000
_cell_angle_alpha 90.000000
_cell_angle_beta 140.000000
_cell_angle_gamma 90.000000
_cell_volume 1822.302873
_symmetry_space_group_name_H-M "P 21/M"
_symmetry_group_IT_number 11
_symmetry_cell_setting 'monoclinic'
loop_
_space_group_symop_operation_xyz
x,y,z
-x,1/2+y,-z
-x,-y,-z
x,1/2-y,z
loop_
_atom_site_type_symbol
_atom_site_label
_atom_site_fract_x
_atom_site_fract_y
_atom_site_fract_z
Si Si1 0.110197 0.077486 0.466251
Si Si2 0.089238 0.923931 0.979638
Si Si3 0.643175 0.579181 0.106754
Si Si4 0.924084 0.923606 0.212756
Si Si5 0.155442 0.576080 0.696766
Si Si6 0.562499 0.078274 0.194386
Si Si7 0.858674 0.573809 0.785679
Si Si8 0.292697 0.422992 0.533355
O O1 0.077919 0.250000 0.424099
O O2 0.217861 0.068364 0.537416
O O3 0.111868 0.021497 0.569150
O O4 0.039733 0.966796 0.337116
O O5 0.105779 0.750000 0.981011
O O6 0.970650 0.944399 0.868246
O O7 0.119083 0.020432 0.926594
O O8 0.143369 0.979560 0.126486
O O9 0.680182 0.750000 0.151589
O O10 0.729016 0.463821 0.178827
O O11 0.597884 0.530347 0.152965
O O12 0.556082 0.573323 0.940380
O O13 0.908142 0.750000 0.209974
O O14 0.885238 0.019514 0.253423
O O15 0.136644 0.750000 0.661855
O O16 0.591894 0.250000 0.207796
O O17 0.613920 0.022219 0.339603
O O18 0.848175 0.750000 0.793347
O O19 0.774706 0.533424 0.623640
O O20 0.320971 0.250000 0.553008
#
# Coordination Sequence:
#
# PCOD9167812 Si02
#       8
#     4   4   4   4   4   4   4   4
#     4  11  21  36  52  73 105 140 176 215 251 296
#     4  10  19  34  52  74 102 133 171 215 256 299
#     4  10  20  35  51  72 102 135 170 214 259 302
#     4  12  24  37  53  73 101 140 178 215 255 303
#     4  12  24  37  53  74 100 136 179 219 255 304
#     4  10  20  32  51  76 103 133 171 212 255 308
#     4   9  18  33  51  74 102 134 169 208 257 304
#     4  10  19  32  52  75 106 140 170 209 256 305
#
# _framework density 17.560198
#
# number of rings (size 3 to 8) (size 9 to 14) (size 15 to 20)
#    0.000    1.500    2.500    4.125    0.000    3.000 
#    0.000    0.000    0.000    0.000    0.000    0.875 
#    0.000    0.000    0.000    0.000    0.000    0.000 
#
# Total GULP energy -178554.094429 kJ/mol
# GULP energy per Si atom -5579.815451 kJ/mol
# Density = 1.752023 g / cm^3
# Si number density = 17.560198 Si / 1000 Ang^3
#
#
#
# Elastic Constant Matrix: (Units=GPa)
#
#
# Indices 1 2 3 4 5 6 
#
# 1 18.3739 3.4430 4.3965 0.0000 -10.1521 0.0000
# 2 3.4430 48.1544 10.9358 0.0000 -11.2863 0.0000
# 3 4.3965 10.9358 89.1267 0.0000 -17.4220 0.0000
# 4 0.0000 0.0000 0.0000 31.2699 0.0000 -3.1193
# 5 -10.1521 -11.2863 -17.4220 0.0000 19.2338 0.0000
# 6 0.0000 0.0000 0.0000 -3.1193 0.0000 20.6236
#
#
#
# Elastic Compliance Matrix: (Units=1/GPa)
#
#
# Indices 1 2 3 4 5 6 
#
# 1 0.079651 0.004733 0.005166 0.000000 0.049498 0.000000
# 2 0.004733 0.024363 0.000073 0.000000 0.016861 0.000000
# 3 0.005166 0.000073 0.013971 0.000000 0.015425 0.000000
# 4 0.000000 0.000000 0.000000 0.032470 0.000000 0.004911
# 5 0.049498 0.016861 0.015425 0.000000 0.101984 0.000000
# 6 0.000000 0.000000 0.000000 0.004911 0.000000 0.049231
#
#
# Mechanical properties :
#
#
# Convention : Reuss Voigt Hill
#
# Bulk Modulus (GPa) = 7.25007 21.46729 14.35868
# Shear Modulus (GPa) = 15.25774 23.35078 19.30426
#
# Velocity S-wave (km/s) = 2.95088 3.65054 3.31919
# Velocity P-wave (km/s) = 3.96836 5.47906 4.78372
#
# Compressibility (1/GPa) = 0.13792967
#
# Stress axis : x y z
#
# Youngs Moduli (GPa) = 12.55475 41.04539 71.57504
#
# Poissons Ratio (x) = -0.19427 -0.36975
# Poissons Ratio (y) = -0.05942 -0.00522
# Poissons Ratio (z) = -0.06486 -0.00299
#
# Static dielectric constant tensor:
#      x y z
#    x 1.626430 0.000000 0.027580 
#    y 0.000000 1.592600 0.000000 
#    z 0.027580 0.000000 1.646660 
# 
# From -- ./inp_files/54341.got.cif
#   From: 2010.05.17/outbox.ucp.g08.bks.cvg/sg11_28_cif.got.tgz:54341.got - 2010.06.11 11:38:39.
