data_PCOD9167342
_publ_section_title
;
Structure prediction by ZEFSAII (Michael W. Deem and Ramdas Pophale) SiO2 
 PCOD9167342
Probable space group: P 21/M
;
_chemical_formula_sum "Si O2"
_cell_formula_units_Z 24
_cell_length_a 24.374436
_cell_length_b 9.042991
_cell_length_c 11.196386
_cell_angle_alpha 90.000000
_cell_angle_beta 151.799656
_cell_angle_gamma 90.000000
_cell_volume 1166.212977
_symmetry_space_group_name_H-M "P 21/M"
_symmetry_group_IT_number 11
_symmetry_cell_setting 'monoclinic'
loop_
_space_group_symop_operation_xyz
x,y,z
-x,1/2+y,-z
-x,-y,-z
x,1/2-y,z
loop_
_atom_site_type_symbol
_atom_site_label
_atom_site_fract_x
_atom_site_fract_y
_atom_site_fract_z
Si Si1 0.113714 0.914086 0.257082
Si Si2 0.526859 0.497961 0.841668
Si Si3 0.974581 0.918209 0.206243
Si Si4 0.927775 0.250000 0.406362
Si Si5 0.347095 0.750000 0.070095
Si Si6 0.876858 0.250000 0.035152
Si Si7 0.602509 0.250000 0.553365
Si Si8 0.663908 0.907575 0.337697
O O1 0.102578 0.750000 0.188993
O O2 0.095312 0.919549 0.364342
O O3 0.237929 0.971746 0.460376
O O4 0.000000 0.000000 0.000000
O O5 0.605386 0.389120 0.914086
O O6 0.462627 0.610431 0.629998
O O7 0.428746 0.417782 0.733912
O O8 0.601729 0.574372 0.090516
O O9 0.922085 0.750000 0.070068
O O10 0.007556 0.887974 0.406211
O O11 0.912659 0.077483 0.065060
O O12 0.931443 0.250000 0.272584
O O13 0.791783 0.250000 0.181503
O O14 0.398130 0.750000 0.303452
O O15 0.737355 0.250000 0.772957
O O16 0.724961 0.750000 0.457554
#
# Coordination Sequence:
#
# PCOD9167342 Si02
#       8
#     4   4   4   2   2   2   2   4
#     4  11  25  41  64  97 133 168 208 263 334 403
#     4  11  24  43  67  95 131 169 227 276 326 399
#     4   9  22  40  62  96 131 170 219 267 327 405
#     4   9  20  42  65  96 125 173 228 270 327 410
#     4  11  22  45  69  92 136 177 216 286 346 385
#     4  11  22  40  70  91 135 177 213 282 338 381
#     4  11  26  43  66  97 132 177 227 276 337 412
#     4  11  24  41  67  97 128 173 219 273 331 386
#
# _framework density 20.579432000000001
#
# number of rings (size 3 to 8) (size 9 to 14) (size 15 to 20)
#    0.500    1.000    1.667    2.500    7.000    0.000 
#    1.500    0.000    3.667    0.000    0.000    0.000 
#    0.000    0.000    0.000    0.000    0.000    0.000 
#
# Total GULP energy -133634.534121 kJ/mol
# GULP energy per Si atom -5568.105588 kJ/mol
# Density = 2.053259 g / cm^3
# Si number density = 20.579432 Si / 1000 Ang^3
#
#
#
# Elastic Constant Matrix: (Units=GPa)
#
#
# Indices 1 2 3 4 5 6 
#
# 1 72.3247 34.1922 6.9080 0.0000 -8.0209 0.0000
# 2 34.1922 153.7453 32.4533 0.0000 9.1687 0.0000
# 3 6.9080 32.4533 56.6245 0.0000 -3.5324 0.0000
# 4 0.0000 0.0000 0.0000 17.3010 0.0000 16.1135
# 5 -8.0209 9.1687 -3.5324 0.0000 35.8302 0.0000
# 6 0.0000 0.0000 0.0000 16.1135 0.0000 4.1410
#
#
#
# Elastic Compliance Matrix: (Units=1/GPa)
#
#
# Indices 1 2 3 4 5 6 
#
# 1 0.016186 -0.004011 0.000618 0.000000 0.004711 0.000000
# 2 -0.004011 0.008591 -0.004656 0.000000 -0.003555 0.000000
# 3 0.000618 -0.004656 0.020462 0.000000 0.003347 0.000000
# 4 0.000000 0.000000 0.000000 -0.022026 0.000000 0.085709
# 5 0.004711 -0.003555 0.003347 0.000000 0.030204 0.000000
# 6 0.000000 0.000000 0.000000 0.085709 0.000000 -0.092026
#
#
# Mechanical properties :
#
#
# Convention : Reuss Voigt Hill
#
# Bulk Modulus (GPa) = 34.31594 47.75574 41.03584
# Shear Modulus (GPa) = -390.74919 25.39718 -182.67601
#
# Velocity S-wave (km/s) = -13.79441 3.51679 -9.43181
# Velocity P-wave (km/s) = 15.39491 6.30447 9.93119
#
# Compressibility (1/GPa) = 0.02914098
#
# Stress axis : x y z
#
# Youngs Moduli (GPa) = 61.78091 116.39771 48.87038
#
# Poissons Ratio (x) = 0.46689 -0.03021
# Poissons Ratio (y) = 0.24781 0.22756
# Poissons Ratio (z) = -0.03819 0.54199
#
# Static dielectric constant tensor:
#      x y z
#    x 1.778440 0.000000 -0.051420 
#    y 0.000000 1.781230 0.000000 
#    z -0.051420 0.000000 1.684650 
# 
# From -- ./inp_files/44063.got.cif
#   From: 2010.05.17/outbox.cif.g08.bks.cpg/sg11_23_cif.got.tgz:44063.got - 2010.06.03 12:22:45.
