data_PCOD9167861
_publ_section_title
;
Structure prediction by ZEFSAII (Michael W. Deem and Ramdas Pophale) SiO2 
 PCOD9167861
Probable space group: P 21/M
;
_chemical_formula_sum "Si O2"
_cell_formula_units_Z 32
_cell_length_a 27.000000
_cell_length_b 9.000000
_cell_length_c 21.000000
_cell_angle_alpha 90.000000
_cell_angle_beta 160.000000
_cell_angle_gamma 90.000000
_cell_volume 1745.328791
_symmetry_space_group_name_H-M "P 21/M"
_symmetry_group_IT_number 11
_symmetry_cell_setting 'monoclinic'
loop_
_space_group_symop_operation_xyz
x,y,z
-x,1/2+y,-z
-x,-y,-z
x,1/2-y,z
loop_
_atom_site_type_symbol
_atom_site_label
_atom_site_fract_x
_atom_site_fract_y
_atom_site_fract_z
Si Si1 0.334526 0.074201 0.061498
Si Si2 0.168735 0.418164 0.631008
Si Si3 0.647307 0.427596 0.396871
Si Si4 0.824040 0.429455 0.016624
Si Si5 0.855446 0.570743 0.544685
Si Si6 0.136366 0.571517 0.078895
Si Si7 0.829717 0.072652 0.741835
Si Si8 0.174372 0.915863 0.761448
O O1 0.342438 0.250000 0.081334
O O2 0.482376 0.024377 0.206185
O O3 0.294581 0.996680 0.079484
O O4 0.214923 0.029752 0.865616
O O5 0.230103 0.250000 0.708954
O O6 0.174850 0.472321 0.565374
O O7 0.227504 0.525064 0.757199
O O8 0.999177 0.405639 0.444235
O O9 0.652711 0.250000 0.392018
O O10 0.738333 0.506546 0.451944
O O11 0.716865 0.456810 0.550026
O O12 0.816001 0.250000 0.009308
O O13 0.983502 0.472970 0.236383
O O14 0.811420 0.479640 0.927602
O O15 0.852344 0.750000 0.542357
O O16 0.132497 0.750000 0.070422
O O17 0.216719 0.530888 0.242178
O O18 0.975338 0.511519 0.897501
O O19 0.859304 0.250000 0.778141
O O20 0.230930 0.750000 0.843318
#
# Coordination Sequence:
#
# PCOD9167861 Si02
#       8
#     4   4   4   4   4   4   4   4
#     4  11  23  37  53  75 108 147 180 216 262 314
#     4   9  18  33  53  80 109 134 167 217 267 313
#     4  10  22  37  52  76 110 144 180 218 261 316
#     4  10  19  34  54  80 108 135 177 225 265 312
#     4  10  19  34  56  81 108 136 174 222 265 310
#     4   9  17  30  52  79 106 134 171 221 268 310
#     4   9  17  31  51  76 106 140 174 214 265 314
#     4  10  19  34  55  80 108 137 173 217 263 314
#
# _framework density 18.334654
#
# number of rings (size 3 to 8) (size 9 to 14) (size 15 to 20)
#    0.000    2.250    2.500    0.750    0.000    3.000 
#    0.000    1.250    0.000    0.000    0.000    0.000 
#    0.000    0.000    0.000    0.000    0.000    0.000 
#
# Total GULP energy -178260.189114 kJ/mol
# GULP energy per Si atom -5570.630910 kJ/mol
# Density = 1.829292 g / cm^3
# Si number density = 18.334654 Si / 1000 Ang^3
#
#
#
# Elastic Constant Matrix: (Units=GPa)
#
#
# Indices 1 2 3 4 5 6 
#
# 1 143.4236 32.7006 12.9116 0.0000 -12.0503 0.0000
# 2 32.7006 8.3535 5.8618 0.0000 3.2941 0.0000
# 3 12.9116 5.8618 3.3113 0.0000 6.7885 0.0000
# 4 0.0000 0.0000 0.0000 10.1769 0.0000 4.9551
# 5 -12.0503 3.2941 6.7885 0.0000 23.1337 0.0000
# 6 0.0000 0.0000 0.0000 4.9551 0.0000 31.3735
#
#
#
# Elastic Compliance Matrix: (Units=1/GPa)
#
#
# Indices 1 2 3 4 5 6 
#
# 1 1.010812 -2.617040 -2.891599 0.000000 1.747720 0.000000
# 2 -2.617040 6.678357 7.847461 0.000000 -4.617005 0.000000
# 3 -2.891599 7.847461 7.690509 0.000000 -4.880439 0.000000
# 4 0.000000 0.000000 0.000000 0.106447 0.000000 -0.016812
# 5 1.747720 -4.617005 -4.880439 0.000000 3.043209 0.000000
# 6 0.000000 0.000000 0.000000 -0.016812 0.000000 0.034529
#
#
# Mechanical properties :
#
#
# Convention : Reuss Voigt Hill
#
# Bulk Modulus (GPa) = 0.04986 28.67069 14.36027
# Shear Modulus (GPa) = 0.24305 19.84445 10.04375
#
# Velocity S-wave (km/s) = 0.36449 3.29347 2.34305
# Velocity P-wave (km/s) = 0.45209 5.48944 3.89476
#
# Compressibility (1/GPa) = 20.05732132
#
# Stress axis : x y z
#
# Youngs Moduli (GPa) = 0.98930 0.14974 0.13003
#
# Poissons Ratio (x) = 0.39187 0.37600
# Poissons Ratio (y) = 2.58905 -1.02041
# Poissons Ratio (z) = 2.86067 -1.17506
#
# Static dielectric constant tensor:
#      x y z
#    x 1.625180 0.000000 -0.031420 
#    y 0.000000 1.643200 0.000000 
#    z -0.031420 0.000000 1.658810 
# 
# From -- ./inp_files/67216.got.cif
#   From: 2010.05.17/outbox.ucp.g08.bks.cvg/sg11_34_cif.got.tgz:67216.got - 2010.06.11 11:38:39.
