data_PCOD9167397
_publ_section_title
;
Structure prediction by ZEFSAII (Michael W. Deem and Ramdas Pophale) SiO2 
 PCOD9167397
Probable space group: P 21/M
;
_chemical_formula_sum "Si O2"
_cell_formula_units_Z 20
_cell_length_a 19.843093
_cell_length_b 8.099609
_cell_length_c 8.427867
_cell_angle_alpha 90.000000
_cell_angle_beta 37.833996
_cell_angle_gamma 90.000000
_cell_volume 830.840613
_symmetry_space_group_name_H-M "P 21/M"
_symmetry_group_IT_number 11
_symmetry_cell_setting 'monoclinic'
loop_
_space_group_symop_operation_xyz
x,y,z
-x,1/2+y,-z
-x,-y,-z
x,1/2-y,z
loop_
_atom_site_type_symbol
_atom_site_label
_atom_site_fract_x
_atom_site_fract_y
_atom_site_fract_z
Si Si1 0.383101 0.061939 0.654045
Si Si2 0.154681 0.565169 0.140906
Si Si3 0.769082 0.945514 0.672365
Si Si4 0.485747 0.446912 0.849766
Si Si5 0.885264 0.446221 0.138151
O O1 0.356099 0.250000 0.750828
O O2 0.500000 0.000000 0.500000
O O3 0.285558 0.939580 0.870375
O O4 0.415361 0.049031 0.412410
O O5 0.109037 0.750000 0.235508
O O6 0.119972 0.484966 0.034928
O O7 0.150382 0.492572 0.328703
O O8 0.773694 0.750000 0.650179
O O9 0.800854 0.012316 0.438835
O O10 0.642019 0.988874 0.953060
O O11 0.500749 0.250000 0.795058
O O12 0.500000 0.500000 0.000000
O O13 0.878944 0.250000 0.128427
O O14 0.000000 0.500000 0.000000
#
# Coordination Sequence:
#
# PCOD9167397 Si02
#       5
#     4   4   4   4   4
#     4  12  23  37  60  91 130 172 213 260 314 379
#     4  11  24  43  69  99 133 174 222 272 328 393
#     4  11  24  42  67  97 131 173 220 269 329 394
#     4  11  23  38  59  91 129 173 219 264 320 383
#     4  11  26  47  71  98 129 168 218 277 338 397
#
# _framework density 24.072006999999999
#
# number of rings (size 3 to 8) (size 9 to 14) (size 15 to 20)
#    0.000    0.800    2.000    5.400    0.000    9.600 
#    0.000    0.000    0.000    0.000    0.000    0.000 
#    0.000    0.000    0.000    0.000    0.000    0.000 
#
# Total GULP energy -111502.137113 kJ/mol
# GULP energy per Si atom -5575.106856 kJ/mol
# Density = 2.401722 g / cm^3
# Si number density = 24.072007 Si / 1000 Ang^3
#
#
#
# Elastic Constant Matrix: (Units=GPa)
#
#
# Indices 1 2 3 4 5 6 
#
# 1 150.7963 9.8587 -0.2703 0.0000 27.0941 0.0000
# 2 9.8587 65.4897 8.0137 0.0000 5.8584 0.0000
# 3 -0.2703 8.0137 61.4160 0.0000 5.1254 0.0000
# 4 0.0000 0.0000 0.0000 32.1138 0.0000 7.7098
# 5 27.0941 5.8584 5.1254 0.0000 36.5043 0.0000
# 6 0.0000 0.0000 0.0000 7.7098 0.0000 26.5393
#
#
#
# Elastic Compliance Matrix: (Units=1/GPa)
#
#
# Indices 1 2 3 4 5 6 
#
# 1 0.007701 -0.000725 0.000603 0.000000 -0.005684 0.000000
# 2 -0.000725 0.015767 -0.001917 0.000000 -0.001723 0.000000
# 3 0.000603 -0.001917 0.016743 0.000000 -0.002491 0.000000
# 4 0.000000 0.000000 0.000000 0.033474 0.000000 -0.009724
# 5 -0.005684 -0.001723 -0.002491 0.000000 0.032239 0.000000
# 6 0.000000 0.000000 0.000000 -0.009724 0.000000 0.040505
#
#
# Mechanical properties :
#
#
# Convention : Reuss Voigt Hill
#
# Bulk Modulus (GPa) = 27.67431 34.76737 31.22084
# Shear Modulus (GPa) = 30.75944 36.37147 33.56546
#
# Velocity S-wave (km/s) = 3.57852 3.89130 3.73819
# Velocity P-wave (km/s) = 5.34751 5.88762 5.62405
#
# Compressibility (1/GPa) = 0.03613460
#
# Stress axis : x y z
#
# Youngs Moduli (GPa) = 129.84915 63.42215 59.72648
#
# Poissons Ratio (x) = 0.04596 -0.03600
# Poissons Ratio (y) = 0.09409 0.11448
# Poissons Ratio (z) = -0.07828 0.12156
#
# Static dielectric constant tensor:
#      x y z
#    x 0.270960 0.000000 -2.088290 
#    y 0.000000 -1.235300 0.000000 
#    z -2.088290 0.000000 -0.698120 
# 
# From -- ./inp_files/15886.got.cif
#   From: 2010.05.17/outbox.cif.g08.bks.cpg/sg11_8_cif.got.tgz:15886.got - 2010.06.03 12:22:45.
