data_PCOD9167223
_publ_section_title
;
Structure prediction by ZEFSAII (Michael W. Deem and Ramdas Pophale) SiO2 
 PCOD9167223
Probable space group: P 21/M
;
_chemical_formula_sum "Si O2"
_cell_formula_units_Z 22
_cell_length_a 8.618325
_cell_length_b 13.410718
_cell_length_c 17.123656
_cell_angle_alpha 90.000000
_cell_angle_beta 147.863391
_cell_angle_gamma 90.000000
_cell_volume 1052.770791
_symmetry_space_group_name_H-M "P 21/M"
_symmetry_group_IT_number 11
_symmetry_cell_setting 'monoclinic'
loop_
_space_group_symop_operation_xyz
x,y,z
-x,1/2+y,-z
-x,-y,-z
x,1/2-y,z
loop_
_atom_site_type_symbol
_atom_site_label
_atom_site_fract_x
_atom_site_fract_y
_atom_site_fract_z
Si Si1 0.820474 0.250000 0.987603
Si Si2 0.244370 0.575535 0.916544
Si Si3 0.484902 0.250000 0.224040
Si Si4 0.509135 0.750000 0.321134
Si Si5 0.833889 0.028609 0.643281
Si Si6 0.008526 0.587734 0.564704
Si Si7 0.935115 0.250000 0.723458
Si Si8 0.524441 0.250000 0.066855
O O1 0.741588 0.145990 0.000596
O O2 0.176919 0.250000 0.137457
O O3 0.652482 0.250000 0.832503
O O4 0.961091 0.508875 0.781004
O O5 0.500000 0.500000 0.000000
O O6 0.267748 0.658189 0.859601
O O7 0.701109 0.155088 0.324074
O O8 0.387168 0.250000 0.092332
O O9 0.270310 0.750000 0.287994
O O10 0.726054 0.656890 0.428291
O O11 0.880108 0.147023 0.654906
O O12 0.500000 0.000000 0.500000
O O13 0.984814 0.968602 0.637448
O O14 0.000000 0.500000 0.500000
O O15 0.267400 0.250000 0.894405
#
# Coordination Sequence:
#
# PCOD9167223 Si02
#       8
#     2   4   2   2   4   4   2   2
#     4  11  28  43  77 107 144 192 245 295 361 440
#     4  11  25  45  70 104 140 188 240 291 353 426
#     4  11  24  46  70 101 141 188 240 293 355 434
#     4  11  25  47  67 107 142 186 242 299 358 422
#     4  12  26  45  74 105 144 189 242 295 358 429
#     4  11  27  46  70 100 145 189 234 298 363 424
#     4  12  24  42  74 108 143 182 242 305 352 425
#     4  11  21  42  70  97 140 184 233 294 350 411
#
# _framework density 20.897234000000001
#
# number of rings (size 3 to 8) (size 9 to 14) (size 15 to 20)
#    0.000    0.727    6.364    0.000    5.091    2.909 
#    0.000    2.727    0.000    0.000    0.000    0.000 
#    0.000    0.000    0.000    0.000    0.000    0.000 
#
# Total GULP energy -122674.927738 kJ/mol
# GULP energy per Si atom -5576.133079 kJ/mol
# Density = 2.084967 g / cm^3
# Si number density = 20.897234 Si / 1000 Ang^3
#
#
#
# Elastic Constant Matrix: (Units=GPa)
#
#
# Indices 1 2 3 4 5 6 
#
# 1 88.5203 49.1628 31.5795 0.0000 -2.0788 0.0000
# 2 49.1628 191.3257 61.3269 0.0000 -7.9736 0.0000
# 3 31.5795 61.3269 117.5505 0.0000 4.6426 0.0000
# 4 0.0000 0.0000 0.0000 27.4707 0.0000 0.3012
# 5 -2.0788 -7.9736 4.6426 0.0000 32.3765 0.0000
# 6 0.0000 0.0000 0.0000 0.3012 0.0000 8.8342
#
#
#
# Elastic Compliance Matrix: (Units=1/GPa)
#
#
# Indices 1 2 3 4 5 6 
#
# 1 0.013645 -0.002766 -0.002243 0.000000 0.000517 0.000000
# 2 -0.002766 0.006972 -0.002972 0.000000 0.001966 0.000000
# 3 -0.002243 -0.002972 0.010756 0.000000 -0.002418 0.000000
# 4 0.000000 0.000000 0.000000 0.036416 0.000000 -0.001241
# 5 0.000517 0.001966 -0.002418 0.000000 0.031751 0.000000
# 6 0.000000 0.000000 0.000000 -0.001241 0.000000 0.113239
#
#
# Mechanical properties :
#
#
# Convention : Reuss Voigt Hill
#
# Bulk Modulus (GPa) = 64.88870 75.72609 70.30740
# Shear Modulus (GPa) = 21.37878 30.75811 26.06845
#
# Velocity S-wave (km/s) = 3.20198 3.84066 3.53577
# Velocity P-wave (km/s) = 6.69245 7.48222 7.09833
#
# Compressibility (1/GPa) = 0.01541100
#
# Stress axis : x y z
#
# Youngs Moduli (GPa) = 73.28538 143.43330 92.97472
#
# Poissons Ratio (x) = 0.39669 0.20857
# Poissons Ratio (y) = 0.20268 0.27631
# Poissons Ratio (z) = 0.16440 0.42627
#
# Static dielectric constant tensor:
#      x y z
#    x 1.776380 0.000000 -0.022910 
#    y 0.000000 1.756090 0.000000 
#    z -0.022910 0.000000 1.784260 
# 
# From -- ./inp_files/58174.got.cif
#   From: 2010.05.17/outbox.cif.g08.bks.cpg/sg11_30_cif.got.tgz:58174.got - 2010.06.03 12:22:45.
