data_PCOD9167968
_publ_section_title
;
Structure prediction by ZEFSAII (Michael W. Deem and Ramdas Pophale) SiO2 
 PCOD9167968
Probable space group: P 21/M
;
_chemical_formula_sum "Si O2"
_cell_formula_units_Z 28
_cell_length_a 9.000000
_cell_length_b 9.000000
_cell_length_c 18.000000
_cell_angle_alpha 90.000000
_cell_angle_beta 90.000000
_cell_angle_gamma 90.000000
_cell_volume 1458.000000
_symmetry_space_group_name_H-M "P 21/M"
_symmetry_group_IT_number 11
_symmetry_cell_setting 'monoclinic'
loop_
_space_group_symop_operation_xyz
x,y,z
-x,1/2+y,-z
-x,-y,-z
x,1/2-y,z
loop_
_atom_site_type_symbol
_atom_site_label
_atom_site_fract_x
_atom_site_fract_y
_atom_site_fract_z
Si Si1 0.674649 0.071263 0.151791
Si Si2 0.401265 0.573760 0.682430
Si Si3 0.778426 0.572557 0.449422
Si Si4 0.705611 0.074221 0.732251
Si Si5 0.639750 0.071530 0.896542
Si Si6 0.843391 0.570959 0.022630
Si Si7 0.883971 0.426835 0.592082
O O1 0.672942 0.250000 0.140669
O O2 0.686276 0.042374 0.240177
O O3 0.520383 0.000145 0.121550
O O4 0.799776 0.991831 0.103367
O O5 0.401072 0.750000 0.670620
O O6 0.334672 0.494921 0.610111
O O7 0.565527 0.516714 0.702000
O O8 0.763066 0.750000 0.451412
O O9 0.777157 0.507670 0.532843
O O10 0.945192 0.532203 0.421984
O O11 0.669733 0.250000 0.725961
O O12 0.729796 0.046621 0.819424
O O13 0.839084 0.041221 0.676497
O O14 0.626910 0.250000 0.909443
O O15 0.720635 0.991595 0.964634
O O16 0.846934 0.750000 0.021564
O O17 0.000000 0.500000 0.000000
O O18 0.870288 0.250000 0.579384
#
# Coordination Sequence:
#
# PCOD9167968 Si02
#       7
#     4   4   4   4   4   4   4
#     4  10  21  39  60  83 111 146 186 226 273 328
#     4  10  21  36  56  82 111 142 179 224 270 319
#     4  10  20  34  54  79 108 144 183 223 272 327
#     4   9  19  36  58  82 108 140 180 225 271 321
#     4  10  20  37  60  85 112 145 184 226 276 331
#     4  12  25  40  58  83 114 147 184 228 275 324
#     4   9  19  36  55  77 106 141 182 225 270 323
#
# _framework density 19.20439
#
# number of rings (size 3 to 8) (size 9 to 14) (size 15 to 20)
#    0.000    2.000    0.000    3.429    0.000    5.143 
#    0.000    1.429    0.000    0.000    0.000    0.000 
#    0.000    0.000    0.000    0.000    0.000    0.000 
#
# Total GULP energy -156347.815660 kJ/mol
# GULP energy per Si atom -5583.850559 kJ/mol
# Density = 1.916068 g / cm^3
# Si number density = 19.204390 Si / 1000 Ang^3
#
#
#
# Elastic Constant Matrix: (Units=GPa)
#
#
# Indices 1 2 3 4 5 6 
#
# 1 4.2740 -4.7256 -15.3846 0.0000 -10.5010 0.0000
# 2 -4.7256 64.7499 7.6790 0.0000 -6.3413 0.0000
# 3 -15.3846 7.6790 35.5529 0.0000 -12.8012 0.0000
# 4 0.0000 0.0000 0.0000 30.1934 0.0000 1.6263
# 5 -10.5010 -6.3413 -12.8012 0.0000 36.6720 0.0000
# 6 0.0000 0.0000 0.0000 1.6263 0.0000 25.9810
#
#
#
# Elastic Compliance Matrix: (Units=1/GPa)
#
#
# Indices 1 2 3 4 5 6 
#
# 1 -0.094602 -0.004817 -0.057131 0.000000 -0.047865 0.000000
# 2 -0.004817 0.015706 -0.005713 0.000000 -0.000658 0.000000
# 3 -0.057131 -0.005713 -0.001838 0.000000 -0.017989 0.000000
# 4 0.000000 0.000000 0.000000 0.033232 0.000000 -0.002080
# 5 -0.047865 -0.000658 -0.017989 0.000000 0.007169 0.000000
# 6 0.000000 0.000000 0.000000 -0.002080 0.000000 0.038620
#
#
# Mechanical properties :
#
#
# Convention : Reuss Voigt Hill
#
# Bulk Modulus (GPa) = -4.62842 8.85714 2.11436
# Shear Modulus (GPa) = 81.18267 26.36981 53.77624
#
# Velocity S-wave (km/s) = 6.50882 3.70957 5.29744
# Velocity P-wave (km/s) = 7.35330 4.79270 6.20649
#
# Compressibility (1/GPa) = -0.21605629
#
# Stress axis : x y z
#
# Youngs Moduli (GPa) = -10.57056 63.67133 -544.09478
#
# Poissons Ratio (x) = 0.30668 -31.08458
# Poissons Ratio (y) = -0.05091 -3.10861
# Poissons Ratio (z) = -0.60390 0.36378
#
# Static dielectric constant tensor:
#      x y z
#    x 1.672550 0.000000 -0.049170 
#    y 0.000000 1.636900 0.000000 
#    z -0.049170 0.000000 1.676160 
# 
# From -- ./inp_files/57518.got.cif
#   From: 2010.05.17/outbox.ucp.g08.bks.cvg/sg11_29_cif.got.tgz:57518.got - 2010.06.11 11:38:39.
