data_PCOD9167252
_publ_section_title
;
Structure prediction by ZEFSAII (Michael W. Deem and Ramdas Pophale) SiO2 
 PCOD9167252
Probable space group: P 21/M
;
_chemical_formula_sum "Si O2"
_cell_formula_units_Z 32
_cell_length_a 28.385382
_cell_length_b 9.065788
_cell_length_c 23.109750
_cell_angle_alpha 90.000000
_cell_angle_beta 162.056740
_cell_angle_gamma 90.000000
_cell_volume 1832.112018
_symmetry_space_group_name_H-M "P 21/M"
_symmetry_group_IT_number 11
_symmetry_cell_setting 'monoclinic'
loop_
_space_group_symop_operation_xyz
x,y,z
-x,1/2+y,-z
-x,-y,-z
x,1/2-y,z
loop_
_atom_site_type_symbol
_atom_site_label
_atom_site_fract_x
_atom_site_fract_y
_atom_site_fract_z
Si Si1 0.658475 0.926225 0.664535
Si Si2 0.219647 0.574188 0.087024
Si Si3 0.154042 0.573477 0.656550
Si Si4 0.460177 0.926441 0.083735
Si Si5 0.451149 0.425926 0.585154
Si Si6 0.767474 0.925476 0.372648
Si Si7 0.615538 0.425483 0.371356
Si Si8 0.090636 0.426252 0.340679
O O1 0.648349 0.750000 0.658750
O O2 0.664725 0.959062 0.603406
O O3 0.500000 0.000000 0.500000
O O4 0.781195 0.991119 0.852475
O O5 0.219962 0.750000 0.098414
O O6 0.378226 0.540400 0.239221
O O7 0.075188 0.538230 0.878310
O O8 0.138175 0.750000 0.637328
O O9 0.192762 0.514597 0.637945
O O10 0.000000 0.500000 0.500000
O O11 0.298377 0.536481 0.866280
O O12 0.466739 0.750000 0.101864
O O13 0.599089 0.960348 0.201571
O O14 0.495793 0.009474 0.184805
O O15 0.444265 0.250000 0.588478
O O16 0.417734 0.513996 0.603835
O O17 0.772367 0.750000 0.366021
O O18 0.883860 0.956578 0.561557
O O19 0.613329 0.250000 0.367443
O O20 0.779025 0.487251 0.541373
O O21 0.117000 0.250000 0.364137
#
# Coordination Sequence:
#
# PCOD9167252 Si02
#       8
#     4   4   4   4   4   4   4   4
#     4   9  17  30  50  75 103 136 174 215 260 311
#     4   9  18  33  55  79 102 135 177 217 259 310
#     4  11  23  37  55  81 111 140 171 212 260 306
#     4   9  20  39  59  76 101 141 178 208 255 317
#     4   9  18  33  52  75 105 140 174 210 260 318
#     4   9  18  35  58  80 103 136 177 215 254 307
#     4  11  22  34  53  81 107 134 174 221 260 299
#     4   9  19  37  57  77 106 142 174 208 260 320
#
# _framework density 17.466180999999999
#
# number of rings (size 3 to 8) (size 9 to 14) (size 15 to 20)
#    0.000    2.500    0.000    3.750    0.000    7.000 
#    0.000    3.125    0.000    0.000    0.000    0.000 
#    0.000    0.000    0.000    0.000    0.000    0.000 
#
# Total GULP energy -178483.810403 kJ/mol
# GULP energy per Si atom -5577.619075 kJ/mol
# Density = 1.742643 g / cm^3
# Si number density = 17.466181 Si / 1000 Ang^3
#
#
#
# Elastic Constant Matrix: (Units=GPa)
#
#
# Indices 1 2 3 4 5 6 
#
# 1 -877.9070 -620.2445-1214.5384 0.0000 183.0203 0.0000
# 2 -620.2445 -413.5554 -822.7244 0.0000 128.6825 0.0000
# 3 -1214.5384 -822.7244-1502.7986 0.0000 247.0349 0.0000
# 4 0.0000 0.0000 0.0000 25.2149 0.0000 -7.4193
# 5 183.0203 128.6825 247.0349 0.0000 -27.8911 0.0000
# 6 0.0000 0.0000 0.0000 -7.4193 0.0000 32.4955
#
#
#
# Elastic Compliance Matrix: (Units=1/GPa)
#
#
# Indices 1 2 3 4 5 6 
#
# 1 0.023254 -0.025074 -0.002194 0.000000 0.017474 0.000000
# 2 -0.025074 0.056914 -0.011457 0.000000 -0.003432 0.000000
# 3 -0.002194 -0.011457 0.008062 0.000000 0.004147 0.000000
# 4 0.000000 0.000000 0.000000 0.042515 0.000000 0.009707
# 5 0.017474 -0.003432 0.004147 0.000000 0.099713 0.000000
# 6 0.000000 0.000000 0.000000 0.009707 0.000000 0.032990
#
#
# Mechanical properties :
#
#
# Convention : Reuss Voigt Hill
#
# Bulk Modulus (GPa) = 92.77891 -901.03061 -404.12585
# Shear Modulus (GPa) = 14.51412 -3.15307 5.68053
#
# Velocity S-wave (km/s) = 2.88581 -1.34505 1.80537
# Velocity P-wave (km/s) = 8.02112 22.79043 15.08419
#
# Compressibility (1/GPa) = 0.01077831
#
# Stress axis : x y z
#
# Youngs Moduli (GPa) = 43.00292 17.57046 124.04010
#
# Poissons Ratio (x) = 0.44057 0.27213
# Poissons Ratio (y) = 1.07827 1.42118
# Poissons Ratio (z) = 0.09435 0.20131
#
# Static dielectric constant tensor:
#      x y z
#    x 1.573030 0.000000 -0.014220 
#    y 0.000000 1.580330 0.000000 
#    z -0.014220 0.000000 1.607110 
# 
# From -- ./inp_files/67229.got.cif
#   From: 2010.05.17/outbox.cif.g08.bks.cpg/sg11_34_cif.got.tgz:67229.got - 2010.06.03 12:22:45.
