data_PCOD9167909
_publ_section_title
;
Structure prediction by ZEFSAII (Michael W. Deem and Ramdas Pophale) SiO2 
 PCOD9167909
Probable space group: P 21/M
;
_chemical_formula_sum "Si O2"
_cell_formula_units_Z 28
_cell_length_a 30.000000
_cell_length_b 9.000000
_cell_length_c 30.000000
_cell_angle_alpha 90.000000
_cell_angle_beta 10.000000
_cell_angle_gamma 90.000000
_cell_volume 1406.550239
_symmetry_space_group_name_H-M "P 21/M"
_symmetry_group_IT_number 11
_symmetry_cell_setting 'monoclinic'
loop_
_space_group_symop_operation_xyz
x,y,z
-x,1/2+y,-z
-x,-y,-z
x,1/2-y,z
loop_
_atom_site_type_symbol
_atom_site_label
_atom_site_fract_x
_atom_site_fract_y
_atom_site_fract_z
Si Si1 0.023226 0.921737 0.023204
Si Si2 0.551739 0.574288 0.551749
Si Si3 0.739405 0.069936 0.739401
Si Si4 0.688859 0.071885 0.689074
Si Si5 0.596612 0.420994 0.596698
Si Si6 0.885028 0.076531 0.884938
Si Si7 0.161836 0.070440 0.161863
O O1 0.018107 0.750000 0.017968
O O2 0.287266 0.951645 0.787541
O O3 0.787547 0.951602 0.287260
O O4 0.000000 0.000000 0.000000
O O5 0.559462 0.750000 0.559536
O O6 0.570617 0.451303 0.570630
O O7 0.740894 0.250000 0.740885
O O8 0.713907 0.017568 0.713878
O O9 0.000000 0.000000 0.500000
O O10 0.500000 0.000000 0.000000
O O11 0.690054 0.250000 0.690736
O O12 0.927487 0.032286 0.424213
O O13 0.424072 0.032084 0.927638
O O14 0.603183 0.250000 0.603317
O O15 0.855203 0.501364 0.355441
O O16 0.355367 0.501384 0.855276
O O17 0.889501 0.250000 0.889383
O O18 0.859433 0.032792 0.859307
O O19 0.156773 0.250000 0.156510
#
# Coordination Sequence:
#
# PCOD9167909 Si02
#       7
#     4   4   4   4   4   4   4
#     4  10  21  36  57  83 115 153 195 240 293 351
#     4  10  21  38  58  84 117 155 194 243 302 352
#     4  11  22  39  61  89 121 159 202 247 300 358
#     4   9  19  35  58  83 114 155 198 241 294 354
#     4  12  25  42  65  93 121 159 208 253 293 355
#     4  12  25  42  63  91 126 161 194 245 310 365
#     4  10  19  36  60  85 112 152 202 247 287 349
#
# _framework density 19.906860999999999
#
# number of rings (size 3 to 8) (size 9 to 14) (size 15 to 20)
#    0.000    1.429    0.000    6.000    0.000    5.714 
#    0.000    4.286    0.000    0.000    0.000    0.000 
#    0.000    0.000    0.000    0.000    0.000    0.000 
#
# Total GULP energy -156239.886069 kJ/mol
# GULP energy per Si atom -5579.995931 kJ/mol
# Density = 1.986155 g / cm^3
# Si number density = 19.906861 Si / 1000 Ang^3
#
#
#
# Elastic Constant Matrix: (Units=GPa)
#
#
# Indices 1 2 3 4 5 6 
#
# 1 78.1725 64.1542 61.6290 0.0000 -27.1300 0.0000
# 2 64.1542 97.7685 92.3343 0.0000 -2.2055 0.0000
# 3 61.6290 92.3343 204.6704 0.0000 17.5967 0.0000
# 4 0.0000 0.0000 0.0000 31.5000 0.0000 -0.1303
# 5 -27.1300 -2.2055 17.5967 0.0000 161.3252 0.0000
# 6 0.0000 0.0000 0.0000 -0.1303 0.0000 29.8257
#
#
#
# Elastic Compliance Matrix: (Units=1/GPa)
#
#
# Indices 1 2 3 4 5 6 
#
# 1 0.031413 -0.019420 -0.001140 0.000000 0.005142 0.000000
# 2 -0.019420 0.030034 -0.007527 0.000000 -0.002034 0.000000
# 3 -0.001140 -0.007527 0.008732 0.000000 -0.001247 0.000000
# 4 0.000000 0.000000 0.000000 0.031747 0.000000 0.000139
# 5 0.005142 -0.002034 -0.001247 0.000000 0.007172 0.000000
# 6 0.000000 0.000000 0.000000 0.000139 0.000000 0.033529
#
#
# Mechanical properties :
#
#
# Convention : Reuss Voigt Hill
#
# Bulk Modulus (GPa) = 71.40196 90.76072 81.08134
# Shear Modulus (GPa) = 24.57382 55.36308 39.96845
#
# Velocity S-wave (km/s) = 3.51727 5.27934 4.48568
# Velocity P-wave (km/s) = 7.24160 9.10239 8.22479
#
# Compressibility (1/GPa) = 0.01400522
#
# Stress axis : x y z
#
# Youngs Moduli (GPa) = 31.83402 33.29522 114.52196
#
# Poissons Ratio (x) = 0.64661 0.13051
# Poissons Ratio (y) = 0.61823 0.86200
# Poissons Ratio (z) = 0.03628 0.25061
#
# Static dielectric constant tensor:
#      x y z
#    x 1.802870 0.000000 0.016060 
#    y 0.000000 1.677810 0.000000 
#    z 0.016060 0.000000 1.612920 
# 
# From -- ./inp_files/73857.got.cif
#   From: 2010.05.17/outbox.ucp.g08.bks.cvg/sg11_37_cif.got.tgz:73857.got - 2010.06.11 11:38:39.
