data_PCOD9167842
_publ_section_title
;
Structure prediction by ZEFSAII (Michael W. Deem and Ramdas Pophale) SiO2 
 PCOD9167842
Probable space group: P 21/M
;
_chemical_formula_sum "Si O2"
_cell_formula_units_Z 28
_cell_length_a 9.000000
_cell_length_b 15.000000
_cell_length_c 12.000000
_cell_angle_alpha 90.000000
_cell_angle_beta 110.000000
_cell_angle_gamma 90.000000
_cell_volume 1522.302046
_symmetry_space_group_name_H-M "P 21/M"
_symmetry_group_IT_number 11
_symmetry_cell_setting 'monoclinic'
loop_
_space_group_symop_operation_xyz
x,y,z
-x,1/2+y,-z
-x,-y,-z
x,1/2-y,z
loop_
_atom_site_type_symbol
_atom_site_label
_atom_site_fract_x
_atom_site_fract_y
_atom_site_fract_z
Si Si1 0.184406 0.642553 0.919329
Si Si2 0.200641 0.644418 0.188065
Si Si3 0.579038 0.999113 0.646022
Si Si4 0.907087 0.851163 0.270173
Si Si5 0.298781 0.531858 0.748797
Si Si6 0.031761 0.896813 0.535048
Si Si7 0.147730 0.352353 0.290428
O O1 0.211025 0.750000 0.913075
O O2 0.297665 0.583714 0.867426
O O3 0.005504 0.625178 0.826212
O O4 0.200219 0.621002 0.055414
O O5 0.235563 0.750000 0.204710
O O6 0.323196 0.587748 0.293988
O O7 0.027272 0.631167 0.199012
O O8 0.452434 0.985882 0.713157
O O9 0.708069 0.919964 0.685338
O O10 0.500000 0.000000 0.500000
O O11 0.839308 0.750000 0.240299
O O12 0.010325 0.850603 0.411034
O O13 0.787740 0.935304 0.253040
O O14 0.196519 0.598058 0.642444
O O15 0.910373 0.861051 0.596220
O O16 0.000000 0.000000 0.500000
O O17 0.191659 0.250000 0.278679
#
# Coordination Sequence:
#
# PCOD9167842 Si02
#       7
#     4   4   4   4   4   4   4
#     4   9  20  41  64  84 106 143 200 251 288 332
#     4  10  22  40  62  85 112 149 193 243 291 337
#     4  12  24  37  55  86 126 159 188 228 290 361
#     4  10  19  33  55  81 109 147 194 237 282 339
#     4  10  21  34  55  83 114 150 188 236 290 344
#     4   9  16  32  54  77 106 143 190 236 276 326
#     4  10  21  37  59  83 111 151 195 241 287 338
#
# _framework density 18.393196
#
# number of rings (size 3 to 8) (size 9 to 14) (size 15 to 20)
#    0.000    2.000    0.000    5.571    0.000    5.143 
#    0.000    0.000    0.000    3.429    0.000    0.000 
#    0.000    0.000    0.000    0.000    0.000    0.000 
#
# Total GULP energy -156091.353807 kJ/mol
# GULP energy per Si atom -5574.691207 kJ/mol
# Density = 1.835133 g / cm^3
# Si number density = 18.393196 Si / 1000 Ang^3
#
#
#
# Elastic Constant Matrix: (Units=GPa)
#
#
# Indices 1 2 3 4 5 6 
#
# 1 109.4781 49.0851 29.9659 0.0000 -20.5973 0.0000
# 2 49.0851 103.9741 37.3009 0.0000 -4.5122 0.0000
# 3 29.9659 37.3009 116.4603 0.0000 -20.0276 0.0000
# 4 0.0000 0.0000 0.0000 34.3340 0.0000 -5.8277
# 5 -20.5973 -4.5122 -20.0276 0.0000 27.4126 0.0000
# 6 0.0000 0.0000 0.0000 -5.8277 0.0000 26.2644
#
#
#
# Elastic Compliance Matrix: (Units=1/GPa)
#
#
# Indices 1 2 3 4 5 6 
#
# 1 0.013555 -0.006007 0.000020 0.000000 0.009211 0.000000
# 2 -0.006007 0.013546 -0.003644 0.000000 -0.004945 0.000000
# 3 0.000020 -0.003644 0.011034 0.000000 0.007477 0.000000
# 4 0.000000 0.000000 0.000000 0.030266 0.000000 0.006716
# 5 0.009211 -0.004945 0.007477 0.000000 0.048049 0.000000
# 6 0.000000 0.000000 0.000000 0.006716 0.000000 0.039564
#
#
# Mechanical properties :
#
#
# Convention : Reuss Voigt Hill
#
# Bulk Modulus (GPa) = 52.98048 62.51291 57.74669
# Shear Modulus (GPa) = 27.53828 31.83958 29.68893
#
# Velocity S-wave (km/s) = 3.87356 4.16510 4.02198
# Velocity P-wave (km/s) = 6.99092 7.56251 7.28232
#
# Compressibility (1/GPa) = 0.01887488
#
# Stress axis : x y z
#
# Youngs Moduli (GPa) = 73.77503 73.82297 90.62689
#
# Poissons Ratio (x) = 0.44342 -0.00182
# Poissons Ratio (y) = 0.44313 0.33020
# Poissons Ratio (z) = -0.00148 0.26898
#
# Static dielectric constant tensor:
#      x y z
#    x 1.647220 0.000000 0.005460 
#    y 0.000000 1.647450 0.000000 
#    z 0.005460 0.000000 1.645040 
# 
# From -- ./inp_files/31740.got.cif
#   From: 2010.05.17/outbox.ucp.g08.bks.cvg/sg11_16_cif.got.tgz:31740.got - 2010.06.11 11:38:39.
