data_PCOD9167454
_publ_section_title
;
Structure prediction by ZEFSAII (Michael W. Deem and Ramdas Pophale) SiO2 
 PCOD9167454
Probable space group: P 21/M
;
_chemical_formula_sum "Si O2"
_cell_formula_units_Z 20
_cell_length_a 11.277901
_cell_length_b 8.408612
_cell_length_c 9.688850
_cell_angle_alpha 90.000000
_cell_angle_beta 91.012957
_cell_angle_gamma 90.000000
_cell_volume 918.664529
_symmetry_space_group_name_H-M "P 21/M"
_symmetry_group_IT_number 11
_symmetry_cell_setting 'monoclinic'
loop_
_space_group_symop_operation_xyz
x,y,z
-x,1/2+y,-z
-x,-y,-z
x,1/2-y,z
loop_
_atom_site_type_symbol
_atom_site_label
_atom_site_fract_x
_atom_site_fract_y
_atom_site_fract_z
Si Si1 0.001058 0.440998 0.341655
Si Si2 0.249050 0.934783 0.320926
Si Si3 0.616939 0.934528 0.428984
Si Si4 0.757120 0.062903 0.184151
Si Si5 0.379881 0.435627 0.066238
O O1 0.009610 0.250000 0.341545
O O2 0.116840 0.517332 0.274500
O O3 0.000000 0.500000 0.500000
O O4 0.880613 0.484071 0.258873
O O5 0.253554 0.750000 0.360745
O O6 0.281744 0.039680 0.454279
O O7 0.342195 0.971042 0.202497
O O8 0.603385 0.750000 0.393286
O O9 0.500000 0.000000 0.500000
O O10 0.655087 0.031273 0.295377
O O11 0.760775 0.250000 0.150089
O O12 0.722802 0.964908 0.048646
O O13 0.392198 0.250000 0.098831
O O14 0.500000 0.500000 0.000000
#
# Coordination Sequence:
#
# PCOD9167454 Si02
#       5
#     4   4   4   4   4
#     4  11  23  41  68  99 135 173 218 273 330 390
#     4  12  25  43  67  96 132 174 221 272 328 390
#     4  12  24  40  64  94 129 169 220 272 328 390
#     4  11  24  43  67  97 132 172 218 269 328 391
#     4  12  26  46  69  96 133 175 220 272 332 396
#
# _framework density 21.770733
#
# number of rings (size 3 to 8) (size 9 to 14) (size 15 to 20)
#    0.000    0.400    2.000    7.800    0.000    3.200 
#    0.000    0.000    0.000    0.000    0.000    0.000 
#    0.000    0.000    0.000    0.000    0.000    0.000 
#
# Total GULP energy -112048.015145 kJ/mol
# GULP energy per Si atom -5602.400757 kJ/mol
# Density = 2.172118 g / cm^3
# Si number density = 21.770733 Si / 1000 Ang^3
#
#
#
# Elastic Constant Matrix: (Units=GPa)
#
#
# Indices 1 2 3 4 5 6 
#
# 1 84.4788 13.9380 -12.0249 0.0000 -1.3092 0.0000
# 2 13.9380 73.7893 -14.4195 0.0000 6.9544 0.0000
# 3 -12.0249 -14.4195 50.1778 0.0000 0.9889 0.0000
# 4 0.0000 0.0000 0.0000 35.7175 0.0000 -0.4678
# 5 -1.3092 6.9544 0.9889 0.0000 37.0202 0.0000
# 6 0.0000 0.0000 0.0000 -0.4678 0.0000 37.5241
#
#
#
# Elastic Compliance Matrix: (Units=1/GPa)
#
#
# Indices 1 2 3 4 5 6 
#
# 1 0.012517 -0.001962 0.002421 0.000000 0.000746 0.000000
# 2 -0.001962 0.014964 0.003889 0.000000 -0.002984 0.000000
# 3 0.002421 0.003889 0.021651 0.000000 -0.001223 0.000000
# 4 0.000000 0.000000 0.000000 0.028002 0.000000 0.000349
# 5 0.000746 -0.002984 -0.001223 0.000000 0.027632 0.000000
# 6 0.000000 0.000000 0.000000 0.000349 0.000000 0.026654
#
#
# Mechanical properties :
#
#
# Convention : Reuss Voigt Hill
#
# Bulk Modulus (GPa) = 17.29231 20.38145 18.83688
# Shear Modulus (GPa) = 35.21149 36.78251 35.99700
#
# Velocity S-wave (km/s) = 4.02603 4.11486 4.07069
# Velocity P-wave (km/s) = 5.43802 5.65317 5.54663
#
# Compressibility (1/GPa) = 0.05782917
#
# Stress axis : x y z
#
# Youngs Moduli (GPa) = 79.89044 66.82789 46.18722
#
# Poissons Ratio (x) = 0.13109 -0.11183
# Poissons Ratio (y) = 0.15671 -0.17962
# Poissons Ratio (z) = -0.19344 -0.25988
#
# Static dielectric constant tensor:
#      x y z
#    x 1.842710 0.000000 0.035990 
#    y 0.000000 1.756220 0.000000 
#    z 0.035990 0.000000 1.777640 
# 
# From -- ./inp_files/16067.got.cif
#   From: 2010.05.17/outbox.cif.g08.bks.cpg/sg11_9_cif.got.tgz:16067.got - 2010.06.03 12:22:45.
