data_PCOD9167037
_publ_section_title
;
Structure prediction by ZEFSAII (Michael W. Deem and Ramdas Pophale) SiO2 
 PCOD9167037
Probable space group: P 21/M
;
_chemical_formula_sum "Si O2"
_cell_formula_units_Z 32
_cell_length_a 11.303358
_cell_length_b 16.262475
_cell_length_c 14.850199
_cell_angle_alpha 90.000000
_cell_angle_beta 152.086833
_cell_angle_gamma 90.000000
_cell_volume 1277.896146
_symmetry_space_group_name_H-M "P 21/M"
_symmetry_group_IT_number 11
_symmetry_cell_setting 'monoclinic'
loop_
_space_group_symop_operation_xyz
x,y,z
-x,1/2+y,-z
-x,-y,-z
x,1/2-y,z
loop_
_atom_site_type_symbol
_atom_site_label
_atom_site_fract_x
_atom_site_fract_y
_atom_site_fract_z
Si Si1 0.275263 0.846402 0.106227
Si Si2 0.825186 0.622058 0.067658
Si Si3 0.239068 0.411606 0.664825
Si Si4 0.042078 0.835552 0.384273
Si Si5 0.516817 0.479373 0.616939
Si Si6 0.390004 0.338903 0.252476
Si Si7 0.950382 0.059699 0.201876
Si Si8 0.290207 0.912366 0.771436
O O1 0.251672 0.750000 0.113771
O O2 0.528354 0.861993 0.216982
O O3 0.319653 0.909024 0.221249
O O4 0.063424 0.874518 0.889476
O O5 0.815433 0.659952 0.963731
O O6 0.549696 0.635491 0.928361
O O7 0.037462 0.659074 0.274175
O O8 0.880174 0.525360 0.105569
O O9 0.141506 0.403270 0.701554
O O10 0.307040 0.508097 0.714625
O O11 0.985962 0.380549 0.444071
O O12 0.928474 0.750000 0.339058
O O13 0.330943 0.838332 0.604770
O O14 0.500000 0.500000 0.500000
O O15 0.610456 0.568609 0.711988
O O16 0.221947 0.453197 0.433555
O O17 0.372565 0.250000 0.290087
O O18 0.749348 0.074098 0.147737
#
# Coordination Sequence:
#
# PCOD9167037 Si02
#       8
#     4   4   4   4   4   4   4   4
#     4  12  27  47  71 100 142 187 234 290 347 413
#     4  12  20  37  65  98 134 179 219 263 327 403
#     4  11  19  36  60  93 139 185 229 267 329 398
#     4  11  22  35  57  93 137 176 217 265 322 394
#     4  12  27  50  78  98 129 177 230 295 362 419
#     4  11  23  42  66 101 136 171 221 284 348 412
#     4  12  23  43  71  99 136 180 233 280 339 408
#     4  11  20  33  64  97 137 189 226 267 326 401
#
# _framework density 25.041157999999999
#
# number of rings (size 3 to 8) (size 9 to 14) (size 15 to 20)
#    0.000    0.500    7.500    1.875    0.000    1.500 
#    0.000    0.625    0.000    0.000    0.000    0.000 
#    0.000    0.000    0.000    0.000    0.000    0.000 
#
# Total GULP energy -178477.329111 kJ/mol
# GULP energy per Si atom -5577.416535 kJ/mol
# Density = 2.498416 g / cm^3
# Si number density = 25.041158 Si / 1000 Ang^3
#
#
#
# Elastic Constant Matrix: (Units=GPa)
#
#
# Indices 1 2 3 4 5 6 
#
# 1 62.9307 40.9756 21.0587 0.0000 -3.3079 0.0000
# 2 40.9756 161.1466 32.8330 0.0000 -24.4294 0.0000
# 3 21.0587 32.8330 119.9371 0.0000 -12.3513 0.0000
# 4 0.0000 0.0000 0.0000 19.5198 0.0000 -4.5592
# 5 -3.3079 -24.4294 -12.3513 0.0000 54.4454 0.0000
# 6 0.0000 0.0000 0.0000 -4.5592 0.0000 8.2504
#
#
#
# Elastic Compliance Matrix: (Units=1/GPa)
#
#
# Indices 1 2 3 4 5 6 
#
# 1 0.019682 -0.004757 -0.002304 0.000000 -0.001461 0.000000
# 2 -0.004757 0.008102 -0.001063 0.000000 0.003105 0.000000
# 3 -0.002304 -0.001063 0.009184 0.000000 0.001467 0.000000
# 4 0.000000 0.000000 0.000000 0.058822 0.000000 0.032506
# 5 -0.001461 0.003105 0.001467 0.000000 0.020004 0.000000
# 6 0.000000 0.000000 0.000000 0.032506 0.000000 0.139169
#
#
# Mechanical properties :
#
#
# Convention : Reuss Voigt Hill
#
# Bulk Modulus (GPa) = 48.26045 59.30543 53.78294
# Shear Modulus (GPa) = 17.97789 33.05292 25.51540
#
# Velocity S-wave (km/s) = 2.68234 3.63704 3.19554
# Velocity P-wave (km/s) = 5.37657 6.43211 5.92788
#
# Compressibility (1/GPa) = 0.02072090
#
# Stress axis : x y z
#
# Youngs Moduli (GPa) = 50.80813 123.42033 108.88140
#
# Poissons Ratio (x) = 0.58707 0.25087
# Poissons Ratio (y) = 0.24168 0.11575
# Poissons Ratio (z) = 0.11707 0.13120
#
# Static dielectric constant tensor:
#      x y z
#    x 2.105330 0.000000 -0.040650 
#    y 0.000000 1.786530 0.000000 
#    z -0.040650 0.000000 2.024550 
# 
# From -- ./inp_files/50698.got.cif
#   From: 2010.05.17/outbox.cif.g08.bks.cpg/sg11_26_cif.got.tgz:50698.got - 2010.06.03 12:22:45.
