data_PCOD9167511
_publ_section_title
;
Structure prediction by ZEFSAII (Michael W. Deem and Ramdas Pophale) SiO2 
 PCOD9167511
Probable space group: P 21/M
;
_chemical_formula_sum "Si O2"
_cell_formula_units_Z 22
_cell_length_a 12.609168
_cell_length_b 13.285813
_cell_length_c 13.079177
_cell_angle_alpha 90.000000
_cell_angle_beta 156.932245
_cell_angle_gamma 90.000000
_cell_volume 858.501216
_symmetry_space_group_name_H-M "P 21/M"
_symmetry_group_IT_number 11
_symmetry_cell_setting 'monoclinic'
loop_
_space_group_symop_operation_xyz
x,y,z
-x,1/2+y,-z
-x,-y,-z
x,1/2-y,z
loop_
_atom_site_type_symbol
_atom_site_label
_atom_site_fract_x
_atom_site_fract_y
_atom_site_fract_z
Si Si1 0.041793 0.250000 0.653626
Si Si2 0.177181 0.250000 0.548059
Si Si3 0.774126 0.933029 0.861437
Si Si4 0.385378 0.583643 0.130434
Si Si5 0.024523 0.750000 0.836418
Si Si6 0.538533 0.750000 0.523062
Si Si7 0.960994 0.250000 0.799485
Si Si8 0.795858 0.526254 0.224751
O O1 0.000260 0.250000 0.494620
O O2 0.192118 0.143495 0.793892
O O3 0.848523 0.250000 0.582819
O O4 0.946858 0.250000 0.259054
O O5 0.372584 0.151667 0.703200
O O6 0.636387 0.853600 0.662947
O O7 0.889989 0.855613 0.049685
O O8 0.554403 0.999388 0.730614
O O9 0.000000 0.000000 0.000000
O O10 0.197645 0.536547 0.874569
O O11 0.184117 0.654909 0.015398
O O12 0.706682 0.750000 0.569524
O O13 0.227789 0.750000 0.268492
O O14 0.000000 0.500000 0.500000
O O15 0.500000 0.500000 0.000000
#
# Coordination Sequence:
#
# PCOD9167511 Si02
#       8
#     2   2   4   4   2   2   2   4
#     4  12  24  50  70 107 152 195 258 312 372 471
#     4  11  25  42  73 102 141 190 244 303 370 447
#     4  11  24  46  67  99 143 180 238 306 365 445
#     4  11  24  44  70 103 138 190 245 301 381 444
#     4  11  24  43  68 106 139 184 249 306 372 460
#     4  11  26  43  70 103 138 189 240 303 384 446
#     4  11  27  44  67 102 142 188 239 296 380 446
#     4  12  27  48  76 110 153 203 254 312 383 450
#
# _framework density 25.626052999999999
#
# number of rings (size 3 to 8) (size 9 to 14) (size 15 to 20)
#    0.000    0.727    5.455    1.091    2.545    5.091 
#    0.000    0.000    0.000    0.000    0.000    0.000 
#    0.000    0.000    0.000    0.000    0.000    0.000 
#
# Total GULP energy -122660.863120 kJ/mol
# GULP energy per Si atom -5575.493778 kJ/mol
# Density = 2.556773 g / cm^3
# Si number density = 25.626053 Si / 1000 Ang^3
#
#
#
# Elastic Constant Matrix: (Units=GPa)
#
#
# Indices 1 2 3 4 5 6 
#
# 1 115.9985 24.7864 3.8184 0.0000 -21.0889 0.0000
# 2 24.7864 171.9191 18.4614 0.0000 -5.8560 0.0000
# 3 3.8184 18.4614 59.7286 0.0000 -1.1733 0.0000
# 4 0.0000 0.0000 0.0000 11.2456 0.0000 5.8742
# 5 -21.0889 -5.8560 -1.1733 0.0000 35.0882 0.0000
# 6 0.0000 0.0000 0.0000 5.8742 0.0000 43.5899
#
#
#
# Elastic Compliance Matrix: (Units=1/GPa)
#
#
# Indices 1 2 3 4 5 6 
#
# 1 0.009934 -0.001220 -0.000145 0.000000 0.005762 0.000000
# 2 -0.001220 0.006198 -0.001833 0.000000 0.000240 0.000000
# 3 -0.000145 -0.001833 0.017322 0.000000 0.000186 0.000000
# 4 0.000000 0.000000 0.000000 0.095657 0.000000 -0.012891
# 5 0.005762 0.000240 0.000186 0.000000 0.032009 0.000000
# 6 0.000000 0.000000 0.000000 -0.012891 0.000000 0.024678
#
#
# Mechanical properties :
#
#
# Convention : Reuss Voigt Hill
#
# Bulk Modulus (GPa) = 36.95844 49.08651 43.02248
# Shear Modulus (GPa) = 24.84933 38.02340 31.43636
#
# Velocity S-wave (km/s) = 3.11736 3.85616 3.50628
# Velocity P-wave (km/s) = 5.23553 6.24685 5.76342
#
# Compressibility (1/GPa) = 0.02705742
#
# Stress axis : x y z
#
# Youngs Moduli (GPa) = 100.66557 161.35213 57.73061
#
# Poissons Ratio (x) = 0.19692 0.00835
# Poissons Ratio (y) = 0.12285 0.10581
# Poissons Ratio (z) = 0.01456 0.29574
#
# Static dielectric constant tensor:
#      x y z
#    x 2.006230 0.000000 0.021560 
#    y 0.000000 2.033780 0.000000 
#    z 0.021560 0.000000 1.979930 
# 
# From -- ./inp_files/35781.got.cif
#   From: 2010.05.17/outbox.cif.g08.bks.cpg/sg11_18_cif.got.tgz:35781.got - 2010.06.03 12:22:45.
