data_PCOD9167782
_publ_section_title
;
Structure prediction by ZEFSAII (Michael W. Deem and Ramdas Pophale) SiO2 
 PCOD9167782
Probable space group: P 21/M
;
_chemical_formula_sum "Si O2"
_cell_formula_units_Z 32
_cell_length_a 30.000000
_cell_length_b 9.000000
_cell_length_c 21.000000
_cell_angle_alpha 90.000000
_cell_angle_beta 20.000000
_cell_angle_gamma 90.000000
_cell_volume 1939.254213
_symmetry_space_group_name_H-M "P 21/M"
_symmetry_group_IT_number 11
_symmetry_cell_setting 'monoclinic'
loop_
_space_group_symop_operation_xyz
x,y,z
-x,1/2+y,-z
-x,-y,-z
x,1/2-y,z
loop_
_atom_site_type_symbol
_atom_site_label
_atom_site_fract_x
_atom_site_fract_y
_atom_site_fract_z
Si Si1 0.643252 0.575309 0.113796
Si Si2 0.472402 0.415462 0.441802
Si Si3 0.430735 0.929668 0.154601
Si Si4 0.852986 0.428683 0.508589
Si Si5 0.863133 0.572904 0.916783
Si Si6 0.896262 0.076184 0.592539
Si Si7 0.401102 0.922905 0.960402
Si Si8 0.701929 0.416119 0.238303
O O1 0.650821 0.750000 0.090748
O O2 0.532755 0.534518 0.313126
O O3 0.605892 0.489936 0.100432
O O4 0.778891 0.529556 0.966839
O O5 0.462328 0.250000 0.427436
O O6 0.576664 0.405630 0.359424
O O7 0.339406 0.475291 0.649800
O O8 0.439741 0.750000 0.141367
O O9 0.279142 0.975550 0.349008
O O10 0.503718 0.990936 0.119045
O O11 0.500000 0.000000 0.000000
O O12 0.838584 0.250000 0.536123
O O13 0.882293 0.488802 0.540097
O O14 0.985004 0.455999 0.293920
O O15 0.840734 0.750000 0.954278
O O16 0.809847 0.486152 0.048565
O O17 0.934967 0.250000 0.536092
O O18 0.748902 0.067854 0.815490
O O19 0.000000 0.000000 0.500000
O O20 0.438647 0.750000 0.909545
O O21 0.732701 0.250000 0.218795
#
# Coordination Sequence:
#
# PCOD9167782 Si02
#       8
#     4   4   4   4   4   4   4   4
#     4  10  19  31  49  74 103 134 168 204 248 300
#     4   9  16  27  44  67  98 135 170 201 241 290
#     4  11  21  37  57  74  95 126 169 216 259 300
#     4   9  18  34  52  70  96 129 164 206 252 295
#     4   9  17  30  49  71 100 134 167 202 247 301
#     4  10  20  34  50  71  99 130 163 201 247 300
#     4  11  22  36  52  72 100 131 167 210 255 299
#     4   9  16  26  42  67 100 133 167 203 241 288
#
# _framework density 16.501189
#
# number of rings (size 3 to 8) (size 9 to 14) (size 15 to 20)
#    0.000    2.250    1.250    2.625    0.000    5.500 
#    0.000    1.875    0.000    0.000    0.000    0.875 
#    0.000    0.000    0.000    0.000    0.000    0.000 
#
# Total GULP energy -178231.396155 kJ/mol
# GULP energy per Si atom -5569.731130 kJ/mol
# Density = 1.646363 g / cm^3
# Si number density = 16.501189 Si / 1000 Ang^3
#
#
#
# Elastic Constant Matrix: (Units=GPa)
#
#
# Indices 1 2 3 4 5 6 
#
# 1 -1.6679 23.4797 18.4411 0.0000 -28.2256 0.0000
# 2 23.4797 48.8532 37.8320 0.0000 -9.6100 0.0000
# 3 18.4411 37.8320 30.9141 0.0000 -21.7270 0.0000
# 4 0.0000 0.0000 0.0000 13.6621 0.0000 2.3866
# 5 -28.2256 -9.6100 -21.7270 0.0000 19.0494 0.0000
# 6 0.0000 0.0000 0.0000 2.3866 0.0000 24.8490
#
#
#
# Elastic Compliance Matrix: (Units=1/GPa)
#
#
# Indices 1 2 3 4 5 6 
#
# 1 -0.113333 -0.106825 0.213913 0.000000 0.022164 0.000000
# 2 -0.106825 -0.114255 0.261058 0.000000 0.081829 0.000000
# 3 0.213913 0.261058 -0.501078 0.000000 -0.122854 0.000000
# 4 0.000000 0.000000 0.000000 0.074444 0.000000 -0.007150
# 5 0.022164 0.081829 -0.122854 0.000000 -0.013506 0.000000
# 6 0.000000 0.000000 0.000000 -0.007150 0.000000 0.040930
#
#
# Mechanical properties :
#
#
# Convention : Reuss Voigt Hill
#
# Bulk Modulus (GPa) = 131.12296 26.40052 78.76174
# Shear Modulus (GPa) = -3.67499 11.40187 3.86344
#
# Velocity S-wave (km/s) = -1.49397 2.63149 1.53179
# Velocity P-wave (km/s) = 8.75553 5.02662 7.13884
#
# Compressibility (1/GPa) = 0.00762643
#
# Stress axis : x y z
#
# Youngs Moduli (GPa) = -8.82358 -8.75234 -1.99570
#
# Poissons Ratio (x) = -0.93497 0.42691
# Poissons Ratio (y) = -0.94258 0.52099
# Poissons Ratio (z) = 1.88748 2.28487
#
# Static dielectric constant tensor:
#      x y z
#    x 1.544840 0.000000 0.023150 
#    y 0.000000 1.645270 0.000000 
#    z 0.023150 0.000000 1.587500 
# 
# From -- ./inp_files/40651.got.cif
#   From: 2010.05.17/outbox.ucp.g08.bks.cvg/sg11_21_cif.got.tgz:40651.got - 2010.06.11 11:38:39.
