data_PCOD9167972
_publ_section_title
;
Structure prediction by ZEFSAII (Michael W. Deem and Ramdas Pophale) SiO2 
 PCOD9167972
Probable space group: P 21/M
;
_chemical_formula_sum "Si O2"
_cell_formula_units_Z 32
_cell_length_a 30.000000
_cell_length_b 9.000000
_cell_length_c 12.000000
_cell_angle_alpha 90.000000
_cell_angle_beta 30.000000
_cell_angle_gamma 90.000000
_cell_volume 1620.000000
_symmetry_space_group_name_H-M "P 21/M"
_symmetry_group_IT_number 11
_symmetry_cell_setting 'monoclinic'
loop_
_space_group_symop_operation_xyz
x,y,z
-x,1/2+y,-z
-x,-y,-z
x,1/2-y,z
loop_
_atom_site_type_symbol
_atom_site_label
_atom_site_fract_x
_atom_site_fract_y
_atom_site_fract_z
Si Si1 0.401573 0.427360 0.717151
Si Si2 0.124127 0.925135 0.443962
Si Si3 0.197244 0.427704 0.832320
Si Si4 0.225996 0.570471 0.000583
Si Si5 0.597408 0.584201 0.657470
Si Si6 0.973308 0.930199 0.938976
Si Si7 0.315874 0.920716 0.112255
Si Si8 0.429229 0.085732 0.020883
O O1 0.500000 0.500000 0.500000
O O2 0.406617 0.250000 0.690320
O O3 0.324705 0.497690 0.802933
O O4 0.361855 0.472120 0.923421
O O5 0.106327 0.750000 0.464835
O O6 0.039920 0.983256 0.695232
O O7 0.161826 0.979228 0.242700
O O8 0.210316 0.940594 0.336564
O O9 0.188491 0.250000 0.871911
O O10 0.184315 0.515909 0.975172
O O11 0.299638 0.456129 0.576904
O O12 0.126083 0.465403 0.890399
O O13 0.234774 0.750000 0.986237
O O14 0.583571 0.750000 0.638400
O O15 0.525575 0.467573 0.768547
O O16 0.574657 0.593904 0.837608
O O17 0.980845 0.750000 0.932079
O O18 0.000000 0.000000 0.000000
O O19 0.334498 0.750000 0.040710
O O20 0.358625 0.963843 0.135800
O O21 0.407436 0.250000 0.025739
#
# Coordination Sequence:
#
# PCOD9167972 Si02
#       8
#     4   4   4   4   4   4   4   4
#     4  11  22  37  57  84 118 156 198 243 292 349
#     4   8  18  38  60  84 117 155 194 243 298 352
#     4  10  22  39  60  87 121 158 196 250 309 357
#     4  10  21  39  61  86 119 157 202 248 296 355
#     4   9  20  37  53  75 113 154 194 241 295 352
#     4  10  22  41  64  91 121 155 197 246 305 366
#     4  10  20  35  56  82 114 155 194 239 295 350
#     4  10  20  34  54  80 110 150 200 246 291 350
#
# _framework density 19.753086
#
# number of rings (size 3 to 8) (size 9 to 14) (size 15 to 20)
#    0.000    2.250    0.000    3.000    3.500    2.000 
#    0.000    3.125    0.000    0.000    0.000    0.000 
#    0.000    0.000    0.000    0.000    0.000    0.000 
#
# Total GULP energy -178434.282079 kJ/mol
# GULP energy per Si atom -5576.071315 kJ/mol
# Density = 1.970813 g / cm^3
# Si number density = 19.753086 Si / 1000 Ang^3
#
#
#
# Elastic Constant Matrix: (Units=GPa)
#
#
# Indices 1 2 3 4 5 6 
#
# 1 79.3372 31.4373 13.2948 0.0000 -3.1560 0.0000
# 2 31.4373 61.1643 24.3539 0.0000 -4.1778 0.0000
# 3 13.2948 24.3539 90.7428 0.0000 -0.5371 0.0000
# 4 0.0000 0.0000 0.0000 15.5784 0.0000 1.7851
# 5 -3.1560 -4.1778 -0.5371 0.0000 7.7729 0.0000
# 6 0.0000 0.0000 0.0000 1.7851 0.0000 33.4670
#
#
#
# Elastic Compliance Matrix: (Units=1/GPa)
#
#
# Indices 1 2 3 4 5 6 
#
# 1 0.015865 -0.007934 -0.000182 0.000000 0.002165 0.000000
# 2 -0.007934 0.023003 -0.004959 0.000000 0.008800 0.000000
# 3 -0.000182 -0.004959 0.012367 0.000000 -0.001885 0.000000
# 4 0.000000 0.000000 0.000000 0.064586 0.000000 -0.003445
# 5 0.002165 0.008800 -0.001885 0.000000 0.134130 0.000000
# 6 0.000000 0.000000 0.000000 -0.003445 0.000000 0.030064
#
#
# Mechanical properties :
#
#
# Convention : Reuss Voigt Hill
#
# Bulk Modulus (GPa) = 39.86609 41.04626 40.45618
# Shear Modulus (GPa) = 15.89691 22.17423 19.03557
#
# Velocity S-wave (km/s) = 2.83994 3.35411 3.10768
# Velocity P-wave (km/s) = 5.56594 5.98539 5.77947
#
# Compressibility (1/GPa) = 0.02508398
#
# Stress axis : x y z
#
# Youngs Moduli (GPa) = 63.03251 43.47288 80.86265
#
# Poissons Ratio (x) = 0.34491 0.01474
# Poissons Ratio (y) = 0.50009 0.40101
# Poissons Ratio (z) = 0.01149 0.21559
#
# Static dielectric constant tensor:
#      x y z
#    x 1.739910 0.000000 0.011810 
#    y 0.000000 1.695340 0.000000 
#    z 0.011810 0.000000 1.694300 
# 
# From -- ./inp_files/45207.got.cif
#   From: 2010.05.17/outbox.ucp.g08.bks.cvg/sg11_23_cif.got.tgz:45207.got - 2010.06.11 11:38:39.
