data_PCOD9167197
_publ_section_title
;
Structure prediction by ZEFSAII (Michael W. Deem and Ramdas Pophale) SiO2 
 PCOD9167197
Probable space group: P 21/M
;
_chemical_formula_sum "Si O2"
_cell_formula_units_Z 32
_cell_length_a 13.061406
_cell_length_b 16.933788
_cell_length_c 12.325181
_cell_angle_alpha 90.000000
_cell_angle_beta 36.514847
_cell_angle_gamma 90.000000
_cell_volume 1622.097655
_symmetry_space_group_name_H-M "P 21/M"
_symmetry_group_IT_number 11
_symmetry_cell_setting 'monoclinic'
loop_
_space_group_symop_operation_xyz
x,y,z
-x,1/2+y,-z
-x,-y,-z
x,1/2-y,z
loop_
_atom_site_type_symbol
_atom_site_label
_atom_site_fract_x
_atom_site_fract_y
_atom_site_fract_z
Si Si1 0.182012 0.840650 0.600188
Si Si2 0.553843 0.506099 0.077688
Si Si3 0.362191 0.661956 0.973979
Si Si4 0.756456 0.662468 0.210786
Si Si5 0.881948 0.115237 0.003612
Si Si6 0.568485 0.410070 0.440720
Si Si7 0.132038 0.447301 0.065870
Si Si8 0.353308 0.662191 0.239731
O O1 0.179903 0.750000 0.640330
O O2 0.340739 0.883862 0.524251
O O3 0.196431 0.839363 0.457567
O O4 0.013393 0.886833 0.778027
O O5 0.460196 0.586870 0.189198
O O6 0.500000 0.500000 0.000000
O O7 0.526695 0.417363 0.148134
O O8 0.752509 0.523813 0.932741
O O9 0.438497 0.750000 0.893263
O O10 0.318658 0.655334 0.140111
O O11 0.197074 0.654696 0.036688
O O12 0.727545 0.750000 0.191094
O O13 0.603824 0.642376 0.424512
O O14 0.750439 0.596285 0.122846
O O15 0.949866 0.657250 0.093136
O O16 0.719829 0.106438 0.224168
O O17 0.941680 0.026409 0.924594
O O18 0.500000 0.500000 0.500000
O O19 0.434898 0.750000 0.185143
#
# Coordination Sequence:
#
# PCOD9167197 Si02
#       8
#     4   4   4   4   4   4   4   4
#     4  11  23  38  61  94 128 162 209 269 324 380
#     4   9  19  36  58  87 116 155 207 255 309 377
#     4   9  19  37  62  84 117 166 206 256 322 376
#     4  12  24  38  61  93 124 162 210 258 320 382
#     4  11  23  42  62  89 127 168 210 260 315 384
#     4  12  24  40  62  88 128 169 211 259 316 390
#     4  11  21  38  61  87 123 164 203 252 318 381
#     4   9  19  37  61  87 119 161 206 258 321 377
#
# _framework density 19.727542
#
# number of rings (size 3 to 8) (size 9 to 14) (size 15 to 20)
#    0.000    1.500    2.500    3.000    1.750    3.500 
#    0.000    5.625    2.750    0.000    0.000    0.000 
#    0.000    0.000    0.000    0.000    0.000    0.000 
#
# Total GULP energy -178226.048012 kJ/mol
# GULP energy per Si atom -5569.564000 kJ/mol
# Density = 1.968264 g / cm^3
# Si number density = 19.727542 Si / 1000 Ang^3
#
#
#
# Elastic Constant Matrix: (Units=GPa)
#
#
# Indices 1 2 3 4 5 6 
#
# 1 90.3082 26.6681 21.9996 0.0000 -2.4552 0.0000
# 2 26.6681 146.2033 26.9104 0.0000 -1.8128 0.0000
# 3 21.9996 26.9104 85.8791 0.0000 -5.1803 0.0000
# 4 0.0000 0.0000 0.0000 20.3695 0.0000 -4.6289
# 5 -2.4552 -1.8128 -5.1803 0.0000 21.4170 0.0000
# 6 0.0000 0.0000 0.0000 -4.6289 0.0000 17.0356
#
#
#
# Elastic Compliance Matrix: (Units=1/GPa)
#
#
# Indices 1 2 3 4 5 6 
#
# 1 0.012228 -0.001754 -0.002544 0.000000 0.000638 0.000000
# 2 -0.001754 0.007510 -0.001906 0.000000 -0.000026 0.000000
# 3 -0.002544 -0.001906 0.013056 0.000000 0.002705 0.000000
# 4 0.000000 0.000000 0.000000 0.052324 0.000000 0.014217
# 5 0.000638 -0.000026 0.002705 0.000000 0.047417 0.000000
# 6 0.000000 0.000000 0.000000 0.014217 0.000000 0.062564
#
#
# Mechanical properties :
#
#
# Convention : Reuss Voigt Hill
#
# Bulk Modulus (GPa) = 49.05183 52.61629 50.83406
# Shear Modulus (GPa) = 23.33142 28.21858 25.77500
#
# Velocity S-wave (km/s) = 3.44275 3.78619 3.61854
# Velocity P-wave (km/s) = 6.38138 6.77075 6.57894
#
# Compressibility (1/GPa) = 0.02038660
#
# Stress axis : x y z
#
# Youngs Moduli (GPa) = 81.77686 133.15245 76.59116
#
# Poissons Ratio (x) = 0.23359 0.19487
# Poissons Ratio (y) = 0.14346 0.14595
# Poissons Ratio (z) = 0.20807 0.25373
#
# Static dielectric constant tensor:
#      x y z
#    x 1.690180 0.000000 0.018100 
#    y 0.000000 1.793030 0.000000 
#    z 0.018100 0.000000 1.695270 
# 
# From -- ./inp_files/52573.got.cif
#   From: 2010.05.17/outbox.cif.g08.bks.cpg/sg11_27_cif.got.tgz:52573.got - 2010.06.03 12:22:45.
