data_PCOD9167209
_publ_section_title
;
Structure prediction by ZEFSAII (Michael W. Deem and Ramdas Pophale) SiO2 
 PCOD9167209
Probable space group: P 21/M
;
_chemical_formula_sum "Si O2"
_cell_formula_units_Z 24
_cell_length_a 7.908084
_cell_length_b 28.609419
_cell_length_c 9.509472
_cell_angle_alpha 90.000000
_cell_angle_beta 31.502075
_cell_angle_gamma 90.000000
_cell_volume 1124.210101
_symmetry_space_group_name_H-M "P 21/M"
_symmetry_group_IT_number 11
_symmetry_cell_setting 'monoclinic'
loop_
_space_group_symop_operation_xyz
x,y,z
-x,1/2+y,-z
-x,-y,-z
x,1/2-y,z
loop_
_atom_site_type_symbol
_atom_site_label
_atom_site_fract_x
_atom_site_fract_y
_atom_site_fract_z
Si Si1 0.615989 0.750000 0.006356
Si Si2 0.585031 0.879175 0.683628
Si Si3 0.390838 0.750000 0.484004
Si Si4 0.228354 0.033953 0.251412
Si Si5 0.738487 0.341063 0.842482
Si Si6 0.500013 0.854604 0.434155
Si Si7 0.815204 0.610222 0.927410
O O1 0.470879 0.750000 0.263915
O O2 0.460000 0.794186 0.040359
O O3 0.999867 0.750000 0.762248
O O4 0.663454 0.926633 0.711586
O O5 0.525835 0.883448 0.560359
O O6 0.899774 0.845459 0.469785
O O7 0.287406 0.855379 0.976173
O O8 0.541901 0.798881 0.432939
O O9 0.094179 0.060382 0.206467
O O10 0.000000 0.000000 0.500000
O O11 0.500000 0.000000 0.000000
O O12 0.520881 0.378142 0.912059
O O13 0.722155 0.876793 0.154061
O O14 0.118849 0.858357 0.664830
#
# Coordination Sequence:
#
# PCOD9167209 Si02
#       7
#     2   4   2   4   4   4   4
#     4  12  22  36  64  94 122 164 240 256 288 380
#     4  11  25  41  64  94 133 164 210 273 338 366
#     4  12  22  38  62  94 132 172 214 252 308 378
#     4  11  23  44  69  94 123 166 219 273 327 394
#     4  11  21  40  61  91 123 171 215 263 304 373
#     4  12  23  41  62  97 133 173 207 262 320 384
#     4  11  22  41  66  91 125 172 214 255 324 388
#
# _framework density 21.348324000000002
#
# number of rings (size 3 to 8) (size 9 to 14) (size 15 to 20)
#    0.000    0.667    3.333    7.000    0.000    1.333 
#    0.000    5.000    0.000    0.000    0.000    0.000 
#    0.000    0.000    0.000    0.000    0.000    0.000 
#
# Total GULP energy -133828.267981 kJ/mol
# GULP energy per Si atom -5576.177833 kJ/mol
# Density = 2.129973 g / cm^3
# Si number density = 21.348324 Si / 1000 Ang^3
#
#
#
# Elastic Constant Matrix: (Units=GPa)
#
#
# Indices 1 2 3 4 5 6 
#
# 1 61.1488 26.3682 27.5000 0.0000 20.0904 0.0000
# 2 26.3682 129.2095 58.9352 0.0000 21.9282 0.0000
# 3 27.5000 58.9352 175.4886 0.0000 20.0368 0.0000
# 4 0.0000 0.0000 0.0000 34.6535 0.0000 3.4213
# 5 20.0904 21.9282 20.0368 0.0000 37.5303 0.0000
# 6 0.0000 0.0000 0.0000 3.4213 0.0000 30.5803
#
#
#
# Elastic Compliance Matrix: (Units=1/GPa)
#
#
# Indices 1 2 3 4 5 6 
#
# 1 0.020943 -0.002000 -0.001559 0.000000 -0.009210 0.000000
# 2 -0.002000 0.009913 -0.002637 0.000000 -0.003313 0.000000
# 3 -0.001559 -0.002637 0.006983 0.000000 -0.001353 0.000000
# 4 0.000000 0.000000 0.000000 0.029179 0.000000 -0.003265
# 5 -0.009210 -0.003313 -0.001353 0.000000 0.034234 0.000000
# 6 0.000000 0.000000 0.000000 -0.003265 0.000000 0.033066
#
#
# Mechanical properties :
#
#
# Convention : Reuss Voigt Hill
#
# Bulk Modulus (GPa) = 39.29773 65.71709 52.50741
# Shear Modulus (GPa) = 32.21825 37.42237 34.82031
#
# Velocity S-wave (km/s) = 3.88902 4.19136 4.04301
# Velocity P-wave (km/s) = 6.21400 7.36705 6.81495
#
# Compressibility (1/GPa) = 0.02544676
#
# Stress axis : x y z
#
# Youngs Moduli (GPa) = 47.74872 100.88033 143.20929
#
# Poissons Ratio (x) = 0.20175 0.22321
# Poissons Ratio (y) = 0.09549 0.37769
# Poissons Ratio (z) = 0.07442 0.26606
#
# Static dielectric constant tensor:
#      x y z
#    x 1.817670 0.000000 0.006430 
#    y 0.000000 1.852390 0.000000 
#    z 0.006430 0.000000 1.752290 
# 
# From -- ./inp_files/15390.got.cif
#   From: 2010.05.17/outbox.cif.g08.bks.cpg/sg11_8_cif.got.tgz:15390.got - 2010.06.03 12:22:45.
