data_PCOD9167949
_publ_section_title
;
Structure prediction by ZEFSAII (Michael W. Deem and Ramdas Pophale) SiO2 
 PCOD9167949
Probable space group: P 21/M
;
_chemical_formula_sum "Si O2"
_cell_formula_units_Z 20
_cell_length_a 9.000000
_cell_length_b 9.000000
_cell_length_c 27.000000
_cell_angle_alpha 90.000000
_cell_angle_beta 30.000000
_cell_angle_gamma 90.000000
_cell_volume 1093.500000
_symmetry_space_group_name_H-M "P 21/M"
_symmetry_group_IT_number 11
_symmetry_cell_setting 'monoclinic'
loop_
_space_group_symop_operation_xyz
x,y,z
-x,1/2+y,-z
-x,-y,-z
x,1/2-y,z
loop_
_atom_site_type_symbol
_atom_site_label
_atom_site_fract_x
_atom_site_fract_y
_atom_site_fract_z
Si Si1 0.216041 0.421520 0.782589
Si Si2 0.318105 0.425972 0.411400
Si Si3 0.668051 0.426570 0.998107
Si Si4 0.351189 0.429500 0.590912
Si Si5 0.786874 0.078640 0.808750
O O1 0.316314 0.250000 0.757372
O O2 0.485149 0.529186 0.692906
O O3 0.998300 0.427858 0.797009
O O4 0.013368 0.460671 0.888244
O O5 0.302479 0.250000 0.421650
O O6 0.476571 0.501308 0.412469
O O7 0.000000 0.500000 0.500000
O O8 0.635499 0.250000 0.003737
O O9 0.502687 0.484607 0.094458
O O10 0.500000 0.500000 0.000000
O O11 0.500000 0.500000 0.500000
O O12 0.373930 0.250000 0.584374
O O13 0.003460 0.466786 0.701390
O O14 0.701695 0.250000 0.826806
#
# Coordination Sequence:
#
# PCOD9167949 Si02
#       5
#     4   4   4   4   4
#     4   8  15  27  40  60  90 120 151 191 233 276
#     4  11  21  33  50  71  96 128 162 199 240 284
#     4   9  15  22  36  58  86 117 148 184 229 276
#     4  10  20  34  50  71  98 128 162 200 239 282
#     4   8  15  26  40  60  89 119 149 188 231 274
#
# _framework density 18.289895000000001
#
# number of rings (size 3 to 8) (size 9 to 14) (size 15 to 20)
#    0.000    2.800    0.000    5.400    0.000    8.800 
#    0.000    0.000    0.000    0.000    0.000    1.400 
#    0.000    0.000    0.000    0.000    0.000    0.000 
#
# Total GULP energy -111338.931222 kJ/mol
# GULP energy per Si atom -5566.946561 kJ/mol
# Density = 1.824827 g / cm^3
# Si number density = 18.289895 Si / 1000 Ang^3
#
#
#
# Elastic Constant Matrix: (Units=GPa)
#
#
# Indices 1 2 3 4 5 6 
#
# 1 5.8541 18.1834 33.1120 0.0000 4.3554 0.0000
# 2 18.1834 91.3352 97.5080 0.0000 4.2718 0.0000
# 3 33.1120 97.5080 200.8363 0.0000 24.3466 0.0000
# 4 0.0000 0.0000 0.0000 37.9577 0.0000 3.5669
# 5 4.3554 4.2718 24.3466 0.0000 17.2103 0.0000
# 6 0.0000 0.0000 0.0000 3.5669 0.0000 13.8657
#
#
#
# Elastic Compliance Matrix: (Units=1/GPa)
#
#
# Indices 1 2 3 4 5 6 
#
# 1 3.908173 -0.223544 -0.510123 0.000000 -0.211904 0.000000
# 2 -0.223544 0.037788 0.015436 0.000000 0.025357 0.000000
# 3 -0.510123 0.015436 0.080149 0.000000 0.011882 0.000000
# 4 0.000000 0.000000 0.000000 0.026998 0.000000 -0.006945
# 5 -0.211904 0.025357 0.011882 0.000000 0.088628 0.000000
# 6 0.000000 0.000000 0.000000 -0.006945 0.000000 0.073907
#
#
# Mechanical properties :
#
#
# Convention : Reuss Voigt Hill
#
# Bulk Modulus (GPa) = 0.38615 66.18138 33.28377
# Shear Modulus (GPa) = 0.76742 23.75490 12.26116
#
# Velocity S-wave (km/s) = 0.64846 3.60780 2.59198
# Velocity P-wave (km/s) = 0.87878 7.32244 5.21490
#
# Compressibility (1/GPa) = 2.58964739
#
# Stress axis : x y z
#
# Youngs Moduli (GPa) = 0.25587 26.46351 12.47677
#
# Poissons Ratio (x) = 5.91576 6.36468
# Poissons Ratio (y) = 0.05720 -0.19259
# Poissons Ratio (z) = 0.13053 -0.40848
#
# Static dielectric constant tensor:
#      x y z
#    x 1.624000 0.000000 0.028970 
#    y 0.000000 1.606110 0.000000 
#    z 0.028970 0.000000 1.723600 
# 
# From -- ./inp_files/23674.got.cif
#   From: 2010.05.17/outbox.ucp.g08.bks.cvg/sg11_12_cif.got.tgz:23674.got - 2010.06.11 11:38:39.
