data_PCOD9167633
_publ_section_title
;
Structure prediction by ZEFSAII (Michael W. Deem and Ramdas Pophale) SiO2 
 PCOD9167633
Probable space group: P 21/M
;
_chemical_formula_sum "Si O2"
_cell_formula_units_Z 28
_cell_length_a 13.189528
_cell_length_b 7.345945
_cell_length_c 13.856683
_cell_angle_alpha 90.000000
_cell_angle_beta 118.419698
_cell_angle_gamma 90.000000
_cell_volume 1180.768196
_symmetry_space_group_name_H-M "P 21/M"
_symmetry_group_IT_number 11
_symmetry_cell_setting 'monoclinic'
loop_
_space_group_symop_operation_xyz
x,y,z
-x,1/2+y,-z
-x,-y,-z
x,1/2-y,z
loop_
_atom_site_type_symbol
_atom_site_label
_atom_site_fract_x
_atom_site_fract_y
_atom_site_fract_z
Si Si1 0.328186 0.528591 0.435945
Si Si2 0.107759 0.971409 0.435945
Si Si3 0.158216 0.545133 0.667728
Si Si4 0.158548 0.968581 0.871023
Si Si5 0.490488 0.454867 0.332272
Si Si6 0.712475 0.968581 0.871023
Si Si7 0.934496 0.966605 0.868991
O O1 0.336092 0.750000 0.434969
O O2 0.195033 0.478705 0.390065
O O3 0.395814 0.451334 0.375873
O O4 0.399039 0.466857 0.563321
O O5 0.098877 0.750000 0.434969
O O6 0.164282 0.033143 0.563321
O O7 0.980059 0.048666 0.375872
O O8 0.204759 0.750000 0.681073
O O9 0.203246 0.461757 0.787997
O O10 0.149001 0.750000 0.857394
O O11 0.029154 0.039738 0.836651
O O12 0.239257 0.000000 1.000000
O O13 0.523686 0.250000 0.318927
O O14 0.415250 0.538243 0.212003
O O15 0.708393 0.750000 0.857394
O O16 0.807497 0.039738 0.836651
O O17 0.924758 0.750000 0.849516
O O18 0.000000 0.000000 0.000000
#
# Coordination Sequence:
#
# PCOD9167633 Si02
#       7
#     4   4   4   4   4   4   4
#     4   9  18  32  48  68  93 120 151 189 230 270
#     4   9  18  32  48  68  93 120 151 189 230 270
#     4   9  18  31  48  69  92 120 154 187 225 272
#     4   9  17  28  43  63  88 117 148 182 221 265
#     4   9  18  31  48  69  92 120 154 187 225 272
#     4   9  17  28  43  63  88 117 148 182 221 265
#     4   8  14  24  36  54  80 108 138 170 205 250
#
# _framework density 23.713374999999999
#
# number of rings (size 3 to 8) (size 9 to 14) (size 15 to 20)
#    0.000    3.143    0.000    0.000    2.000    1.714 
#    0.000    0.000    0.000    0.857    0.000    0.000 
#    0.000    0.000    0.000    0.000    0.000    0.000 
#
# Total GULP energy -156124.107710 kJ/mol
# GULP energy per Si atom -5575.860990 kJ/mol
# Density = 2.365940 g / cm^3
# Si number density = 23.713375 Si / 1000 Ang^3
#
#
#
# Elastic Constant Matrix: (Units=GPa)
#
#
# Indices 1 2 3 4 5 6 
#
# 1 51.8740 -3.1519 0.9456 0.0000 0.0003 0.0000
# 2 -3.1519 109.5601 -2.9722 0.0000 0.0000 0.0000
# 3 0.9456 -2.9722 114.9391 0.0000 -0.0001 0.0000
# 4 0.0000 0.0000 0.0000 16.1819 0.0000 0.0000
# 5 0.0003 0.0000 -0.0001 0.0000 39.5429 0.0000
# 6 0.0000 0.0000 0.0000 0.0000 0.0000 1.3340
#
#
#
# Elastic Compliance Matrix: (Units=1/GPa)
#
#
# Indices 1 2 3 4 5 6 
#
# 1 0.019314 0.000552 -0.000145 0.000000 0.000000 0.000000
# 2 0.000552 0.009150 0.000232 0.000000 0.000000 0.000000
# 3 -0.000145 0.000232 0.008707 0.000000 0.000000 0.000000
# 4 0.000000 0.000000 0.000000 0.061797 0.000000 0.000000
# 5 0.000000 0.000000 0.000000 0.000000 0.025289 0.000000
# 6 0.000000 0.000000 0.000000 0.000000 0.000000 0.749610
#
#
# Mechanical properties :
#
#
# Convention : Reuss Voigt Hill
#
# Bulk Modulus (GPa) = 26.00854 29.55736 27.78295
# Shear Modulus (GPa) = 5.64713 30.18188 17.91451
#
# Velocity S-wave (km/s) = 1.54486 3.57147 2.75155
# Velocity P-wave (km/s) = 3.76481 5.43127 4.67293
#
# Compressibility (1/GPa) = 0.03844892
#
# Stress axis : x y z
#
# Youngs Moduli (GPa) = 51.77692 109.29464 114.84416
#
# Poissons Ratio (x) = -0.06030 0.01661
# Poissons Ratio (y) = -0.02857 -0.02665
# Poissons Ratio (z) = 0.00749 -0.02536
#
# Static dielectric constant tensor:
#      x y z
#    x 1.877110 0.000000 0.000000 
#    y 0.000000 1.884140 0.000000 
#    z 0.000000 0.000000 1.863300 
# 
# From -- ./inp_files/51452.got.cif
#   From: 2010.05.17/outbox.cif.g08.bks.cpg/sg11_26_cif.got.tgz:51452.got - 2010.06.03 12:22:45.
