data_PCOD9167990
_publ_section_title
;
Structure prediction by ZEFSAII (Michael W. Deem and Ramdas Pophale) SiO2 
 PCOD9167990
Probable space group: P 21/M
;
_chemical_formula_sum "Si O2"
_cell_formula_units_Z 32
_cell_length_a 12.000000
_cell_length_b 9.000000
_cell_length_c 21.000000
_cell_angle_alpha 90.000000
_cell_angle_beta 60.000000
_cell_angle_gamma 90.000000
_cell_volume 1964.145616
_symmetry_space_group_name_H-M "P 21/M"
_symmetry_group_IT_number 11
_symmetry_cell_setting 'monoclinic'
loop_
_space_group_symop_operation_xyz
x,y,z
-x,1/2+y,-z
-x,-y,-z
x,1/2-y,z
loop_
_atom_site_type_symbol
_atom_site_label
_atom_site_fract_x
_atom_site_fract_y
_atom_site_fract_z
Si Si1 0.965974 0.580277 0.911917
Si Si2 0.084139 0.428445 0.418570
Si Si3 0.621707 0.431064 0.223848
Si Si4 0.143880 0.429006 0.761447
Si Si5 0.614034 0.569032 0.510573
Si Si6 0.795070 0.419422 0.056888
Si Si7 0.132279 0.571671 0.625203
Si Si8 0.366562 0.931155 0.354297
O O1 0.947937 0.750000 0.894959
O O2 0.022668 0.476903 0.840113
O O3 0.082036 0.582643 0.930485
O O4 0.840883 0.519616 0.984825
O O5 0.100083 0.250000 0.424563
O O6 0.224339 0.506927 0.376075
O O7 0.000000 0.500000 0.500000
O O8 0.997115 0.448374 0.379938
O O9 0.618263 0.250000 0.231838
O O10 0.728176 0.499656 0.242114
O O11 0.677401 0.464248 0.136857
O O12 0.483232 0.504293 0.277679
O O13 0.156341 0.250000 0.755069
O O14 0.125069 0.500889 0.697395
O O15 0.500000 0.500000 0.500000
O O16 0.608066 0.750000 0.513494
O O17 0.749526 0.511225 0.443526
O O18 0.605257 0.499403 0.583678
O O19 0.773735 0.250000 0.041380
O O20 0.157373 0.750000 0.621495
O O21 0.366825 0.750000 0.355312
#
# Coordination Sequence:
#
# PCOD9167990 Si02
#       8
#     4   4   4   4   4   4   4   4
#     4   9  16  27  45  70 103 141 177 213 255 308
#     4  11  23  40  62  81 102 133 175 225 270 316
#     4  10  20  35  53  76 109 144 179 219 265 315
#     4  11  21  33  51  77 110 144 178 217 264 316
#     4  12  24  38  56  77 106 139 175 213 261 318
#     4   8  15  27  45  70 101 138 176 214 256 307
#     4  11  23  39  57  78 104 135 175 219 267 315
#     4  12  24  38  56  79 107 138 177 219 265 315
#
# _framework density 16.292071
#
# number of rings (size 3 to 8) (size 9 to 14) (size 15 to 20)
#    0.000    1.500    1.250    6.375    0.000    5.000 
#    0.000    0.000    0.000    0.000    0.000    0.875 
#    0.000    0.000    0.000    0.000    0.000    0.000 
#
# Total GULP energy -178605.173632 kJ/mol
# GULP energy per Si atom -5581.411676 kJ/mol
# Density = 1.625499 g / cm^3
# Si number density = 16.292071 Si / 1000 Ang^3
#
#
#
# Elastic Constant Matrix: (Units=GPa)
#
#
# Indices 1 2 3 4 5 6 
#
# 1 90.9396 47.7475 42.2976 0.0000 -21.2936 0.0000
# 2 47.7475 154.1925 55.0552 0.0000 -15.9771 0.0000
# 3 42.2976 55.0552 118.4111 0.0000 -30.9709 0.0000
# 4 0.0000 0.0000 0.0000 34.3736 0.0000 -3.9521
# 5 -21.2936 -15.9771 -30.9709 0.0000 22.7256 0.0000
# 6 0.0000 0.0000 0.0000 -3.9521 0.0000 28.1928
#
#
#
# Elastic Compliance Matrix: (Units=1/GPa)
#
#
# Indices 1 2 3 4 5 6 
#
# 1 0.015871 -0.003334 -0.001309 0.000000 0.010743 0.000000
# 2 -0.003334 0.008487 -0.003126 0.000000 -0.001417 0.000000
# 3 -0.001309 -0.003126 0.014716 0.000000 0.016631 0.000000
# 4 0.000000 0.000000 0.000000 0.029569 0.000000 0.004145
# 5 0.010743 -0.001417 0.016631 0.000000 0.075738 0.000000
# 6 0.000000 0.000000 0.000000 0.004145 0.000000 0.036051
#
#
# Mechanical properties :
#
#
# Convention : Reuss Voigt Hill
#
# Bulk Modulus (GPa) = 42.48795 72.63821 57.56308
# Shear Modulus (GPa) = 24.53194 31.62126 28.07660
#
# Velocity S-wave (km/s) = 3.88462 4.41034 4.15580
# Velocity P-wave (km/s) = 6.80117 8.40337 7.64436
#
# Compressibility (1/GPa) = 0.02353609
#
# Stress axis : x y z
#
# Youngs Moduli (GPa) = 63.00680 117.82650 67.95285
#
# Poissons Ratio (x) = 0.39284 0.08898
# Poissons Ratio (y) = 0.21007 0.21240
# Poissons Ratio (z) = 0.08250 0.36829
#
# Static dielectric constant tensor:
#      x y z
#    x 1.525900 0.000000 -0.005020 
#    y 0.000000 1.552340 0.000000 
#    z -0.005020 0.000000 1.564040 
# 
# From -- ./inp_files/64176.got.cif
#   From: 2010.05.17/outbox.ucp.g08.bks.cvg/sg11_33_cif.got.tgz:64176.got - 2010.06.11 11:38:39.
