data_PCOD9167891
_publ_section_title
;
Structure prediction by ZEFSAII (Michael W. Deem and Ramdas Pophale) SiO2 
 PCOD9167891
Probable space group: P 21/M
;
_chemical_formula_sum "Si O2"
_cell_formula_units_Z 32
_cell_length_a 30.000000
_cell_length_b 9.000000
_cell_length_c 12.000000
_cell_angle_alpha 90.000000
_cell_angle_beta 150.000000
_cell_angle_gamma 90.000000
_cell_volume 1620.000000
_symmetry_space_group_name_H-M "P 21/M"
_symmetry_group_IT_number 11
_symmetry_cell_setting 'monoclinic'
loop_
_space_group_symop_operation_xyz
x,y,z
-x,1/2+y,-z
-x,-y,-z
x,1/2-y,z
loop_
_atom_site_type_symbol
_atom_site_label
_atom_site_fract_x
_atom_site_fract_y
_atom_site_fract_z
Si Si1 0.802876 0.428793 0.755791
Si Si2 0.282748 0.924182 0.658985
Si Si3 0.528276 0.572209 0.944700
Si Si4 0.890502 0.921972 0.337415
Si Si5 0.407138 0.577309 0.305936
Si Si6 0.244866 0.581231 0.819661
Si Si7 0.642761 0.429993 0.566285
Si Si8 0.938361 0.574507 0.198025
O O1 0.807563 0.250000 0.771043
O O2 0.774374 0.472069 0.570403
O O3 0.723279 0.483851 0.664110
O O4 0.893964 0.494833 0.998246
O O5 0.307575 0.750000 0.696344
O O6 0.227362 0.933659 0.652172
O O7 0.372859 0.016303 0.865548
O O8 0.526683 0.750000 0.949787
O O9 0.500000 0.500000 0.000000
O O10 0.453008 0.527840 0.692036
O O11 0.916942 0.750000 0.398146
O O12 0.885241 0.965828 0.196724
O O13 0.801518 0.956705 0.209186
O O14 0.963751 0.019202 0.559514
O O15 0.500000 0.500000 0.500000
O O16 0.423990 0.750000 0.362898
O O17 0.353139 0.521982 0.297034
O O18 0.349367 0.565691 0.070242
O O19 0.220503 0.750000 0.804231
O O20 0.648353 0.250000 0.573739
O O21 0.936447 0.750000 0.178425
#
# Coordination Sequence:
#
# PCOD9167891 Si02
#       8
#     4   4   4   4   4   4   4   4
#     4  10  19  35  56  78 109 144 180 226 280 331
#     4  10  21  37  55  79 111 148 189 231 277 327
#     4  11  20  33  52  75 106 146 190 234 279 327
#     4  10  21  38  61  87 113 144 179 219 274 334
#     4  10  20  34  52  76 107 143 182 224 273 322
#     4  10  21  37  58  82 112 149 188 228 272 327
#     4   9  18  32  51  74 103 142 182 222 274 330
#     4  10  21  37  59  88 116 138 175 228 276 327
#
# _framework density 19.753086
#
# number of rings (size 3 to 8) (size 9 to 14) (size 15 to 20)
#    0.000    2.000    1.250    2.625    0.000    4.000 
#    0.000    1.875    0.000    0.000    0.000    0.000 
#    0.000    0.000    0.000    0.000    0.000    0.000 
#
# Total GULP energy -178436.952595 kJ/mol
# GULP energy per Si atom -5576.154769 kJ/mol
# Density = 1.970813 g / cm^3
# Si number density = 19.753086 Si / 1000 Ang^3
#
#
#
# Elastic Constant Matrix: (Units=GPa)
#
#
# Indices 1 2 3 4 5 6 
#
# 1 34.3973 19.6353 19.9846 0.0000 -15.1489 0.0000
# 2 19.6353 15.1365 27.6641 0.0000 -4.8082 0.0000
# 3 19.9846 27.6641 76.0506 0.0000 -25.9423 0.0000
# 4 0.0000 0.0000 0.0000 27.1822 0.0000 6.7006
# 5 -15.1489 -4.8082 -25.9423 0.0000 23.6241 0.0000
# 6 0.0000 0.0000 0.0000 6.7006 0.0000 16.7572
#
#
#
# Elastic Compliance Matrix: (Units=1/GPa)
#
#
# Indices 1 2 3 4 5 6 
#
# 1 -0.026703 0.110366 -0.050060 0.000000 -0.049634 0.000000
# 2 0.110366 -0.180167 0.077019 0.000000 0.118680 0.000000
# 3 -0.050060 0.077019 -0.011697 0.000000 -0.029270 0.000000
# 4 0.000000 0.000000 0.000000 0.040812 0.000000 -0.016319
# 5 -0.049634 0.118680 -0.029270 0.000000 0.002515 0.000000
# 6 0.000000 0.000000 0.000000 -0.016319 0.000000 0.066202
#
#
# Mechanical properties :
#
#
# Convention : Reuss Voigt Hill
#
# Bulk Modulus (GPa) = 17.83090 28.90579 23.36835
# Shear Modulus (GPa) = -13.69882 17.39938 1.85028
#
# Velocity S-wave (km/s) = -2.63630 2.97112 0.96889
# Velocity P-wave (km/s) = 0.46935 5.14154 3.62044
#
# Compressibility (1/GPa) = 0.05608242
#
# Stress axis : x y z
#
# Youngs Moduli (GPa) = -37.44848 -5.55041 -85.49175
#
# Poissons Ratio (x) = 0.61258 -4.27976
# Poissons Ratio (y) = 4.13304 6.58451
# Poissons Ratio (z) = -1.87469 0.42749
#
# Static dielectric constant tensor:
#      x y z
#    x 1.720540 0.000000 0.012160 
#    y 0.000000 1.698900 0.000000 
#    z 0.012160 0.000000 1.682180 
# 
# From -- ./inp_files/45297.got.cif
#   From: 2010.05.17/outbox.ucp.g08.bks.cvg/sg11_23_cif.got.tgz:45297.got - 2010.06.11 11:38:39.
