data_PCOD9167490
_publ_section_title
;
Structure prediction by ZEFSAII (Michael W. Deem and Ramdas Pophale) SiO2 
 PCOD9167490
Probable space group: P 21/M
;
_chemical_formula_sum "Si O2"
_cell_formula_units_Z 24
_cell_length_a 12.761100
_cell_length_b 17.849133
_cell_length_c 18.322604
_cell_angle_alpha 90.000000
_cell_angle_beta 160.547533
_cell_angle_gamma 90.000000
_cell_volume 1389.853124
_symmetry_space_group_name_H-M "P 21/M"
_symmetry_group_IT_number 11
_symmetry_cell_setting 'monoclinic'
loop_
_space_group_symop_operation_xyz
x,y,z
-x,1/2+y,-z
-x,-y,-z
x,1/2-y,z
loop_
_atom_site_type_symbol
_atom_site_label
_atom_site_fract_x
_atom_site_fract_y
_atom_site_fract_z
Si Si1 0.801122 0.161912 0.775556
Si Si2 0.717725 0.555160 0.837108
Si Si3 0.693509 0.545588 0.324434
Si Si4 0.695257 0.444846 0.575871
Si Si5 0.176338 0.340010 0.463163
Si Si6 0.717197 0.045593 0.086275
O O1 0.829198 0.250000 0.789588
O O2 0.766123 0.125851 0.672973
O O3 0.489541 0.145037 0.619763
O O4 0.106435 0.125854 0.013304
O O5 0.506970 0.511077 0.756956
O O6 0.509499 0.572873 0.629750
O O7 0.000000 0.500000 0.000000
O O8 0.775788 0.617243 0.428520
O O9 0.000000 0.500000 0.500000
O O10 0.487723 0.566656 0.118864
O O11 0.500000 0.500000 0.500000
O O12 0.006914 0.488928 0.756924
O O13 0.136914 0.250000 0.443463
O O14 0.886668 0.382752 0.233954
O O15 0.500000 0.000000 0.000000
#
# Coordination Sequence:
#
# PCOD9167490 Si02
#       6
#     4   4   4   4   4   4
#     4  11  24  39  61  97 130 159 203 266 316 353
#     4  12  20  37  63  89 119 162 208 249 299 365
#     4  12  22  39  65  93 120 165 212 249 301 375
#     4  12  20  37  63  89 119 162 208 249 299 365
#     4  11  24  41  61  97 132 155 201 264 316 359
#     4  12  22  39  65  93 120 165 212 249 301 375
#
# _framework density 17.268011999999999
#
# number of rings (size 3 to 8) (size 9 to 14) (size 15 to 20)
#    0.000    0.333   10.000    0.000    0.000    1.333 
#    0.000    6.667    0.000    4.000    0.000    0.000 
#    0.000    0.000    0.000    0.000    0.000    0.000 
#
# Total GULP energy -134102.580739 kJ/mol
# GULP energy per Si atom -5587.607531 kJ/mol
# Density = 1.722871 g / cm^3
# Si number density = 17.268012 Si / 1000 Ang^3
#
#
#
# Elastic Constant Matrix: (Units=GPa)
#
#
# Indices 1 2 3 4 5 6 
#
# 1 131.7882 69.9155 83.3276 0.0000 -11.8719 0.0000
# 2 69.9155 129.8522 73.2835 0.0000 -9.0114 0.0000
# 3 83.3276 73.2835 145.7873 0.0000 -25.6299 0.0000
# 4 0.0000 0.0000 0.0000 31.3163 0.0000 -4.0193
# 5 -11.8719 -9.0114 -25.6299 0.0000 63.3275 0.0000
# 6 0.0000 0.0000 0.0000 -4.0193 0.0000 29.8221
#
#
#
# Elastic Compliance Matrix: (Units=1/GPa)
#
#
# Indices 1 2 3 4 5 6 
#
# 1 0.013215 -0.003967 -0.005623 0.000000 -0.000363 0.000000
# 2 -0.003967 0.011971 -0.003856 0.000000 -0.000601 0.000000
# 3 -0.005623 -0.003856 0.012628 0.000000 0.003508 0.000000
# 4 0.000000 0.000000 0.000000 0.032494 0.000000 0.004379
# 5 -0.000363 -0.000601 0.003508 0.000000 0.017057 0.000000
# 6 0.000000 0.000000 0.000000 0.004379 0.000000 0.034122
#
#
# Mechanical properties :
#
#
# Convention : Reuss Voigt Hill
#
# Bulk Modulus (GPa) = 91.55112 95.60899 93.58006
# Shear Modulus (GPa) = 32.88997 36.95323 34.92160
#
# Velocity S-wave (km/s) = 4.36899 4.63101 4.50191
# Velocity P-wave (km/s) = 8.86474 9.16967 9.01850
#
# Compressibility (1/GPa) = 0.01092286
#
# Stress axis : x y z
#
# Youngs Moduli (GPa) = 75.67024 83.53182 79.18759
#
# Poissons Ratio (x) = 0.33138 0.44527
# Poissons Ratio (y) = 0.30020 0.30534
# Poissons Ratio (z) = 0.42550 0.32209
#
# Static dielectric constant tensor:
#      x y z
#    x 1.636040 0.000000 -0.055890 
#    y 0.000000 1.562740 0.000000 
#    z -0.055890 0.000000 1.656900 
# 
# From -- ./inp_files/41885.got.cif
#   From: 2010.05.17/outbox.cif.g08.bks.cpg/sg11_21_cif.got.tgz:41885.got - 2010.06.03 12:22:45.
