data_PCOD9167251
_publ_section_title
;
Structure prediction by ZEFSAII (Michael W. Deem and Ramdas Pophale) SiO2 
 PCOD9167251
Probable space group: P 21/M
;
_chemical_formula_sum "Si O2"
_cell_formula_units_Z 28
_cell_length_a 9.587782
_cell_length_b 8.556076
_cell_length_c 30.258667
_cell_angle_alpha 90.000000
_cell_angle_beta 142.724506
_cell_angle_gamma 90.000000
_cell_volume 1503.359840
_symmetry_space_group_name_H-M "P 21/M"
_symmetry_group_IT_number 11
_symmetry_cell_setting 'monoclinic'
loop_
_space_group_symop_operation_xyz
x,y,z
-x,1/2+y,-z
-x,-y,-z
x,1/2-y,z
loop_
_atom_site_type_symbol
_atom_site_label
_atom_site_fract_x
_atom_site_fract_y
_atom_site_fract_z
Si Si1 0.415903 0.559872 0.702834
Si Si2 0.175733 0.059510 0.132147
Si Si3 0.500261 0.061752 0.133841
Si Si4 0.740065 0.437970 0.432949
Si Si5 0.081133 0.938741 0.697736
Si Si6 0.650194 0.063198 0.997844
Si Si7 0.570223 0.064476 0.565649
O O1 0.418533 0.750000 0.703485
O O2 0.656012 0.508654 0.785647
O O3 0.371698 0.508559 0.641812
O O4 0.210219 0.515270 0.684626
O O5 0.174498 0.250000 0.132567
O O6 0.300871 0.013708 0.118121
O O7 0.914129 0.004932 0.068141
O O8 0.493662 0.250000 0.128422
O O9 0.741894 0.021443 0.218230
O O10 0.456707 0.988843 0.075553
O O11 0.743653 0.250000 0.434147
O O12 0.593469 0.496198 0.437551
O O13 0.000000 0.500000 0.500000
O O14 0.054908 0.750000 0.690488
O O15 0.834024 0.015453 0.640386
O O16 0.655481 0.250000 0.001084
O O17 0.500000 0.000000 0.000000
O O18 0.546968 0.250000 0.559573
O O19 0.500000 0.000000 0.500000
#
# Coordination Sequence:
#
# PCOD9167251 Si02
#       7
#     4   4   4   4   4   4   4
#     4   8  16  33  58  83 106 136 179 226 274 330
#     4   8  16  33  56  80 104 138 183 227 270 324
#     4   9  18  35  59  82 107 141 182 226 276 334
#     4  11  22  37  59  86 115 149 188 232 281 334
#     4   9  18  36  61  86 110 140 180 227 278 335
#     4  11  22  34  51  77 111 146 184 230 278 328
#     4  12  25  40  58  82 114 150 189 234 282 337
#
# _framework density 18.624948
#
# number of rings (size 3 to 8) (size 9 to 14) (size 15 to 20)
#    0.000    2.286    0.000    5.143    0.000    2.857 
#    0.000    4.286    0.000    6.000    0.000    0.000 
#    0.000    0.000    0.000    0.000    0.000    0.000 
#
# Total GULP energy -156334.037074 kJ/mol
# GULP energy per Si atom -5583.358467 kJ/mol
# Density = 1.858256 g / cm^3
# Si number density = 18.624948 Si / 1000 Ang^3
#
#
#
# Elastic Constant Matrix: (Units=GPa)
#
#
# Indices 1 2 3 4 5 6 
#
# 1 173.4559 47.2196 133.5336 0.0000 -5.4396 0.0000
# 2 47.2196 49.2484 48.6773 0.0000 0.1935 0.0000
# 3 133.5336 48.6773 157.0748 0.0000 -10.3309 0.0000
# 4 0.0000 0.0000 0.0000 30.3221 0.0000 0.1714
# 5 -5.4396 0.1935 -10.3309 0.0000 36.8740 0.0000
# 6 0.0000 0.0000 0.0000 0.1714 0.0000 28.6024
#
#
#
# Elastic Compliance Matrix: (Units=1/GPa)
#
#
# Indices 1 2 3 4 5 6 
#
# 1 0.017029 -0.002779 -0.013701 0.000000 -0.001312 0.000000
# 2 -0.002779 0.030000 -0.007102 0.000000 -0.002557 0.000000
# 3 -0.013701 -0.007102 0.020462 0.000000 0.003749 0.000000
# 4 0.000000 0.000000 0.000000 0.032980 0.000000 -0.000198
# 5 -0.001312 -0.002557 0.003749 0.000000 0.027990 0.000000
# 6 0.000000 0.000000 0.000000 -0.000198 0.000000 0.034963
#
#
# Mechanical properties :
#
#
# Convention : Reuss Voigt Hill
#
# Bulk Modulus (GPa) = 49.20215 93.18223 71.19219
# Shear Modulus (GPa) = 23.00279 29.18295 26.09287
#
# Velocity S-wave (km/s) = 3.51814 3.96267 3.74701
# Velocity P-wave (km/s) = 6.55575 8.43069 7.55163
#
# Compressibility (1/GPa) = 0.02032432
#
# Stress axis : x y z
#
# Youngs Moduli (GPa) = 58.72494 33.33308 48.87130
#
# Poissons Ratio (x) = 0.09265 0.66960
# Poissons Ratio (y) = 0.16322 0.34710
# Poissons Ratio (z) = 0.80461 0.23674
#
# Static dielectric constant tensor:
#      x y z
#    x 1.592140 0.000000 0.007930 
#    y 0.000000 1.642510 0.000000 
#    z 0.007930 0.000000 1.638200 
# 
# From -- ./inp_files/70887.got.cif
#   From: 2010.05.17/outbox.cif.g08.bks.cpg/sg11_36_cif.got.tgz:70887.got - 2010.06.03 12:22:45.
