data_PCOD9167958
_publ_section_title
;
Structure prediction by ZEFSAII (Michael W. Deem and Ramdas Pophale) SiO2 
 PCOD9167958
Probable space group: P 21/M
;
_chemical_formula_sum "Si O2"
_cell_formula_units_Z 28
_cell_length_a 15.000000
_cell_length_b 9.000000
_cell_length_c 18.000000
_cell_angle_alpha 90.000000
_cell_angle_beta 140.000000
_cell_angle_gamma 90.000000
_cell_volume 1561.973892
_symmetry_space_group_name_H-M "P 21/M"
_symmetry_group_IT_number 11
_symmetry_cell_setting 'monoclinic'
loop_
_space_group_symop_operation_xyz
x,y,z
-x,1/2+y,-z
-x,-y,-z
x,1/2-y,z
loop_
_atom_site_type_symbol
_atom_site_label
_atom_site_fract_x
_atom_site_fract_y
_atom_site_fract_z
Si Si1 0.942896 0.076572 0.039570
Si Si2 0.714960 0.427795 0.603091
Si Si3 0.015234 0.428597 0.774050
Si Si4 0.389466 0.581049 0.183854
Si Si5 0.281413 0.927342 0.872284
Si Si6 0.581575 0.575895 0.647544
Si Si7 0.486596 0.574291 0.875734
O O1 0.990587 0.250000 0.072860
O O2 0.979178 0.984494 0.136933
O O3 0.775052 0.080741 0.937103
O O4 0.000000 0.000000 0.000000
O O5 0.713340 0.250000 0.608335
O O6 0.699470 0.494988 0.675199
O O7 0.572259 0.477382 0.473865
O O8 0.856259 0.466286 0.651334
O O9 0.036141 0.250000 0.784299
O O10 0.130811 0.510665 0.798369
O O11 0.425991 0.750000 0.228978
O O12 0.404515 0.464574 0.258943
O O13 0.485356 0.525261 0.178110
O O14 0.289254 0.750000 0.894367
O O15 0.341311 0.946274 0.826922
O O16 0.390533 0.020231 0.991193
O O17 0.590984 0.750000 0.639200
O O18 0.502124 0.750000 0.869688
#
# Coordination Sequence:
#
# PCOD9167958 Si02
#       7
#     4   4   4   4   4   4   4
#     4  11  23  35  48  72 107 141 172 211 259 312
#     4   9  20  37  54  77 106 137 178 223 261 305
#     4  11  21  34  54  77 105 140 175 213 261 314
#     4  11  22  35  52  76 108 139 173 218 262 308
#     4  10  20  34  52  78 108 136 172 217 259 309
#     4  10  20  35  56  78 103 138 180 221 262 310
#     4  10  20  34  54  77 104 139 176 212 258 314
#
# _framework density 17.926036
#
# number of rings (size 3 to 8) (size 9 to 14) (size 15 to 20)
#    0.000    1.714    1.429    3.429    0.000    8.571 
#    0.000    0.000    0.000    0.857    0.000    0.000 
#    0.000    0.000    0.000    0.000    0.000    0.000 
#
# Total GULP energy -156098.436369 kJ/mol
# GULP energy per Si atom -5574.944156 kJ/mol
# Density = 1.788524 g / cm^3
# Si number density = 17.926036 Si / 1000 Ang^3
#
#
#
# Elastic Constant Matrix: (Units=GPa)
#
#
# Indices 1 2 3 4 5 6 
#
# 1 105.6284 23.6761 19.6070 0.0000 37.4979 0.0000
# 2 23.6761 37.8851 -1.3720 0.0000 19.3636 0.0000
# 3 19.6070 -1.3720 25.7213 0.0000 16.6064 0.0000
# 4 0.0000 0.0000 0.0000 18.6515 0.0000 1.3687
# 5 37.4979 19.3636 16.6064 0.0000 23.9195 0.0000
# 6 0.0000 0.0000 0.0000 1.3687 0.0000 26.5656
#
#
#
# Elastic Compliance Matrix: (Units=1/GPa)
#
#
# Indices 1 2 3 4 5 6 
#
# 1 0.057620 0.114391 0.145504 0.000000 -0.283949 0.000000
# 2 0.114391 0.375384 0.443664 0.000000 -0.791230 0.000000
# 3 0.145504 0.443664 0.599493 0.000000 -1.003467 0.000000
# 4 0.000000 0.000000 0.000000 0.053818 0.000000 -0.002773
# 5 -0.283949 -0.791230 -1.003467 0.000000 1.824137 0.000000
# 6 0.000000 0.000000 0.000000 -0.002773 0.000000 0.037786
#
#
# Mechanical properties :
#
#
# Convention : Reuss Voigt Hill
#
# Bulk Modulus (GPa) = 0.40990 28.11744 14.26367
# Shear Modulus (GPa) = 2.12375 22.31558 12.21967
#
# Velocity S-wave (km/s) = 1.08963 3.53210 2.61372
# Velocity P-wave (km/s) = 1.34619 5.68802 4.13315
#
# Compressibility (1/GPa) = 2.43961498
#
# Stress axis : x y z
#
# Youngs Moduli (GPa) = 17.35524 2.66394 1.66808
#
# Poissons Ratio (x) = -0.30473 -0.24271
# Poissons Ratio (y) = -1.98528 -0.74007
# Poissons Ratio (z) = -2.52526 -1.18190
#
# Static dielectric constant tensor:
#      x y z
#    x 1.617810 0.000000 -0.010380 
#    y 0.000000 1.613390 0.000000 
#    z -0.010380 0.000000 1.665040 
# 
# From -- ./inp_files/53196.got.cif
#   From: 2010.05.17/outbox.ucp.g08.bks.cvg/sg11_27_cif.got.tgz:53196.got - 2010.06.11 11:38:39.
