data_PCOD9167285
_publ_section_title
;
Structure prediction by ZEFSAII (Michael W. Deem and Ramdas Pophale) SiO2 
 PCOD9167285
Probable space group: P 21/M
;
_chemical_formula_sum "Si O2"
_cell_formula_units_Z 28
_cell_length_a 10.084035
_cell_length_b 8.795491
_cell_length_c 28.545214
_cell_angle_alpha 90.000000
_cell_angle_beta 142.341978
_cell_angle_gamma 90.000000
_cell_volume 1546.790167
_symmetry_space_group_name_H-M "P 21/M"
_symmetry_group_IT_number 11
_symmetry_cell_setting 'monoclinic'
loop_
_space_group_symop_operation_xyz
x,y,z
-x,1/2+y,-z
-x,-y,-z
x,1/2-y,z
loop_
_atom_site_type_symbol
_atom_site_label
_atom_site_fract_x
_atom_site_fract_y
_atom_site_fract_z
Si Si1 0.844572 0.932834 0.496851
Si Si2 0.222390 0.930469 0.044333
Si Si3 0.036412 0.570094 0.808059
Si Si4 0.340233 0.931557 0.803916
Si Si5 0.935422 0.934887 0.628899
Si Si6 0.279115 0.430282 0.958171
Si Si7 0.369945 0.067056 0.371644
O O1 0.855033 0.750000 0.497575
O O2 0.912784 0.981932 0.568787
O O3 0.596029 0.987968 0.423332
O O4 0.000000 0.000000 0.500000
O O5 0.214511 0.750000 0.042488
O O6 0.430396 0.986553 0.131903
O O7 0.246989 0.993130 0.998967
O O8 0.000000 0.000000 0.000000
O O9 0.041922 0.750000 0.820946
O O10 0.222055 0.542350 0.820843
O O11 0.090677 0.474200 0.868900
O O12 0.810291 0.537389 0.718725
O O13 0.372308 0.750000 0.808357
O O14 0.164156 0.981436 0.716006
O O15 0.932224 0.750000 0.629341
O O16 0.741136 0.982740 0.609947
O O17 0.298073 0.250000 0.968368
O O18 0.500000 0.500000 0.000000
O O19 0.401161 0.250000 0.382645
#
# Coordination Sequence:
#
# PCOD9167285 Si02
#       7
#     4   4   4   4   4   4   4
#     4  11  22  37  56  82 117 155 191 232 283 342
#     4  12  25  41  59  84 117 156 197 242 294 347
#     4   9  18  34  59  88 116 147 189 238 291 342
#     4   9  17  35  61  85 112 147 191 242 289 342
#     4   8  17  35  61  87 110 145 190 234 285 341
#     4  12  23  37  60  88 119 154 195 241 288 343
#     4   9  18  36  61  87 113 145 187 236 287 343
#
# _framework density 18.102004000000001
#
# number of rings (size 3 to 8) (size 9 to 14) (size 15 to 20)
#    0.000    2.000    1.429    5.143    0.000    0.571 
#    2.571    4.286    0.000    0.000    0.000    0.000 
#    0.000    0.000    0.000    0.000    0.000    0.000 
#
# Total GULP energy -156306.950345 kJ/mol
# GULP energy per Si atom -5582.391084 kJ/mol
# Density = 1.806080 g / cm^3
# Si number density = 18.102004 Si / 1000 Ang^3
#
#
#
# Elastic Constant Matrix: (Units=GPa)
#
#
# Indices 1 2 3 4 5 6 
#
# 1 131.9599 44.5136 75.7898 0.0000 20.3799 0.0000
# 2 44.5136 65.7029 49.9021 0.0000 15.4131 0.0000
# 3 75.7898 49.9021 117.1868 0.0000 19.0740 0.0000
# 4 0.0000 0.0000 0.0000 32.8921 0.0000 4.1300
# 5 20.3799 15.4131 19.0740 0.0000 25.9273 0.0000
# 6 0.0000 0.0000 0.0000 4.1300 0.0000 27.3499
#
#
#
# Elastic Compliance Matrix: (Units=1/GPa)
#
#
# Indices 1 2 3 4 5 6 
#
# 1 0.012839 -0.002947 -0.006465 0.000000 -0.003584 0.000000
# 2 -0.002947 0.024416 -0.007391 0.000000 -0.006761 0.000000
# 3 -0.006465 -0.007391 0.016267 0.000000 -0.002492 0.000000
# 4 0.000000 0.000000 0.000000 0.030990 0.000000 -0.004680
# 5 -0.003584 -0.006761 -0.002492 0.000000 0.047239 0.000000
# 6 0.000000 0.000000 0.000000 -0.004680 0.000000 0.037270
#
#
# Mechanical properties :
#
#
# Convention : Reuss Voigt Hill
#
# Bulk Modulus (GPa) = 50.20989 72.80672 61.50831
# Shear Modulus (GPa) = 23.89304 26.87681 25.38492
#
# Velocity S-wave (km/s) = 3.63700 3.85742 3.74883
# Velocity P-wave (km/s) = 6.74051 7.75546 7.26573
#
# Compressibility (1/GPa) = 0.01991639
#
# Stress axis : x y z
#
# Youngs Moduli (GPa) = 77.88833 40.95658 61.47248
#
# Poissons Ratio (x) = 0.12071 0.39743
# Poissons Ratio (y) = 0.22956 0.45432
# Poissons Ratio (z) = 0.50356 0.30269
#
# Static dielectric constant tensor:
#      x y z
#    x 1.582760 0.000000 -0.011550 
#    y 0.000000 1.606430 0.000000 
#    z -0.011550 0.000000 1.634310 
# 
# From -- ./inp_files/70912.got.cif
#   From: 2010.05.17/outbox.cif.g08.bks.cpg/sg11_36_cif.got.tgz:70912.got - 2010.06.03 12:22:45.
