data_PCOD9167545
_publ_section_title
;
Structure prediction by ZEFSAII (Michael W. Deem and Ramdas Pophale) SiO2 
 PCOD9167545
Probable space group: P 21/M
;
_chemical_formula_sum "Si O2"
_cell_formula_units_Z 20
_cell_length_a 7.161596
_cell_length_b 18.371976
_cell_length_c 12.266618
_cell_angle_alpha 90.000000
_cell_angle_beta 35.628244
_cell_angle_gamma 90.000000
_cell_volume 940.165133
_symmetry_space_group_name_H-M "P 21/M"
_symmetry_group_IT_number 11
_symmetry_cell_setting 'monoclinic'
loop_
_space_group_symop_operation_xyz
x,y,z
-x,1/2+y,-z
-x,-y,-z
x,1/2-y,z
loop_
_atom_site_type_symbol
_atom_site_label
_atom_site_fract_x
_atom_site_fract_y
_atom_site_fract_z
Si Si1 0.516742 0.335325 0.433395
Si Si2 0.314931 0.418183 0.733177
Si Si3 0.297856 0.053116 0.380859
Si Si4 0.417861 0.921899 0.987242
Si Si5 0.767696 0.665591 0.002494
O O1 0.439686 0.250000 0.479854
O O2 0.527335 0.373280 0.546471
O O3 0.262806 0.379786 0.479931
O O4 0.861297 0.342399 0.210541
O O5 0.439558 0.499951 0.688908
O O6 0.306059 0.381955 0.856182
O O7 0.958566 0.417381 0.854807
O O8 0.415293 0.082392 0.209394
O O9 0.000000 0.000000 0.500000
O O10 0.550554 0.861753 0.006175
O O11 0.500000 0.000000 0.000000
O O12 0.711490 0.750000 0.053736
#
# Coordination Sequence:
#
# PCOD9167545 Si02
#       5
#     4   4   4   4   4
#     4  11  25  45  68 100 141 182 229 286 350 412
#     4  12  24  46  71 100 141 181 236 287 343 413
#     4  12  24  44  72 104 140 185 233 289 345 412
#     4  12  23  42  71 102 134 179 229 287 344 412
#     4  11  25  45  69 101 139 183 231 286 352 415
#
# _framework density 21.272857999999999
#
# number of rings (size 3 to 8) (size 9 to 14) (size 15 to 20)
#    0.000    0.400    4.000    5.400    0.000    2.400 
#    0.000    1.000    0.000    0.000    0.000    0.000 
#    0.000    0.000    0.000    0.000    0.000    0.000 
#
# Total GULP energy -112022.907244 kJ/mol
# GULP energy per Si atom -5601.145362 kJ/mol
# Density = 2.122444 g / cm^3
# Si number density = 21.272858 Si / 1000 Ang^3
#
#
#
# Elastic Constant Matrix: (Units=GPa)
#
#
# Indices 1 2 3 4 5 6 
#
# 1 105.5492 35.4484 18.9170 0.0000 13.0747 0.0000
# 2 35.4484 110.7598 6.8867 0.0000 14.4111 0.0000
# 3 18.9170 6.8867 46.2161 0.0000 25.8547 0.0000
# 4 0.0000 0.0000 0.0000 18.0012 0.0000 -5.9631
# 5 13.0747 14.4111 25.8547 0.0000 52.6701 0.0000
# 6 0.0000 0.0000 0.0000 -5.9631 0.0000 22.3720
#
#
#
# Elastic Compliance Matrix: (Units=1/GPa)
#
#
# Indices 1 2 3 4 5 6 
#
# 1 0.011352 -0.003394 -0.004251 0.000000 0.000198 0.000000
# 2 -0.003394 0.010377 0.001324 0.000000 -0.002646 0.000000
# 3 -0.004251 0.001324 0.031421 0.000000 -0.014731 0.000000
# 4 0.000000 0.000000 0.000000 0.060932 0.000000 0.016241
# 5 0.000198 -0.002646 -0.014731 0.000000 0.026892 0.000000
# 6 0.000000 0.000000 0.000000 0.016241 0.000000 0.049028
#
#
# Mechanical properties :
#
#
# Convention : Reuss Voigt Hill
#
# Bulk Modulus (GPa) = 24.68789 42.78106 33.73447
# Shear Modulus (GPa) = 23.13235 32.02687 27.57961
#
# Velocity S-wave (km/s) = 3.30117 3.88432 3.60456
# Velocity P-wave (km/s) = 5.11477 6.34599 5.76335
#
# Compressibility (1/GPa) = 0.04050569
#
# Stress axis : x y z
#
# Youngs Moduli (GPa) = 88.09246 96.36739 31.82555
#
# Poissons Ratio (x) = 0.32712 0.13530
# Poissons Ratio (y) = 0.29903 -0.04212
# Poissons Ratio (z) = 0.37450 -0.12755
#
# Static dielectric constant tensor:
#      x y z
#    x 1.741040 0.000000 -0.009940 
#    y 0.000000 1.763880 0.000000 
#    z -0.009940 0.000000 1.786180 
# 
# From -- ./inp_files/2471.got.cif
#   From: 2010.05.17/outbox.cif.g08.bks.cpg/sg11_2_cif.got.tgz:2471.got - 2010.06.03 12:22:45.
