data_PCOD9167135
_publ_section_title
;
Structure prediction by ZEFSAII (Michael W. Deem and Ramdas Pophale) SiO2 
 PCOD9167135
Probable space group: P 21/M
;
_chemical_formula_sum "Si O2"
_cell_formula_units_Z 28
_cell_length_a 14.507106
_cell_length_b 13.968984
_cell_length_c 9.064783
_cell_angle_alpha 90.000000
_cell_angle_beta 136.713998
_cell_angle_gamma 90.000000
_cell_volume 1259.503846
_symmetry_space_group_name_H-M "P 21/M"
_symmetry_group_IT_number 11
_symmetry_cell_setting 'monoclinic'
loop_
_space_group_symop_operation_xyz
x,y,z
-x,1/2+y,-z
-x,-y,-z
x,1/2-y,z
loop_
_atom_site_type_symbol
_atom_site_label
_atom_site_fract_x
_atom_site_fract_y
_atom_site_fract_z
Si Si1 0.394541 0.142359 0.157182
Si Si2 0.128430 0.468608 0.932589
Si Si3 0.462951 0.567180 0.225375
Si Si4 0.283783 0.641626 0.259580
Si Si5 0.689770 0.856185 0.280346
Si Si6 0.872085 0.356314 0.646086
Si Si7 0.198205 0.959351 0.714833
O O1 0.434116 0.250000 0.253059
O O2 0.479301 0.045305 0.282874
O O3 0.246730 0.111397 0.048179
O O4 0.382224 0.147457 0.964413
O O5 0.104675 0.510590 0.740992
O O6 0.991549 0.426110 0.832447
O O7 0.188648 0.556464 0.092410
O O8 0.417559 0.621812 0.320051
O O9 0.587105 0.615874 0.289650
O O10 0.338770 0.566144 0.962740
O O11 0.241164 0.750000 0.169326
O O12 0.261098 0.636739 0.409067
O O13 0.747995 0.750000 0.372952
O O14 0.784878 0.947215 0.368782
O O15 0.925814 0.250000 0.727232
O O16 0.841571 0.375532 0.439982
#
# Coordination Sequence:
#
# PCOD9167135 Si02
#       7
#     4   4   4   4   4   4   4
#     4   8  14  25  44  72  96 116 151 197 234 270
#     4   9  18  33  51  69  94 128 163 194 226 279
#     4   9  17  31  51  72  94 126 162 197 232 281
#     4   9  19  33  50  72  96 126 162 192 228 281
#     4   9  16  29  50  70  94 126 159 196 239 283
#     4  11  21  33  49  70  99 130 155 192 243 283
#     4   9  19  32  47  75  99 118 157 202 240 279
#
# _framework density 22.230974
#
# number of rings (size 3 to 8) (size 9 to 14) (size 15 to 20)
#    0.000    3.429    0.000    3.429    0.000    3.429 
#    0.000    2.143    0.000    4.286    0.000    0.000 
#    0.000    0.000    0.000    0.000    0.000    0.000 
#
# Total GULP energy -156056.321305 kJ/mol
# GULP energy per Si atom -5573.440047 kJ/mol
# Density = 2.218038 g / cm^3
# Si number density = 22.230974 Si / 1000 Ang^3
#
#
#
# Elastic Constant Matrix: (Units=GPa)
#
#
# Indices 1 2 3 4 5 6 
#
# 1 114.6545 27.8734 7.3797 0.0000 -20.9171 0.0000
# 2 27.8734 94.7628 15.2757 0.0000 -16.8301 0.0000
# 3 7.3797 15.2757 22.5991 0.0000 -2.7292 0.0000
# 4 0.0000 0.0000 0.0000 21.3841 0.0000 -3.5403
# 5 -20.9171 -16.8301 -2.7292 0.0000 18.5750 0.0000
# 6 0.0000 0.0000 0.0000 -3.5403 0.0000 26.7391
#
#
#
# Elastic Compliance Matrix: (Units=1/GPa)
#
#
# Indices 1 2 3 4 5 6 
#
# 1 0.011150 -0.000995 -0.001589 0.000000 0.011420 0.000000
# 2 -0.000995 0.013953 -0.007854 0.000000 0.010367 0.000000
# 3 -0.001589 -0.007854 0.049887 0.000000 -0.001576 0.000000
# 4 0.000000 0.000000 0.000000 0.047812 0.000000 0.006330
# 5 0.011420 0.010367 -0.001576 0.000000 0.075858 0.000000
# 6 0.000000 0.000000 0.000000 0.006330 0.000000 0.038237
#
#
# Mechanical properties :
#
#
# Convention : Reuss Voigt Hill
#
# Bulk Modulus (GPa) = 18.48003 37.00824 27.74414
# Shear Modulus (GPa) = 18.12840 25.43880 21.78360
#
# Velocity S-wave (km/s) = 2.85872 3.38641 3.13369
# Velocity P-wave (km/s) = 4.38488 5.65453 5.05969
#
# Compressibility (1/GPa) = 0.05411245
#
# Stress axis : x y z
#
# Youngs Moduli (GPa) = 89.69001 71.67047 20.04524
#
# Poissons Ratio (x) = 0.07132 0.03185
# Poissons Ratio (y) = 0.08925 0.15744
# Poissons Ratio (z) = 0.14253 0.56292
#
# Static dielectric constant tensor:
#      x y z
#    x 1.813460 0.000000 0.022820 
#    y 0.000000 1.809840 0.000000 
#    z 0.022820 0.000000 1.856820 
# 
# From -- ./inp_files/21944.got.cif
#   From: 2010.05.17/outbox.cif.g08.bks.cpg/sg11_11_cif.got.tgz:21944.got - 2010.06.03 12:22:45.
