data_PCOD9167260
_publ_section_title
;
Structure prediction by ZEFSAII (Michael W. Deem and Ramdas Pophale) SiO2 
 PCOD9167260
Probable space group: P 21/M
;
_chemical_formula_sum "Si O2"
_cell_formula_units_Z 20
_cell_length_a 27.929279
_cell_length_b 8.484054
_cell_length_c 9.838871
_cell_angle_alpha 90.000000
_cell_angle_beta 151.820543
_cell_angle_gamma 90.000000
_cell_volume 1100.946858
_symmetry_space_group_name_H-M "P 21/M"
_symmetry_group_IT_number 11
_symmetry_cell_setting 'monoclinic'
loop_
_space_group_symop_operation_xyz
x,y,z
-x,1/2+y,-z
-x,-y,-z
x,1/2-y,z
loop_
_atom_site_type_symbol
_atom_site_label
_atom_site_fract_x
_atom_site_fract_y
_atom_site_fract_z
Si Si1 0.410705 0.560001 0.182367
Si Si2 0.818895 0.440709 0.707367
Si Si3 0.411046 0.560266 0.871979
Si Si4 0.181898 0.942008 0.609036
Si Si5 0.999575 0.561288 0.345240
O O1 0.500000 0.500000 0.500000
O O2 0.410893 0.750000 0.185870
O O3 0.427885 0.509424 0.069709
O O4 0.296263 0.508416 0.933571
O O5 0.823822 0.250000 0.724125
O O6 0.703385 0.488766 0.453308
O O7 0.838580 0.488865 0.599176
O O8 0.900297 0.508935 0.014151
O O9 0.411635 0.750000 0.871464
O O10 0.500000 0.500000 0.000000
O O11 0.181151 0.750000 0.607190
O O12 0.096684 0.996476 0.500727
O O13 0.003652 0.750000 0.359269
O O14 0.000000 0.500000 0.500000
#
# Coordination Sequence:
#
# PCOD9167260 Si02
#       5
#     4   4   4   4   4
#     4   9  18  34  53  75 101 132 169 208 248 296
#     4   9  18  36  57  75  98 133 172 212 254 298
#     4   9  19  34  53  76 104 135 169 208 253 301
#     4   8  17  35  56  73  97 134 172 206 249 301
#     4  11  22  35  52  77 105 134 167 208 255 304
#
# _framework density 18.166181000000002
#
# number of rings (size 3 to 8) (size 9 to 14) (size 15 to 20)
#    0.000    2.800    0.000    3.600    0.000    3.200 
#    0.000   12.000    0.000    0.000    0.000    0.000 
#    0.000    0.000    0.000    0.000    0.000    0.000 
#
# Total GULP energy -111531.326741 kJ/mol
# GULP energy per Si atom -5576.566337 kJ/mol
# Density = 1.812483 g / cm^3
# Si number density = 18.166181 Si / 1000 Ang^3
#
#
#
# Elastic Constant Matrix: (Units=GPa)
#
#
# Indices 1 2 3 4 5 6 
#
# 1 181.0080 29.9788 124.1310 0.0000 22.9891 0.0000
# 2 29.9788 15.7652 30.9519 0.0000 1.3850 0.0000
# 3 124.1310 30.9519 206.2245 0.0000 2.3423 0.0000
# 4 0.0000 0.0000 0.0000 35.6631 0.0000 -1.4969
# 5 22.9891 1.3850 2.3423 0.0000 19.5721 0.0000
# 6 0.0000 0.0000 0.0000 -1.4969 0.0000 26.7386
#
#
#
# Elastic Compliance Matrix: (Units=1/GPa)
#
#
# Indices 1 2 3 4 5 6 
#
# 1 0.013689 -0.012628 -0.006180 0.000000 -0.014446 0.000000
# 2 -0.012628 0.102024 -0.007809 0.000000 0.008548 0.000000
# 3 -0.006180 -0.007809 0.009666 0.000000 0.006655 0.000000
# 4 0.000000 0.000000 0.000000 0.028106 0.000000 0.001573
# 5 -0.014446 0.008548 0.006655 0.000000 0.066660 0.000000
# 6 0.000000 0.000000 0.000000 0.001573 0.000000 0.037487
#
#
# Mechanical properties :
#
#
# Convention : Reuss Voigt Hill
#
# Bulk Modulus (GPa) = 13.86107 85.90236 49.88171
# Shear Modulus (GPa) = 14.92921 30.92382 22.92651
#
# Velocity S-wave (km/s) = 2.86984 4.13034 3.55638
# Velocity P-wave (km/s) = 4.31602 8.37472 6.66198
#
# Compressibility (1/GPa) = 0.07214449
#
# Stress axis : x y z
#
# Youngs Moduli (GPa) = 73.05029 9.80164 103.45967
#
# Poissons Ratio (x) = 0.12378 0.63942
# Poissons Ratio (y) = 0.92248 0.80787
# Poissons Ratio (z) = 0.45148 0.07654
#
# Static dielectric constant tensor:
#      x y z
#    x 1.621310 0.000000 0.015270 
#    y 0.000000 1.633830 0.000000 
#    z 0.015270 0.000000 1.602310 
# 
# From -- ./inp_files/16586.got.cif
#   From: 2010.05.17/outbox.cif.g08.bks.cpg/sg11_9_cif.got.tgz:16586.got - 2010.06.03 12:22:45.
