data_PCOD9167400
_publ_section_title
;
Structure prediction by ZEFSAII (Michael W. Deem and Ramdas Pophale) SiO2 
 PCOD9167400
Probable space group: P 21/M
;
_chemical_formula_sum "Si O2"
_cell_formula_units_Z 30
_cell_length_a 6.086444
_cell_length_b 17.118250
_cell_length_c 15.335035
_cell_angle_alpha 90.000000
_cell_angle_beta 58.826301
_cell_angle_gamma 90.000000
_cell_volume 1367.034704
_symmetry_space_group_name_H-M "P 21/M"
_symmetry_group_IT_number 11
_symmetry_cell_setting 'monoclinic'
loop_
_space_group_symop_operation_xyz
x,y,z
-x,1/2+y,-z
-x,-y,-z
x,1/2-y,z
loop_
_atom_site_type_symbol
_atom_site_label
_atom_site_fract_x
_atom_site_fract_y
_atom_site_fract_z
Si Si1 0.712352 0.034439 0.072279
Si Si2 0.777077 0.440272 0.568026
Si Si3 0.748980 0.750000 0.087281
Si Si4 0.537168 0.121180 0.940988
Si Si5 0.320798 0.657234 0.584590
Si Si6 0.879810 0.664415 0.408341
Si Si7 0.276700 0.531237 0.734429
Si Si8 0.083078 0.137696 0.789177
O O1 0.674298 0.062586 0.178710
O O2 0.531439 0.960477 0.089903
O O3 0.633685 0.100101 0.018380
O O4 0.000000 0.000000 0.000000
O O5 0.757852 0.380399 0.491574
O O6 0.521701 0.487635 0.641653
O O7 0.000000 0.500000 0.500000
O O8 0.887796 0.394563 0.627953
O O9 0.692288 0.681041 0.025752
O O10 0.794692 0.681282 0.153851
O O11 0.784593 0.160523 0.845641
O O12 0.263024 0.750000 0.602898
O O13 0.632929 0.648856 0.519461
O O14 0.206854 0.601272 0.683365
O O15 0.977744 0.750000 0.408892
O O16 0.786493 0.661777 0.327955
O O17 0.091025 0.456823 0.789278
#
# Coordination Sequence:
#
# PCOD9167400 Si02
#       8
#     4   4   2   4   4   4   4   4
#     4  11  23  45  69  99 137 179 236 296 345 418
#     4  12  23  41  67  97 130 179 232 280 340 415
#     4  12  24  42  64 106 144 172 230 300 362 412
#     4  11  24  42  70 100 136 183 226 287 368 422
#     4  11  25  45  63  95 140 181 224 284 342 414
#     4  11  23  38  63  96 136 178 219 275 350 408
#     4  12  23  44  70  96 136 182 236 284 343 416
#     4  12  23  40  68 102 139 177 228 289 349 421
#
# _framework density 21.945309999999999
#
# number of rings (size 3 to 8) (size 9 to 14) (size 15 to 20)
#    0.000    0.533    6.000    2.800    0.000    0.000 
#    1.200    0.000    0.000    0.000    0.000    0.000 
#    0.000    0.000    0.000    0.000    0.000    0.000 
#
# Total GULP energy -167057.942702 kJ/mol
# GULP energy per Si atom -5568.598090 kJ/mol
# Density = 2.189536 g / cm^3
# Si number density = 21.945310 Si / 1000 Ang^3
#
#
#
# Elastic Constant Matrix: (Units=GPa)
#
#
# Indices 1 2 3 4 5 6 
#
# 1 56.6509 37.1594 21.8580 0.0000 18.4808 0.0000
# 2 37.1594 128.1481 39.7057 0.0000 12.9787 0.0000
# 3 21.8580 39.7057 87.3306 0.0000 32.0986 0.0000
# 4 0.0000 0.0000 0.0000 23.7517 0.0000 18.7059
# 5 18.4808 12.9787 32.0986 0.0000 37.1587 0.0000
# 6 0.0000 0.0000 0.0000 18.7059 0.0000 25.5428
#
#
#
# Elastic Compliance Matrix: (Units=1/GPa)
#
#
# Indices 1 2 3 4 5 6 
#
# 1 0.025122 -0.006369 0.000561 0.000000 -0.010754 0.000000
# 2 -0.006369 0.010706 -0.004489 0.000000 0.003306 0.000000
# 3 0.000561 -0.004489 0.018868 0.000000 -0.015010 0.000000
# 4 0.000000 0.000000 0.000000 0.099475 0.000000 -0.072849
# 5 -0.010754 0.003306 -0.015010 0.000000 0.044071 0.000000
# 6 0.000000 0.000000 0.000000 -0.072849 0.000000 0.092499
#
#
# Mechanical properties :
#
#
# Convention : Reuss Voigt Hill
#
# Bulk Modulus (GPa) = 29.32379 52.17509 40.74944
# Shear Modulus (GPa) = 15.49415 28.85110 22.17263
#
# Velocity S-wave (km/s) = 2.66001 3.62979 3.18206
# Velocity P-wave (km/s) = 4.77760 6.43380 5.66654
#
# Compressibility (1/GPa) = 0.03410201
#
# Stress axis : x y z
#
# Youngs Moduli (GPa) = 39.80651 93.40285 52.99969
#
# Poissons Ratio (x) = 0.59490 -0.02972
# Poissons Ratio (y) = 0.25353 0.23789
# Poissons Ratio (z) = -0.02232 0.41924
#
# Static dielectric constant tensor:
#      x y z
#    x 1.851940 0.000000 0.004770 
#    y 0.000000 1.751080 0.000000 
#    z 0.004770 0.000000 1.805270 
# 
# From -- ./inp_files/46026.got.cif
#   From: 2010.05.17/outbox.cif.g08.bks.cpg/sg11_24_cif.got.tgz:46026.got - 2010.06.03 12:22:45.
