data_PCOD9167810
_publ_section_title
;
Structure prediction by ZEFSAII (Michael W. Deem and Ramdas Pophale) SiO2 
 PCOD9167810
Probable space group: P 21/M
;
_chemical_formula_sum "Si O2"
_cell_formula_units_Z 32
_cell_length_a 30.000000
_cell_length_b 9.000000
_cell_length_c 12.000000
_cell_angle_alpha 90.000000
_cell_angle_beta 30.000000
_cell_angle_gamma 90.000000
_cell_volume 1620.000000
_symmetry_space_group_name_H-M "P 21/M"
_symmetry_group_IT_number 11
_symmetry_cell_setting 'monoclinic'
loop_
_space_group_symop_operation_xyz
x,y,z
-x,1/2+y,-z
-x,-y,-z
x,1/2-y,z
loop_
_atom_site_type_symbol
_atom_site_label
_atom_site_fract_x
_atom_site_fract_y
_atom_site_fract_z
Si Si1 0.648060 0.578159 0.751799
Si Si2 0.860704 0.925821 0.329935
Si Si3 0.405933 0.578599 0.579752
Si Si4 0.919909 0.429650 0.433493
Si Si5 0.576732 0.075723 0.115552
Si Si6 0.696518 0.418621 0.430559
Si Si7 0.098618 0.928430 0.993164
Si Si8 0.264094 0.927072 0.064787
O O1 0.624099 0.750000 0.808670
O O2 0.753130 0.562326 0.556014
O O3 0.648091 0.518446 0.626509
O O4 0.585873 0.492612 0.973193
O O5 0.883536 0.750000 0.284070
O O6 0.892614 0.010309 0.370609
O O7 0.901073 0.001804 0.131955
O O8 0.423987 0.750000 0.576058
O O9 0.499691 0.496681 0.358459
O O10 0.358628 0.580794 0.562553
O O11 0.329871 0.512921 0.826122
O O12 0.924211 0.250000 0.425020
O O13 0.837237 0.478561 0.692832
O O14 0.018339 0.498729 0.237551
O O15 0.559402 0.250000 0.146956
O O16 0.674025 0.053124 0.960612
O O17 0.700071 0.250000 0.468478
O O18 0.800143 0.461037 0.185061
O O19 0.086807 0.750000 0.015140
O O20 0.255684 0.750000 0.061085
#
# Coordination Sequence:
#
# PCOD9167810 Si02
#       8
#     4   4   4   4   4   4   4   4
#     4  10  20  34  56  84 114 146 181 225 273 325
#     4  10  19  32  51  79 111 144 179 221 270 323
#     4  10  21  40  61  81 105 144 191 230 273 325
#     4  11  20  33  53  79 110 146 180 219 270 326
#     4  11  21  36  58  86 115 143 178 224 280 333
#     4   9  20  38  59  79 109 148 186 228 273 322
#     4  10  20  34  52  78 109 144 182 223 269 322
#     4   9  20  37  58  82 112 145 181 225 275 329
#
# _framework density 19.753086
#
# number of rings (size 3 to 8) (size 9 to 14) (size 15 to 20)
#    0.000    2.000    1.250    2.625    0.000    2.500 
#    0.000    2.500    0.000    0.000    0.000    0.000 
#    0.000    0.000    0.000    0.000    0.000    0.000 
#
# Total GULP energy -178583.135575 kJ/mol
# GULP energy per Si atom -5580.722987 kJ/mol
# Density = 1.970813 g / cm^3
# Si number density = 19.753086 Si / 1000 Ang^3
#
#
#
# Elastic Constant Matrix: (Units=GPa)
#
#
# Indices 1 2 3 4 5 6 
#
# 1 2.3363 17.4702 -3.6840 0.0000 3.0890 0.0000
# 2 17.4702 73.8128 52.9632 0.0000 7.8878 0.0000
# 3 -3.6840 52.9632 154.6871 0.0000 13.1721 0.0000
# 4 0.0000 0.0000 0.0000 32.3231 0.0000 -2.0760
# 5 3.0890 7.8878 13.1721 0.0000 17.7595 0.0000
# 6 0.0000 0.0000 0.0000 -2.0760 0.0000 12.7815
#
#
#
# Elastic Compliance Matrix: (Units=1/GPa)
#
#
# Indices 1 2 3 4 5 6 
#
# 1 -0.229057 0.075144 -0.033873 0.000000 0.031590 0.000000
# 2 0.075144 -0.006467 0.005201 0.000000 -0.014055 0.000000
# 3 -0.033873 0.005201 0.003813 0.000000 0.000754 0.000000
# 4 0.000000 0.000000 0.000000 0.031264 0.000000 0.005078
# 5 0.031590 -0.014055 0.000754 0.000000 0.056497 0.000000
# 6 0.000000 0.000000 0.000000 0.005078 0.000000 0.079063
#
#
# Mechanical properties :
#
#
# Convention : Reuss Voigt Hill
#
# Bulk Modulus (GPa) = -7.20619 40.48167 16.63774
# Shear Modulus (GPa) = -24.49944 23.51194 -0.49375
#
# Velocity S-wave (km/s) = -3.52559 3.45380 -0.50050
# Velocity P-wave (km/s) = 4.49767 6.03683 2.84730
#
# Compressibility (1/GPa) = -0.13876957
#
# Stress axis : x y z
#
# Youngs Moduli (GPa) = -4.36572 -154.62694 262.25346
#
# Poissons Ratio (x) = 11.61922 8.88343
# Poissons Ratio (y) = 0.32806 -1.36390
# Poissons Ratio (z) = -0.14788 0.80417
#
# Static dielectric constant tensor:
#      x y z
#    x 1.712760 0.000000 -0.004120 
#    y 0.000000 1.684620 0.000000 
#    z -0.004120 0.000000 1.714460 
# 
# From -- ./inp_files/45202.got.cif
#   From: 2010.05.17/outbox.ucp.g08.bks.cvg/sg11_23_cif.got.tgz:45202.got - 2010.06.11 11:38:39.
