data_PCOD9167896
_publ_section_title
;
Structure prediction by ZEFSAII (Michael W. Deem and Ramdas Pophale) SiO2 
 PCOD9167896
Probable space group: P 21/M
;
_chemical_formula_sum "Si O2"
_cell_formula_units_Z 32
_cell_length_a 15.000000
_cell_length_b 24.000000
_cell_length_c 9.000000
_cell_angle_alpha 90.000000
_cell_angle_beta 30.000000
_cell_angle_gamma 90.000000
_cell_volume 1620.000000
_symmetry_space_group_name_H-M "P 21/M"
_symmetry_group_IT_number 11
_symmetry_cell_setting 'monoclinic'
loop_
_space_group_symop_operation_xyz
x,y,z
-x,1/2+y,-z
-x,-y,-z
x,1/2-y,z
loop_
_atom_site_type_symbol
_atom_site_label
_atom_site_fract_x
_atom_site_fract_y
_atom_site_fract_z
Si Si1 0.597182 0.184032 0.287641
Si Si2 0.108159 0.853585 0.363074
Si Si3 0.632171 0.107424 0.527266
Si Si4 0.765636 0.621614 0.241657
Si Si5 0.772249 0.911877 0.884492
Si Si6 0.267664 0.524767 0.199375
Si Si7 0.891664 0.313138 0.311898
Si Si8 0.689321 0.512642 0.531839
O O1 0.571455 0.250000 0.358316
O O2 0.634909 0.144827 0.375628
O O3 0.417561 0.156458 0.478865
O O4 0.763881 0.175965 0.937727
O O5 0.191516 0.914071 0.283212
O O6 0.088063 0.817121 0.540177
O O7 0.909103 0.871307 0.603781
O O8 0.740833 0.142787 0.488317
O O9 0.702385 0.043807 0.413654
O O10 0.428983 0.100602 0.872727
O O11 0.771167 0.567350 0.338280
O O12 0.779170 0.599786 0.051116
O O13 0.930242 0.663452 0.022319
O O14 0.808092 0.976338 0.797442
O O15 0.237482 0.504391 0.412022
O O16 0.479742 0.525968 0.859975
O O17 0.851949 0.250000 0.323851
#
# Coordination Sequence:
#
# PCOD9167896 Si02
#       8
#     4   4   4   4   4   4   4   4
#     4  11  23  39  60  86 117 156 201 247 292 343
#     4  11  21  39  59  90 116 160 197 241 292 353
#     4  10  22  40  60  86 120 156 194 244 298 352
#     4  10  22  39  62  88 116 154 198 245 296 354
#     4   9  22  36  59  88 122 153 191 239 302 351
#     4  10  19  35  58  91 125 152 187 243 297 360
#     4  11  23  42  61  83 117 159 204 241 290 353
#     4  10  20  36  61  91 122 152 193 243 306 355
#
# _framework density 19.753086
#
# number of rings (size 3 to 8) (size 9 to 14) (size 15 to 20)
#    0.000    1.750    2.500    1.500    1.750    3.000 
#    0.000    1.875    0.000    0.000    0.000    0.000 
#    0.000    0.000    0.000    0.000    0.000    0.000 
#
# Total GULP energy -178644.505972 kJ/mol
# GULP energy per Si atom -5582.640812 kJ/mol
# Density = 1.970813 g / cm^3
# Si number density = 19.753086 Si / 1000 Ang^3
#
#
#
# Elastic Constant Matrix: (Units=GPa)
#
#
# Indices 1 2 3 4 5 6 
#
# 1 6.6683 -2.6444 6.1967 0.0000 4.4595 0.0000
# 2 -2.6444 105.6949 30.5142 0.0000 21.3761 0.0000
# 3 6.1967 30.5142 78.4592 0.0000 7.0368 0.0000
# 4 0.0000 0.0000 0.0000 32.3239 0.0000 4.3814
# 5 4.4595 21.3761 7.0368 0.0000 10.0074 0.0000
# 6 0.0000 0.0000 0.0000 4.3814 0.0000 23.9298
#
#
#
# Elastic Compliance Matrix: (Units=1/GPa)
#
#
# Indices 1 2 3 4 5 6 
#
# 1 0.601990 0.135877 -0.053687 0.000000 -0.520745 0.000000
# 2 0.135877 0.048283 -0.015828 0.000000 -0.152554 0.000000
# 3 -0.053687 -0.015828 0.019173 0.000000 0.044251 0.000000
# 4 0.000000 0.000000 0.000000 0.031724 0.000000 -0.005809
# 5 -0.520745 -0.152554 0.044251 0.000000 0.626721 0.000000
# 6 0.000000 0.000000 0.000000 -0.005809 0.000000 0.042852
#
#
# Mechanical properties :
#
#
# Convention : Reuss Voigt Hill
#
# Bulk Modulus (GPa) = 1.24661 28.77284 15.00973
# Shear Modulus (GPa) = 3.32136 23.70262 13.51199
#
# Velocity S-wave (km/s) = 1.29811 3.46778 2.61826
# Velocity P-wave (km/s) = 1.69684 5.53461 4.09336
#
# Compressibility (1/GPa) = 0.80217251
#
# Stress axis : x y z
#
# Youngs Moduli (GPa) = 1.66116 20.71119 52.15769
#
# Poissons Ratio (x) = -2.81418 2.80016
# Poissons Ratio (y) = -0.22571 0.82554
# Poissons Ratio (z) = 0.08918 0.32781
#
# Static dielectric constant tensor:
#      x y z
#    x 1.728440 0.000000 -0.027820 
#    y 0.000000 1.666930 0.000000 
#    z -0.027820 0.000000 1.703530 
# 
# From -- ./inp_files/23364.got.cif
#   From: 2010.05.17/outbox.ucp.g08.bks.cvg/sg11_12_cif.got.tgz:23364.got - 2010.06.11 11:38:39.
