data_PCOD9167761
_publ_section_title
;
Structure prediction by ZEFSAII (Michael W. Deem and Ramdas Pophale) SiO2 
 PCOD9167761
Probable space group: P 21/M
;
_chemical_formula_sum "Si O2"
_cell_formula_units_Z 32
_cell_length_a 24.000000
_cell_length_b 9.000000
_cell_length_c 18.000000
_cell_angle_alpha 90.000000
_cell_angle_beta 30.000000
_cell_angle_gamma 90.000000
_cell_volume 1944.000000
_symmetry_space_group_name_H-M "P 21/M"
_symmetry_group_IT_number 11
_symmetry_cell_setting 'monoclinic'
loop_
_space_group_symop_operation_xyz
x,y,z
-x,1/2+y,-z
-x,-y,-z
x,1/2-y,z
loop_
_atom_site_type_symbol
_atom_site_label
_atom_site_fract_x
_atom_site_fract_y
_atom_site_fract_z
Si Si1 0.431609 0.071062 0.214775
Si Si2 0.364761 0.929527 0.741082
Si Si3 0.271145 0.929605 0.522383
Si Si4 0.072110 0.929357 0.643077
Si Si5 0.192775 0.068922 0.061155
Si Si6 0.743587 0.429618 0.692892
Si Si7 0.696692 0.070593 0.917403
Si Si8 0.390210 0.928622 0.537797
O O1 0.422129 0.250000 0.223870
O O2 0.365343 0.004856 0.362024
O O3 0.364547 0.002740 0.221822
O O4 0.563586 0.034724 0.067276
O O5 0.362321 0.750000 0.753351
O O6 0.349452 0.962518 0.669657
O O7 0.490086 0.991112 0.613229
O O8 0.272112 0.002766 0.903113
O O9 0.278649 0.750000 0.506366
O O10 0.150863 0.972369 0.623652
O O11 0.303169 0.965285 0.571394
O O12 0.068681 0.750000 0.647119
O O13 0.147402 0.972136 0.483217
O O14 0.940362 0.974790 0.793761
O O15 0.198882 0.250000 0.052684
O O16 0.242626 0.008571 0.082599
O O17 0.732558 0.250000 0.700304
O O18 0.746377 0.466629 0.777733
O O19 0.706178 0.250000 0.916386
O O20 0.408818 0.750000 0.513691
#
# Coordination Sequence:
#
# PCOD9167761 Si02
#       8
#     4   4   4   4   4   4   4   4
#     4  10  19  30  47  76 108 130 156 200 251 299
#     4  10  20  34  52  77 109 135 159 201 251 295
#     4   9  17  33  55  74  96 130 169 204 244 296
#     4   8  17  34  53  71  94 129 171 212 247 286
#     4  11  22  35  51  71  98 134 174 208 245 296
#     4   9  18  35  55  72  96 132 169 205 252 302
#     4  10  21  34  50  74 102 131 164 208 258 301
#     4   9  18  33  56  82 103 130 166 200 243 301
#
# _framework density 16.460905
#
# number of rings (size 3 to 8) (size 9 to 14) (size 15 to 20)
#    0.000    2.500    0.000    3.000    0.000    5.000 
#    0.000    5.625    0.000    0.000    0.000    0.000 
#    0.000    0.000    0.000    0.000    0.000    0.000 
#
# Total GULP energy -178286.297310 kJ/mol
# GULP energy per Si atom -5571.446791 kJ/mol
# Density = 1.642344 g / cm^3
# Si number density = 16.460905 Si / 1000 Ang^3
#
#
#
# Elastic Constant Matrix: (Units=GPa)
#
#
# Indices 1 2 3 4 5 6 
#
# 1 169.5715 38.6640 88.8880 0.0000 3.4625 0.0000
# 2 38.6640 48.4883 34.4500 0.0000 0.4214 0.0000
# 3 88.8880 34.4500 140.0038 0.0000 -7.0685 0.0000
# 4 0.0000 0.0000 0.0000 27.1025 0.0000 0.4822
# 5 3.4625 0.4214 -7.0685 0.0000 32.3802 0.0000
# 6 0.0000 0.0000 0.0000 0.4822 0.0000 29.9303
#
#
#
# Elastic Compliance Matrix: (Units=1/GPa)
#
#
# Indices 1 2 3 4 5 6 
#
# 1 0.009566 -0.003901 -0.005220 0.000000 -0.002112 0.000000
# 2 -0.003901 0.026675 -0.004129 0.000000 -0.000831 0.000000
# 3 -0.005220 -0.004129 0.011632 0.000000 0.003151 0.000000
# 4 0.000000 0.000000 0.000000 0.036907 0.000000 -0.000595
# 5 -0.002112 -0.000831 0.003151 0.000000 0.031808 0.000000
# 6 0.000000 0.000000 0.000000 -0.000595 0.000000 0.033421
#
#
# Mechanical properties :
#
#
# Convention : Reuss Voigt Hill
#
# Bulk Modulus (GPa) = 46.78842 75.78529 61.28686
# Shear Modulus (GPa) = 27.22813 30.95337 29.09075
#
# Velocity S-wave (km/s) = 4.07149 4.34108 4.20844
# Velocity P-wave (km/s) = 7.11255 8.44193 7.80559
#
# Compressibility (1/GPa) = 0.02137281
#
# Stress axis : x y z
#
# Youngs Moduli (GPa) = 104.53471 37.48854 85.96831
#
# Poissons Ratio (x) = 0.14623 0.44879
# Poissons Ratio (y) = 0.40776 0.35498
# Poissons Ratio (z) = 0.54571 0.15480
#
# Static dielectric constant tensor:
#      x y z
#    x 1.574740 0.000000 0.010370 
#    y 0.000000 1.552530 0.000000 
#    z 0.010370 0.000000 1.553280 
# 
# From -- ./inp_files/61775.got.cif
#   From: 2010.05.17/outbox.ucp.g08.bks.cvg/sg11_31_cif.got.tgz:61775.got - 2010.06.11 11:38:39.
