data_PCOD9167074
_publ_section_title
;
Structure prediction by ZEFSAII (Michael W. Deem and Ramdas Pophale) SiO2 
 PCOD9167074
Probable space group: P 21/M
;
_chemical_formula_sum "Si O2"
_cell_formula_units_Z 32
_cell_length_a 21.256989
_cell_length_b 8.138467
_cell_length_c 14.746960
_cell_angle_alpha 90.000000
_cell_angle_beta 136.060961
_cell_angle_gamma 90.000000
_cell_volume 1770.268437
_symmetry_space_group_name_H-M "P 21/M"
_symmetry_group_IT_number 11
_symmetry_cell_setting 'monoclinic'
loop_
_space_group_symop_operation_xyz
x,y,z
-x,1/2+y,-z
-x,-y,-z
x,1/2-y,z
loop_
_atom_site_type_symbol
_atom_site_label
_atom_site_fract_x
_atom_site_fract_y
_atom_site_fract_z
Si Si1 0.956143 0.549878 0.644041
Si Si2 0.278114 0.054537 0.919691
Si Si3 0.664427 0.950059 0.356121
Si Si4 0.479866 0.553588 0.081910
Si Si5 0.101858 0.053455 0.081208
Si Si6 0.191373 0.450078 0.355603
Si Si7 0.141735 0.554469 0.919149
Si Si8 0.812039 0.549930 0.355842
O O1 0.958635 0.750000 0.643212
O O2 0.890064 0.506854 0.659630
O O3 0.905366 0.493150 0.499893
O O4 0.056153 0.488547 0.771431
O O5 0.275498 0.250000 0.911644
O O6 0.215720 0.988412 0.771896
O O7 0.233891 0.001183 0.967758
O O8 0.381242 0.002342 0.011013
O O9 0.662413 0.750000 0.356598
O O10 0.563295 0.008533 0.230485
O O11 0.715780 0.006069 0.500316
O O12 0.730552 0.992763 0.340672
O O13 0.481672 0.750000 0.085854
O O14 0.500000 0.500000 0.000000
O O15 0.104122 0.250000 0.084565
O O16 0.167000 0.991857 0.229928
O O17 0.129319 0.996069 0.010135
O O18 0.000000 0.000000 0.000000
O O19 0.193659 0.250000 0.355963
O O20 0.137392 0.750000 0.911090
O O21 0.815620 0.750000 0.356876
#
# Coordination Sequence:
#
# PCOD9167074 Si02
#       8
#     4   4   4   4   4   4   4   4
#     4   8  14  27  48  73 102 137 174 209 249 301
#     4  11  22  36  52  75 106 142 178 218 261 309
#     4   8  14  27  50  78 103 130 168 211 256 305
#     4  11  20  33  55  81 106 137 174 216 260 307
#     4  11  20  33  55  81 106 137 174 216 260 307
#     4   8  14  27  50  78 103 130 168 211 256 305
#     4  11  22  36  52  75 106 142 178 218 261 309
#     4   8  14  27  48  73 102 137 174 209 249 301
#
# _framework density 18.076353999999998
#
# number of rings (size 3 to 8) (size 9 to 14) (size 15 to 20)
#    0.000    2.500    2.500    3.000    0.000    0.500 
#    0.000    0.000    0.000    7.500    0.000    0.000 
#    0.000    0.000    0.000    0.000    0.000    0.000 
#
# Total GULP energy -178440.464849 kJ/mol
# GULP energy per Si atom -5576.264527 kJ/mol
# Density = 1.803521 g / cm^3
# Si number density = 18.076354 Si / 1000 Ang^3
#
#
#
# Elastic Constant Matrix: (Units=GPa)
#
#
# Indices 1 2 3 4 5 6 
#
# 1 118.2974 12.8287 75.2163 0.0000 6.7134 0.0000
# 2 12.8287 24.3290 14.2936 0.0000 2.2502 0.0000
# 3 75.2163 14.2936 140.6985 0.0000 -0.7209 0.0000
# 4 0.0000 0.0000 0.0000 15.8353 0.0000 0.2433
# 5 6.7134 2.2502 -0.7209 0.0000 1.0275 0.0000
# 6 0.0000 0.0000 0.0000 0.2433 0.0000 20.5465
#
#
#
# Elastic Compliance Matrix: (Units=1/GPa)
#
#
# Indices 1 2 3 4 5 6 
#
# 1 0.045270 0.028089 -0.028990 0.000000 -0.377633 0.000000
# 2 0.028089 0.074233 -0.024419 0.000000 -0.363222 0.000000
# 3 -0.028990 -0.024419 0.026425 0.000000 0.261424 0.000000
# 4 0.000000 0.000000 0.000000 0.063162 0.000000 -0.000748
# 5 -0.377633 -0.363222 0.261424 0.000000 4.419391 0.000000
# 6 0.000000 0.000000 0.000000 -0.000748 0.000000 0.048679
#
#
# Mechanical properties :
#
#
# Convention : Reuss Voigt Hill
#
# Bulk Modulus (GPa) = 10.49429 54.22246 32.35837
# Shear Modulus (GPa) = 1.05052 19.54762 10.29907
#
# Velocity S-wave (km/s) = 0.76316 3.29202 2.38954
# Velocity P-wave (km/s) = 2.56801 6.67168 5.05500
#
# Compressibility (1/GPa) = 0.09528989
#
# Stress axis : x y z
#
# Youngs Moduli (GPa) = 22.08950 13.47105 37.84254
#
# Poissons Ratio (x) = -0.37838 1.09704
# Poissons Ratio (y) = -0.62047 0.92406
# Poissons Ratio (z) = 0.64037 0.32894
#
# Static dielectric constant tensor:
#      x y z
#    x 1.578500 0.000000 -0.001260 
#    y 0.000000 1.660290 0.000000 
#    z -0.001260 0.000000 1.634060 
# 
# From -- ./inp_files/54320.got.cif
#   From: 2010.05.17/outbox.cif.g08.bks.cpg/sg11_28_cif.got.tgz:54320.got - 2010.06.03 12:22:45.
