data_PCOD9167202
_publ_section_title
;
Structure prediction by ZEFSAII (Michael W. Deem and Ramdas Pophale) SiO2 
 PCOD9167202
Probable space group: P 21/M
;
_chemical_formula_sum "Si O2"
_cell_formula_units_Z 20
_cell_length_a 10.496682
_cell_length_b 15.697575
_cell_length_c 10.818706
_cell_angle_alpha 90.000000
_cell_angle_beta 33.909644
_cell_angle_gamma 90.000000
_cell_volume 994.499253
_symmetry_space_group_name_H-M "P 21/M"
_symmetry_group_IT_number 11
_symmetry_cell_setting 'monoclinic'
loop_
_space_group_symop_operation_xyz
x,y,z
-x,1/2+y,-z
-x,-y,-z
x,1/2-y,z
loop_
_atom_site_type_symbol
_atom_site_label
_atom_site_fract_x
_atom_site_fract_y
_atom_site_fract_z
Si Si1 0.501477 0.476544 0.354648
Si Si2 0.975122 0.585302 0.292053
Si Si3 0.871274 0.250000 0.682373
Si Si4 0.298845 0.250000 0.130512
Si Si5 0.802215 0.585856 0.951968
Si Si6 0.904841 0.148725 0.060708
O O1 0.500000 0.500000 0.500000
O O2 0.272119 0.447808 0.473029
O O3 0.669024 0.395659 0.214688
O O4 0.596303 0.558439 0.206599
O O5 0.072374 0.663913 0.288554
O O6 0.132536 0.501737 0.168328
O O7 0.940763 0.617397 0.177866
O O8 0.083231 0.250000 0.406440
O O9 0.585205 0.250000 0.908708
O O10 0.250314 0.164382 0.092338
O O11 0.005187 0.610903 0.883157
O O12 0.895130 0.250000 0.074579
#
# Coordination Sequence:
#
# PCOD9167202 Si02
#       6
#     4   4   2   2   4   4
#     4  11  21  38  68 109 144 176 225 288 383 448
#     4  11  24  44  72 104 141 186 230 302 362 438
#     4  12  32  51  71 102 144 196 262 291 348 411
#     4  12  32  53  71 104 140 200 256 301 340 419
#     4  11  24  45  72 103 145 181 238 298 368 426
#     4  11  21  38  68 109 140 177 226 293 379 441
#
# _framework density 20.110624999999999
#
# number of rings (size 3 to 8) (size 9 to 14) (size 15 to 20)
#    0.000    0.800    6.000    1.200    9.800    1.600 
#    1.800    0.000    0.000    0.000    0.000    0.000 
#    0.000    0.000    0.000    0.000    0.000    0.000 
#
# Total GULP energy -111385.193949 kJ/mol
# GULP energy per Si atom -5569.259697 kJ/mol
# Density = 2.006485 g / cm^3
# Si number density = 20.110625 Si / 1000 Ang^3
#
#
#
# Elastic Constant Matrix: (Units=GPa)
#
#
# Indices 1 2 3 4 5 6 
#
# 1 82.7488 59.8867 46.3424 0.0000 -8.1360 0.0000
# 2 59.8867 188.7359 47.5775 0.0000 16.2549 0.0000
# 3 46.3424 47.5775 89.3589 0.0000 -6.0271 0.0000
# 4 0.0000 0.0000 0.0000 24.1422 0.0000 -3.1755
# 5 -8.1360 16.2549 -6.0271 0.0000 14.6502 0.0000
# 6 0.0000 0.0000 0.0000 -3.1755 0.0000 -14.3721
#
#
#
# Elastic Compliance Matrix: (Units=1/GPa)
#
#
# Indices 1 2 3 4 5 6 
#
# 1 0.022716 -0.006984 -0.006880 0.000000 0.017533 0.000000
# 2 -0.006984 0.009457 -0.002450 0.000000 -0.015379 0.000000
# 3 -0.006880 -0.002450 0.016445 0.000000 0.005664 0.000000
# 4 0.000000 0.000000 0.000000 0.040251 0.000000 -0.008893
# 5 0.017533 -0.015379 0.005664 0.000000 0.097389 0.000000
# 6 0.000000 0.000000 0.000000 -0.008893 0.000000 -0.067614
#
#
# Mechanical properties :
#
#
# Convention : Reuss Voigt Hill
#
# Bulk Modulus (GPa) = 62.53857 74.27298 68.40578
# Shear Modulus (GPa) = 31.92825 18.68654 25.30739
#
# Velocity S-wave (km/s) = 3.98883 3.05156 3.55125
# Velocity P-wave (km/s) = 7.23734 7.03054 7.13469
#
# Compressibility (1/GPa) = 0.01599013
#
# Stress axis : x y z
#
# Youngs Moduli (GPa) = 44.02249 105.74670 60.80706
#
# Poissons Ratio (x) = 0.73849 0.41834
# Poissons Ratio (y) = 0.30743 0.14901
# Poissons Ratio (z) = 0.30286 0.25913
#
# Static dielectric constant tensor:
#      x y z
#    x 1.696550 0.000000 0.038850 
#    y 0.000000 1.645160 0.000000 
#    z 0.038850 0.000000 1.576150 
# 
# From -- ./inp_files/4146.got.cif
#   From: 2010.05.17/outbox.cif.g08.bks.cpg/sg11_3_cif.got.tgz:4146.got - 2010.06.03 12:22:45.
