data_PCOD9167802
_publ_section_title
;
Structure prediction by ZEFSAII (Michael W. Deem and Ramdas Pophale) SiO2 
 PCOD9167802
Probable space group: P 21/M
;
_chemical_formula_sum "Si O2"
_cell_formula_units_Z 32
_cell_length_a 21.000000
_cell_length_b 9.000000
_cell_length_c 12.000000
_cell_angle_alpha 90.000000
_cell_angle_beta 50.000000
_cell_angle_gamma 90.000000
_cell_volume 1737.388797
_symmetry_space_group_name_H-M "P 21/M"
_symmetry_group_IT_number 11
_symmetry_cell_setting 'monoclinic'
loop_
_space_group_symop_operation_xyz
x,y,z
-x,1/2+y,-z
-x,-y,-z
x,1/2-y,z
loop_
_atom_site_type_symbol
_atom_site_label
_atom_site_fract_x
_atom_site_fract_y
_atom_site_fract_z
Si Si1 0.106213 0.078323 0.790732
Si Si2 0.649435 0.920355 0.027664
Si Si3 0.182853 0.572878 0.134742
Si Si4 0.825090 0.420617 0.468576
Si Si5 0.085444 0.426496 0.440701
Si Si6 0.065605 0.077341 0.086996
Si Si7 0.683047 0.912872 0.723868
Si Si8 0.498704 0.420318 0.121638
O O1 0.100549 0.250000 0.763592
O O2 0.179574 0.992694 0.647182
O O3 0.112677 0.073700 0.915948
O O4 0.023459 0.991643 0.844146
O O5 0.651635 0.750000 0.063328
O O6 0.663626 0.918413 0.877133
O O7 0.724530 0.014561 0.994581
O O8 0.559015 0.994792 0.137870
O O9 0.180475 0.750000 0.150507
O O10 0.154402 0.490753 0.279600
O O11 0.116361 0.517635 0.118718
O O12 0.848005 0.250000 0.440634
O O13 0.891623 0.515206 0.463567
O O14 0.739663 0.450980 0.627046
O O15 0.081232 0.250000 0.439830
O O16 0.000000 0.500000 0.500000
O O17 0.057792 0.250000 0.132121
O O18 0.724222 0.750000 0.658455
O O19 0.599296 0.917390 0.745853
O O20 0.527665 0.250000 0.076942
O O21 0.500000 0.500000 0.000000
#
# Coordination Sequence:
#
# PCOD9167802 Si02
#       8
#     4   4   4   4   4   4   4   4
#     4  10  21  38  58  77 101 134 173 218 264 308
#     4  10  19  32  50  73 104 139 173 212 255 305
#     4  12  23  35  53  77 105 137 173 213 260 309
#     4  12  23  34  52  77 105 137 174 214 258 306
#     4  12  24  38  52  70 102 138 175 211 254 311
#     4  10  21  38  58  78 101 132 173 219 264 308
#     4   9  18  32  49  71 103 140 173 210 254 303
#     4   9  17  29  47  70 100 136 174 211 253 304
#
# _framework density 18.418444999999998
#
# number of rings (size 3 to 8) (size 9 to 14) (size 15 to 20)
#    0.000    1.500    1.250    6.375    0.000    4.000 
#    0.000    0.000    0.000    0.000    0.000    0.875 
#    0.000    0.000    0.000    0.000    0.000    0.000 
#
# Total GULP energy -178461.059810 kJ/mol
# GULP energy per Si atom -5576.908119 kJ/mol
# Density = 1.837652 g / cm^3
# Si number density = 18.418445 Si / 1000 Ang^3
#
#
#
# Elastic Constant Matrix: (Units=GPa)
#
#
# Indices 1 2 3 4 5 6 
#
# 1 14.0048 1.8404 9.9772 0.0000 -6.2721 0.0000
# 2 1.8404 145.4143 21.4187 0.0000 5.2200 0.0000
# 3 9.9772 21.4187 28.1967 0.0000 7.7826 0.0000
# 4 0.0000 0.0000 0.0000 21.1870 0.0000 -5.4823
# 5 -6.2721 5.2200 7.7826 0.0000 17.4966 0.0000
# 6 0.0000 0.0000 0.0000 -5.4823 0.0000 26.8577
#
#
#
# Elastic Compliance Matrix: (Units=1/GPa)
#
#
# Indices 1 2 3 4 5 6 
#
# 1 0.205167 0.009765 -0.113438 0.000000 0.121092 0.000000
# 2 0.009765 0.008210 -0.011379 0.000000 0.006113 0.000000
# 3 -0.113438 -0.011379 0.107766 0.000000 -0.085205 0.000000
# 4 0.000000 0.000000 0.000000 0.049831 0.000000 0.010172
# 5 0.121092 0.006113 -0.085205 0.000000 0.136638 0.000000
# 6 0.000000 0.000000 0.000000 0.010172 0.000000 0.039310
#
#
# Mechanical properties :
#
#
# Convention : Reuss Voigt Hill
#
# Bulk Modulus (GPa) = 10.98421 28.23206 19.60814
# Shear Modulus (GPa) = 6.19294 23.40024 14.79659
#
# Velocity S-wave (km/s) = 1.83566 3.56824 2.83743
# Velocity P-wave (km/s) = 3.23566 5.68664 4.62642
#
# Compressibility (1/GPa) = 0.09103974
#
# Stress axis : x y z
#
# Youngs Moduli (GPa) = 4.87407 121.80356 9.27940
#
# Poissons Ratio (x) = -1.18945 1.05264
# Poissons Ratio (y) = -0.04760 0.10559
# Poissons Ratio (z) = 0.55290 1.38600
#
# Static dielectric constant tensor:
#      x y z
#    x 1.648900 0.000000 -0.044290 
#    y 0.000000 1.625180 0.000000 
#    z -0.044290 0.000000 1.756850 
# 
# From -- ./inp_files/42789.got.cif
#   From: 2010.05.17/outbox.ucp.g08.bks.cvg/sg11_22_cif.got.tgz:42789.got - 2010.06.11 11:38:39.
