data_PCOD9167572
_publ_section_title
;
Structure prediction by ZEFSAII (Michael W. Deem and Ramdas Pophale) SiO2 
 PCOD9167572
Probable space group: P 21/M
;
_chemical_formula_sum "Si O2"
_cell_formula_units_Z 32
_cell_length_a 20.092671
_cell_length_b 19.840044
_cell_length_c 8.419568
_cell_angle_alpha 90.000000
_cell_angle_beta 33.062601
_cell_angle_gamma 90.000000
_cell_volume 1831.085746
_symmetry_space_group_name_H-M "P 21/M"
_symmetry_group_IT_number 11
_symmetry_cell_setting 'monoclinic'
loop_
_space_group_symop_operation_xyz
x,y,z
-x,1/2+y,-z
-x,-y,-z
x,1/2-y,z
loop_
_atom_site_type_symbol
_atom_site_label
_atom_site_fract_x
_atom_site_fract_y
_atom_site_fract_z
Si Si1 0.733744 0.599891 0.660615
Si Si2 0.499999 0.076522 0.436135
Si Si3 0.000001 0.554579 0.765170
Si Si4 0.000000 0.101639 0.880800
Si Si5 0.500000 0.829240 0.259054
Si Si6 0.734389 0.448185 0.769889
Si Si7 0.734391 0.948185 0.292549
Si Si8 0.733745 0.099891 0.404406
O O1 0.868018 0.629322 0.432337
O O2 0.717927 0.529108 0.786662
O O3 0.734802 0.579172 0.472573
O O4 0.621144 0.647312 0.923946
O O5 0.500000 0.129534 0.577257
O O6 0.377656 0.082719 0.577292
O O7 0.500000 0.000000 0.500000
O O8 0.622342 0.082719 0.087916
O O9 0.000001 0.476350 0.821534
O O10 0.131638 0.565571 0.423200
O O11 0.000000 0.597504 0.927703
O O12 0.868364 0.565571 0.949745
O O13 0.868020 0.129322 0.095585
O O14 0.500000 0.750000 0.284209
O O15 0.378854 0.852688 0.408527
O O16 0.734802 0.420829 0.588217
O O17 0.717928 0.029108 0.341626
#
# Coordination Sequence:
#
# PCOD9167572 Si02
#       8
#     4   4   4   4   4   4   4   4
#     4   9  16  32  55  81 100 126 163 211 257 303
#     4  12  21  33  48  73 104 143 179 210 247 301
#     4   7  12  24  46  82 108 119 146 210 265 295
#     4   7  12  24  50  79 105 120 149 204 264 304
#     4  12  25  37  47  69 107 142 172 212 257 303
#     4   9  16  30  56  81 102 125 165 211 255 298
#     4   9  16  30  56  81 102 125 165 211 255 298
#     4   9  16  32  55  81 100 126 163 211 257 303
#
# _framework density 17.47597
#
# number of rings (size 3 to 8) (size 9 to 14) (size 15 to 20)
#    0.000    2.750    2.500    3.750    0.000    2.000 
#    0.000    5.000    0.000    0.000    0.000    1.750 
#    0.000    0.000    0.000    0.000    0.000    0.000 
#
# Total GULP energy -178196.083071 kJ/mol
# GULP energy per Si atom -5568.627596 kJ/mol
# Density = 1.743619 g / cm^3
# Si number density = 17.475970 Si / 1000 Ang^3
#
#
#
# Elastic Constant Matrix: (Units=GPa)
#
#
# Indices 1 2 3 4 5 6 
#
# 1 17.3823 23.9082 81.3320 0.0000 -12.7036 0.0000
# 2 23.9082 67.1526 38.0979 0.0000 -12.7803 0.0000
# 3 81.3320 38.0979 103.9748 0.0000 -65.2897 0.0000
# 4 0.0000 0.0000 0.0000 5.4507 0.0000 4.2999
# 5 -12.7036 -12.7803 -65.2897 0.0000 22.4393 0.0000
# 6 0.0000 0.0000 0.0000 4.2999 0.0000 10.2253
#
#
#
# Elastic Compliance Matrix: (Units=1/GPa)
#
#
# Indices 1 2 3 4 5 6 
#
# 1 0.035492 -0.010161 0.018205 0.000000 0.067275 0.000000
# 2 -0.010161 0.019608 -0.005035 0.000000 -0.009233 0.000000
# 3 0.018205 -0.005035 -0.002289 0.000000 0.000778 0.000000
# 4 0.000000 0.000000 0.000000 0.274533 0.000000 -0.115445
# 5 0.067275 -0.009233 0.000778 0.000000 0.079657 0.000000
# 6 0.000000 0.000000 0.000000 -0.115445 0.000000 0.146343
#
#
# Mechanical properties :
#
#
# Convention : Reuss Voigt Hill
#
# Bulk Modulus (GPa) = 16.99817 52.79842 34.89829
# Shear Modulus (GPa) = 8.81936 10.63449 9.72692
#
# Velocity S-wave (km/s) = 2.24889 2.46950 2.36177
# Velocity P-wave (km/s) = 4.06092 6.19748 5.23927
#
# Compressibility (1/GPa) = 0.05882986
#
# Stress axis : x y z
#
# Youngs Moduli (GPa) = 28.17526 50.99962 -436.82601
#
# Poissons Ratio (x) = 0.51819 7.95232
# Poissons Ratio (y) = 0.28628 -2.19923
# Poissons Ratio (z) = -0.51292 0.25676
#
# Static dielectric constant tensor:
#      x y z
#    x 1.619520 0.000000 -0.026410 
#    y 0.000000 1.548050 0.000000 
#    z -0.026410 0.000000 1.648840 
# 
# From -- ./inp_files/27109.got.cif
#   From: 2010.05.17/outbox.cif.g08.bks.cpg/sg11_14_cif.got.tgz:27109.got - 2010.06.03 12:22:45.
