data_PCOD9167699
_publ_section_title
;
Structure prediction by ZEFSAII (Michael W. Deem and Ramdas Pophale) SiO2 
 PCOD9167699
Probable space group: P 21/M
;
_chemical_formula_sum "Si O2"
_cell_formula_units_Z 24
_cell_length_a 27.000000
_cell_length_b 9.000000
_cell_length_c 12.000000
_cell_angle_alpha 90.000000
_cell_angle_beta 30.000000
_cell_angle_gamma 90.000000
_cell_volume 1458.000000
_symmetry_space_group_name_H-M "P 21/M"
_symmetry_group_IT_number 11
_symmetry_cell_setting 'monoclinic'
loop_
_space_group_symop_operation_xyz
x,y,z
-x,1/2+y,-z
-x,-y,-z
x,1/2-y,z
loop_
_atom_site_type_symbol
_atom_site_label
_atom_site_fract_x
_atom_site_fract_y
_atom_site_fract_z
Si Si1 0.748201 0.081099 0.177948
Si Si2 0.107726 0.071182 0.275459
Si Si3 0.404455 0.581981 0.728265
Si Si4 0.738643 0.926054 0.828964
Si Si5 0.382165 0.926759 0.114550
Si Si6 0.594911 0.428377 0.667985
O O1 0.782894 0.250000 0.136364
O O2 0.668624 0.091289 0.233921
O O3 0.682953 0.024298 0.410990
O O4 0.835864 0.989133 0.945873
O O5 0.103134 0.250000 0.278211
O O6 0.170224 0.032274 0.266627
O O7 0.000000 0.000000 0.500000
O O8 0.500000 0.500000 0.500000
O O9 0.422304 0.750000 0.734564
O O10 0.354277 0.478579 0.916911
O O11 0.741426 0.750000 0.807019
O O12 0.713543 0.006407 0.761903
O O13 0.385399 0.750000 0.091854
O O14 0.376981 0.956125 0.257531
O O15 0.486541 0.996106 0.866837
O O16 0.582941 0.250000 0.675047
#
# Coordination Sequence:
#
# PCOD9167699 Si02
#       6
#     4   4   4   4   4   4
#     4   9  18  32  49  69  96 128 160 197 242 291
#     4  10  21  36  55  76  96 121 156 202 255 304
#     4  10  18  27  43  68  97 128 159 194 238 289
#     4  10  20  33  48  68  96 129 163 200 243 291
#     4  10  19  30  48  74 103 137 173 205 237 280
#     4   9  18  32  49  72 104 139 170 201 240 285
#
# _framework density 16.460905
#
# number of rings (size 3 to 8) (size 9 to 14) (size 15 to 20)
#    0.000    2.333    0.000    3.000    0.000    5.333 
#    0.000    0.000    0.000    1.000    0.000    0.000 
#    0.000    0.000    0.000    0.000    0.000    0.000 
#
# Total GULP energy -133639.303692 kJ/mol
# GULP energy per Si atom -5568.304321 kJ/mol
# Density = 1.642344 g / cm^3
# Si number density = 16.460905 Si / 1000 Ang^3
#
#
#
# Elastic Constant Matrix: (Units=GPa)
#
#
# Indices 1 2 3 4 5 6 
#
# 1 96.1049 39.1642 46.6452 0.0000 3.1178 0.0000
# 2 39.1642 48.2679 46.0971 0.0000 -7.3602 0.0000
# 3 46.6452 46.0971 112.1210 0.0000 1.9295 0.0000
# 4 0.0000 0.0000 0.0000 25.2302 0.0000 0.7276
# 5 3.1178 -7.3602 1.9295 0.0000 23.4625 0.0000
# 6 0.0000 0.0000 0.0000 0.7276 0.0000 25.7885
#
#
#
# Elastic Compliance Matrix: (Units=1/GPa)
#
#
# Indices 1 2 3 4 5 6 
#
# 1 0.016627 -0.013057 -0.001443 0.000000 -0.006187 0.000000
# 2 -0.013057 0.048020 -0.014621 0.000000 0.018001 0.000000
# 3 -0.001443 -0.014621 0.015628 0.000000 -0.005680 0.000000
# 4 0.000000 0.000000 0.000000 0.039667 0.000000 -0.001119
# 5 -0.006187 0.018001 -0.005680 0.000000 0.049557 0.000000
# 6 0.000000 0.000000 0.000000 -0.001119 0.000000 0.038809
#
#
# Mechanical properties :
#
#
# Convention : Reuss Voigt Hill
#
# Bulk Modulus (GPa) = 45.38260 57.81185 51.59723
# Shear Modulus (GPa) = 18.25531 23.20204 20.72867
#
# Velocity S-wave (km/s) = 3.33379 3.75844 3.55246
# Velocity P-wave (km/s) = 6.51527 7.35061 6.94550
#
# Compressibility (1/GPa) = 0.02203488
#
# Stress axis : x y z
#
# Youngs Moduli (GPa) = 60.14309 20.82476 63.98781
#
# Poissons Ratio (x) = 0.27190 0.09232
# Poissons Ratio (y) = 0.78526 0.93554
# Poissons Ratio (z) = 0.08677 0.30447
#
# Static dielectric constant tensor:
#      x y z
#    x 1.592760 0.000000 0.007230 
#    y 0.000000 1.573240 0.000000 
#    z 0.007230 0.000000 1.525570 
# 
# From -- ./inp_files/33784.got.cif
#   From: 2010.05.17/outbox.ucp.g08.bks.cvg/sg11_17_cif.got.tgz:33784.got - 2010.06.11 11:38:39.
