data_PCOD9167574
_publ_section_title
;
Structure prediction by ZEFSAII (Michael W. Deem and Ramdas Pophale) SiO2 
 PCOD9167574
Probable space group: P 21/M
;
_chemical_formula_sum "Si O2"
_cell_formula_units_Z 32
_cell_length_a 15.819881
_cell_length_b 19.219675
_cell_length_c 15.422040
_cell_angle_alpha 90.000000
_cell_angle_beta 18.548090
_cell_angle_gamma 90.000000
_cell_volume 1491.610489
_symmetry_space_group_name_H-M "P 21/M"
_symmetry_group_IT_number 11
_symmetry_cell_setting 'monoclinic'
loop_
_space_group_symop_operation_xyz
x,y,z
-x,1/2+y,-z
-x,-y,-z
x,1/2-y,z
loop_
_atom_site_type_symbol
_atom_site_label
_atom_site_fract_x
_atom_site_fract_y
_atom_site_fract_z
Si Si1 0.058234 0.944889 0.115394
Si Si2 0.054460 0.389328 0.140056
Si Si3 0.985722 0.393613 0.662205
Si Si4 0.902118 0.325826 0.569148
Si Si5 0.476912 0.016158 0.123997
Si Si6 0.476102 0.833395 0.428345
Si Si7 0.530990 0.931128 0.528037
Si Si8 0.356664 0.371831 0.016182
O O1 0.000461 0.888989 0.247875
O O2 0.836446 0.930262 0.259096
O O3 0.029901 0.026423 0.172633
O O4 0.347208 0.937353 0.791825
O O5 0.194800 0.353028 0.087008
O O6 0.768208 0.357787 0.394998
O O7 0.256297 0.369740 0.866950
O O8 0.238736 0.435606 0.382869
O O9 0.923838 0.334222 0.651801
O O10 0.739558 0.444166 0.891509
O O11 0.004437 0.250000 0.443308
O O12 0.112309 0.379218 0.322026
O O13 0.601062 0.332474 0.825932
O O14 0.490012 0.942528 0.157943
O O15 0.500000 0.000000 0.000000
O O16 0.496729 0.750000 0.407778
O O17 0.439851 0.865814 0.559039
O O18 0.500000 0.000000 0.500000
#
# Coordination Sequence:
#
# PCOD9167574 Si02
#       8
#     4   4   4   4   4   4   4   4
#     4  12  24  40  70 107 127 162 220 285 329 384
#     4  12  24  41  67 102 133 168 211 271 334 393
#     4  12  24  40  64  97 131 166 215 277 328 372
#     4  12  26  44  61  87 133 187 224 256 317 390
#     4  12  21  37  64  94 125 162 215 272 321 364
#     4  12  27  45  67  96 136 176 211 260 335 409
#     4  12  23  44  71  97 133 168 218 270 331 399
#     4  12  25  39  66  97 127 169 221 268 316 388
#
# _framework density 21.453323000000001
#
# number of rings (size 3 to 8) (size 9 to 14) (size 15 to 20)
#    0.000    0.000    6.250    4.500    1.750    3.000 
#    0.000    1.250    0.000    0.000    0.000    0.000 
#    0.000    0.000    0.000    0.000    0.000    0.000 
#
# Total GULP energy -178693.659901 kJ/mol
# GULP energy per Si atom -5584.176872 kJ/mol
# Density = 2.140449 g / cm^3
# Si number density = 21.453323 Si / 1000 Ang^3
#
#
#
# Elastic Constant Matrix: (Units=GPa)
#
#
# Indices 1 2 3 4 5 6 
#
# 1 92.0934 19.1679 7.3910 0.0000 -6.3443 0.0000
# 2 19.1679 61.2977 9.5205 0.0000 -10.6453 0.0000
# 3 7.3910 9.5205 98.4346 0.0000 -14.5133 0.0000
# 4 0.0000 0.0000 0.0000 16.8891 0.0000 0.6549
# 5 -6.3443 -10.6453 -14.5133 0.0000 45.5256 0.0000
# 6 0.0000 0.0000 0.0000 0.6549 0.0000 2.7734
#
#
#
# Elastic Compliance Matrix: (Units=1/GPa)
#
#
# Indices 1 2 3 4 5 6 
#
# 1 0.011661 -0.003461 -0.000441 0.000000 0.000675 0.000000
# 2 -0.003461 0.018148 -0.000987 0.000000 0.003447 0.000000
# 3 -0.000441 -0.000987 0.010750 0.000000 0.003135 0.000000
# 4 0.000000 0.000000 0.000000 0.059757 0.000000 -0.014111
# 5 0.000675 0.003447 0.003135 0.000000 0.023865 0.000000
# 6 0.000000 0.000000 0.000000 -0.014111 0.000000 0.363901
#
#
# Mechanical properties :
#
#
# Convention : Reuss Voigt Hill
#
# Bulk Modulus (GPa) = 32.48843 35.99829 34.24336
# Shear Modulus (GPa) = 9.84021 27.42070 18.63045
#
# Velocity S-wave (km/s) = 2.14401 3.57901 2.95009
# Velocity P-wave (km/s) = 4.61581 5.82197 5.25362
#
# Compressibility (1/GPa) = 0.03078019
#
# Stress axis : x y z
#
# Youngs Moduli (GPa) = 85.75796 55.10301 93.02483
#
# Poissons Ratio (x) = 0.19069 0.04105
# Poissons Ratio (y) = 0.29677 0.09184
# Poissons Ratio (z) = 0.03785 0.05440
#
# Static dielectric constant tensor:
#      x y z
#    x 1.817190 0.000000 0.018310 
#    y 0.000000 1.799290 0.000000 
#    z 0.018310 0.000000 1.740690 
# 
# From -- ./inp_files/52693.got.cif
#   From: 2010.05.17/outbox.cif.g08.bks.cpg/sg11_27_cif.got.tgz:52693.got - 2010.06.03 12:22:45.
