data_PCOD9167652
_publ_section_title
;
Structure prediction by ZEFSAII (Michael W. Deem and Ramdas Pophale) SiO2 
 PCOD9167652
Probable space group: P 21/M
;
_chemical_formula_sum "Si O2"
_cell_formula_units_Z 20
_cell_length_a 5.103038
_cell_length_b 28.068213
_cell_length_c 5.035615
_cell_angle_alpha 90.000000
_cell_angle_beta 86.278990
_cell_angle_gamma 90.000000
_cell_volume 719.746525
_symmetry_space_group_name_H-M "P 21/M"
_symmetry_group_IT_number 11
_symmetry_cell_setting 'monoclinic'
loop_
_space_group_symop_operation_xyz
x,y,z
-x,1/2+y,-z
-x,-y,-z
x,1/2-y,z
loop_
_atom_site_type_symbol
_atom_site_label
_atom_site_fract_x
_atom_site_fract_y
_atom_site_fract_z
Si Si1 0.814842 0.847854 0.825785
Si Si2 0.324066 0.547761 0.187751
Si Si3 0.668104 0.750000 0.827862
Si Si4 0.148602 0.750000 0.199421
Si Si5 0.330179 0.450095 0.341452
Si Si6 0.714243 0.151812 0.824424
O O1 0.732081 0.799546 0.680411
O O2 0.791170 0.898449 0.689012
O O3 0.591114 0.849264 0.073982
O O4 0.101926 0.843268 0.928700
O O5 0.181219 0.497813 0.253763
O O6 0.576666 0.544115 0.364645
O O7 0.211479 0.598964 0.277431
O O8 0.420595 0.551004 0.879212
O O9 0.375027 0.750000 0.956298
O O10 0.868162 0.750000 0.070239
O O11 0.212322 0.699806 0.337893
#
# Coordination Sequence:
#
# PCOD9167652 Si02
#       6
#     4   4   2   2   4   4
#     4   9  17  31  52  78 108 142 181 224 272 325
#     4   9  18  34  55  80 110 144 183 227 275 327
#     4   8  14  26  47  74 104 138 176 220 268 320
#     4   8  14  26  47  74 104 138 176 220 268 320
#     4   9  18  34  55  80 110 144 183 227 275 327
#     4   9  17  31  52  78 108 142 181 224 272 325
#
# _framework density 27.787561
#
# number of rings (size 3 to 8) (size 9 to 14) (size 15 to 20)
#    0.000    3.200    0.000    0.000    0.000    0.800 
#    0.000    9.000    0.000   21.600    0.000   42.000 
#    0.000    0.000    0.000    0.000    0.000    0.000 
#
# Total GULP energy -111789.772805 kJ/mol
# GULP energy per Si atom -5589.488640 kJ/mol
# Density = 2.772432 g / cm^3
# Si number density = 27.787561 Si / 1000 Ang^3
#
#
#
# Elastic Constant Matrix: (Units=GPa)
#
#
# Indices 1 2 3 4 5 6 
#
# 1 121.1000 17.2784 42.1719 0.0000 -12.6344 0.0000
# 2 17.2784 332.6578 15.7698 0.0000 5.1295 0.0000
# 3 42.1719 15.7698 71.4878 0.0000 -1.6434 0.0000
# 4 0.0000 0.0000 0.0000 -32.0120 0.0000 65.8891
# 5 -12.6344 5.1295 -1.6434 0.0000 50.1206 0.0000
# 6 0.0000 0.0000 0.0000 65.8891 0.0000 -8.7810
#
#
#
# Elastic Compliance Matrix: (Units=1/GPa)
#
#
# Indices 1 2 3 4 5 6 
#
# 1 0.010725 -0.000302 -0.006202 0.000000 0.002531 0.000000
# 2 -0.000302 0.003052 -0.000504 0.000000 -0.000405 0.000000
# 3 -0.006202 -0.000504 0.017737 0.000000 -0.000930 0.000000
# 4 0.000000 0.000000 0.000000 0.002163 0.000000 0.016228
# 5 0.002531 -0.000405 -0.000930 0.000000 0.020601 0.000000
# 6 0.000000 0.000000 0.000000 0.016228 0.000000 0.007884
#
#
# Mechanical properties :
#
#
# Convention : Reuss Voigt Hill
#
# Bulk Modulus (GPa) = 57.15306 75.07622 66.11464
# Shear Modulus (GPa) = 60.96848 31.86722 46.41785
#
# Velocity S-wave (km/s) = 4.68920 3.39014 4.09155
# Velocity P-wave (km/s) = 7.06616 6.51158 6.79453
#
# Compressibility (1/GPa) = 0.01749687
#
# Stress axis : x y z
#
# Youngs Moduli (GPa) = 93.24444 327.66090 56.37997
#
# Poissons Ratio (x) = 0.09898 0.34965
# Poissons Ratio (y) = 0.02817 0.02844
# Poissons Ratio (z) = 0.57828 0.16526
#
# Static dielectric constant tensor:
#      x y z
#    x 2.078760 0.000000 0.010430 
#    y 0.000000 2.359380 0.000000 
#    z 0.010430 0.000000 2.058910 
# 
# From -- ./inp_files/817.got.cif
#   From: 2010.05.17/outbox.cif.g08.bks.cpg/sg11_1_cif.got.tgz:817.got - 2010.06.03 12:22:45.
