data_PCOD9167630
_publ_section_title
;
Structure prediction by ZEFSAII (Michael W. Deem and Ramdas Pophale) SiO2 
 PCOD9167630
Probable space group: P 21/M
;
_chemical_formula_sum "Si O2"
_cell_formula_units_Z 28
_cell_length_a 9.909385
_cell_length_b 9.819974
_cell_length_c 20.538950
_cell_angle_alpha 90.000000
_cell_angle_beta 140.474097
_cell_angle_gamma 90.000000
_cell_volume 1271.990519
_symmetry_space_group_name_H-M "P 21/M"
_symmetry_group_IT_number 11
_symmetry_cell_setting 'monoclinic'
loop_
_space_group_symop_operation_xyz
x,y,z
-x,1/2+y,-z
-x,-y,-z
x,1/2-y,z
loop_
_atom_site_type_symbol
_atom_site_label
_atom_site_fract_x
_atom_site_fract_y
_atom_site_fract_z
Si Si1 0.316081 0.588067 0.814893
Si Si2 0.152312 0.087377 0.202022
Si Si3 0.829543 0.915325 0.646463
Si Si4 0.269434 0.596976 0.649796
Si Si5 0.814300 0.404761 0.903518
Si Si6 0.243468 0.405919 0.520929
Si Si7 0.655866 0.098820 0.988581
O O1 0.321059 0.750000 0.826690
O O2 0.075183 0.539349 0.734714
O O3 0.363961 0.567033 0.755964
O O4 0.475134 0.515119 0.923233
O O5 0.180205 0.250000 0.199493
O O6 0.239941 0.052325 0.306236
O O7 0.893730 0.067748 0.103128
O O8 0.250700 0.989897 0.184128
O O9 0.830832 0.750000 0.642526
O O10 0.717611 0.960869 0.537964
O O11 0.330633 0.750000 0.653556
O O12 0.313977 0.496729 0.607314
O O13 0.014358 0.597706 0.567713
O O14 0.878376 0.250000 0.908767
O O15 0.677716 0.389623 0.917810
O O16 0.000000 0.500000 0.000000
O O17 0.320076 0.250000 0.554986
O O18 0.595881 0.250000 0.990086
#
# Coordination Sequence:
#
# PCOD9167630 Si02
#       7
#     4   4   4   4   4   4   4
#     4   9  17  28  42  60  85 117 145 167 199 249
#     4   9  17  30  46  62  84 113 141 172 209 246
#     4   8  15  28  43  61  87 115 141 168 202 248
#     4   8  14  24  37  56  81 106 135 171 205 236
#     4   9  17  30  46  63  82 104 137 180 218 247
#     4   8  13  23  40  58  77 106 139 167 200 243
#     4   9  18  29  41  60  85 110 137 174 212 240
#
# _framework density 22.012743
#
# number of rings (size 3 to 8) (size 9 to 14) (size 15 to 20)
#    0.000    3.429    0.000    3.000    0.000    4.000 
#    0.000    3.571    0.000    0.000    0.000    1.000 
#    0.000    0.000    0.000    0.000    0.000    0.000 
#
# Total GULP energy -156053.307023 kJ/mol
# GULP energy per Si atom -5573.332394 kJ/mol
# Density = 2.196264 g / cm^3
# Si number density = 22.012743 Si / 1000 Ang^3
#
#
#
# Elastic Constant Matrix: (Units=GPa)
#
#
# Indices 1 2 3 4 5 6 
#
# 1 48.1081 17.5545 38.1692 0.0000 -27.1085 0.0000
# 2 17.5545 64.0744 67.2721 0.0000 -24.1366 0.0000
# 3 38.1692 67.2721 144.1104 0.0000 -36.5535 0.0000
# 4 0.0000 0.0000 0.0000 18.6063 0.0000 -12.1180
# 5 -27.1085 -24.1366 -36.5535 0.0000 55.3045 0.0000
# 6 0.0000 0.0000 0.0000 -12.1180 0.0000 15.5750
#
#
#
# Elastic Compliance Matrix: (Units=1/GPa)
#
#
# Indices 1 2 3 4 5 6 
#
# 1 0.032126 0.002991 -0.006704 0.000000 0.012622 0.000000
# 2 0.002991 0.031940 -0.014170 0.000000 0.006040 0.000000
# 3 -0.006704 -0.014170 0.015531 0.000000 0.000795 0.000000
# 4 0.000000 0.000000 0.000000 0.108957 0.000000 0.084773
# 5 0.012622 0.006040 0.000795 0.000000 0.027430 0.000000
# 6 0.000000 0.000000 0.000000 0.084773 0.000000 0.130163
#
#
# Mechanical properties :
#
#
# Convention : Reuss Voigt Hill
#
# Bulk Modulus (GPa) = 22.81436 55.80940 39.31188
# Shear Modulus (GPa) = 12.60963 26.78362 19.69663
#
# Velocity S-wave (km/s) = 2.39599 3.49195 2.99454
# Velocity P-wave (km/s) = 4.24747 6.45497 5.46386
#
# Compressibility (1/GPa) = 0.04383204
#
# Stress axis : x y z
#
# Youngs Moduli (GPa) = 31.12732 31.30883 64.38701
#
# Poissons Ratio (x) = -0.09366 0.43164
# Poissons Ratio (y) = -0.09311 0.91237
# Poissons Ratio (z) = 0.20867 0.44365
#
# Static dielectric constant tensor:
#      x y z
#    x 1.906300 0.000000 -0.018070 
#    y 0.000000 1.768550 0.000000 
#    z -0.018070 0.000000 1.822690 
# 
# From -- ./inp_files/40383.got.cif
#   From: 2010.05.17/outbox.cif.g08.bks.cpg/sg11_21_cif.got.tgz:40383.got - 2010.06.03 12:22:45.
