data_PCOD9167337
_publ_section_title
;
Structure prediction by ZEFSAII (Michael W. Deem and Ramdas Pophale) SiO2 
 PCOD9167337
Probable space group: P 21/M
;
_chemical_formula_sum "Si O2"
_cell_formula_units_Z 16
_cell_length_a 15.449059
_cell_length_b 10.140386
_cell_length_c 15.440034
_cell_angle_alpha 90.000000
_cell_angle_beta 18.710976
_cell_angle_gamma 90.000000
_cell_volume 775.946186
_symmetry_space_group_name_H-M "P 21/M"
_symmetry_group_IT_number 11
_symmetry_cell_setting 'monoclinic'
loop_
_space_group_symop_operation_xyz
x,y,z
-x,1/2+y,-z
-x,-y,-z
x,1/2-y,z
loop_
_atom_site_type_symbol
_atom_site_label
_atom_site_fract_x
_atom_site_fract_y
_atom_site_fract_z
Si Si1 0.784814 0.614668 0.205360
Si Si2 0.766170 0.411802 0.766763
Si Si3 0.912772 0.100400 0.829409
Si Si4 0.557760 0.978830 0.596351
O O1 0.941366 0.750000 0.054156
O O2 0.586209 0.602245 0.312382
O O3 0.622645 0.604894 0.448572
O O4 0.000000 0.500000 0.000000
O O5 0.753973 0.250000 0.755851
O O6 0.823025 0.415230 0.815722
O O7 0.000000 0.500000 0.500000
O O8 0.500000 0.500000 0.000000
O O9 0.018492 0.250000 0.739633
O O10 0.158058 0.005881 0.624637
O O11 0.658801 0.081347 0.132894
#
# Coordination Sequence:
#
# PCOD9167337 Si02
#       4
#     4   4   4   4
#     4  11  24  41  64  92 131 174 217 267 325 381
#     4  11  24  45  73 103 137 175 224 277 343 411
#     4  11  22  40  67  96 126 170 223 266 313 395
#     4  11  23  40  62  94 124 170 221 270 311 371
#
# _framework density 20.619986000000001
#
# number of rings (size 3 to 8) (size 9 to 14) (size 15 to 20)
#    0.000    1.000    2.500    4.500    0.000    9.000 
#    0.000    7.500    0.000    0.000    0.000    0.000 
#    0.000    0.000    0.000    0.000    0.000    0.000 
#
# Total GULP energy -89216.883513 kJ/mol
# GULP energy per Si atom -5576.055220 kJ/mol
# Density = 2.057305 g / cm^3
# Si number density = 20.619986 Si / 1000 Ang^3
#
#
#
# Elastic Constant Matrix: (Units=GPa)
#
#
# Indices 1 2 3 4 5 6 
#
# 1 132.6551 48.3466 60.1701 0.0000 2.7145 0.0000
# 2 48.3466 162.6547 66.3888 0.0000 1.3274 0.0000
# 3 60.1701 66.3888 157.0716 0.0000 -8.4792 0.0000
# 4 0.0000 0.0000 0.0000 16.7988 0.0000 -23.2891
# 5 2.7145 1.3274 -8.4792 0.0000 40.3047 0.0000
# 6 0.0000 0.0000 0.0000 -23.2891 0.0000 -6.2650
#
#
#
# Elastic Compliance Matrix: (Units=1/GPa)
#
#
# Indices 1 2 3 4 5 6 
#
# 1 0.009520 -0.001576 -0.003047 0.000000 -0.001230 0.000000
# 2 -0.001576 0.007724 -0.002700 0.000000 -0.000716 0.000000
# 3 -0.003047 -0.002700 0.008791 0.000000 0.002143 0.000000
# 4 0.000000 0.000000 0.000000 0.009674 0.000000 -0.035961
# 5 -0.001230 -0.000716 0.002143 0.000000 0.025368 0.000000
# 6 0.000000 0.000000 0.000000 -0.035961 0.000000 -0.025939
#
#
# Mechanical properties :
#
#
# Convention : Reuss Voigt Hill
#
# Bulk Modulus (GPa) = 87.80286 89.13250 88.46768
# Shear Modulus (GPa) = 93.31833 28.66610 60.99221
#
# Velocity S-wave (km/s) = 6.73458 3.73260 5.44457
# Velocity P-wave (km/s) = 10.15611 7.86743 9.08413
#
# Compressibility (1/GPa) = 0.01138915
#
# Stress axis : x y z
#
# Youngs Moduli (GPa) = 105.04169 129.46392 113.75758
#
# Poissons Ratio (x) = 0.20402 0.34664
# Poissons Ratio (y) = 0.16553 0.30711
# Poissons Ratio (z) = 0.32009 0.34952
#
# Static dielectric constant tensor:
#      x y z
#    x 1.725130 0.000000 -0.021350 
#    y 0.000000 1.834940 0.000000 
#    z -0.021350 0.000000 1.739330 
# 
# From -- ./inp_files/60719.got.cif
#   From: 2010.05.17/outbox.cif.g08.bks.cpg/sg11_31_cif.got.tgz:60719.got - 2010.06.03 12:22:45.
