data_PCOD9167480
_publ_section_title
;
Structure prediction by ZEFSAII (Michael W. Deem and Ramdas Pophale) SiO2 
 PCOD9167480
Probable space group: P 21/M
;
_chemical_formula_sum "Si O2"
_cell_formula_units_Z 22
_cell_length_a 9.121853
_cell_length_b 17.231374
_cell_length_c 6.700383
_cell_angle_alpha 90.000000
_cell_angle_beta 128.934776
_cell_angle_gamma 90.000000
_cell_volume 819.228558
_symmetry_space_group_name_H-M "P 21/M"
_symmetry_group_IT_number 11
_symmetry_cell_setting 'monoclinic'
loop_
_space_group_symop_operation_xyz
x,y,z
-x,1/2+y,-z
-x,-y,-z
x,1/2-y,z
loop_
_atom_site_type_symbol
_atom_site_label
_atom_site_fract_x
_atom_site_fract_y
_atom_site_fract_z
Si Si1 0.916027 0.340307 0.673811
Si Si2 0.809045 0.132730 0.125687
Si Si3 0.780575 0.874578 0.557527
Si Si4 0.252242 0.453019 0.855521
Si Si5 0.470108 0.250000 0.800552
Si Si6 0.475115 0.582045 0.590072
O O1 0.945180 0.250000 0.758595
O O2 0.856580 0.339416 0.389631
O O3 0.729267 0.380369 0.608175
O O4 0.091808 0.399353 0.819309
O O5 0.010461 0.143521 0.189894
O O6 0.772708 0.041110 0.094968
O O7 0.631303 0.182676 0.914032
O O8 0.697054 0.815356 0.326331
O O9 0.634929 0.868060 0.613495
O O10 0.500000 0.000000 0.500000
O O11 0.776862 0.950396 0.410618
O O12 0.452219 0.426294 0.120237
#
# Coordination Sequence:
#
# PCOD9167480 Si02
#       6
#     4   4   4   4   2   4
#     4  11  25  46  73 111 153 191 245 309 368 436
#     4  11  23  47  74 108 142 195 250 297 368 446
#     4  11  26  45  71 107 144 190 244 301 364 440
#     4  11  26  48  80 104 145 200 242 302 375 435
#     4  12  24  40  70 102 148 190 238 302 364 422
#     4  12  26  46  73 109 148 186 249 307 360 442
#
# _framework density 26.854531000000001
#
# number of rings (size 3 to 8) (size 9 to 14) (size 15 to 20)
#    0.000    0.727    0.909    7.091    5.091    7.273 
#    0.000    0.000    0.000    0.000    0.000    0.000 
#    0.000    0.000    0.000    0.000    0.000    0.000 
#
# Total GULP energy -122746.415803 kJ/mol
# GULP energy per Si atom -5579.382536 kJ/mol
# Density = 2.679341 g / cm^3
# Si number density = 26.854531 Si / 1000 Ang^3
#
#
#
# Elastic Constant Matrix: (Units=GPa)
#
#
# Indices 1 2 3 4 5 6 
#
# 1 128.0098 37.7840 28.8536 0.0000 40.0926 0.0000
# 2 37.7840 193.4528 53.3725 0.0000 36.7394 0.0000
# 3 28.8536 53.3725 156.5690 0.0000 44.8280 0.0000
# 4 0.0000 0.0000 0.0000 41.0243 0.0000 18.1377
# 5 40.0926 36.7394 44.8280 0.0000 69.9409 0.0000
# 6 0.0000 0.0000 0.0000 18.1377 0.0000 28.2897
#
#
#
# Elastic Compliance Matrix: (Units=1/GPa)
#
#
# Indices 1 2 3 4 5 6 
#
# 1 0.009669 -0.000925 -0.000023 0.000000 -0.005042 0.000000
# 2 -0.000925 0.006069 -0.001393 0.000000 -0.001765 0.000000
# 3 -0.000023 -0.001393 0.008148 0.000000 -0.004477 0.000000
# 4 0.000000 0.000000 0.000000 0.034019 0.000000 -0.021811
# 5 -0.005042 -0.001765 -0.004477 0.000000 0.020985 0.000000
# 6 0.000000 0.000000 0.000000 -0.021811 0.000000 0.049332
#
#
# Mechanical properties :
#
#
# Convention : Reuss Voigt Hill
#
# Bulk Modulus (GPa) = 52.06941 79.78354 65.92648
# Shear Modulus (GPa) = 35.89209 51.71909 43.80559
#
# Velocity S-wave (km/s) = 3.65983 4.39327 4.04322
# Velocity P-wave (km/s) = 6.10661 7.45040 6.81172
#
# Compressibility (1/GPa) = 0.01920513
#
# Stress axis : x y z
#
# Youngs Moduli (GPa) = 103.42065 164.76029 122.72846
#
# Poissons Ratio (x) = 0.15233 0.00283
# Poissons Ratio (y) = 0.09562 0.17098
# Poissons Ratio (z) = 0.00238 0.22954
#
# Static dielectric constant tensor:
#      x y z
#    x 2.307370 0.000000 -0.096600 
#    y 0.000000 1.656820 0.000000 
#    z -0.096600 0.000000 2.107040 
# 
# From -- ./inp_files/39503.got.cif
#   From: 2010.05.17/outbox.cif.g08.bks.cpg/sg11_20_cif.got.tgz:39503.got - 2010.06.03 12:22:45.
