data_PCOD9167895
_publ_section_title
;
Structure prediction by ZEFSAII (Michael W. Deem and Ramdas Pophale) SiO2 
 PCOD9167895
Probable space group: P 21/M
;
_chemical_formula_sum "Si O2"
_cell_formula_units_Z 32
_cell_length_a 27.000000
_cell_length_b 9.000000
_cell_length_c 21.000000
_cell_angle_alpha 90.000000
_cell_angle_beta 160.000000
_cell_angle_gamma 90.000000
_cell_volume 1745.328791
_symmetry_space_group_name_H-M "P 21/M"
_symmetry_group_IT_number 11
_symmetry_cell_setting 'monoclinic'
loop_
_space_group_symop_operation_xyz
x,y,z
-x,1/2+y,-z
-x,-y,-z
x,1/2-y,z
loop_
_atom_site_type_symbol
_atom_site_label
_atom_site_fract_x
_atom_site_fract_y
_atom_site_fract_z
Si Si1 0.341222 0.570544 0.998921
Si Si2 0.870055 0.069884 0.023440
Si Si3 0.226794 0.070321 0.559505
Si Si4 0.561210 0.571025 0.638430
Si Si5 0.926955 0.427639 0.242324
Si Si6 0.846495 0.430243 0.665009
Si Si7 0.517679 0.574206 0.951910
Si Si8 0.570008 0.570231 0.391032
O O1 0.338144 0.750000 0.986221
O O2 0.374354 0.495553 0.970789
O O3 0.464829 0.541894 0.202404
O O4 0.191067 0.515811 0.850143
O O5 0.865099 0.250000 0.009288
O O6 0.889193 0.041830 0.122921
O O7 0.993803 0.994366 0.129746
O O8 0.725449 0.982808 0.834317
O O9 0.253745 0.250000 0.593723
O O10 0.096443 0.033315 0.450870
O O11 0.183227 0.019934 0.436506
O O12 0.362937 0.968877 0.736726
O O13 0.500000 0.500000 0.500000
O O14 0.545132 0.750000 0.620727
O O15 0.495565 0.497322 0.623430
O O16 0.920089 0.250000 0.240183
O O17 0.844163 0.250000 0.655738
O O18 0.721791 0.488623 0.560917
O O19 0.543057 0.750000 0.988663
O O20 0.500000 0.500000 0.000000
O O21 0.584301 0.750000 0.413238
#
# Coordination Sequence:
#
# PCOD9167895 Si02
#       8
#     4   4   4   4   4   4   4   4
#     4  10  19  36  61  88 117 151 193 240 291 349
#     4  10  19  37  60  86 119 158 199 242 297 354
#     4  10  19  35  58  85 117 154 193 238 295 352
#     4  12  25  41  61  88 123 161 201 246 298 358
#     4   8  16  32  58  87 114 146 187 236 287 342
#     4  11  21  34  56  90 123 154 197 248 296 346
#     4  12  25  40  58  83 117 156 198 243 295 357
#     4  11  21  37  62  89 120 158 200 246 296 349
#
# _framework density 18.334654
#
# number of rings (size 3 to 8) (size 9 to 14) (size 15 to 20)
#    0.000    1.500    2.500    5.250    0.000    0.500 
#    0.000    2.500    0.000    0.000    0.000    0.000 
#    0.000    0.000    0.000    0.000    0.000    0.000 
#
# Total GULP energy -178276.662355 kJ/mol
# GULP energy per Si atom -5571.145699 kJ/mol
# Density = 1.829292 g / cm^3
# Si number density = 18.334654 Si / 1000 Ang^3
#
#
#
# Elastic Constant Matrix: (Units=GPa)
#
#
# Indices 1 2 3 4 5 6 
#
# 1 288.8751 221.2015 109.5850 0.0000 87.4158 0.0000
# 2 221.2015 254.1921 66.9719 0.0000 69.0338 0.0000
# 3 109.5850 66.9719 54.0837 0.0000 58.4552 0.0000
# 4 0.0000 0.0000 0.0000 23.2454 0.0000 2.1937
# 5 87.4158 69.0338 58.4552 0.0000 55.5398 0.0000
# 6 0.0000 0.0000 0.0000 2.1937 0.0000 33.6885
#
#
#
# Elastic Compliance Matrix: (Units=1/GPa)
#
#
# Indices 1 2 3 4 5 6 
#
# 1 0.007355 -0.004220 0.020605 0.000000 -0.028017 0.000000
# 2 -0.004220 0.008211 -0.016247 0.000000 0.013537 0.000000
# 3 0.020605 -0.016247 -0.073304 0.000000 0.064916 0.000000
# 4 0.000000 0.000000 0.000000 0.043285 0.000000 -0.002819
# 5 -0.028017 0.013537 0.064916 0.000000 -0.023047 0.000000
# 6 0.000000 0.000000 0.000000 -0.002819 0.000000 0.029867
#
#
# Mechanical properties :
#
#
# Convention : Reuss Voigt Hill
#
# Bulk Modulus (GPa) = -17.40240 154.74084 68.66922
# Shear Modulus (GPa) = -184.76066 35.78759 -74.48653
#
# Velocity S-wave (km/s) = -10.04938 4.42284 -6.38077
# Velocity P-wave (km/s) = 12.00690 10.51966 4.09282
#
# Compressibility (1/GPa) = -0.05746333
#
# Stress axis : x y z
#
# Youngs Moduli (GPa) = 135.96301 121.78958 -13.64177
#
# Poissons Ratio (x) = 0.51398 0.28109
# Poissons Ratio (y) = 0.57379 -0.22164
# Poissons Ratio (z) = -2.80155 1.97877
#
# Static dielectric constant tensor:
#      x y z
#    x 1.642240 0.000000 0.037620 
#    y 0.000000 1.588790 0.000000 
#    z 0.037620 0.000000 1.575020 
# 
# From -- ./inp_files/67246.got.cif
#   From: 2010.05.17/outbox.ucp.g08.bks.cvg/sg11_34_cif.got.tgz:67246.got - 2010.06.11 11:38:39.
