data_PCOD9167797
_publ_section_title
;
Structure prediction by ZEFSAII (Michael W. Deem and Ramdas Pophale) SiO2 
 PCOD9167797
Probable space group: P 21/M
;
_chemical_formula_sum "Si O2"
_cell_formula_units_Z 28
_cell_length_a 9.000000
_cell_length_b 9.000000
_cell_length_c 27.000000
_cell_angle_alpha 90.000000
_cell_angle_beta 140.000000
_cell_angle_gamma 90.000000
_cell_volume 1405.776502
_symmetry_space_group_name_H-M "P 21/M"
_symmetry_group_IT_number 11
_symmetry_cell_setting 'monoclinic'
loop_
_space_group_symop_operation_xyz
x,y,z
-x,1/2+y,-z
-x,-y,-z
x,1/2-y,z
loop_
_atom_site_type_symbol
_atom_site_label
_atom_site_fract_x
_atom_site_fract_y
_atom_site_fract_z
Si Si1 0.170219 0.572925 0.002028
Si Si2 0.325212 0.422958 0.751147
Si Si3 0.669694 0.424091 0.146692
Si Si4 0.638310 0.570930 0.421840
Si Si5 0.078499 0.572789 0.595901
Si Si6 0.152039 0.921983 0.260773
Si Si7 0.158356 0.916545 0.151220
O O1 0.182426 0.750000 0.012190
O O2 0.429757 0.505142 0.069835
O O3 0.000000 0.500000 0.000000
O O4 0.033691 0.530561 0.916765
O O5 0.266865 0.250000 0.747288
O O6 0.288665 0.540451 0.785051
O O7 0.177383 0.478739 0.666850
O O8 0.602852 0.426874 0.817072
O O9 0.649264 0.250000 0.130866
O O10 0.911916 0.492221 0.190229
O O11 0.644847 0.750000 0.413249
O O12 0.767825 0.481022 0.411553
O O13 0.364125 0.529509 0.350804
O O14 0.807515 0.546852 0.512294
O O15 0.108641 0.750000 0.611342
O O16 0.097819 0.750000 0.259059
O O17 0.250867 0.928525 0.230622
O O18 0.058967 0.750000 0.119627
#
# Coordination Sequence:
#
# PCOD9167797 Si02
#       7
#     4   4   4   4   4   4   4
#     4  12  24  40  63  90 121 156 197 245 297 348
#     4  11  21  38  62  88 119 158 200 243 297 356
#     4  12  26  42  61  88 121 156 198 246 299 357
#     4   9  18  35  57  85 121 161 199 243 297 352
#     4  10  19  31  56  91 123 153 198 251 295 346
#     4  10  21  41  63  86 120 160 199 241 298 356
#     4  10  21  38  64  90 117 155 201 246 292 351
#
# _framework density 19.917818
#
# number of rings (size 3 to 8) (size 9 to 14) (size 15 to 20)
#    0.000    1.429    2.857    3.429    0.000    2.857 
#    0.000    0.714    0.000    0.000    0.000    0.000 
#    0.000    0.000    0.000    0.000    0.000    0.000 
#
# Total GULP energy -156030.057726 kJ/mol
# GULP energy per Si atom -5572.502062 kJ/mol
# Density = 1.987248 g / cm^3
# Si number density = 19.917818 Si / 1000 Ang^3
#
#
#
# Elastic Constant Matrix: (Units=GPa)
#
#
# Indices 1 2 3 4 5 6 
#
# 1 25.0561 3.7666 10.9076 0.0000 14.8542 0.0000
# 2 3.7666 101.2077 45.3492 0.0000 24.6880 0.0000
# 3 10.9076 45.3492 148.7560 0.0000 18.4824 0.0000
# 4 0.0000 0.0000 0.0000 40.3310 0.0000 4.4937
# 5 14.8542 24.6880 18.4824 0.0000 22.4432 0.0000
# 6 0.0000 0.0000 0.0000 4.4937 0.0000 13.7306
#
#
#
# Elastic Compliance Matrix: (Units=1/GPa)
#
#
# Indices 1 2 3 4 5 6 
#
# 1 0.076796 0.013646 -0.001795 0.000000 -0.064361 0.000000
# 2 0.013646 0.016842 -0.003020 0.000000 -0.025071 0.000000
# 3 -0.001795 -0.003020 0.008037 0.000000 -0.002109 0.000000
# 4 0.000000 0.000000 0.000000 0.025733 0.000000 -0.008422
# 5 -0.064361 -0.025071 -0.002109 0.000000 0.116470 0.000000
# 6 0.000000 0.000000 0.000000 -0.008422 0.000000 0.075586
#
#
# Mechanical properties :
#
#
# Convention : Reuss Voigt Hill
#
# Bulk Modulus (GPa) = 8.37962 43.89629 26.13795
# Shear Modulus (GPa) = 14.63788 29.63406 22.13597
#
# Velocity S-wave (km/s) = 2.71387 3.86141 3.33733
# Velocity P-wave (km/s) = 3.74651 6.47821 5.29167
#
# Compressibility (1/GPa) = 0.11933719
#
# Stress axis : x y z
#
# Youngs Moduli (GPa) = 13.02152 59.37661 124.43030
#
# Poissons Ratio (x) = -0.81025 0.22329
# Poissons Ratio (y) = -0.17769 0.37577
# Poissons Ratio (z) = 0.02337 0.17931
#
# Static dielectric constant tensor:
#      x y z
#    x 1.858900 0.000000 -0.035770 
#    y 0.000000 1.676120 0.000000 
#    z -0.035770 0.000000 1.706420 
# 
# From -- ./inp_files/28600.got.cif
#   From: 2010.05.17/outbox.ucp.g08.bks.cvg/sg11_15_cif.got.tgz:28600.got - 2010.06.11 11:38:39.
