data_PCOD9167246
_publ_section_title
;
Structure prediction by ZEFSAII (Michael W. Deem and Ramdas Pophale) SiO2 
 PCOD9167246
Probable space group: P 21/M
;
_chemical_formula_sum "Si O2"
_cell_formula_units_Z 28
_cell_length_a 18.359392
_cell_length_b 7.529873
_cell_length_c 16.914305
_cell_angle_alpha 90.000000
_cell_angle_beta 154.639442
_cell_angle_gamma 90.000000
_cell_volume 1001.524424
_symmetry_space_group_name_H-M "P 21/M"
_symmetry_group_IT_number 11
_symmetry_cell_setting 'monoclinic'
loop_
_space_group_symop_operation_xyz
x,y,z
-x,1/2+y,-z
-x,-y,-z
x,1/2-y,z
loop_
_atom_site_type_symbol
_atom_site_label
_atom_site_fract_x
_atom_site_fract_y
_atom_site_fract_z
Si Si1 0.716950 0.541440 0.202474
Si Si2 0.467625 0.032706 0.127194
Si Si3 0.666672 0.034487 0.467302
Si Si4 0.676478 0.962032 0.768787
Si Si5 0.937027 0.961779 0.555074
Si Si6 0.131467 0.038005 0.894484
Si Si7 0.146804 0.549957 0.204584
O O1 0.687057 0.750000 0.181662
O O2 0.778971 0.463563 0.347827
O O3 0.892361 0.526728 0.322728
O O4 0.571242 0.468889 0.000102
O O5 0.471253 0.250000 0.129600
O O6 0.617475 0.966148 0.331730
O O7 0.295515 0.978699 0.004926
O O8 0.685929 0.250000 0.478338
O O9 0.494136 0.006861 0.349480
O O10 0.805660 0.961300 0.665514
O O11 0.692173 0.750000 0.772533
O O12 0.693604 0.044703 0.699306
O O13 0.827602 0.025757 0.976772
O O14 0.932753 0.750000 0.543761
O O15 0.970012 0.003335 0.679698
O O16 0.141864 0.250000 0.909744
O O17 0.109201 0.750000 0.190604
O O18 0.000000 0.500000 0.000000
#
# Coordination Sequence:
#
# PCOD9167246 Si02
#       7
#     4   4   4   4   4   4   4
#     4   8  13  20  30  46  73 110 143 170 207 251
#     4   7  10  20  37  55  76 105 142 177 207 246
#     4   8  15  28  48  70  89 114 150 188 223 262
#     4   9  17  32  52  70  88 114 150 189 226 264
#     4   9  14  18  28  49  77 108 141 173 204 245
#     4   8  14  24  38  55  78 109 140 171 212 258
#     4  11  22  34  48  68  93 119 147 181 224 271
#
# _framework density 27.957380000000001
#
# number of rings (size 3 to 8) (size 9 to 14) (size 15 to 20)
#    0.000    3.429    0.000    3.857    0.000    1.143 
#    0.000    0.714    0.000    6.857    0.000    0.000 
#    0.000    1.143    0.000    2.286    0.000    8.429 
#
# Total GULP energy -156474.660783 kJ/mol
# GULP energy per Si atom -5588.380742 kJ/mol
# Density = 2.789375 g / cm^3
# Si number density = 27.957380 Si / 1000 Ang^3
#
#
#
# Elastic Constant Matrix: (Units=GPa)
#
#
# Indices 1 2 3 4 5 6 
#
# 1 149.1506 4.3132 57.8479 0.0000 -64.6331 0.0000
# 2 4.3132 81.5075 19.1867 0.0000 1.4879 0.0000
# 3 57.8479 19.1867 288.1971 0.0000 -59.3598 0.0000
# 4 0.0000 0.0000 0.0000 12.3602 0.0000 5.3834
# 5 -64.6331 1.4879 -59.3598 0.0000 73.9173 0.0000
# 6 0.0000 0.0000 0.0000 5.3834 0.0000 21.3478
#
#
#
# Elastic Compliance Matrix: (Units=1/GPa)
#
#
# Indices 1 2 3 4 5 6 
#
# 1 0.010851 -0.000695 -0.000209 0.000000 0.009334 0.000000
# 2 -0.000695 0.012584 -0.001049 0.000000 -0.001704 0.000000
# 3 -0.000209 -0.001049 0.004252 0.000000 0.003252 0.000000
# 4 0.000000 0.000000 0.000000 0.090888 0.000000 -0.022920
# 5 0.009334 -0.001704 0.003252 0.000000 0.024336 0.000000
# 6 0.000000 0.000000 0.000000 -0.022920 0.000000 0.052623
#
#
# Mechanical properties :
#
#
# Convention : Reuss Voigt Hill
#
# Bulk Modulus (GPa) = 42.05476 75.72787 58.89131
# Shear Modulus (GPa) = 24.11193 50.69222 37.40207
#
# Velocity S-wave (km/s) = 2.93994 4.26278 3.66160
# Velocity P-wave (km/s) = 5.15747 7.16758 6.24394
#
# Compressibility (1/GPa) = 0.02377852
#
# Stress axis : x y z
#
# Youngs Moduli (GPa) = 92.16118 79.46810 235.20588
#
# Poissons Ratio (x) = 0.05526 0.04921
# Poissons Ratio (y) = 0.06408 0.24676
# Poissons Ratio (z) = 0.01928 0.08337
#
# Static dielectric constant tensor:
#      x y z
#    x 2.272260 0.000000 0.061650 
#    y 0.000000 2.010380 0.000000 
#    z 0.061650 0.000000 2.311160 
# 
# From -- ./inp_files/66895.got.cif
#   From: 2010.05.17/outbox.cif.g08.bks.cpg/sg11_34_cif.got.tgz:66895.got - 2010.06.03 12:22:45.
