data_PCOD9167859
_publ_section_title
;
Structure prediction by ZEFSAII (Michael W. Deem and Ramdas Pophale) SiO2 
 PCOD9167859
Probable space group: P 21/M
;
_chemical_formula_sum "Si O2"
_cell_formula_units_Z 32
_cell_length_a 30.000000
_cell_length_b 9.000000
_cell_length_c 12.000000
_cell_angle_alpha 90.000000
_cell_angle_beta 30.000000
_cell_angle_gamma 90.000000
_cell_volume 1620.000000
_symmetry_space_group_name_H-M "P 21/M"
_symmetry_group_IT_number 11
_symmetry_cell_setting 'monoclinic'
loop_
_space_group_symop_operation_xyz
x,y,z
-x,1/2+y,-z
-x,-y,-z
x,1/2-y,z
loop_
_atom_site_type_symbol
_atom_site_label
_atom_site_fract_x
_atom_site_fract_y
_atom_site_fract_z
Si Si1 0.678114 0.927574 0.063102
Si Si2 0.165495 0.070799 0.881244
Si Si3 0.583764 0.425356 0.882758
Si Si4 0.007503 0.929004 0.361575
Si Si5 0.157509 0.071912 0.447081
Si Si6 0.526262 0.074813 0.261014
Si Si7 0.325378 0.430143 0.683907
Si Si8 0.209934 0.928607 0.563342
O O1 0.668506 0.750000 0.084296
O O2 0.709211 0.971665 0.118979
O O3 0.585276 0.996439 0.226003
O O4 0.752928 0.968446 0.813201
O O5 0.161113 0.250000 0.887019
O O6 0.260818 0.022098 0.726053
O O7 0.156074 0.999270 0.781294
O O8 0.092104 0.004126 0.121141
O O9 0.580367 0.250000 0.862964
O O10 0.685974 0.478385 0.644963
O O11 0.500000 0.500000 0.000000
O O12 0.569367 0.442113 0.046276
O O13 0.015168 0.750000 0.353562
O O14 0.924292 0.960822 0.458858
O O15 0.000000 0.000000 0.500000
O O16 0.156912 0.250000 0.468889
O O17 0.166172 0.986599 0.544239
O O18 0.521802 0.250000 0.297205
O O19 0.426362 0.015648 0.463223
O O20 0.328130 0.250000 0.670998
O O21 0.209226 0.750000 0.566718
#
# Coordination Sequence:
#
# PCOD9167859 Si02
#       8
#     4   4   4   4   4   4   4   4
#     4  10  19  34  56  84 115 152 198 245 292 357
#     4  11  23  42  66  90 121 162 204 252 310 370
#     4  10  21  35  54  81 117 160 207 256 303 358
#     4  11  24  44  69  98 128 160 202 252 306 369
#     4  10  22  40  63  88 121 164 207 251 308 374
#     4  10  19  34  53  80 116 155 196 243 300 358
#     4   9  19  35  57  83 117 158 199 244 300 363
#     4  11  23  40  61  89 124 159 206 263 311 364
#
# _framework density 19.753086
#
# number of rings (size 3 to 8) (size 9 to 14) (size 15 to 20)
#    0.000    1.750    1.250    3.000    0.000    6.000 
#    0.000    3.750    0.000    0.000    0.000    0.000 
#    0.000    0.000    0.000    0.000    0.000    0.000 
#
# Total GULP energy -178612.837901 kJ/mol
# GULP energy per Si atom -5581.651184 kJ/mol
# Density = 1.970813 g / cm^3
# Si number density = 19.753086 Si / 1000 Ang^3
#
#
#
# Elastic Constant Matrix: (Units=GPa)
#
#
# Indices 1 2 3 4 5 6 
#
# 1 126.1222 32.8406 33.2604 0.0000 6.4861 0.0000
# 2 32.8406 15.5680 5.7764 0.0000 8.8355 0.0000
# 3 33.2604 5.7764 45.1449 0.0000 17.1535 0.0000
# 4 0.0000 0.0000 0.0000 23.5826 0.0000 -5.6965
# 5 6.4861 8.8355 17.1535 0.0000 30.9469 0.0000
# 6 0.0000 0.0000 0.0000 -5.6965 0.0000 23.9644
#
#
#
# Elastic Compliance Matrix: (Units=1/GPa)
#
#
# Indices 1 2 3 4 5 6 
#
# 1 0.033586 -0.078029 -0.026034 0.000000 0.029669 0.000000
# 2 -0.078029 0.258063 0.058589 0.000000 -0.089800 0.000000
# 3 -0.026034 0.058589 0.048287 0.000000 -0.038036 0.000000
# 4 0.000000 0.000000 0.000000 0.044987 0.000000 0.010694
# 5 0.029669 -0.089800 -0.038036 0.000000 0.072817 0.000000
# 6 0.000000 0.000000 0.000000 0.010694 0.000000 0.044271
#
#
# Mechanical properties :
#
#
# Convention : Reuss Voigt Hill
#
# Bulk Modulus (GPa) = 4.01624 36.73219 20.37421
# Shear Modulus (GPa) = 7.39695 23.36263 15.37979
#
# Velocity S-wave (km/s) = 1.93722 3.44282 2.79337
# Velocity P-wave (km/s) = 2.65357 5.86856 4.55420
#
# Compressibility (1/GPa) = 0.24898899
#
# Stress axis : x y z
#
# Youngs Moduli (GPa) = 29.77410 3.87502 20.70943
#
# Poissons Ratio (x) = 0.30236 0.53914
# Poissons Ratio (y) = 2.32324 -1.21334
# Poissons Ratio (z) = 0.77513 -0.22703
#
# Static dielectric constant tensor:
#      x y z
#    x 1.745420 0.000000 0.046890 
#    y 0.000000 1.665630 0.000000 
#    z 0.046890 0.000000 1.778920 
# 
# From -- ./inp_files/45237.got.cif
#   From: 2010.05.17/outbox.ucp.g08.bks.cvg/sg11_23_cif.got.tgz:45237.got - 2010.06.11 11:38:39.
