data_PCOD9167843
_publ_section_title
;
Structure prediction by ZEFSAII (Michael W. Deem and Ramdas Pophale) SiO2 
 PCOD9167843
Probable space group: P 21/M
;
_chemical_formula_sum "Si O2"
_cell_formula_units_Z 28
_cell_length_a 30.000000
_cell_length_b 9.000000
_cell_length_c 30.000000
_cell_angle_alpha 90.000000
_cell_angle_beta 170.000000
_cell_angle_gamma 90.000000
_cell_volume 1406.550239
_symmetry_space_group_name_H-M "P 21/M"
_symmetry_group_IT_number 11
_symmetry_cell_setting 'monoclinic'
loop_
_space_group_symop_operation_xyz
x,y,z
-x,1/2+y,-z
-x,-y,-z
x,1/2-y,z
loop_
_atom_site_type_symbol
_atom_site_label
_atom_site_fract_x
_atom_site_fract_y
_atom_site_fract_z
Si Si1 0.977370 0.428885 0.570069
Si Si2 0.736148 0.572202 0.758677
Si Si3 0.233835 0.421542 0.550829
Si Si4 0.753294 0.080717 0.012274
Si Si5 0.496365 0.069444 0.947198
Si Si6 0.081802 0.420095 0.255725
Si Si7 0.398986 0.921791 0.282605
O O1 0.990541 0.250000 0.576723
O O2 0.847301 0.470195 0.489317
O O3 0.775163 0.510404 0.338657
O O4 0.259704 0.501606 0.840094
O O5 0.500000 0.500000 0.500000
O O6 0.748563 0.750000 0.765793
O O7 0.667884 0.526212 0.741949
O O8 0.000000 0.500000 0.000000
O O9 0.293948 0.250000 0.625355
O O10 0.972768 0.411825 0.265552
O O11 0.482748 0.473077 0.766884
O O12 0.688663 0.250000 0.933184
O O13 0.915722 0.005549 0.132068
O O14 0.508851 0.250000 0.959378
O O15 0.500000 0.000000 0.000000
O O16 0.141659 0.250000 0.329871
O O17 0.355213 0.474196 0.505201
O O18 0.866886 0.414786 0.006087
O O19 0.460988 0.750000 0.357742
#
# Coordination Sequence:
#
# PCOD9167843 Si02
#       7
#     4   4   4   4   4   4   4
#     4  12  25  42  63  91 126 164 205 250 303 361
#     4  12  25  42  63  88 120 157 200 247 300 358
#     4  10  19  33  55  82 113 152 198 246 292 343
#     4   9  17  30  52  82 113 147 194 245 290 340
#     4  12  25  44  67  93 124 160 203 250 303 361
#     4   9  17  30  52  82 113 147 190 241 289 343
#     4  10  19  33  55  82 113 149 192 239 292 350
#
# _framework density 19.906860999999999
#
# number of rings (size 3 to 8) (size 9 to 14) (size 15 to 20)
#    0.000    1.429    0.000    6.857    0.000    5.714 
#    0.000    0.000    0.000    5.143    0.000    0.000 
#    0.000    0.000    0.000    0.000    0.000    0.000 
#
# Total GULP energy -156137.738956 kJ/mol
# GULP energy per Si atom -5576.347820 kJ/mol
# Density = 1.986155 g / cm^3
# Si number density = 19.906861 Si / 1000 Ang^3
#
#
#
# Elastic Constant Matrix: (Units=GPa)
#
#
# Indices 1 2 3 4 5 6 
#
# 1 58.2147 23.5311 2.2213 0.0000 20.8138 0.0000
# 2 23.5311 124.1548 18.9092 0.0000 6.3901 0.0000
# 3 2.2213 18.9092 110.8574 0.0000 25.0363 0.0000
# 4 0.0000 0.0000 0.0000 24.2953 0.0000 7.9802
# 5 20.8138 6.3901 25.0363 0.0000 52.3648 0.0000
# 6 0.0000 0.0000 0.0000 7.9802 0.0000 27.5063
#
#
#
# Elastic Compliance Matrix: (Units=1/GPa)
#
#
# Indices 1 2 3 4 5 6 
#
# 1 0.022101 -0.004066 0.002379 0.000000 -0.009426 0.000000
# 2 -0.004066 0.009024 -0.001765 0.000000 0.001359 0.000000
# 3 0.002379 -0.001765 0.010581 0.000000 -0.005790 0.000000
# 4 0.000000 0.000000 0.000000 0.045496 0.000000 -0.013199
# 5 -0.009426 0.001359 -0.005790 0.000000 0.025446 0.000000
# 6 0.000000 0.000000 0.000000 -0.013199 0.000000 0.040185
#
#
# Mechanical properties :
#
#
# Convention : Reuss Voigt Hill
#
# Bulk Modulus (GPa) = 28.73250 42.50555 35.61902
# Shear Modulus (GPa) = 29.18248 37.40428 33.29338
#
# Velocity S-wave (km/s) = 3.83293 4.33940 4.09401
# Velocity P-wave (km/s) = 5.83552 6.81952 6.34662
#
# Compressibility (1/GPa) = 0.03480380
#
# Stress axis : x y z
#
# Youngs Moduli (GPa) = 45.24757 110.81664 94.50507
#
# Poissons Ratio (x) = 0.45058 -0.22487
# Poissons Ratio (y) = 0.18398 0.16676
# Poissons Ratio (z) = -0.10767 0.19555
#
# Static dielectric constant tensor:
#      x y z
#    x 1.790110 0.000000 -0.052920 
#    y 0.000000 1.690930 0.000000 
#    z -0.052920 0.000000 1.697860 
# 
# From -- ./inp_files/73849.got.cif
#   From: 2010.05.17/outbox.ucp.g08.bks.cvg/sg11_37_cif.got.tgz:73849.got - 2010.06.11 11:38:39.
