data_PCOD9167367
_publ_section_title
;
Structure prediction by ZEFSAII (Michael W. Deem and Ramdas Pophale) SiO2 
 PCOD9167367
Probable space group: P 21/M
;
_chemical_formula_sum "Si O2"
_cell_formula_units_Z 26
_cell_length_a 9.395367
_cell_length_b 18.891134
_cell_length_c 9.093774
_cell_angle_alpha 90.000000
_cell_angle_beta 47.724119
_cell_angle_gamma 90.000000
_cell_volume 1194.255851
_symmetry_space_group_name_H-M "P 21/M"
_symmetry_group_IT_number 11
_symmetry_cell_setting 'monoclinic'
loop_
_space_group_symop_operation_xyz
x,y,z
-x,1/2+y,-z
-x,-y,-z
x,1/2-y,z
loop_
_atom_site_type_symbol
_atom_site_label
_atom_site_fract_x
_atom_site_fract_y
_atom_site_fract_z
Si Si1 0.074245 0.250000 0.995181
Si Si2 0.641335 0.403332 0.462204
Si Si3 0.051146 0.920008 0.500003
Si Si4 0.339116 0.750000 0.877862
Si Si5 0.655643 0.492517 0.168148
Si Si6 0.543212 0.750000 0.453520
Si Si7 0.616819 0.384241 0.948216
Si Si8 0.216319 0.380751 0.087635
O O1 0.240209 0.250000 0.755613
O O2 0.118482 0.318308 0.064731
O O3 0.860300 0.250000 0.076772
O O4 0.819886 0.412408 0.444712
O O5 0.698153 0.432109 0.260410
O O6 0.480714 0.454487 0.645672
O O7 0.563546 0.322934 0.518072
O O8 0.182042 0.893922 0.276314
O O9 0.860159 0.882103 0.691200
O O10 0.000000 0.000000 0.500000
O O11 0.520704 0.750000 0.643432
O O12 0.354393 0.817860 0.968350
O O13 0.570314 0.450991 0.086604
O O14 0.809193 0.545327 0.984657
O O15 0.446032 0.372501 0.950336
#
# Coordination Sequence:
#
# PCOD9167367 Si02
#       8
#     2   4   4   2   4   2   4   4
#     4  12  27  46  70 108 135 183 242 287 342 425
#     4  11  24  42  73 106 139 188 234 289 347 423
#     4  12  25  42  71 104 140 182 234 284 348 412
#     4  12  29  46  70 100 143 183 234 291 348 417
#     4  11  22  43  72 104 137 184 232 282 351 416
#     4  12  22  48  70  98 140 188 224 288 354 412
#     4  12  25  48  69 102 145 184 226 291 355 413
#     4  12  25  44  74 100 141 184 231 286 350 417
#
# _framework density 21.770879999999998
#
# number of rings (size 3 to 8) (size 9 to 14) (size 15 to 20)
#    0.000    0.308    6.154    2.769    0.000    4.308 
#    0.000    0.000    0.000    0.000    0.000    0.000 
#    0.000    0.000    0.000    0.000    0.000    0.000 
#
# Total GULP energy -145250.349106 kJ/mol
# GULP energy per Si atom -5586.551889 kJ/mol
# Density = 2.172133 g / cm^3
# Si number density = 21.770880 Si / 1000 Ang^3
#
#
#
# Elastic Constant Matrix: (Units=GPa)
#
#
# Indices 1 2 3 4 5 6 
#
# 1 30.7172 34.3949 10.1233 0.0000 22.0476 0.0000
# 2 34.3949 129.9779 37.3154 0.0000 13.4188 0.0000
# 3 10.1233 37.3154 151.8151 0.0000 16.1054 0.0000
# 4 0.0000 0.0000 0.0000 37.8936 0.0000 36.4156
# 5 22.0476 13.4188 16.1054 0.0000 31.8363 0.0000
# 6 0.0000 0.0000 0.0000 36.4156 0.0000 69.6471
#
#
#
# Elastic Compliance Matrix: (Units=1/GPa)
#
#
# Indices 1 2 3 4 5 6 
#
# 1 0.099998 -0.021488 0.005283 0.000000 -0.062867 0.000000
# 2 -0.021488 0.013104 -0.002938 0.000000 0.010844 0.000000
# 3 0.005283 -0.002938 0.007623 0.000000 -0.006276 0.000000
# 4 0.000000 0.000000 0.000000 0.053041 0.000000 -0.027733
# 5 -0.062867 0.010844 -0.006276 0.000000 0.073552 0.000000
# 6 0.000000 0.000000 0.000000 -0.027733 0.000000 0.028858
#
#
# Mechanical properties :
#
#
# Convention : Reuss Voigt Hill
#
# Bulk Modulus (GPa) = 12.13039 52.90860 32.51950
# Shear Modulus (GPa) = 14.62237 43.25387 28.93812
#
# Velocity S-wave (km/s) = 2.59443 4.46216 3.64979
# Velocity P-wave (km/s) = 3.81558 7.13464 5.72109
#
# Compressibility (1/GPa) = 0.08243755
#
# Stress axis : x y z
#
# Youngs Moduli (GPa) = 10.00020 76.31364 131.18622
#
# Poissons Ratio (x) = 1.63982 -0.69304
# Poissons Ratio (y) = 0.21488 0.38548
# Poissons Ratio (z) = -0.05283 0.22424
#
# Static dielectric constant tensor:
#      x y z
#    x 1.774370 0.000000 -0.038870 
#    y 0.000000 1.782270 0.000000 
#    z -0.038870 0.000000 1.881080 
# 
# From -- ./inp_files/14543.got.cif
#   From: 2010.05.17/outbox.cif.g08.bks.cpg/sg11_8_cif.got.tgz:14543.got - 2010.06.03 12:22:45.
