data_PCOD9167594
_publ_section_title
;
Structure prediction by ZEFSAII (Michael W. Deem and Ramdas Pophale) SiO2 
 PCOD9167594
Probable space group: P 21/M
;
_chemical_formula_sum "Si O2"
_cell_formula_units_Z 20
_cell_length_a 8.149060
_cell_length_b 22.116196
_cell_length_c 8.123802
_cell_angle_alpha 90.000000
_cell_angle_beta 146.581719
_cell_angle_gamma 90.000000
_cell_volume 806.360935
_symmetry_space_group_name_H-M "P 21/M"
_symmetry_group_IT_number 11
_symmetry_cell_setting 'monoclinic'
loop_
_space_group_symop_operation_xyz
x,y,z
-x,1/2+y,-z
-x,-y,-z
x,1/2-y,z
loop_
_atom_site_type_symbol
_atom_site_label
_atom_site_fract_x
_atom_site_fract_y
_atom_site_fract_z
Si Si1 0.294857 0.481877 0.145008
Si Si2 0.091147 0.467459 0.411443
Si Si3 0.503471 0.750000 0.074149
Si Si4 0.891143 0.250000 0.575274
Si Si5 0.953181 0.853014 0.028696
Si Si6 0.570884 0.649562 0.393528
O O1 0.642621 0.495272 0.459205
O O2 0.000000 0.500000 0.000000
O O3 0.229546 0.526691 0.940585
O O4 0.240415 0.410307 0.071773
O O5 0.212849 0.399872 0.506400
O O6 0.000000 0.500000 0.500000
O O7 0.448454 0.693454 0.148620
O O8 0.855682 0.750000 0.349063
O O9 0.388138 0.750000 0.786721
O O10 0.950025 0.306838 0.746212
O O11 0.270317 0.875711 0.224427
O O12 0.762568 0.826140 0.713353
#
# Coordination Sequence:
#
# PCOD9167594 Si02
#       6
#     4   4   2   2   4   4
#     4  12  23  46  72 109 144 192 243 300 353 445
#     4  12  26  44  71 110 155 190 239 300 380 432
#     4  12  28  48  74 104 150 187 245 308 378 430
#     4  12  28  50  70 112 138 193 243 318 368 416
#     4  12  25  46  79 103 147 191 255 297 359 441
#     4  12  24  48  74 106 144 200 241 297 366 452
#
# _framework density 24.802790000000002
#
# number of rings (size 3 to 8) (size 9 to 14) (size 15 to 20)
#    0.000    0.000    4.000    6.000    2.800    0.000 
#    0.000    0.000    0.000    0.000    0.000    0.000 
#    0.000    0.000    0.000    0.000    0.000    0.000 
#
# Total GULP energy -111362.846961 kJ/mol
# GULP energy per Si atom -5568.142348 kJ/mol
# Density = 2.474634 g / cm^3
# Si number density = 24.802790 Si / 1000 Ang^3
#
#
#
# Elastic Constant Matrix: (Units=GPa)
#
#
# Indices 1 2 3 4 5 6 
#
# 1 67.9602 17.4516 21.6113 0.0000 9.3493 0.0000
# 2 17.4516 152.3055 41.3444 0.0000 -18.7312 0.0000
# 3 21.6113 41.3444 182.3929 0.0000 -19.9915 0.0000
# 4 0.0000 0.0000 0.0000 15.1874 0.0000 11.4945
# 5 9.3493 -18.7312 -19.9915 0.0000 49.2296 0.0000
# 6 0.0000 0.0000 0.0000 11.4945 0.0000 16.6047
#
#
#
# Elastic Compliance Matrix: (Units=1/GPa)
#
#
# Indices 1 2 3 4 5 6 
#
# 1 0.016498 -0.001915 -0.002035 0.000000 -0.004688 0.000000
# 2 -0.001915 0.007435 -0.001160 0.000000 0.002721 0.000000
# 3 -0.002035 -0.001160 0.006259 0.000000 0.002487 0.000000
# 4 0.000000 0.000000 0.000000 0.138304 0.000000 -0.095740
# 5 -0.004688 0.002721 0.002487 0.000000 0.023249 0.000000
# 6 0.000000 0.000000 0.000000 -0.095740 0.000000 0.126499
#
#
# Mechanical properties :
#
#
# Convention : Reuss Voigt Hill
#
# Bulk Modulus (GPa) = 50.06686 62.60813 56.33750
# Shear Modulus (GPa) = 14.92001 37.68777 26.30389
#
# Velocity S-wave (km/s) = 2.45530 3.90230 3.26010
# Velocity P-wave (km/s) = 5.31675 6.75286 6.07737
#
# Compressibility (1/GPa) = 0.01997329
#
# Stress axis : x y z
#
# Youngs Moduli (GPa) = 60.61306 134.50366 159.76222
#
# Poissons Ratio (x) = 0.25752 0.32506
# Poissons Ratio (y) = 0.11605 0.18535
# Poissons Ratio (z) = 0.12333 0.15605
#
# Static dielectric constant tensor:
#      x y z
#    x 1.742700 0.000000 0.111500 
#    y 0.000000 2.211050 0.000000 
#    z 0.111500 0.000000 1.760400 
# 
# From -- ./inp_files/14894.got.cif
#   From: 2010.05.17/outbox.cif.g08.bks.cpg/sg11_8_cif.got.tgz:14894.got - 2010.06.03 12:22:45.
