data_PCOD9167555
_publ_section_title
;
Structure prediction by ZEFSAII (Michael W. Deem and Ramdas Pophale) SiO2 
 PCOD9167555
Probable space group: P 21/M
;
_chemical_formula_sum "Si O2"
_cell_formula_units_Z 14
_cell_length_a 6.949695
_cell_length_b 13.981030
_cell_length_c 6.695790
_cell_angle_alpha 90.000000
_cell_angle_beta 134.854198
_cell_angle_gamma 90.000000
_cell_volume 461.205090
_symmetry_space_group_name_H-M "P 21/M"
_symmetry_group_IT_number 11
_symmetry_cell_setting 'monoclinic'
loop_
_space_group_symop_operation_xyz
x,y,z
-x,1/2+y,-z
-x,-y,-z
x,1/2-y,z
loop_
_atom_site_type_symbol
_atom_site_label
_atom_site_fract_x
_atom_site_fract_y
_atom_site_fract_z
Si Si1 0.021379 0.750000 0.870756
Si Si2 0.526688 0.750000 0.001767
Si Si3 0.898885 0.928497 0.304381
Si Si4 0.725805 0.250000 0.540577
Si Si5 0.810367 0.538093 0.729288
O O1 0.550636 0.750000 0.780790
O O2 0.865634 0.651142 0.763125
O O3 0.258058 0.750000 0.211567
O O4 0.209262 0.750000 0.814555
O O5 0.645418 0.852845 0.145219
O O6 0.120942 0.846442 0.409534
O O7 0.138077 0.022856 0.490822
O O8 0.875408 0.976622 0.043359
O O9 0.500000 0.500000 0.500000
#
# Coordination Sequence:
#
# PCOD9167555 Si02
#       5
#     2   2   4   2   4
#     4  12  28  55  89 125 170 236 297 369 445 541
#     4  11  29  54  86 125 177 228 299 367 451 540
#     4  11  27  49  79 120 173 225 284 375 441 523
#     4  11  25  49  81 120 167 228 288 358 444 529
#     4  12  30  52  85 125 172 229 296 361 441 532
#
# _framework density 30.355256000000001
#
# number of rings (size 3 to 8) (size 9 to 14) (size 15 to 20)
#    0.000    0.571    2.857    1.714    8.000    6.857 
#    0.000    0.000    0.000    0.000    0.000    0.000 
#    0.000    0.000    0.000    0.000    0.000    0.000 
#
# Total GULP energy -78180.665290 kJ/mol
# GULP energy per Si atom -5584.333235 kJ/mol
# Density = 3.028617 g / cm^3
# Si number density = 30.355256 Si / 1000 Ang^3
#
#
#
# Elastic Constant Matrix: (Units=GPa)
#
#
# Indices 1 2 3 4 5 6 
#
# 1 225.7210 102.6302 61.4761 0.0000 -9.3494 0.0000
# 2 102.6302 269.7245 100.8386 0.0000 25.0632 0.0000
# 3 61.4761 100.8386 232.6634 0.0000 -7.0219 0.0000
# 4 0.0000 0.0000 0.0000 80.9656 0.0000 -28.6965
# 5 -9.3494 25.0632 -7.0219 0.0000 39.1846 0.0000
# 6 0.0000 0.0000 0.0000 -28.6965 0.0000 79.1657
#
#
#
# Elastic Compliance Matrix: (Units=1/GPa)
#
#
# Indices 1 2 3 4 5 6 
#
# 1 0.005687 -0.002250 -0.000446 0.000000 0.002716 0.000000
# 2 -0.002250 0.005750 -0.002036 0.000000 -0.004580 0.000000
# 3 -0.000446 -0.002036 0.005363 0.000000 0.002157 0.000000
# 4 0.000000 0.000000 0.000000 0.014172 0.000000 0.005137
# 5 0.002716 -0.004580 0.002157 0.000000 0.029484 0.000000
# 6 0.000000 0.000000 0.000000 0.005137 0.000000 0.014494
#
#
# Mechanical properties :
#
#
# Convention : Reuss Voigt Hill
#
# Bulk Modulus (GPa) = 136.27885 139.77766 138.02825
# Shear Modulus (GPa) = 57.56488 70.74078 64.15283
#
# Velocity S-wave (km/s) = 4.35946 4.83269 4.60216
# Velocity P-wave (km/s) = 8.38642 8.79131 8.59125
#
# Compressibility (1/GPa) = 0.00733790
#
# Stress axis : x y z
#
# Youngs Moduli (GPa) = 175.83991 173.90745 186.45148
#
# Poissons Ratio (x) = 0.39123 0.08310
# Poissons Ratio (y) = 0.39558 0.37961
# Poissons Ratio (z) = 0.07837 0.35407
#
# Static dielectric constant tensor:
#      x y z
#    x 2.398760 0.000000 -0.242180 
#    y 0.000000 2.320040 0.000000 
#    z -0.242180 0.000000 2.606690 
# 
# From -- ./inp_files/17326.got.cif
#   From: 2010.05.17/outbox.cif.g08.bks.cpg/sg11_9_cif.got.tgz:17326.got - 2010.06.03 12:22:45.
