data_PCOD9167755
_publ_section_title
;
Structure prediction by ZEFSAII (Michael W. Deem and Ramdas Pophale) SiO2 
 PCOD9167755
Probable space group: P 21/M
;
_chemical_formula_sum "Si O2"
_cell_formula_units_Z 24
_cell_length_a 24.000000
_cell_length_b 9.000000
_cell_length_c 18.000000
_cell_angle_alpha 90.000000
_cell_angle_beta 20.000000
_cell_angle_gamma 90.000000
_cell_volume 1329.774317
_symmetry_space_group_name_H-M "P 21/M"
_symmetry_group_IT_number 11
_symmetry_cell_setting 'monoclinic'
loop_
_space_group_symop_operation_xyz
x,y,z
-x,1/2+y,-z
-x,-y,-z
x,1/2-y,z
loop_
_atom_site_type_symbol
_atom_site_label
_atom_site_fract_x
_atom_site_fract_y
_atom_site_fract_z
Si Si1 0.754748 0.919420 0.682139
Si Si2 0.293695 0.429885 0.492085
Si Si3 0.452051 0.579558 0.943900
Si Si4 0.704480 0.928502 0.181489
Si Si5 0.638607 0.571385 0.427611
Si Si6 0.043940 0.572754 0.689882
O O1 0.807408 0.750000 0.623497
O O2 0.602157 0.922531 0.815154
O O3 0.891024 0.015290 0.470373
O O4 0.687557 0.982303 0.843664
O O5 0.279698 0.250000 0.504600
O O6 0.465620 0.469248 0.236501
O O7 0.289585 0.476779 0.583130
O O8 0.155052 0.502545 0.615487
O O9 0.397643 0.750000 0.005410
O O10 0.683442 0.750000 0.204760
O O11 0.731215 0.968497 0.235147
O O12 0.541146 0.005683 0.358143
O O13 0.859176 0.970039 0.938806
O O14 0.628583 0.750000 0.443078
O O15 0.059296 0.750000 0.673971
#
# Coordination Sequence:
#
# PCOD9167755 Si02
#       6
#     4   4   4   4   4   4
#     4   9  16  26  42  65  92 122 156 191 228 274
#     4   9  18  31  48  72  98 123 155 194 234 277
#     4   8  14  25  41  63  92 122 150 185 231 277
#     4   9  19  34  50  70  95 124 159 194 231 279
#     4   9  18  34  53  70  92 124 159 194 233 279
#     4  10  19  30  46  70  99 127 155 192 235 275
#
# _framework density 18.048175000000001
#
# number of rings (size 3 to 8) (size 9 to 14) (size 15 to 20)
#    0.000    3.000    0.000    2.000    0.000    6.667 
#    0.000    0.000    0.000    1.000    0.000    0.000 
#    0.000    0.000    0.000    0.000    0.000    0.000 
#
# Total GULP energy -133684.824913 kJ/mol
# GULP energy per Si atom -5570.201038 kJ/mol
# Density = 1.800710 g / cm^3
# Si number density = 18.048175 Si / 1000 Ang^3
#
#
#
# Elastic Constant Matrix: (Units=GPa)
#
#
# Indices 1 2 3 4 5 6 
#
# 1 -15.7244 -6.5547 -20.9599 0.0000 -2.6494 0.0000
# 2 -6.5547 19.7854 19.9984 0.0000 3.7158 0.0000
# 3 -20.9599 19.9984 68.6828 0.0000 9.4080 0.0000
# 4 0.0000 0.0000 0.0000 21.9520 0.0000 1.8964
# 5 -2.6494 3.7158 9.4080 0.0000 8.2272 0.0000
# 6 0.0000 0.0000 0.0000 1.8964 0.0000 18.1107
#
#
#
# Elastic Compliance Matrix: (Units=1/GPa)
#
#
# Indices 1 2 3 4 5 6 
#
# 1 -0.045157 -0.001578 -0.013549 0.000000 0.001664 0.000000
# 2 -0.001578 0.072277 -0.020140 0.000000 -0.010121 0.000000
# 3 -0.013549 -0.020140 0.018546 0.000000 -0.016475 0.000000
# 4 0.000000 0.000000 0.000000 0.045970 0.000000 -0.004814
# 5 0.001664 -0.010121 -0.016475 0.000000 0.145495 0.000000
# 6 0.000000 0.000000 0.000000 -0.004814 0.000000 0.055720
#
#
# Mechanical properties :
#
#
# Convention : Reuss Voigt Hill
#
# Bulk Modulus (GPa) = -40.21187 6.41237 -16.89975
# Shear Modulus (GPa) = 14.08076 15.00866 14.54471
#
# Velocity S-wave (km/s) = 2.79619 2.88686 2.84189
# Velocity P-wave (km/s) = 3.45018 3.83048 1.17661
#
# Compressibility (1/GPa) = -0.02486828
#
# Stress axis : x y z
#
# Youngs Moduli (GPa) = -22.14474 13.83557 53.92086
#
# Poissons Ratio (x) = 0.02183 0.73059
# Poissons Ratio (y) = -0.03493 1.08597
# Poissons Ratio (z) = -0.30005 0.27865
#
# Static dielectric constant tensor:
#      x y z
#    x 1.613350 0.000000 0.027840 
#    y 0.000000 1.590220 0.000000 
#    z 0.027840 0.000000 1.624880 
# 
# From -- ./inp_files/40508.got.cif
#   From: 2010.05.17/outbox.ucp.g08.bks.cvg/sg11_21_cif.got.tgz:40508.got - 2010.06.11 11:38:39.
