data_PCOD9167897
_publ_section_title
;
Structure prediction by ZEFSAII (Michael W. Deem and Ramdas Pophale) SiO2 
 PCOD9167897
Probable space group: P 21/M
;
_chemical_formula_sum "Si O2"
_cell_formula_units_Z 32
_cell_length_a 12.000000
_cell_length_b 21.000000
_cell_length_c 9.000000
_cell_angle_alpha 90.000000
_cell_angle_beta 130.000000
_cell_angle_gamma 90.000000
_cell_volume 1737.388797
_symmetry_space_group_name_H-M "P 21/M"
_symmetry_group_IT_number 11
_symmetry_cell_setting 'monoclinic'
loop_
_space_group_symop_operation_xyz
x,y,z
-x,1/2+y,-z
-x,-y,-z
x,1/2-y,z
loop_
_atom_site_type_symbol
_atom_site_label
_atom_site_fract_x
_atom_site_fract_y
_atom_site_fract_z
Si Si1 0.719436 0.172150 0.329829
Si Si2 0.781494 0.582841 0.062390
Si Si3 0.578124 0.095139 0.478417
Si Si4 0.009626 0.921168 0.497335
Si Si5 0.190353 0.322278 0.502300
Si Si6 0.705727 0.676392 0.738310
Si Si7 0.396690 0.525703 0.199427
Si Si8 0.459100 0.125984 0.903960
O O1 0.752659 0.250000 0.369875
O O2 0.671270 0.138640 0.445190
O O3 0.842941 0.121651 0.377189
O O4 0.583117 0.163882 0.099970
O O5 0.650954 0.597000 0.067339
O O6 0.933268 0.589248 0.273731
O O7 0.775261 0.634554 0.927552
O O8 0.746009 0.511864 0.976648
O O9 0.447099 0.141033 0.416768
O O10 0.640289 0.065814 0.684085
O O11 0.509153 0.032372 0.337008
O O12 0.906385 0.881567 0.523129
O O13 0.000000 0.000000 0.500000
O O14 0.138825 0.250000 0.499042
O O15 0.205404 0.325498 0.338055
O O16 0.351490 0.331995 0.709943
O O17 0.685571 0.750000 0.765082
O O18 0.467326 0.571294 0.135384
#
# Coordination Sequence:
#
# PCOD9167897 Si02
#       8
#     4   4   4   4   4   4   4   4
#     4  12  25  41  60  91 131 166 201 255 320 374
#     4  10  22  37  61  91 117 160 207 258 302 360
#     4  10  21  34  60  91 128 159 193 254 309 364
#     4  11  26  43  64  87 123 166 211 257 308 367
#     4  10  22  40  64  91 122 162 206 252 303 371
#     4  10  19  37  63  90 120 158 205 252 300 363
#     4  10  19  35  58  94 123 154 203 253 307 351
#     4  11  20  35  64  92 123 158 203 256 303 369
#
# _framework density 18.418444999999998
#
# number of rings (size 3 to 8) (size 9 to 14) (size 15 to 20)
#    0.000    1.500    3.750    2.250    3.500    2.500 
#    0.000    3.750    0.000    0.000    0.000    0.000 
#    0.000    0.000    0.000    0.000    0.000    0.000 
#
# Total GULP energy -178261.153341 kJ/mol
# GULP energy per Si atom -5570.661042 kJ/mol
# Density = 1.837652 g / cm^3
# Si number density = 18.418445 Si / 1000 Ang^3
#
#
#
# Elastic Constant Matrix: (Units=GPa)
#
#
# Indices 1 2 3 4 5 6 
#
# 1 62.1592 47.4207 27.8300 0.0000 -6.6194 0.0000
# 2 47.4207 152.0575 15.6915 0.0000 -12.5118 0.0000
# 3 27.8300 15.6915 57.3199 0.0000 -14.2709 0.0000
# 4 0.0000 0.0000 0.0000 18.1277 0.0000 -5.5675
# 5 -6.6194 -12.5118 -14.2709 0.0000 29.7806 0.0000
# 6 0.0000 0.0000 0.0000 -5.5675 0.0000 35.4602
#
#
#
# Elastic Compliance Matrix: (Units=1/GPa)
#
#
# Indices 1 2 3 4 5 6 
#
# 1 0.026555 -0.007311 -0.011567 0.000000 -0.002712 0.000000
# 2 -0.007311 0.008912 0.001859 0.000000 0.003010 0.000000
# 3 -0.011567 0.001859 0.025102 0.000000 0.010239 0.000000
# 4 0.000000 0.000000 0.000000 0.057959 0.000000 0.009100
# 5 -0.002712 0.003010 0.010239 0.000000 0.039147 0.000000
# 6 0.000000 0.000000 0.000000 0.009100 0.000000 0.029629
#
#
# Mechanical properties :
#
#
# Convention : Reuss Voigt Hill
#
# Bulk Modulus (GPa) = 37.68955 50.38010 44.03483
# Shear Modulus (GPa) = 21.72147 28.71331 25.21739
#
# Velocity S-wave (km/s) = 3.43787 3.95263 3.70420
# Velocity P-wave (km/s) = 6.02212 6.94575 6.50036
#
# Compressibility (1/GPa) = 0.02653255
#
# Stress axis : x y z
#
# Youngs Moduli (GPa) = 37.65738 112.20444 39.83719
#
# Poissons Ratio (x) = 0.82033 0.46079
# Poissons Ratio (y) = 0.27531 -0.07407
# Poissons Ratio (z) = 0.43558 -0.20863
#
# Static dielectric constant tensor:
#      x y z
#    x 1.637230 0.000000 -0.000080 
#    y 0.000000 1.636550 0.000000 
#    z -0.000080 0.000000 1.682830 
# 
# From -- ./inp_files/19409.got.cif
#   From: 2010.05.17/outbox.ucp.g08.bks.cvg/sg11_10_cif.got.tgz:19409.got - 2010.06.11 11:38:39.
