data_PCOD9167426
_publ_section_title
;
Structure prediction by ZEFSAII (Michael W. Deem and Ramdas Pophale) SiO2 
 PCOD9167426
Probable space group: P 21/M
;
_chemical_formula_sum "Si O2"
_cell_formula_units_Z 24
_cell_length_a 16.421899
_cell_length_b 14.244035
_cell_length_c 12.312562
_cell_angle_alpha 90.000000
_cell_angle_beta 26.395851
_cell_angle_gamma 90.000000
_cell_volume 1280.398925
_symmetry_space_group_name_H-M "P 21/M"
_symmetry_group_IT_number 11
_symmetry_cell_setting 'monoclinic'
loop_
_space_group_symop_operation_xyz
x,y,z
-x,1/2+y,-z
-x,-y,-z
x,1/2-y,z
loop_
_atom_site_type_symbol
_atom_site_label
_atom_site_fract_x
_atom_site_fract_y
_atom_site_fract_z
Si Si1 0.372348 0.137708 0.882892
Si Si2 0.293874 0.139514 0.524020
Si Si3 0.980465 0.981880 0.651069
Si Si4 0.496211 0.863551 0.511011
Si Si5 0.111508 0.860490 0.070551
Si Si6 0.388066 0.518155 0.243458
O O1 0.370539 0.250000 0.888145
O O2 0.438470 0.104478 0.684734
O O3 0.510578 0.096546 0.806921
O O4 0.171925 0.096468 0.145514
O O5 0.337529 0.250000 0.455679
O O6 0.370413 0.109946 0.549551
O O7 0.074909 0.129318 0.775578
O O8 0.380738 0.075365 0.326660
O O9 0.912062 0.075418 0.795337
O O10 0.000000 0.000000 0.500000
O O11 0.179222 0.957441 0.462383
O O12 0.498723 0.750000 0.503344
O O13 0.290047 0.890112 0.789936
O O14 0.130548 0.750000 0.076143
O O15 0.500000 0.500000 0.000000
#
# Coordination Sequence:
#
# PCOD9167426 Si02
#       6
#     4   4   4   4   4   4
#     4  11  25  43  62  88 125 164 199 248 305 359
#     4   9  19  36  60  89 120 156 198 252 308 356
#     4  11  23  40  61  88 125 159 205 254 296 362
#     4   9  19  37  61  88 119 157 204 247 298 367
#     4   9  19  36  60  89 120 156 198 252 308 356
#     4  11  23  40  61  88 125 159 205 254 296 362
#
# _framework density 18.744157999999999
#
# number of rings (size 3 to 8) (size 9 to 14) (size 15 to 20)
#    0.000    2.000    1.667    1.000    0.000    6.000 
#    0.000    6.667    0.000    0.000    0.000    0.000 
#    0.000    0.000    0.000    0.000    0.000    0.000 
#
# Total GULP energy -134049.365781 kJ/mol
# GULP energy per Si atom -5585.390241 kJ/mol
# Density = 1.870150 g / cm^3
# Si number density = 18.744158 Si / 1000 Ang^3
#
#
#
# Elastic Constant Matrix: (Units=GPa)
#
#
# Indices 1 2 3 4 5 6 
#
# 1 158.2861 68.4792 102.0007 0.0000 14.6618 0.0000
# 2 68.4792 105.3562 69.3429 0.0000 -4.4976 0.0000
# 3 102.0007 69.3429 154.5964 0.0000 14.0670 0.0000
# 4 0.0000 0.0000 0.0000 32.9119 0.0000 2.0569
# 5 14.6618 -4.4976 14.0670 0.0000 31.4378 0.0000
# 6 0.0000 0.0000 0.0000 2.0569 0.0000 33.1460
#
#
#
# Elastic Compliance Matrix: (Units=1/GPa)
#
#
# Indices 1 2 3 4 5 6 
#
# 1 0.012287 -0.004304 -0.005836 0.000000 -0.003735 0.000000
# 2 -0.004304 0.015716 -0.004792 0.000000 0.006400 0.000000
# 3 -0.005836 -0.004792 0.012804 0.000000 -0.003693 0.000000
# 4 0.000000 0.000000 0.000000 0.030502 0.000000 -0.001893
# 5 -0.003735 0.006400 -0.003693 0.000000 0.036119 0.000000
# 6 0.000000 0.000000 0.000000 -0.001893 0.000000 0.030287
#
#
# Mechanical properties :
#
#
# Convention : Reuss Voigt Hill
#
# Bulk Modulus (GPa) = 91.38320 99.76492 95.57406
# Shear Modulus (GPa) = 29.20092 31.39356 30.29724
#
# Velocity S-wave (km/s) = 3.95127 4.09693 4.02475
# Velocity P-wave (km/s) = 8.34718 8.70171 8.52629
#
# Compressibility (1/GPa) = 0.01094293
#
# Stress axis : x y z
#
# Youngs Moduli (GPa) = 81.38998 63.62775 78.09800
#
# Poissons Ratio (x) = 0.27387 0.45578
# Poissons Ratio (y) = 0.35032 0.37424
# Poissons Ratio (z) = 0.47500 0.30490
#
# Static dielectric constant tensor:
#      x y z
#    x 1.624620 0.000000 -0.014040 
#    y 0.000000 1.654500 0.000000 
#    z -0.014040 0.000000 1.626680 
# 
# From -- ./inp_files/39412.got.cif
#   From: 2010.05.17/outbox.cif.g08.bks.cpg/sg11_20_cif.got.tgz:39412.got - 2010.06.03 12:22:45.
