data_PCOD9167853
_publ_section_title
;
Structure prediction by ZEFSAII (Michael W. Deem and Ramdas Pophale) SiO2 
 PCOD9167853
Probable space group: P 21/M
;
_chemical_formula_sum "Si O2"
_cell_formula_units_Z 32
_cell_length_a 15.000000
_cell_length_b 9.000000
_cell_length_c 24.000000
_cell_angle_alpha 90.000000
_cell_angle_beta 30.000000
_cell_angle_gamma 90.000000
_cell_volume 1620.000000
_symmetry_space_group_name_H-M "P 21/M"
_symmetry_group_IT_number 11
_symmetry_cell_setting 'monoclinic'
loop_
_space_group_symop_operation_xyz
x,y,z
-x,1/2+y,-z
-x,-y,-z
x,1/2-y,z
loop_
_atom_site_type_symbol
_atom_site_label
_atom_site_fract_x
_atom_site_fract_y
_atom_site_fract_z
Si Si1 0.609437 0.087667 0.092701
Si Si2 0.728587 0.071967 0.529860
Si Si3 0.747825 0.577372 0.640297
Si Si4 0.190538 0.411650 0.933678
Si Si5 0.093117 0.928301 0.340536
Si Si6 0.544346 0.423107 0.918928
Si Si7 0.466611 0.927902 0.579912
Si Si8 0.772799 0.085317 0.189488
O O1 0.624104 0.250000 0.059444
O O2 0.435165 0.081481 0.225653
O O3 0.763070 0.047352 0.051641
O O4 0.597488 0.968326 0.050911
O O5 0.711082 0.250000 0.541769
O O6 0.709668 0.998241 0.601570
O O7 0.600529 0.000964 0.552574
O O8 0.927846 0.019776 0.406656
O O9 0.806673 0.750000 0.601905
O O10 0.872920 0.482576 0.614348
O O11 0.267151 0.250000 0.908329
O O12 0.273270 0.453539 0.828545
O O13 0.979020 0.399595 0.058826
O O14 0.066610 0.750000 0.353345
O O15 0.266351 0.966781 0.210348
O O16 0.547379 0.250000 0.925970
O O17 0.500000 0.500000 0.000000
O O18 0.493806 0.750000 0.559333
O O19 0.279925 0.945557 0.717328
O O20 0.500000 0.000000 0.500000
O O21 0.690350 0.250000 0.221954
#
# Coordination Sequence:
#
# PCOD9167853 Si02
#       8
#     4   4   4   4   4   4   4   4
#     4  10  20  34  54  82 115 151 189 228 277 335
#     4  12  24  38  59  87 116 152 193 236 290 345
#     4  10  20  35  57  86 122 157 189 233 287 341
#     4  10  19  33  57  89 118 146 186 235 291 348
#     4  10  21  38  59  86 118 151 191 236 283 341
#     4  10  21  38  59  81 110 148 188 231 278 330
#     4  11  24  44  64  83 113 154 202 249 297 350
#     4   9  20  38  59  83 115 150 184 235 296 348
#
# _framework density 19.753086
#
# number of rings (size 3 to 8) (size 9 to 14) (size 15 to 20)
#    0.000    1.750    0.000    4.500    0.000    7.500 
#    2.250    0.000    0.000    0.000    0.000    0.000 
#    0.000    0.000    0.000    0.000    0.000    0.000 
#
# Total GULP energy -178238.358739 kJ/mol
# GULP energy per Si atom -5569.948711 kJ/mol
# Density = 1.970813 g / cm^3
# Si number density = 19.753086 Si / 1000 Ang^3
#
#
#
# Elastic Constant Matrix: (Units=GPa)
#
#
# Indices 1 2 3 4 5 6 
#
# 1 81.5928 39.7207 40.4314 0.0000 28.8749 0.0000
# 2 39.7207 92.8063 52.1570 0.0000 12.5689 0.0000
# 3 40.4314 52.1570 76.8161 0.0000 35.5516 0.0000
# 4 0.0000 0.0000 0.0000 30.9119 0.0000 7.9501
# 5 28.8749 12.5689 35.5516 0.0000 38.7087 0.0000
# 6 0.0000 0.0000 0.0000 7.9501 0.0000 37.2907
#
#
#
# Elastic Compliance Matrix: (Units=1/GPa)
#
#
# Indices 1 2 3 4 5 6 
#
# 1 0.020131 -0.006877 -0.000017 0.000000 -0.012768 0.000000
# 2 -0.006877 0.021813 -0.017893 0.000000 0.014481 0.000000
# 3 -0.000017 -0.017893 0.039103 0.000000 -0.030091 0.000000
# 4 0.000000 0.000000 0.000000 0.034227 0.000000 -0.007297
# 5 -0.012768 0.014481 -0.030091 0.000000 0.058293 0.000000
# 6 0.000000 0.000000 0.000000 -0.007297 0.000000 0.028372
#
#
# Mechanical properties :
#
#
# Convention : Reuss Voigt Hill
#
# Bulk Modulus (GPa) = 31.77403 57.31481 44.54442
# Shear Modulus (GPa) = 19.08374 29.30935 24.19654
#
# Velocity S-wave (km/s) = 3.11161 3.85617 3.50373
# Velocity P-wave (km/s) = 5.38795 6.99324 6.24241
#
# Compressibility (1/GPa) = 0.03147224
#
# Stress axis : x y z
#
# Youngs Moduli (GPa) = 49.67513 45.84363 25.57380
#
# Poissons Ratio (x) = 0.31528 0.00043
# Poissons Ratio (y) = 0.34163 0.45759
# Poissons Ratio (z) = 0.00084 0.82028
#
# Static dielectric constant tensor:
#      x y z
#    x 1.721770 0.000000 -0.024410 
#    y 0.000000 1.712680 0.000000 
#    z -0.024410 0.000000 1.806470 
# 
# From -- ./inp_files/69049.got.cif
#   From: 2010.05.17/outbox.ucp.g08.bks.cvg/sg11_35_cif.got.tgz:69049.got - 2010.06.11 11:38:39.
