data_PCOD9167087
_publ_section_title
;
Structure prediction by ZEFSAII (Michael W. Deem and Ramdas Pophale) SiO2 
 PCOD9167087
Probable space group: P 21/M
;
_chemical_formula_sum "Si O2"
_cell_formula_units_Z 24
_cell_length_a 31.003628
_cell_length_b 8.192577
_cell_length_c 15.494224
_cell_angle_alpha 90.000000
_cell_angle_beta 160.550102
_cell_angle_gamma 90.000000
_cell_volume 1310.461347
_symmetry_space_group_name_H-M "P 21/M"
_symmetry_group_IT_number 11
_symmetry_cell_setting 'monoclinic'
loop_
_space_group_symop_operation_xyz
x,y,z
-x,1/2+y,-z
-x,-y,-z
x,1/2-y,z
loop_
_atom_site_type_symbol
_atom_site_label
_atom_site_fract_x
_atom_site_fract_y
_atom_site_fract_z
Si Si1 0.386879 0.445908 0.221830
Si Si2 0.120875 0.553068 0.170920
Si Si3 0.535393 0.448538 0.337904
Si Si4 0.413326 0.946936 0.756469
Si Si5 0.111704 0.943672 0.774459
Si Si6 0.830996 0.050978 0.930266
O O1 0.500000 0.500000 0.500000
O O2 0.381321 0.250000 0.210651
O O3 0.428571 0.503653 0.204736
O O4 0.250641 0.511471 0.997323
O O5 0.123481 0.750000 0.174819
O O6 0.262410 0.498605 0.473032
O O7 0.111338 0.497287 0.052871
O O8 0.000000 0.500000 0.000000
O O9 0.531981 0.250000 0.330607
O O10 0.527470 0.503107 0.223795
O O11 0.678758 0.493938 0.642126
O O12 0.411194 0.750000 0.750902
O O13 0.500000 0.000000 0.000000
O O14 0.103263 0.750000 0.764927
O O15 0.105367 0.008894 0.861053
O O16 0.000000 0.000000 0.500000
O O17 0.835397 0.250000 0.938404
#
# Coordination Sequence:
#
# PCOD9167087 Si02
#       6
#     4   4   4   4   4   4
#     4  11  20  34  58  84 108 139 181 223 263 315
#     4   9  18  34  56  78 101 134 178 218 256 310
#     4   8  15  31  55  78 100 136 179 212 252 316
#     4   9  18  34  55  77 105 137 172 214 261 312
#     4  11  22  38  56  78 110 145 180 221 269 319
#     4   8  15  32  56  75  98 139 180 211 254 318
#
# _framework density 18.314160999999999
#
# number of rings (size 3 to 8) (size 9 to 14) (size 15 to 20)
#    0.000    2.667    1.667    3.000    0.000    0.667 
#    3.000    3.333    0.000    0.000    0.000    0.000 
#    0.000    0.000    0.000    0.000    0.000    0.000 
#
# Total GULP energy -133780.265241 kJ/mol
# GULP energy per Si atom -5574.177718 kJ/mol
# Density = 1.827248 g / cm^3
# Si number density = 18.314161 Si / 1000 Ang^3
#
#
#
# Elastic Constant Matrix: (Units=GPa)
#
#
# Indices 1 2 3 4 5 6 
#
# 1 183.6379 14.8340 106.4824 0.0000 -12.3428 0.0000
# 2 14.8340 14.4420 13.7284 0.0000 -4.2005 0.0000
# 3 106.4824 13.7284 136.7081 0.0000 -19.0177 0.0000
# 4 0.0000 0.0000 0.0000 30.4339 0.0000 0.6776
# 5 -12.3428 -4.2005 -19.0177 0.0000 34.2900 0.0000
# 6 0.0000 0.0000 0.0000 0.6776 0.0000 25.9098
#
#
#
# Elastic Compliance Matrix: (Units=1/GPa)
#
#
# Indices 1 2 3 4 5 6 
#
# 1 0.010095 -0.003381 -0.007667 0.000000 -0.001033 0.000000
# 2 -0.003381 0.078666 -0.004437 0.000000 0.005959 0.000000
# 3 -0.007667 -0.004437 0.014383 0.000000 0.004673 0.000000
# 4 0.000000 0.000000 0.000000 0.032877 0.000000 -0.000860
# 5 -0.001033 0.005959 0.004673 0.000000 0.032113 0.000000
# 6 0.000000 0.000000 0.000000 -0.000860 0.000000 0.038618
#
#
# Mechanical properties :
#
#
# Convention : Reuss Voigt Hill
#
# Bulk Modulus (GPa) = 13.85563 67.20862 40.53212
# Shear Modulus (GPa) = 19.09993 31.44295 25.27144
#
# Velocity S-wave (km/s) = 3.23291 4.14800 3.71871
# Velocity P-wave (km/s) = 4.63870 7.72778 6.37323
#
# Compressibility (1/GPa) = 0.07217281
#
# Stress axis : x y z
#
# Youngs Moduli (GPa) = 99.05883 12.71191 69.52861
#
# Poissons Ratio (x) = 0.04298 0.53309
# Poissons Ratio (y) = 0.33493 0.30852
# Poissons Ratio (z) = 0.75950 0.05641
#
# Static dielectric constant tensor:
#      x y z
#    x 1.659710 0.000000 -0.015690 
#    y 0.000000 1.653790 0.000000 
#    z -0.015690 0.000000 1.596330 
# 
# From -- ./inp_files/20388.got.cif
#   From: 2010.05.17/outbox.cif.g08.bks.cpg/sg11_11_cif.got.tgz:20388.got - 2010.06.03 12:22:45.
