data_PCOD9167136
_publ_section_title
;
Structure prediction by ZEFSAII (Michael W. Deem and Ramdas Pophale) SiO2 
 PCOD9167136
Probable space group: P 21/M
;
_chemical_formula_sum "Si O2"
_cell_formula_units_Z 32
_cell_length_a 21.481317
_cell_length_b 18.299374
_cell_length_c 9.055333
_cell_angle_alpha 90.000000
_cell_angle_beta 147.467797
_cell_angle_gamma 90.000000
_cell_volume 1914.260338
_symmetry_space_group_name_H-M "P 21/M"
_symmetry_group_IT_number 11
_symmetry_cell_setting 'monoclinic'
loop_
_space_group_symop_operation_xyz
x,y,z
-x,1/2+y,-z
-x,-y,-z
x,1/2-y,z
loop_
_atom_site_type_symbol
_atom_site_label
_atom_site_fract_x
_atom_site_fract_y
_atom_site_fract_z
Si Si1 0.963684 0.111223 0.009276
Si Si2 0.380222 0.976013 0.833979
Si Si3 0.963684 0.388777 0.345460
Si Si4 0.167150 0.045994 0.916358
Si Si5 0.278901 0.667957 0.130039
Si Si6 0.721099 0.167957 0.514437
Si Si7 0.619778 0.476013 0.813090
Si Si8 0.167150 0.045994 0.252242
O O1 0.996173 0.129813 0.242345
O O2 0.076849 0.104450 0.135920
O O3 0.857554 0.161882 0.747858
O O4 0.903359 0.030898 0.891331
O O5 0.345200 0.895845 0.703100
O O6 0.278038 0.030154 0.574806
O O7 0.387361 0.975902 0.024722
O O8 0.500000 0.000000 0.000000
O O9 0.903359 0.469102 0.222104
O O10 0.076850 0.395550 0.671478
O O11 0.857554 0.338118 0.182357
O O12 0.201684 0.062327 0.153369
O O13 0.278038 0.030154 0.037347
O O14 0.320689 0.750000 0.184259
O O15 0.285664 0.654379 0.321328
O O16 0.345200 0.604155 0.177700
O O17 0.679311 0.250000 0.401502
O O18 0.500000 0.500000 0.500000
#
# Coordination Sequence:
#
# PCOD9167136 Si02
#       8
#     4   4   4   4   4   4   4   4
#     4   8  14  25  43  68  95 122 151 186 232 284
#     4  11  21  33  50  72  99 131 171 215 254 297
#     4   8  14  25  43  68  95 122 151 186 232 284
#     4   9  16  27  44  67  94 122 154 194 238 283
#     4   9  18  33  52  74 101 131 163 202 250 304
#     4   9  18  33  52  74 101 131 163 202 250 304
#     4  11  21  33  50  72  99 131 171 215 254 297
#     4   9  16  27  44  67  94 122 154 194 238 283
#
# _framework density 16.716640000000002
#
# number of rings (size 3 to 8) (size 9 to 14) (size 15 to 20)
#    0.000    2.750    0.000    4.500    0.000    6.500 
#    0.000    0.000    0.000    1.500    0.000    3.500 
#    0.000    0.000    0.000    0.000    0.000    0.000 
#
# Total GULP energy -178243.323384 kJ/mol
# GULP energy per Si atom -5570.103856 kJ/mol
# Density = 1.667859 g / cm^3
# Si number density = 16.716640 Si / 1000 Ang^3
#
#
#
# Elastic Constant Matrix: (Units=GPa)
#
#
# Indices 1 2 3 4 5 6 
#
# 1 128.1888 44.7049 67.8340 0.0000 1.1265 0.0000
# 2 44.7049 58.1074 44.0833 0.0000 -0.5601 0.0000
# 3 67.8340 44.0833 120.8465 0.0000 -7.7419 0.0000
# 4 0.0000 0.0000 0.0000 14.1800 0.0000 -0.8540
# 5 1.1265 -0.5601 -7.7419 0.0000 22.8121 0.0000
# 6 0.0000 0.0000 0.0000 -0.8540 0.0000 15.1279
#
#
#
# Elastic Compliance Matrix: (Units=1/GPa)
#
#
# Indices 1 2 3 4 5 6 
#
# 1 0.012537 -0.005821 -0.005073 0.000000 -0.002484 0.000000
# 2 -0.005821 0.026628 -0.006528 0.000000 -0.001274 0.000000
# 3 -0.005073 -0.006528 0.013810 0.000000 0.004777 0.000000
# 4 0.000000 0.000000 0.000000 0.070762 0.000000 0.003995
# 5 -0.002484 -0.001274 0.004777 0.000000 0.045549 0.000000
# 6 0.000000 0.000000 0.000000 0.003995 0.000000 0.066329
#
#
# Mechanical properties :
#
#
# Convention : Reuss Voigt Hill
#
# Bulk Modulus (GPa) = 55.15269 68.93192 62.04231
# Shear Modulus (GPa) = 18.08302 20.45870 19.27086
#
# Velocity S-wave (km/s) = 3.29255 3.50216 3.39897
# Velocity P-wave (km/s) = 6.89339 7.59464 7.25249
#
# Compressibility (1/GPa) = 0.01813148
#
# Stress axis : x y z
#
# Youngs Moduli (GPa) = 79.76114 37.55489 72.41101
#
# Poissons Ratio (x) = 0.21860 0.36737
# Poissons Ratio (y) = 0.46427 0.47268
# Poissons Ratio (z) = 0.40466 0.24515
#
# Static dielectric constant tensor:
#      x y z
#    x 1.567610 0.000000 -0.004250 
#    y 0.000000 1.581640 0.000000 
#    z -0.004250 0.000000 1.562890 
# 
# From -- ./inp_files/27117.got.cif
#   From: 2010.05.17/outbox.cif.g08.bks.cpg/sg11_14_cif.got.tgz:27117.got - 2010.06.03 12:22:45.
