data_PCOD9167961
_publ_section_title
;
Structure prediction by ZEFSAII (Michael W. Deem and Ramdas Pophale) SiO2 
 PCOD9167961
Probable space group: P 21/M
;
_chemical_formula_sum "Si O2"
_cell_formula_units_Z 32
_cell_length_a 15.000000
_cell_length_b 9.000000
_cell_length_c 21.000000
_cell_angle_alpha 90.000000
_cell_angle_beta 140.000000
_cell_angle_gamma 90.000000
_cell_volume 1822.302873
_symmetry_space_group_name_H-M "P 21/M"
_symmetry_group_IT_number 11
_symmetry_cell_setting 'monoclinic'
loop_
_space_group_symop_operation_xyz
x,y,z
-x,1/2+y,-z
-x,-y,-z
x,1/2-y,z
loop_
_atom_site_type_symbol
_atom_site_label
_atom_site_fract_x
_atom_site_fract_y
_atom_site_fract_z
Si Si1 0.637687 0.572945 0.602490
Si Si2 0.433984 0.573266 0.307678
Si Si3 0.717059 0.074282 0.437709
Si Si4 0.006588 0.578043 0.904781
Si Si5 0.971715 0.575210 0.339004
Si Si6 0.222259 0.076521 0.107464
Si Si7 0.135921 0.574281 0.605283
Si Si8 0.912686 0.074377 0.726601
O O1 0.500000 0.500000 0.500000
O O2 0.630386 0.750000 0.599141
O O3 0.643598 0.506900 0.676543
O O4 0.771386 0.515767 0.638301
O O5 0.418488 0.750000 0.303109
O O6 0.594047 0.524535 0.397325
O O7 0.361370 0.504183 0.206105
O O8 0.684697 0.250000 0.429116
O O9 0.868541 0.047903 0.551105
O O10 0.738758 0.042347 0.374343
O O11 0.016703 0.750000 0.890459
O O12 0.888919 0.571154 0.895136
O O13 0.965280 0.475269 0.823691
O O14 0.147511 0.515150 0.011436
O O15 0.947210 0.750000 0.335609
O O16 0.975698 0.540691 0.266812
O O17 0.865200 0.485731 0.324001
O O18 0.244563 0.250000 0.104509
O O19 0.116254 0.750000 0.593872
O O20 0.000000 0.500000 0.500000
O O21 0.881987 0.250000 0.706988
#
# Coordination Sequence:
#
# PCOD9167961 Si02
#       8
#     4   4   4   4   4   4   4   4
#     4  12  24  37  50  68  98 137 174 209 246 291
#     4  12  23  34  51  75 101 133 170 208 250 301
#     4   9  18  33  50  71 102 136 171 209 250 294
#     4  10  20  34  53  75  99 130 168 212 256 298
#     4   9  19  33  50  73 102 135 169 208 249 294
#     4  10  20  35  54  73  98 131 166 212 259 298
#     4   9  17  30  50  72  97 130 166 209 253 294
#     4  11  21  34  52  75 103 136 170 206 250 300
#
# _framework density 17.560198
#
# number of rings (size 3 to 8) (size 9 to 14) (size 15 to 20)
#    0.000    1.750    1.250    5.250    0.000    5.500 
#    0.000    0.000    0.000    0.000    0.000    0.875 
#    0.000    0.000    0.000    0.000    0.000    0.000 
#
# Total GULP energy -178498.362215 kJ/mol
# GULP energy per Si atom -5578.073819 kJ/mol
# Density = 1.752023 g / cm^3
# Si number density = 17.560198 Si / 1000 Ang^3
#
#
#
# Elastic Constant Matrix: (Units=GPa)
#
#
# Indices 1 2 3 4 5 6 
#
# 1 56.4780 24.9754 -12.1993 0.0000 -10.8786 0.0000
# 2 24.9754 78.1008 -3.9705 0.0000 2.0252 0.0000
# 3 -12.1993 -3.9705 36.3048 0.0000 2.6715 0.0000
# 4 0.0000 0.0000 0.0000 21.1197 0.0000 -1.3086
# 5 -10.8786 2.0252 2.6715 0.0000 2.2168 0.0000
# 6 0.0000 0.0000 0.0000 -1.3086 0.0000 26.4389
#
#
#
# Elastic Compliance Matrix: (Units=1/GPa)
#
#
# Indices 1 2 3 4 5 6 
#
# 1 -0.074921 0.035049 0.008854 0.000000 -0.410351 0.000000
# 2 0.035049 -0.003065 -0.001559 0.000000 0.176676 0.000000
# 3 0.008854 -0.001559 0.029679 0.000000 0.009106 0.000000
# 4 0.000000 0.000000 0.000000 0.047495 0.000000 0.002351
# 5 -0.410351 0.176676 0.009106 0.000000 -1.734997 0.000000
# 6 0.000000 0.000000 0.000000 0.002351 0.000000 0.037939
#
#
# Mechanical properties :
#
#
# Convention : Reuss Voigt Hill
#
# Bulk Modulus (GPa) = 27.48587 20.94387 24.21487
# Shear Modulus (GPa) = -2.82417 20.76029 8.96806
#
# Velocity S-wave (km/s) = -1.26956 3.44210 2.26233
# Velocity P-wave (km/s) = 3.67931 5.26784 4.54354
#
# Compressibility (1/GPa) = 0.03638233
#
# Stress axis : x y z
#
# Youngs Moduli (GPa) = -13.34733 -326.28238 33.69367
#
# Poissons Ratio (x) = 11.43601 -0.29832
# Poissons Ratio (y) = 0.46782 0.05252
# Poissons Ratio (z) = 0.11818 -0.50855
#
# Static dielectric constant tensor:
#      x y z
#    x 1.627470 0.000000 -0.029380 
#    y 0.000000 1.574840 0.000000 
#    z -0.029380 0.000000 1.603890 
# 
# From -- ./inp_files/65212.got.cif
#   From: 2010.05.17/outbox.ucp.g08.bks.cvg/sg11_33_cif.got.tgz:65212.got - 2010.06.11 11:38:39.
