data_PCOD9167225
_publ_section_title
;
Structure prediction by ZEFSAII (Michael W. Deem and Ramdas Pophale) SiO2 
 PCOD9167225
Probable space group: P 21/M
;
_chemical_formula_sum "Si O2"
_cell_formula_units_Z 32
_cell_length_a 11.960634
_cell_length_b 17.180701
_cell_length_c 15.436399
_cell_angle_alpha 90.000000
_cell_angle_beta 29.730380
_cell_angle_gamma 90.000000
_cell_volume 1573.084227
_symmetry_space_group_name_H-M "P 21/M"
_symmetry_group_IT_number 11
_symmetry_cell_setting 'monoclinic'
loop_
_space_group_symop_operation_xyz
x,y,z
-x,1/2+y,-z
-x,-y,-z
x,1/2-y,z
loop_
_atom_site_type_symbol
_atom_site_label
_atom_site_fract_x
_atom_site_fract_y
_atom_site_fract_z
Si Si1 0.756065 0.841010 0.827571
Si Si2 0.831148 0.416368 0.162163
Si Si3 0.002216 0.989991 0.600624
Si Si4 0.539208 0.337879 0.492118
Si Si5 0.991906 0.841143 0.133477
Si Si6 0.306970 0.578522 0.059419
Si Si7 0.723540 0.577125 0.026205
Si Si8 0.540390 0.457411 0.636805
O O1 0.792428 0.750000 0.786037
O O2 0.942454 0.900727 0.665476
O O3 0.524698 0.872935 0.940520
O O4 0.740325 0.857892 0.941155
O O5 0.673240 0.352262 0.313773
O O6 0.664689 0.488143 0.255842
O O7 0.938486 0.386449 0.000572
O O8 0.032458 0.435294 0.093588
O O9 0.248628 0.007278 0.472997
O O10 0.821494 0.044371 0.770502
O O11 0.000000 0.000000 0.500000
O O12 0.576710 0.250000 0.497601
O O13 0.617821 0.402031 0.507625
O O14 0.270907 0.351263 0.666302
O O15 0.029247 0.750000 0.092566
O O16 0.142317 0.870370 0.111472
O O17 0.356388 0.501827 0.968069
O O18 0.552916 0.592318 0.219494
#
# Coordination Sequence:
#
# PCOD9167225 Si02
#       8
#     4   4   4   4   4   4   4   4
#     4  11  25  44  67  94 130 175 224 277 344 402
#     4  12  23  41  67  96 133 176 224 272 334 397
#     4  11  24  42  68  97 130 170 222 279 336 394
#     4  11  24  39  58  95 136 170 215 269 332 399
#     4  11  23  40  64  95 136 178 218 276 340 400
#     4  11  21  43  66  93 126 169 225 275 327 407
#     4  11  22  40  69  94 127 172 222 274 331 396
#     4  12  22  40  65  97 127 170 216 274 325 397
#
# _framework density 20.342203999999999
#
# number of rings (size 3 to 8) (size 9 to 14) (size 15 to 20)
#    0.000    0.750    2.500    7.500    0.000    3.000 
#    0.000    2.500    0.000    0.000    0.000    0.000 
#    0.000    0.000    0.000    0.000    0.000    0.000 
#
# Total GULP energy -179011.047674 kJ/mol
# GULP energy per Si atom -5594.095240 kJ/mol
# Density = 2.029590 g / cm^3
# Si number density = 20.342204 Si / 1000 Ang^3
#
#
#
# Elastic Constant Matrix: (Units=GPa)
#
#
# Indices 1 2 3 4 5 6 
#
# 1 111.6538 25.0555 19.3087 0.0000 -4.9639 0.0000
# 2 25.0555 78.0403 17.5701 0.0000 -3.1450 0.0000
# 3 19.3087 17.5701 79.6088 0.0000 5.6446 0.0000
# 4 0.0000 0.0000 0.0000 21.6901 0.0000 -1.1796
# 5 -4.9639 -3.1450 5.6446 0.0000 29.3715 0.0000
# 6 0.0000 0.0000 0.0000 -1.1796 0.0000 25.1417
#
#
#
# Elastic Compliance Matrix: (Units=1/GPa)
#
#
# Indices 1 2 3 4 5 6 
#
# 1 0.009977 -0.002692 -0.001951 0.000000 0.001773 0.000000
# 2 -0.002692 0.014333 -0.002623 0.000000 0.001584 0.000000
# 3 -0.001951 -0.002623 0.013845 0.000000 -0.003271 0.000000
# 4 0.000000 0.000000 0.000000 0.046222 0.000000 0.002169
# 5 0.001773 0.001584 -0.003271 0.000000 0.035144 0.000000
# 6 0.000000 0.000000 0.000000 0.002169 0.000000 0.039876
#
#
# Mechanical properties :
#
#
# Convention : Reuss Voigt Hill
#
# Bulk Modulus (GPa) = 42.33276 43.68572 43.00924
# Shear Modulus (GPa) = 27.50217 29.06523 28.28370
#
# Velocity S-wave (km/s) = 3.68091 3.78407 3.73285
# Velocity P-wave (km/s) = 6.23867 6.37293 6.30616
#
# Compressibility (1/GPa) = 0.02362237
#
# Stress axis : x y z
#
# Youngs Moduli (GPa) = 100.23367 69.77116 72.22580
#
# Poissons Ratio (x) = 0.18785 0.14093
# Poissons Ratio (y) = 0.26986 0.18942
# Poissons Ratio (z) = 0.19558 0.18298
#
# Static dielectric constant tensor:
#      x y z
#    x 1.718280 0.000000 -0.015320 
#    y 0.000000 1.711010 0.000000 
#    z -0.015320 0.000000 1.727670 
# 
# From -- ./inp_files/50650.got.cif
#   From: 2010.05.17/outbox.cif.g08.bks.cpg/sg11_26_cif.got.tgz:50650.got - 2010.06.03 12:22:45.
