data_PCOD9167162
_publ_section_title
;
Structure prediction by ZEFSAII (Michael W. Deem and Ramdas Pophale) SiO2 
 PCOD9167162
Probable space group: P 21/M
;
_chemical_formula_sum "Si O2"
_cell_formula_units_Z 24
_cell_length_a 15.537460
_cell_length_b 9.201620
_cell_length_c 16.859672
_cell_angle_alpha 90.000000
_cell_angle_beta 143.156306
_cell_angle_gamma 90.000000
_cell_volume 1445.372330
_symmetry_space_group_name_H-M "P 21/M"
_symmetry_group_IT_number 11
_symmetry_cell_setting 'monoclinic'
loop_
_space_group_symop_operation_xyz
x,y,z
-x,1/2+y,-z
-x,-y,-z
x,1/2-y,z
loop_
_atom_site_type_symbol
_atom_site_label
_atom_site_fract_x
_atom_site_fract_y
_atom_site_fract_z
Si Si1 0.104393 0.574853 0.639797
Si Si2 0.413730 0.425146 0.864568
Si Si3 0.913112 0.082553 0.820625
Si Si4 0.778112 0.917422 0.860763
Si Si5 0.352111 0.578062 0.093300
Si Si6 0.946147 0.077833 0.214680
O O1 0.113340 0.750000 0.636088
O O2 0.259699 0.500578 0.746631
O O3 0.049071 0.547285 0.688656
O O4 0.000000 0.500000 0.500000
O O5 0.403674 0.250000 0.868901
O O6 0.505914 0.450601 0.852714
O O7 0.500000 0.500000 0.000000
O O8 0.873356 0.250000 0.782266
O O9 0.802883 0.000343 0.796697
O O10 0.942661 0.007452 0.758347
O O11 0.067495 0.076698 0.979929
O O12 0.742786 0.750000 0.821092
O O13 0.668061 0.991742 0.840216
O O14 0.344442 0.750000 0.104668
O O15 0.214559 0.543304 0.935841
O O16 0.967205 0.250000 0.218044
#
# Coordination Sequence:
#
# PCOD9167162 Si02
#       6
#     4   4   4   4   4   4
#     4  11  23  39  55  77 106 141 180 223 268 314
#     4  11  21  35  55  79 106 140 178 220 266 316
#     4   9  16  25  40  64  94 129 166 204 251 304
#     4   9  16  25  39  64  96 130 164 203 252 302
#     4   9  17  30  47  70 100 133 168 209 257 305
#     4   9  17  31  48  68  98 133 170 211 257 306
#
# _framework density 16.604717999999998
#
# number of rings (size 3 to 8) (size 9 to 14) (size 15 to 20)
#    0.000    2.333    1.667    2.000    0.000    6.667 
#    0.000    0.000    0.000    0.000    0.000    1.167 
#    0.000    0.000    0.000    0.000    0.000    0.000 
#
# Total GULP energy -133818.659918 kJ/mol
# GULP energy per Si atom -5575.777497 kJ/mol
# Density = 1.656692 g / cm^3
# Si number density = 16.604718 Si / 1000 Ang^3
#
#
#
# Elastic Constant Matrix: (Units=GPa)
#
#
# Indices 1 2 3 4 5 6 
#
# 1 167.7725 111.0598 58.0671 0.0000 -24.4837 0.0000
# 2 111.0598 114.9848 53.1390 0.0000 -17.1542 0.0000
# 3 58.0671 53.1390 72.1508 0.0000 -3.8671 0.0000
# 4 0.0000 0.0000 0.0000 19.1907 0.0000 -4.4374
# 5 -24.4837 -17.1542 -3.8671 0.0000 16.5162 0.0000
# 6 0.0000 0.0000 0.0000 -4.4374 0.0000 37.9286
#
#
#
# Elastic Compliance Matrix: (Units=1/GPa)
#
#
# Indices 1 2 3 4 5 6 
#
# 1 0.018432 -0.014428 -0.003592 0.000000 0.011498 0.000000
# 2 -0.014428 0.027091 -0.008081 0.000000 0.004858 0.000000
# 3 -0.003592 -0.008081 0.022246 0.000000 -0.008509 0.000000
# 4 0.000000 0.000000 0.000000 0.053558 0.000000 0.006266
# 5 0.011498 0.004858 -0.008509 0.000000 0.080644 0.000000
# 6 0.000000 0.000000 0.000000 0.006266 0.000000 0.027098
#
#
# Mechanical properties :
#
#
# Convention : Reuss Voigt Hill
#
# Bulk Modulus (GPa) = 64.23236 88.82667 76.52952
# Shear Modulus (GPa) = 17.45437 23.56991 20.51214
#
# Velocity S-wave (km/s) = 3.24569 3.77167 3.51852
# Velocity P-wave (km/s) = 7.26727 8.51929 7.91807
#
# Compressibility (1/GPa) = 0.01556848
#
# Stress axis : x y z
#
# Youngs Moduli (GPa) = 54.25238 36.91217 44.95139
#
# Poissons Ratio (x) = 0.53256 0.16147
# Poissons Ratio (y) = 0.78274 0.36325
# Poissons Ratio (z) = 0.19488 0.29828
#
# Static dielectric constant tensor:
#      x y z
#    x 1.555200 0.000000 -0.003200 
#    y 0.000000 1.554120 0.000000 
#    z -0.003200 0.000000 1.536070 
# 
# From -- ./inp_files/20354.got.cif
#   From: 2010.05.17/outbox.cif.g08.bks.cpg/sg11_11_cif.got.tgz:20354.got - 2010.06.03 12:22:45.
