data_PCOD9167835
_publ_section_title
;
Structure prediction by ZEFSAII (Michael W. Deem and Ramdas Pophale) SiO2 
 PCOD9167835
Probable space group: P 21/M
;
_chemical_formula_sum "Si O2"
_cell_formula_units_Z 32
_cell_length_a 24.000000
_cell_length_b 9.000000
_cell_length_c 15.000000
_cell_angle_alpha 90.000000
_cell_angle_beta 150.000000
_cell_angle_gamma 90.000000
_cell_volume 1620.000000
_symmetry_space_group_name_H-M "P 21/M"
_symmetry_group_IT_number 11
_symmetry_cell_setting 'monoclinic'
loop_
_space_group_symop_operation_xyz
x,y,z
-x,1/2+y,-z
-x,-y,-z
x,1/2-y,z
loop_
_atom_site_type_symbol
_atom_site_label
_atom_site_fract_x
_atom_site_fract_y
_atom_site_fract_z
Si Si1 0.680615 0.572568 0.131524
Si Si2 0.769440 0.428761 0.425076
Si Si3 0.277602 0.569278 0.438771
Si Si4 0.531284 0.928255 0.765317
Si Si5 0.974457 0.571908 0.229684
Si Si6 0.392900 0.927935 0.304484
Si Si7 0.107217 0.429438 0.694587
Si Si8 0.173112 0.571546 0.115165
O O1 0.686600 0.750000 0.152633
O O2 0.690586 0.494859 0.240080
O O3 0.784156 0.527826 0.211001
O O4 0.573080 0.539064 0.922833
O O5 0.760272 0.250000 0.411127
O O6 0.745737 0.480817 0.493041
O O7 0.896753 0.468822 0.576404
O O8 0.274337 0.750000 0.436079
O O9 0.402089 0.529385 0.579956
O O10 0.193369 0.520771 0.244631
O O11 0.541837 0.750000 0.766070
O O12 0.604120 0.009080 0.791519
O O13 0.969001 0.750000 0.214547
O O14 0.900008 0.525603 0.211592
O O15 0.929656 0.500632 0.077643
O O16 0.403178 0.750000 0.318455
O O17 0.282861 0.966161 0.208472
O O18 0.500000 0.000000 0.500000
O O19 0.099781 0.250000 0.682143
O O20 0.000000 0.500000 0.500000
O O21 0.162569 0.750000 0.100151
#
# Coordination Sequence:
#
# PCOD9167835 Si02
#       8
#     4   4   4   4   4   4   4   4
#     4  10  21  35  56  83 112 146 183 228 282 332
#     4  10  21  38  59  79 108 149 191 233 274 326
#     4   9  19  38  59  79 108 149 189 226 278 332
#     4  10  20  38  60  82 114 151 183 224 281 337
#     4  10  21  36  55  83 112 143 184 229 277 325
#     4  11  21  35  58  87 115 147 184 225 276 333
#     4  10  19  33  53  79 109 142 177 218 274 331
#     4  10  21  37  57  82 111 147 185 222 274 336
#
# _framework density 19.753086
#
# number of rings (size 3 to 8) (size 9 to 14) (size 15 to 20)
#    0.000    2.000    2.500    1.125    0.000    4.500 
#    0.000    1.250    0.000    0.000    0.000    0.000 
#    0.000    0.000    0.000    0.000    0.000    0.000 
#
# Total GULP energy -178651.923249 kJ/mol
# GULP energy per Si atom -5582.872602 kJ/mol
# Density = 1.970813 g / cm^3
# Si number density = 19.753086 Si / 1000 Ang^3
#
#
#
# Elastic Constant Matrix: (Units=GPa)
#
#
# Indices 1 2 3 4 5 6 
#
# 1 81.4996 12.5190 4.3422 0.0000 -37.1168 0.0000
# 2 12.5190 2.8437 12.0004 0.0000 -8.0841 0.0000
# 3 4.3422 12.0004 75.1004 0.0000 -36.1776 0.0000
# 4 0.0000 0.0000 0.0000 28.0529 0.0000 -9.9453
# 5 -37.1168 -8.0841 -36.1776 0.0000 34.8516 0.0000
# 6 0.0000 0.0000 0.0000 -9.9453 0.0000 24.6286
#
#
#
# Elastic Compliance Matrix: (Units=1/GPa)
#
#
# Indices 1 2 3 4 5 6 
#
# 1 -0.013807 0.159782 -0.027929 0.000000 -0.006633 0.000000
# 2 0.159782 -0.240767 0.168627 0.000000 0.289362 0.000000
# 3 -0.027929 0.168627 -0.015003 0.000000 -0.006204 0.000000
# 4 0.000000 0.000000 0.000000 0.041603 0.000000 0.016799
# 5 -0.006633 0.289362 -0.006204 0.000000 0.082309 0.000000
# 6 0.000000 0.000000 0.000000 0.016799 0.000000 0.047387
#
#
# Mechanical properties :
#
#
# Convention : Reuss Voigt Hill
#
# Bulk Modulus (GPa) = 3.01766 24.12966 13.57366
# Shear Modulus (GPa) = -8.49217 26.21211 8.85997
#
# Velocity S-wave (km/s) = -2.07569 3.64674 2.12016
# Velocity P-wave (km/s) = 2.05272 5.47483 3.58888
#
# Compressibility (1/GPa) = 0.33138260
#
# Stress axis : x y z
#
# Youngs Moduli (GPa) = -72.42945 -4.15339 -66.65187
#
# Poissons Ratio (x) = 0.66364 -1.86149
# Poissons Ratio (y) = 11.57290 11.23928
# Poissons Ratio (z) = -2.02285 0.70037
#
# Static dielectric constant tensor:
#      x y z
#    x 1.699820 0.000000 -0.008110 
#    y 0.000000 1.635780 0.000000 
#    z -0.008110 0.000000 1.701460 
# 
# From -- ./inp_files/51719.got.cif
#   From: 2010.05.17/outbox.ucp.g08.bks.cvg/sg11_26_cif.got.tgz:51719.got - 2010.06.11 11:38:39.
