data_PCOD9167634
_publ_section_title
;
Structure prediction by ZEFSAII (Michael W. Deem and Ramdas Pophale) SiO2 
 PCOD9167634
Probable space group: P 21/M
;
_chemical_formula_sum "Si O2"
_cell_formula_units_Z 28
_cell_length_a 16.874119
_cell_length_b 7.532258
_cell_length_c 14.163712
_cell_angle_alpha 90.000000
_cell_angle_beta 65.366981
_cell_angle_gamma 90.000000
_cell_volume 1636.384597
_symmetry_space_group_name_H-M "P 21/M"
_symmetry_group_IT_number 11
_symmetry_cell_setting 'monoclinic'
loop_
_space_group_symop_operation_xyz
x,y,z
-x,1/2+y,-z
-x,-y,-z
x,1/2-y,z
loop_
_atom_site_type_symbol
_atom_site_label
_atom_site_fract_x
_atom_site_fract_y
_atom_site_fract_z
Si Si1 0.041522 0.463733 0.623604
Si Si2 0.134827 0.962233 0.388274
Si Si3 0.309192 0.035905 0.986789
Si Si4 0.501002 0.537426 0.111571
Si Si5 0.132418 0.465015 0.979354
Si Si6 0.046884 0.460458 0.830923
Si Si7 0.311426 0.537426 0.209106
O O1 0.034958 0.250000 0.632535
O O2 0.112570 0.504555 0.508487
O O3 0.948251 0.530648 0.630288
O O4 0.060672 0.532156 0.718953
O O5 0.136374 0.750000 0.373797
O O6 0.227120 0.032792 0.305840
O O7 0.310077 0.250000 0.979272
O O8 0.225059 0.970789 0.971909
O O9 0.300635 0.993690 0.102273
O O10 0.403977 0.970450 0.903875
O O11 0.501002 0.750000 0.125471
O O12 0.407080 0.468370 0.192550
O O13 0.500000 0.500000 0.000000
O O14 0.134738 0.250000 0.975378
O O15 0.053537 0.514502 0.088364
O O16 0.104714 0.531112 0.889086
O O17 0.063936 0.250000 0.818770
O O18 0.313808 0.750000 0.221322
#
# Coordination Sequence:
#
# PCOD9167634 Si02
#       7
#     4   4   4   4   4   4   4
#     4   9  17  28  40  54  74  99 125 155 189 223
#     4   9  17  27  39  56  75  96 125 157 188 223
#     4   9  16  25  38  58  82 104 126 154 187 223
#     4   8  14  24  37  54  77 102 126 152 184 223
#     4   9  17  27  40  59  80 102 128 156 187 223
#     4   9  17  29  42  56  77 103 130 158 187 223
#     4   9  16  26  40  57  78 104 130 155 186 225
#
# _framework density 17.110892
#
# number of rings (size 3 to 8) (size 9 to 14) (size 15 to 20)
#    0.000    3.143    0.000    0.857    0.000    2.857 
#    0.000    2.857    0.000    0.000    0.000    1.000 
#    0.000    0.000    0.000    0.000    0.000    0.000 
#
# Total GULP energy -155926.686024 kJ/mol
# GULP energy per Si atom -5568.810215 kJ/mol
# Density = 1.707195 g / cm^3
# Si number density = 17.110892 Si / 1000 Ang^3
#
#
#
# Elastic Constant Matrix: (Units=GPa)
#
#
# Indices 1 2 3 4 5 6 
#
# 1 152.9235 -3.8178 76.9124 0.0000 -19.6493 0.0000
# 2 -3.8178 39.8587 -1.7119 0.0000 -0.9506 0.0000
# 3 76.9124 -1.7119 115.5450 0.0000 -15.2303 0.0000
# 4 0.0000 0.0000 0.0000 6.3316 0.0000 3.7501
# 5 -19.6493 -0.9506 -15.2303 0.0000 24.8160 0.0000
# 6 0.0000 0.0000 0.0000 3.7501 0.0000 4.5312
#
#
#
# Elastic Compliance Matrix: (Units=1/GPa)
#
#
# Indices 1 2 3 4 5 6 
#
# 1 0.010256 0.000817 -0.006245 0.000000 0.004319 0.000000
# 2 0.000817 0.025208 0.000046 0.000000 0.001641 0.000000
# 3 -0.006245 0.000046 0.013231 0.000000 0.003177 0.000000
# 4 0.000000 0.000000 0.000000 0.309801 0.000000 -0.256399
# 5 0.004319 0.001641 0.003177 0.000000 0.045729 0.000000
# 6 0.000000 0.000000 0.000000 -0.256399 0.000000 0.432894
#
#
# Mechanical properties :
#
#
# Convention : Reuss Voigt Hill
#
# Bulk Modulus (GPa) = 26.36421 50.12139 38.24280
# Shear Modulus (GPa) = 5.81039 22.93205 14.37122
#
# Velocity S-wave (km/s) = 1.84475 3.66485 2.90123
# Velocity P-wave (km/s) = 4.46976 6.87487 5.79839
#
# Compressibility (1/GPa) = 0.03793020
#
# Stress axis : x y z
#
# Youngs Moduli (GPa) = 97.50808 39.67001 75.57869
#
# Poissons Ratio (x) = -0.03241 0.47201
# Poissons Ratio (y) = -0.07967 -0.00347
# Poissons Ratio (z) = 0.60896 -0.00182
#
# Static dielectric constant tensor:
#      x y z
#    x 1.620130 0.000000 -0.014550 
#    y 0.000000 1.627570 0.000000 
#    z -0.014550 0.000000 1.560190 
# 
# From -- ./inp_files/38643.got.cif
#   From: 2010.05.17/outbox.cif.g08.bks.cpg/sg11_20_cif.got.tgz:38643.got - 2010.06.03 12:22:45.
