data_PCOD9167537
_publ_section_title
;
Structure prediction by ZEFSAII (Michael W. Deem and Ramdas Pophale) SiO2 
 PCOD9167537
Probable space group: P 21/M
;
_chemical_formula_sum "Si O2"
_cell_formula_units_Z 22
_cell_length_a 7.572929
_cell_length_b 23.012401
_cell_length_c 4.986196
_cell_angle_alpha 90.000000
_cell_angle_beta 68.206160
_cell_angle_gamma 90.000000
_cell_volume 806.843149
_symmetry_space_group_name_H-M "P 21/M"
_symmetry_group_IT_number 11
_symmetry_cell_setting 'monoclinic'
loop_
_space_group_symop_operation_xyz
x,y,z
-x,1/2+y,-z
-x,-y,-z
x,1/2-y,z
loop_
_atom_site_type_symbol
_atom_site_label
_atom_site_fract_x
_atom_site_fract_y
_atom_site_fract_z
Si Si1 0.730542 0.250000 0.956487
Si Si2 0.578449 0.877266 0.294230
Si Si3 0.900907 0.454282 0.851663
Si Si4 0.051791 0.250000 0.400484
Si Si5 0.798473 0.150717 0.292619
Si Si6 0.375356 0.250000 0.822424
Si Si7 0.735620 0.557315 0.699215
O O1 0.954446 0.250000 0.749241
O O2 0.686947 0.194254 0.156992
O O3 0.598477 0.250000 0.772230
O O4 0.661910 0.812086 0.295620
O O5 0.613631 0.922102 0.515594
O O6 0.678139 0.901914 0.975756
O O7 0.351074 0.871247 0.403404
O O8 0.859652 0.400596 0.064398
O O9 0.731843 0.491145 0.809220
O O10 0.049223 0.436418 0.535811
O O11 0.959535 0.191391 0.327208
O O12 0.264513 0.250000 0.170103
O O13 0.000000 0.500000 0.000000
#
# Coordination Sequence:
#
# PCOD9167537 Si02
#       7
#     2   4   4   2   4   2   4
#     4  11  24  51  70 119 151 204 265 322 409 472
#     4  12  25  48  74 114 155 202 264 319 403 464
#     4  11  25  50  75 109 159 205 279 322 393 475
#     4  11  25  45  76 110 150 203 260 319 411 463
#     4  11  26  48  74 108 159 201 261 335 386 488
#     4  12  25  48  80 109 161 203 257 333 396 489
#     4  11  26  47  74 111 150 206 260 320 387 471
#
# _framework density 27.266759
#
# number of rings (size 3 to 8) (size 9 to 14) (size 15 to 20)
#    0.000    0.727    3.636    2.727    2.545    3.636 
#    6.545    0.000    0.000    0.000    0.000    0.000 
#    0.000    0.000    0.000    0.000    0.000    0.000 
#
# Total GULP energy -123428.993821 kJ/mol
# GULP energy per Si atom -5610.408810 kJ/mol
# Density = 2.720470 g / cm^3
# Si number density = 27.266759 Si / 1000 Ang^3
#
#
#
# Elastic Constant Matrix: (Units=GPa)
#
#
# Indices 1 2 3 4 5 6 
#
# 1 47.6517 25.1868 14.5384 0.0000 -10.5864 0.0000
# 2 25.1868 195.1187 82.0581 0.0000 -11.1582 0.0000
# 3 14.5384 82.0581 194.5206 0.0000 -15.4031 0.0000
# 4 0.0000 0.0000 0.0000 54.2866 0.0000 5.1081
# 5 -10.5864 -11.1582 -15.4031 0.0000 51.8736 0.0000
# 6 0.0000 0.0000 0.0000 5.1081 0.0000 33.9951
#
#
#
# Elastic Compliance Matrix: (Units=1/GPa)
#
#
# Indices 1 2 3 4 5 6 
#
# 1 0.023396 -0.002658 -0.000302 0.000000 0.004113 0.000000
# 2 -0.002658 0.006549 -0.002556 0.000000 0.000107 0.000000
# 3 -0.000302 -0.002556 0.006342 0.000000 0.001272 0.000000
# 4 0.000000 0.000000 0.000000 0.018685 0.000000 -0.002808
# 5 0.004113 0.000107 0.001272 0.000000 0.020518 0.000000
# 6 0.000000 0.000000 0.000000 -0.002808 0.000000 0.029838
#
#
# Mechanical properties :
#
#
# Convention : Reuss Voigt Hill
#
# Bulk Modulus (GPa) = 39.59260 75.65083 57.62172
# Shear Modulus (GPa) = 40.07120 49.06490 44.56805
#
# Velocity S-wave (km/s) = 3.83769 4.24658 4.04731
# Velocity P-wave (km/s) = 5.84715 7.20066 6.55892
#
# Compressibility (1/GPa) = 0.02525725
#
# Stress axis : x y z
#
# Youngs Moduli (GPa) = 42.74157 152.69299 157.67496
#
# Poissons Ratio (x) = 0.40586 0.04756
# Poissons Ratio (y) = 0.11361 0.40295
# Poissons Ratio (z) = 0.01289 0.39021
#
# Static dielectric constant tensor:
#      x y z
#    x 2.190850 0.000000 0.010580 
#    y 0.000000 2.097430 0.000000 
#    z 0.010580 0.000000 2.033910 
# 
# From -- ./inp_files/2694.got.cif
#   From: 2010.05.17/outbox.cif.g08.bks.cpg/sg11_2_cif.got.tgz:2694.got - 2010.06.03 12:22:45.
