data_PCOD9167479
_publ_section_title
;
Structure prediction by ZEFSAII (Michael W. Deem and Ramdas Pophale) SiO2 
 PCOD9167479
Probable space group: P 21/M
;
_chemical_formula_sum "Si O2"
_cell_formula_units_Z 26
_cell_length_a 5.459627
_cell_length_b 26.114484
_cell_length_c 7.884975
_cell_angle_alpha 90.000000
_cell_angle_beta 86.232035
_cell_angle_gamma 90.000000
_cell_volume 1121.772893
_symmetry_space_group_name_H-M "P 21/M"
_symmetry_group_IT_number 11
_symmetry_cell_setting 'monoclinic'
loop_
_space_group_symop_operation_xyz
x,y,z
-x,1/2+y,-z
-x,-y,-z
x,1/2-y,z
loop_
_atom_site_type_symbol
_atom_site_label
_atom_site_fract_x
_atom_site_fract_y
_atom_site_fract_z
Si Si1 0.543406 0.607769 0.877265
Si Si2 0.973476 0.362727 0.935241
Si Si3 0.025102 0.250000 0.353001
Si Si4 0.614115 0.750000 0.358111
Si Si5 0.939045 0.419684 0.600396
Si Si6 0.675538 0.979181 0.639485
Si Si7 0.358794 0.836420 0.573650
Si Si8 0.123454 0.250000 0.985389
O O1 0.545552 0.551092 0.795844
O O2 0.530577 0.647592 0.720703
O O3 0.796196 0.617063 0.965131
O O4 0.292848 0.616918 0.993419
O O5 0.975799 0.301474 0.950066
O O6 0.026097 0.381659 0.742451
O O7 0.145766 0.250000 0.532342
O O8 0.859319 0.300700 0.346929
O O9 0.196160 0.250000 0.179600
O O10 0.478161 0.800986 0.425578
O O11 0.655844 0.750000 0.157733
O O12 0.827948 0.470990 0.688974
O O13 0.740578 0.388333 0.502375
O O14 0.142675 0.439292 0.460773
O O15 0.500000 0.000000 0.500000
#
# Coordination Sequence:
#
# PCOD9167479 Si02
#       8
#     4   4   2   2   4   4   4   2
#     4  12  27  49  76 112 153 210 251 319 397 463
#     4  12  30  48  77 113 162 197 258 323 392 462
#     4  11  23  47  70 108 152 203 253 321 383 483
#     4  11  27  43  76 112 148 208 262 318 386 478
#     4  11  27  49  76 112 152 201 261 332 386 472
#     4  11  26  48  81 107 147 204 267 318 397 474
#     4  11  24  47  75 104 153 203 257 309 400 462
#     4  12  26  46  74 114 154 199 263 313 389 463
#
# _framework density 23.177596000000001
#
# number of rings (size 3 to 8) (size 9 to 14) (size 15 to 20)
#    0.000    0.615    3.077    2.769   10.769    3.077 
#    0.000    0.000    0.000    0.000    0.000    0.000 
#    0.000    0.000    0.000    0.000    0.000    0.000 
#
# Total GULP energy -145629.762185 kJ/mol
# GULP energy per Si atom -5601.144699 kJ/mol
# Density = 2.312484 g / cm^3
# Si number density = 23.177596 Si / 1000 Ang^3
#
#
#
# Elastic Constant Matrix: (Units=GPa)
#
#
# Indices 1 2 3 4 5 6 
#
# 1 76.5026 14.0350 10.9474 0.0000 5.6286 0.0000
# 2 14.0350 89.2497 8.9338 0.0000 2.9601 0.0000
# 3 10.9474 8.9338 69.4746 0.0000 5.6385 0.0000
# 4 0.0000 0.0000 0.0000 29.7413 0.0000 15.4272
# 5 5.6286 2.9601 5.6385 0.0000 34.3259 0.0000
# 6 0.0000 0.0000 0.0000 15.4272 0.0000 18.4207
#
#
#
# Elastic Compliance Matrix: (Units=1/GPa)
#
#
# Indices 1 2 3 4 5 6 
#
# 1 0.013814 -0.001934 -0.001781 0.000000 -0.001806 0.000000
# 2 -0.001934 0.011640 -0.001152 0.000000 -0.000498 0.000000
# 3 -0.001781 -0.001152 0.014991 0.000000 -0.002071 0.000000
# 4 0.000000 0.000000 0.000000 0.059449 0.000000 -0.049788
# 5 -0.001806 -0.000498 -0.002071 0.000000 0.029812 0.000000
# 6 0.000000 0.000000 0.000000 -0.049788 0.000000 0.095984
#
#
# Mechanical properties :
#
#
# Convention : Reuss Voigt Hill
#
# Bulk Modulus (GPa) = 32.56209 33.67324 33.11767
# Shear Modulus (GPa) = 20.35318 29.91829 25.13574
#
# Velocity S-wave (km/s) = 2.96656 3.59671 3.29672
# Velocity P-wave (km/s) = 5.08069 5.63988 5.36757
#
# Compressibility (1/GPa) = 0.03071056
#
# Stress axis : x y z
#
# Youngs Moduli (GPa) = 72.38998 85.90728 66.70824
#
# Poissons Ratio (x) = 0.16615 0.11884
# Poissons Ratio (y) = 0.14001 0.07683
# Poissons Ratio (z) = 0.12896 0.09894
#
# Static dielectric constant tensor:
#      x y z
#    x 1.917610 0.000000 0.002780 
#    y 0.000000 1.852950 0.000000 
#    z 0.002780 0.000000 1.858300 
# 
# From -- ./inp_files/10590.got.cif
#   From: 2010.05.17/outbox.cif.g08.bks.cpg/sg11_6_cif.got.tgz:10590.got - 2010.06.03 12:22:45.
