data_PCOD9167704
_publ_section_title
;
Structure prediction by ZEFSAII (Michael W. Deem and Ramdas Pophale) SiO2 
 PCOD9167704
Probable space group: P 21/M
;
_chemical_formula_sum "Si O2"
_cell_formula_units_Z 32
_cell_length_a 21.000000
_cell_length_b 9.000000
_cell_length_c 30.000000
_cell_angle_alpha 90.000000
_cell_angle_beta 20.000000
_cell_angle_gamma 90.000000
_cell_volume 1939.254213
_symmetry_space_group_name_H-M "P 21/M"
_symmetry_group_IT_number 11
_symmetry_cell_setting 'monoclinic'
loop_
_space_group_symop_operation_xyz
x,y,z
-x,1/2+y,-z
-x,-y,-z
x,1/2-y,z
loop_
_atom_site_type_symbol
_atom_site_label
_atom_site_fract_x
_atom_site_fract_y
_atom_site_fract_z
Si Si1 0.789981 0.429242 0.316282
Si Si2 0.881442 0.572691 0.663680
Si Si3 0.682667 0.428506 0.633538
Si Si4 0.523005 0.428691 0.415238
Si Si5 0.823752 0.930536 0.896645
Si Si6 0.632409 0.927949 0.574699
Si Si7 0.966050 0.929111 0.706496
Si Si8 0.571507 0.070328 0.805517
O O1 0.783764 0.250000 0.324480
O O2 0.707852 0.468705 0.321661
O O3 0.647824 0.497272 0.445764
O O4 0.998652 0.477972 0.190736
O O5 0.860432 0.750000 0.671956
O O6 0.738081 0.490841 0.726171
O O7 0.096546 0.534861 0.511334
O O8 0.858322 0.536902 0.731435
O O9 0.668745 0.250000 0.637813
O O10 0.593914 0.503714 0.648480
O O11 0.597601 0.473351 0.736797
O O12 0.502076 0.250000 0.431787
O O13 0.507690 0.468983 0.373346
O O14 0.820206 0.750000 0.900093
O O15 0.862136 0.972539 0.820100
O O16 0.626372 0.981931 0.045070
O O17 0.641338 0.750000 0.572063
O O18 0.834235 0.991813 0.427664
O O19 0.997087 0.750000 0.686725
O O20 0.577231 0.250000 0.803195
#
# Coordination Sequence:
#
# PCOD9167704 Si02
#       8
#     4   4   4   4   4   4   4   4
#     4   9  16  28  47  68  94 128 153 177 221 274
#     4   9  18  31  47  67  91 119 152 194 239 277
#     4   9  19  34  50  67  90 120 157 198 233 271
#     4   9  17  27  43  72 100 118 148 189 226 267
#     4   9  17  30  49  69  93 126 159 186 219 273
#     4  10  18  28  46  72  98 119 148 194 236 271
#     4   9  17  31  48  68  95 125 154 183 224 281
#     4  10  20  33  49  69  90 119 161 199 227 267
#
# _framework density 16.501189
#
# number of rings (size 3 to 8) (size 9 to 14) (size 15 to 20)
#    0.000    2.750    1.250    1.500    0.000    3.500 
#    0.000    1.250    0.000    0.750    0.000    0.000 
#    0.000    0.000    0.000    0.000    0.000    0.125 
#
# Total GULP energy -178287.102237 kJ/mol
# GULP energy per Si atom -5571.471945 kJ/mol
# Density = 1.646363 g / cm^3
# Si number density = 16.501189 Si / 1000 Ang^3
#
#
#
# Elastic Constant Matrix: (Units=GPa)
#
#
# Indices 1 2 3 4 5 6 
#
# 1 151.8384 29.8927 46.8848 0.0000 22.5006 0.0000
# 2 29.8927 10.7214 12.3860 0.0000 4.3131 0.0000
# 3 46.8848 12.3860 51.8170 0.0000 23.5070 0.0000
# 4 0.0000 0.0000 0.0000 11.5510 0.0000 -1.3904
# 5 22.5006 4.3131 23.5070 0.0000 14.3837 0.0000
# 6 0.0000 0.0000 0.0000 -1.3904 0.0000 21.7929
#
#
#
# Elastic Compliance Matrix: (Units=1/GPa)
#
#
# Indices 1 2 3 4 5 6 
#
# 1 0.016962 -0.044407 0.004887 0.000000 -0.021204 0.000000
# 2 -0.044407 0.253205 -0.067339 0.000000 0.103590 0.000000
# 3 0.004887 -0.067339 0.097760 0.000000 -0.147220 0.000000
# 4 0.000000 0.000000 0.000000 0.087243 0.000000 0.005566
# 5 -0.021204 0.103590 -0.147220 0.000000 0.312228 0.000000
# 6 0.000000 0.000000 0.000000 0.005566 0.000000 0.046242
#
#
# Mechanical properties :
#
#
# Convention : Reuss Voigt Hill
#
# Bulk Modulus (GPa) = 6.48468 43.63374 25.05921
# Shear Modulus (GPa) = 4.63495 17.89308 11.26402
#
# Velocity S-wave (km/s) = 1.67778 3.29652 2.61553
# Velocity P-wave (km/s) = 2.77338 6.40231 4.93362
#
# Compressibility (1/GPa) = 0.15420964
#
# Stress axis : x y z
#
# Youngs Moduli (GPa) = 58.95679 3.94937 10.22910
#
# Poissons Ratio (x) = 0.17538 -0.04999
# Poissons Ratio (y) = 2.61808 0.68881
# Poissons Ratio (z) = -0.28811 0.26594
#
# Static dielectric constant tensor:
#      x y z
#    x 1.577400 0.000000 0.003400 
#    y 0.000000 1.550140 0.000000 
#    z 0.003400 0.000000 1.532460 
# 
# From -- ./inp_files/40618.got.cif
#   From: 2010.05.17/outbox.ucp.g08.bks.cvg/sg11_21_cif.got.tgz:40618.got - 2010.06.11 11:38:39.
