data_PCOD9167927
_publ_section_title
;
Structure prediction by ZEFSAII (Michael W. Deem and Ramdas Pophale) SiO2 
 PCOD9167927
Probable space group: P 21/M
;
_chemical_formula_sum "Si O2"
_cell_formula_units_Z 32
_cell_length_a 24.000000
_cell_length_b 9.000000
_cell_length_c 18.000000
_cell_angle_alpha 90.000000
_cell_angle_beta 30.000000
_cell_angle_gamma 90.000000
_cell_volume 1944.000000
_symmetry_space_group_name_H-M "P 21/M"
_symmetry_group_IT_number 11
_symmetry_cell_setting 'monoclinic'
loop_
_space_group_symop_operation_xyz
x,y,z
-x,1/2+y,-z
-x,-y,-z
x,1/2-y,z
loop_
_atom_site_type_symbol
_atom_site_label
_atom_site_fract_x
_atom_site_fract_y
_atom_site_fract_z
Si Si1 0.175972 0.930877 0.143336
Si Si2 0.389514 0.070589 0.457490
Si Si3 0.940746 0.431398 0.399869
Si Si4 0.826348 0.424538 0.682002
Si Si5 0.395281 0.925507 0.160023
Si Si6 0.378210 0.428136 0.636556
Si Si7 0.637293 0.570205 0.178712
Si Si8 0.729662 0.929403 0.560531
O O1 0.176865 0.750000 0.139041
O O2 0.178924 0.980581 0.227322
O O3 0.060940 0.999010 0.244565
O O4 0.279133 0.995788 0.976938
O O5 0.406946 0.250000 0.435502
O O6 0.337378 0.033154 0.599672
O O7 0.313130 0.034222 0.473741
O O8 0.510868 0.991428 0.313407
O O9 0.940561 0.250000 0.397531
O O10 0.909329 0.481435 0.521325
O O11 0.844860 0.493940 0.455423
O O12 0.852842 0.250000 0.658603
O O13 0.707058 0.438610 0.779652
O O14 0.412302 0.750000 0.155087
O O15 0.360238 0.009346 0.275964
O O16 0.500000 0.000000 0.000000
O O17 0.500000 0.500000 0.500000
O O18 0.387035 0.250000 0.627333
O O19 0.326301 0.467521 0.777366
O O20 0.637677 0.750000 0.170497
O O21 0.739413 0.750000 0.555056
#
# Coordination Sequence:
#
# PCOD9167927 Si02
#       8
#     4   4   4   4   4   4   4   4
#     4  11  21  34  53  75 101 134 170 211 255 304
#     4   9  18  33  54  77 103 136 170 205 248 306
#     4  10  20  37  55  73  99 131 171 217 258 298
#     4   8  18  34  51  70  95 130 170 209 248 294
#     4  10  20  34  49  70 102 138 171 207 253 299
#     4   8  15  30  50  72 101 134 165 201 248 301
#     4  10  20  32  49  78 109 134 165 207 256 303
#     4  10  20  34  53  76 100 132 172 210 251 303
#
# _framework density 16.460905
#
# number of rings (size 3 to 8) (size 9 to 14) (size 15 to 20)
#    0.000    2.500    0.000    3.000    1.750    1.500 
#    0.000    6.250    0.000    0.750    0.000    0.000 
#    0.000    0.000    0.000    0.000    0.000    0.000 
#
# Total GULP energy -178203.078491 kJ/mol
# GULP energy per Si atom -5568.846203 kJ/mol
# Density = 1.642344 g / cm^3
# Si number density = 16.460905 Si / 1000 Ang^3
#
#
#
# Elastic Constant Matrix: (Units=GPa)
#
#
# Indices 1 2 3 4 5 6 
#
# 1 131.0278 32.6152 40.4333 0.0000 26.9956 0.0000
# 2 32.6152 63.1811 24.1115 0.0000 3.2711 0.0000
# 3 40.4333 24.1115 72.3105 0.0000 9.1589 0.0000
# 4 0.0000 0.0000 0.0000 27.4507 0.0000 0.7163
# 5 26.9956 3.2711 9.1589 0.0000 19.6238 0.0000
# 6 0.0000 0.0000 0.0000 0.7163 0.0000 27.3300
#
#
#
# Elastic Compliance Matrix: (Units=1/GPa)
#
#
# Indices 1 2 3 4 5 6 
#
# 1 0.013151 -0.004502 -0.003886 0.000000 -0.015527 0.000000
# 2 -0.004502 0.019677 -0.004690 0.000000 0.005102 0.000000
# 3 -0.003886 -0.004690 0.017845 0.000000 -0.002202 0.000000
# 4 0.000000 0.000000 0.000000 0.036454 0.000000 -0.000955
# 5 -0.015527 0.005102 -0.002202 0.000000 0.072495 0.000000
# 6 0.000000 0.000000 0.000000 -0.000955 0.000000 0.036615
#
#
# Mechanical properties :
#
#
# Convention : Reuss Voigt Hill
#
# Bulk Modulus (GPa) = 40.78763 51.20436 45.99599
# Shear Modulus (GPa) = 21.68599 26.17153 23.92876
#
# Velocity S-wave (km/s) = 3.63357 3.99171 3.81684
# Velocity P-wave (km/s) = 6.51430 7.24011 6.88677
#
# Compressibility (1/GPa) = 0.02451724
#
# Stress axis : x y z
#
# Youngs Moduli (GPa) = 76.04253 50.82022 56.03914
#
# Poissons Ratio (x) = 0.22878 0.21774
# Poissons Ratio (y) = 0.34233 0.26283
# Poissons Ratio (z) = 0.29547 0.23836
#
# Static dielectric constant tensor:
#      x y z
#    x 1.575990 0.000000 0.018380 
#    y 0.000000 1.554190 0.000000 
#    z 0.018380 0.000000 1.559720 
# 
# From -- ./inp_files/61764.got.cif
#   From: 2010.05.17/outbox.ucp.g08.bks.cvg/sg11_31_cif.got.tgz:61764.got - 2010.06.11 11:38:39.
