data_PCOD9167648
_publ_section_title
;
Structure prediction by ZEFSAII (Michael W. Deem and Ramdas Pophale) SiO2 
 PCOD9167648
Probable space group: P 21/M
;
_chemical_formula_sum "Si O2"
_cell_formula_units_Z 32
_cell_length_a 9.867679
_cell_length_b 7.441622
_cell_length_c 25.835304
_cell_angle_alpha 90.000000
_cell_angle_beta 124.953991
_cell_angle_gamma 90.000000
_cell_volume 1554.908001
_symmetry_space_group_name_H-M "P 21/M"
_symmetry_group_IT_number 11
_symmetry_cell_setting 'monoclinic'
loop_
_space_group_symop_operation_xyz
x,y,z
-x,1/2+y,-z
-x,-y,-z
x,1/2-y,z
loop_
_atom_site_type_symbol
_atom_site_label
_atom_site_fract_x
_atom_site_fract_y
_atom_site_fract_z
Si Si1 0.455130 0.535170 0.072528
Si Si2 0.108236 0.968977 0.301021
Si Si3 0.237547 0.464829 0.927472
Si Si4 0.315070 0.964646 0.442021
Si Si5 0.989007 0.464646 0.557979
Si Si6 0.122354 0.529954 0.185532
Si Si7 0.794827 0.968977 0.301021
Si Si8 0.434242 0.970046 0.185532
O O1 0.473545 0.750000 0.080269
O O2 0.623738 0.465587 0.082492
O O3 0.424264 0.469881 0.123682
O O4 0.308045 0.499999 1.000000
O O5 0.107625 0.750000 0.299818
O O6 0.252725 0.028103 0.372089
O O7 0.130465 0.028032 0.247128
O O8 0.933506 0.021835 0.289004
O O9 0.232738 0.250000 0.919730
O O10 0.053217 0.530119 0.876318
O O11 0.298681 0.750000 0.436647
O O12 0.181808 0.032937 0.454538
O O13 0.500000 0.000000 0.500000
O O14 0.988740 0.250000 0.563353
O O15 0.000000 0.500000 0.500000
O O16 0.136458 0.528103 0.627911
O O17 0.123455 0.750000 0.185487
O O18 0.278946 0.471945 0.185964
O O19 0.791830 0.750000 0.299818
O O20 0.610918 0.028033 0.247128
O O21 0.433007 0.750000 0.185487
#
# Coordination Sequence:
#
# PCOD9167648 Si02
#       8
#     4   4   4   4   4   4   4   4
#     4   9  17  29  45  64  86 113 143 174 210 253
#     4   8  14  26  43  62  86 115 146 181 219 258
#     4   9  17  29  45  64  86 113 143 174 210 253
#     4   9  18  31  47  69  95 122 153 189 229 273
#     4   9  18  31  47  69  95 122 153 189 229 273
#     4   9  16  25  40  64  89 111 140 179 219 256
#     4   8  14  26  43  62  86 115 146 181 219 258
#     4   9  16  25  40  64  89 111 140 179 219 256
#
# _framework density 20.579995
#
# number of rings (size 3 to 8) (size 9 to 14) (size 15 to 20)
#    0.000    3.250    0.000    2.250    0.000    5.000 
#    0.000    2.500    0.000    1.500    0.000    3.500 
#    0.000    0.000    0.000    0.000    0.000    0.000 
#
# Total GULP energy -178507.799606 kJ/mol
# GULP energy per Si atom -5578.368738 kJ/mol
# Density = 2.053315 g / cm^3
# Si number density = 20.579995 Si / 1000 Ang^3
#
#
#
# Elastic Constant Matrix: (Units=GPa)
#
#
# Indices 1 2 3 4 5 6 
#
# 1 177.9906 5.7000 174.2909 0.0000 -3.5722 0.0000
# 2 5.7000 60.8120 3.1689 0.0000 0.1299 0.0000
# 3 174.2909 3.1689 230.4872 0.0000 0.8820 0.0000
# 4 0.0000 0.0000 0.0000 18.9105 0.0000 -0.7851
# 5 -3.5722 0.1299 0.8820 0.0000 36.4733 0.0000
# 6 0.0000 0.0000 0.0000 -0.7851 0.0000 3.5913
#
#
#
# Elastic Compliance Matrix: (Units=1/GPa)
#
#
# Indices 1 2 3 4 5 6 
#
# 1 0.021968 -0.001199 -0.016605 0.000000 0.002557 0.000000
# 2 -0.001199 0.016521 0.000680 0.000000 -0.000193 0.000000
# 3 -0.016605 0.000680 0.016894 0.000000 -0.002037 0.000000
# 4 0.000000 0.000000 0.000000 0.053365 0.000000 0.011666
# 5 0.002557 -0.000193 -0.002037 0.000000 0.027718 0.000000
# 6 0.000000 0.000000 0.000000 0.011666 0.000000 0.281001
#
#
# Mechanical properties :
#
#
# Convention : Reuss Voigt Hill
#
# Bulk Modulus (GPa) = 47.31446 92.84548 70.07997
# Shear Modulus (GPa) = 10.89895 30.87035 20.88465
#
# Velocity S-wave (km/s) = 2.30378 3.87721 3.18905
# Velocity P-wave (km/s) = 5.48789 8.07812 6.90554
#
# Compressibility (1/GPa) = 0.02113519
#
# Stress axis : x y z
#
# Youngs Moduli (GPa) = 45.52071 60.52725 59.19380
#
# Poissons Ratio (x) = 0.07259 0.98292
# Poissons Ratio (y) = 0.05459 -0.04028
# Poissons Ratio (z) = 0.75588 -0.04119
#
# Static dielectric constant tensor:
#      x y z
#    x 1.713110 0.000000 -0.000100 
#    y 0.000000 1.812140 0.000000 
#    z -0.000100 0.000000 1.715110 
# 
# From -- ./inp_files/27515.got.cif
#   From: 2010.05.17/outbox.cif.g08.bks.cpg/sg11_14_cif.got.tgz:27515.got - 2010.06.03 12:22:45.
