data_PCOD9167795
_publ_section_title
;
Structure prediction by ZEFSAII (Michael W. Deem and Ramdas Pophale) SiO2 
 PCOD9167795
Probable space group: P 21/M
;
_chemical_formula_sum "Si O2"
_cell_formula_units_Z 32
_cell_length_a 21.000000
_cell_length_b 9.000000
_cell_length_c 27.000000
_cell_angle_alpha 90.000000
_cell_angle_beta 160.000000
_cell_angle_gamma 90.000000
_cell_volume 1745.328791
_symmetry_space_group_name_H-M "P 21/M"
_symmetry_group_IT_number 11
_symmetry_cell_setting 'monoclinic'
loop_
_space_group_symop_operation_xyz
x,y,z
-x,1/2+y,-z
-x,-y,-z
x,1/2-y,z
loop_
_atom_site_type_symbol
_atom_site_label
_atom_site_fract_x
_atom_site_fract_y
_atom_site_fract_z
Si Si1 0.127660 0.927358 0.836804
Si Si2 0.848309 0.927163 0.038424
Si Si3 0.203158 0.426227 0.265835
Si Si4 0.492081 0.072341 0.940980
Si Si5 0.219823 0.573135 0.466562
Si Si6 0.202036 0.071747 0.647842
Si Si7 0.431132 0.926325 0.521076
Si Si8 0.417388 0.571566 0.713921
O O1 0.117619 0.750000 0.836069
O O2 0.111802 0.006571 0.878075
O O3 0.325965 0.967003 0.957904
O O4 0.964639 0.983541 0.681920
O O5 0.865970 0.750000 0.052975
O O6 0.636003 0.965401 0.869670
O O7 0.005681 0.993830 0.117919
O O8 0.176102 0.250000 0.248889
O O9 0.353569 0.459980 0.333012
O O10 0.305088 0.483124 0.390361
O O11 0.491293 0.250000 0.945767
O O12 0.310914 0.028979 0.777424
O O13 0.500000 0.000000 0.000000
O O14 0.177826 0.750000 0.435607
O O15 0.365545 0.545063 0.528677
O O16 0.308839 0.535301 0.584200
O O17 0.189934 0.250000 0.636772
O O18 0.323321 0.012323 0.690738
O O19 0.000000 0.000000 0.500000
O O20 0.403567 0.750000 0.490690
O O21 0.403837 0.750000 0.712008
#
# Coordination Sequence:
#
# PCOD9167795 Si02
#       8
#     4   4   4   4   4   4   4   4
#     4  11  22  38  59  87 116 146 192 243 288 335
#     4  11  21  36  58  84 113 153 196 236 286 342
#     4  10  19  31  53  83 115 149 191 242 289 340
#     4  10  24  42  61  87 119 150 188 237 286 339
#     4  10  21  38  59  85 116 151 192 238 288 342
#     4  11  24  43  63  87 118 154 192 234 285 344
#     4   9  18  33  53  81 115 151 190 237 292 341
#     4  10  23  41  61  85 115 154 196 236 283 343
#
# _framework density 18.334654
#
# number of rings (size 3 to 8) (size 9 to 14) (size 15 to 20)
#    0.000    1.750    2.500    1.500    1.750    3.500 
#    0.000    0.625    0.000    0.000    0.000    0.000 
#    0.000    0.000    0.000    0.000    0.000    0.000 
#
# Total GULP energy -178721.410346 kJ/mol
# GULP energy per Si atom -5585.044073 kJ/mol
# Density = 1.829292 g / cm^3
# Si number density = 18.334654 Si / 1000 Ang^3
#
#
#
# Elastic Constant Matrix: (Units=GPa)
#
#
# Indices 1 2 3 4 5 6 
#
# 1 55.8070 28.3635 47.0321 0.0000 2.7872 0.0000
# 2 28.3635 37.6139 53.2305 0.0000 6.5635 0.0000
# 3 47.0321 53.2305 151.6830 0.0000 11.1110 0.0000
# 4 0.0000 0.0000 0.0000 26.3235 0.0000 9.9835
# 5 2.7872 6.5635 11.1110 0.0000 30.8933 0.0000
# 6 0.0000 0.0000 0.0000 9.9835 0.0000 24.0111
#
#
#
# Elastic Compliance Matrix: (Units=1/GPa)
#
#
# Indices 1 2 3 4 5 6 
#
# 1 0.029749 -0.018960 -0.002741 0.000000 0.002330 0.000000
# 2 -0.018960 0.065567 -0.016675 0.000000 -0.006222 0.000000
# 3 -0.002741 -0.016675 0.013369 0.000000 -0.001018 0.000000
# 4 0.000000 0.000000 0.000000 0.045101 0.000000 -0.018752
# 5 0.002330 -0.006222 -0.001018 0.000000 0.033847 0.000000
# 6 0.000000 0.000000 0.000000 -0.018752 0.000000 0.049445
#
#
# Mechanical properties :
#
#
# Convention : Reuss Voigt Hill
#
# Bulk Modulus (GPa) = 31.31601 55.81734 43.56668
# Shear Modulus (GPa) = 15.40954 24.01076 19.71015
#
# Velocity S-wave (km/s) = 2.90221 3.62274 3.28231
# Velocity P-wave (km/s) = 5.32426 6.92883 6.17886
#
# Compressibility (1/GPa) = 0.03193255
#
# Stress axis : x y z
#
# Youngs Moduli (GPa) = 33.61452 15.25161 74.80009
#
# Poissons Ratio (x) = 0.28917 0.20504
# Poissons Ratio (y) = 0.63734 1.24728
# Poissons Ratio (z) = 0.09214 0.25432
#
# Static dielectric constant tensor:
#      x y z
#    x 1.621860 0.000000 0.024870 
#    y 0.000000 1.611240 0.000000 
#    z 0.024870 0.000000 1.623270 
# 
# From -- ./inp_files/72225.got.cif
#   From: 2010.05.17/outbox.ucp.g08.bks.cvg/sg11_37_cif.got.tgz:72225.got - 2010.06.11 11:38:39.
