data_PCOD9167116
_publ_section_title
;
Structure prediction by ZEFSAII (Michael W. Deem and Ramdas Pophale) SiO2 
 PCOD9167116
Probable space group: P 21/M
;
_chemical_formula_sum "Si O2"
_cell_formula_units_Z 32
_cell_length_a 11.653316
_cell_length_b 17.589867
_cell_length_c 14.413965
_cell_angle_alpha 90.000000
_cell_angle_beta 148.754015
_cell_angle_gamma 90.000000
_cell_volume 1532.579340
_symmetry_space_group_name_H-M "P 21/M"
_symmetry_group_IT_number 11
_symmetry_cell_setting 'monoclinic'
loop_
_space_group_symop_operation_xyz
x,y,z
-x,1/2+y,-z
-x,-y,-z
x,1/2-y,z
loop_
_atom_site_type_symbol
_atom_site_label
_atom_site_fract_x
_atom_site_fract_y
_atom_site_fract_z
Si Si1 0.221436 0.337397 0.632299
Si Si2 0.090858 0.839684 0.748917
Si Si3 0.446040 0.059116 0.324461
Si Si4 0.434854 0.411620 0.946844
Si Si5 0.412057 0.612486 0.255674
Si Si6 0.199488 0.102982 0.975088
Si Si7 0.988678 0.936203 0.850580
Si Si8 0.726641 0.334123 0.641483
O O1 0.206002 0.250000 0.654504
O O2 0.262976 0.393986 0.745812
O O3 0.428729 0.345011 0.705289
O O4 0.011930 0.355747 0.423032
O O5 0.068511 0.750000 0.750872
O O6 0.966842 0.886840 0.742958
O O7 0.344431 0.865410 0.925802
O O8 0.640292 0.102861 0.510311
O O9 0.239226 0.053101 0.252501
O O10 0.500897 0.973443 0.331910
O O11 0.356910 0.103951 0.173263
O O12 0.334442 0.385283 0.974667
O O13 0.500000 0.500000 0.000000
O O14 0.386940 0.651147 0.337737
O O15 0.168731 0.603797 0.042065
O O16 0.988781 0.157164 0.836147
O O17 0.095066 0.017813 0.901428
O O18 0.669562 0.250000 0.568598
#
# Coordination Sequence:
#
# PCOD9167116 Si02
#       8
#     4   4   4   4   4   4   4   4
#     4  11  25  43  67 101 136 170 217 279 336 384
#     4  11  25  43  68 101 134 169 219 279 336 386
#     4  11  23  42  68  96 132 171 215 269 323 393
#     4  12  24  44  69  95 128 173 225 272 322 390
#     4  11  20  40  70  97 129 170 217 270 328 390
#     4  11  24  44  64  94 128 171 219 263 318 391
#     4  11  20  42  71  99 129 169 216 268 333 386
#     4  12  26  40  62  98 133 174 216 259 328 396
#
# _framework density 20.879833000000001
#
# number of rings (size 3 to 8) (size 9 to 14) (size 15 to 20)
#    0.000    0.750    5.000    3.375    1.750    5.000 
#    0.000    1.250    0.000    0.000    0.000    0.000 
#    0.000    0.000    0.000    0.000    0.000    0.000 
#
# Total GULP energy -179125.549843 kJ/mol
# GULP energy per Si atom -5597.673433 kJ/mol
# Density = 2.083231 g / cm^3
# Si number density = 20.879833 Si / 1000 Ang^3
#
#
#
# Elastic Constant Matrix: (Units=GPa)
#
#
# Indices 1 2 3 4 5 6 
#
# 1 83.1254 -7.8609 -0.7435 0.0000 -19.6006 0.0000
# 2 -7.8609 46.8913 22.5767 0.0000 -25.5212 0.0000
# 3 -0.7435 22.5767 69.6798 0.0000 -24.5530 0.0000
# 4 0.0000 0.0000 0.0000 25.6045 0.0000 -2.7960
# 5 -19.6006 -25.5212 -24.5530 0.0000 33.0155 0.0000
# 6 0.0000 0.0000 0.0000 -2.7960 0.0000 13.8373
#
#
#
# Elastic Compliance Matrix: (Units=1/GPa)
#
#
# Indices 1 2 3 4 5 6 
#
# 1 0.020393 0.016626 0.004913 0.000000 0.028613 0.000000
# 2 0.016626 0.050714 0.001406 0.000000 0.050119 0.000000
# 3 0.004913 0.001406 0.020813 0.000000 0.019482 0.000000
# 4 0.000000 0.000000 0.000000 0.039937 0.000000 0.008070
# 5 0.028613 0.050119 0.019482 0.000000 0.100506 0.000000
# 6 0.000000 0.000000 0.000000 0.008070 0.000000 0.073899
#
#
# Mechanical properties :
#
#
# Convention : Reuss Voigt Hill
#
# Bulk Modulus (GPa) = 7.25637 25.29345 16.27491
# Shear Modulus (GPa) = 16.32342 26.87307 21.59825
#
# Velocity S-wave (km/s) = 2.79907 3.59142 3.21971
# Velocity P-wave (km/s) = 3.73218 5.41644 4.65118
#
# Compressibility (1/GPa) = 0.13780987
#
# Stress axis : x y z
#
# Youngs Moduli (GPa) = 49.03641 19.71843 48.04691
#
# Poissons Ratio (x) = -0.32784 -0.23605
# Poissons Ratio (y) = -0.81529 -0.06755
# Poissons Ratio (z) = -0.24091 -0.02772
#
# Static dielectric constant tensor:
#      x y z
#    x 1.710370 0.000000 -0.006120 
#    y 0.000000 1.752990 0.000000 
#    z -0.006120 0.000000 1.757800 
# 
# From -- ./inp_files/50717.got.cif
#   From: 2010.05.17/outbox.cif.g08.bks.cpg/sg11_26_cif.got.tgz:50717.got - 2010.06.03 12:22:45.
