data_PCOD9167365
_publ_section_title
;
Structure prediction by ZEFSAII (Michael W. Deem and Ramdas Pophale) SiO2 
 PCOD9167365
Probable space group: P 21/M
;
_chemical_formula_sum "Si O2"
_cell_formula_units_Z 20
_cell_length_a 4.789747
_cell_length_b 8.956928
_cell_length_c 20.343425
_cell_angle_alpha 90.000000
_cell_angle_beta 84.646506
_cell_angle_gamma 90.000000
_cell_volume 868.954833
_symmetry_space_group_name_H-M "P 21/M"
_symmetry_group_IT_number 11
_symmetry_cell_setting 'monoclinic'
loop_
_space_group_symop_operation_xyz
x,y,z
-x,1/2+y,-z
-x,-y,-z
x,1/2-y,z
loop_
_atom_site_type_symbol
_atom_site_label
_atom_site_fract_x
_atom_site_fract_y
_atom_site_fract_z
Si Si1 0.791886 0.511433 0.364981
Si Si2 0.297246 0.919160 0.279311
Si Si3 0.975881 0.250000 0.539977
Si Si4 0.109968 0.070692 0.065410
Si Si5 0.591236 0.571165 0.134607
Si Si6 0.511442 0.250000 0.451972
O O1 0.551975 0.583403 0.325268
O O2 0.944227 0.611113 0.416679
O O3 0.625664 0.388343 0.409054
O O4 0.049522 0.474111 0.310347
O O5 0.176237 0.750000 0.277781
O O6 0.430532 0.956230 0.206352
O O7 0.181804 0.250000 0.472486
O O8 0.661950 0.250000 0.520044
O O9 0.131577 0.250000 0.060925
O O10 0.398323 0.994234 0.081029
O O11 0.881876 0.016748 0.124075
O O12 0.000000 0.000000 0.000000
O O13 0.365258 0.250000 0.873257
#
# Coordination Sequence:
#
# PCOD9167365 Si02
#       6
#     4   4   2   4   4   2
#     4  12  23  42  65  91 125 167 213 266 326 386
#     4  11  22  43  67  92 123 172 221 260 315 393
#     4  12  22  42  66  86 128 160 221 254 327 396
#     4  12  25  45  69 104 142 182 224 274 337 393
#     4  11  24  44  71 101 134 180 233 281 329 393
#     4  12  26  40  58 100 122 164 201 278 329 386
#
# _framework density 23.016152999999999
#
# number of rings (size 3 to 8) (size 9 to 14) (size 15 to 20)
#    0.000    0.400    2.000    7.800    0.000    3.200 
#   10.800    0.000    0.000    0.000    0.000    0.000 
#    0.000    0.000    0.000    0.000    0.000    0.000 
#
# Total GULP energy -112009.075383 kJ/mol
# GULP energy per Si atom -5600.453769 kJ/mol
# Density = 2.296377 g / cm^3
# Si number density = 23.016153 Si / 1000 Ang^3
#
#
#
# Elastic Constant Matrix: (Units=GPa)
#
#
# Indices 1 2 3 4 5 6 
#
# 1 87.1380 -12.3642 0.4071 0.0000 -4.2835 0.0000
# 2 -12.3642 72.9910 20.6649 0.0000 5.3152 0.0000
# 3 0.4071 20.6649 96.4041 0.0000 -8.6356 0.0000
# 4 0.0000 0.0000 0.0000 26.5280 0.0000 -5.8703
# 5 -4.2835 5.3152 -8.6356 0.0000 45.0124 0.0000
# 6 0.0000 0.0000 0.0000 -5.8703 0.0000 28.6277
#
#
#
# Elastic Compliance Matrix: (Units=1/GPa)
#
#
# Indices 1 2 3 4 5 6 
#
# 1 0.011810 0.002061 -0.000420 0.000000 0.000800 0.000000
# 2 0.002061 0.015196 -0.003469 0.000000 -0.002264 0.000000
# 3 -0.000420 -0.003469 0.011346 0.000000 0.002546 0.000000
# 4 0.000000 0.000000 0.000000 0.039488 0.000000 0.008097
# 5 0.000800 -0.002264 0.002546 0.000000 0.023048 0.000000
# 6 0.000000 0.000000 0.000000 0.008097 0.000000 0.036592
#
#
# Mechanical properties :
#
#
# Convention : Reuss Voigt Hill
#
# Bulk Modulus (GPa) = 28.82086 30.43873 29.62980
# Shear Modulus (GPa) = 32.74360 36.55531 34.64945
#
# Velocity S-wave (km/s) = 3.77588 3.98960 3.88421
# Velocity P-wave (km/s) = 5.61773 5.87165 5.74609
#
# Compressibility (1/GPa) = 0.03469708
#
# Stress axis : x y z
#
# Youngs Moduli (GPa) = 84.67544 65.80489 88.13312
#
# Poissons Ratio (x) = -0.13564 0.03702
# Poissons Ratio (y) = -0.17453 0.30573
# Poissons Ratio (z) = 0.03557 0.22827
#
# Static dielectric constant tensor:
#      x y z
#    x 1.863060 0.000000 -0.028470 
#    y 0.000000 1.824500 0.000000 
#    z -0.028470 0.000000 1.885830 
# 
# From -- ./inp_files/56651.got.cif
#   From: 2010.05.17/outbox.cif.g08.bks.cpg/sg11_29_cif.got.tgz:56651.got - 2010.06.03 12:22:45.
