data_PCOD9167724
_publ_section_title
;
Structure prediction by ZEFSAII (Michael W. Deem and Ramdas Pophale) SiO2 
 PCOD9167724
Probable space group: P 21/M
;
_chemical_formula_sum "Si O2"
_cell_formula_units_Z 32
_cell_length_a 12.000000
_cell_length_b 9.000000
_cell_length_c 21.000000
_cell_angle_alpha 90.000000
_cell_angle_beta 130.000000
_cell_angle_gamma 90.000000
_cell_volume 1737.388797
_symmetry_space_group_name_H-M "P 21/M"
_symmetry_group_IT_number 11
_symmetry_cell_setting 'monoclinic'
loop_
_space_group_symop_operation_xyz
x,y,z
-x,1/2+y,-z
-x,-y,-z
x,1/2-y,z
loop_
_atom_site_type_symbol
_atom_site_label
_atom_site_fract_x
_atom_site_fract_y
_atom_site_fract_z
Si Si1 0.524203 0.421026 0.201154
Si Si2 0.352516 0.082566 0.465386
Si Si3 0.709795 0.072967 0.433849
Si Si4 0.586384 0.420864 0.086393
Si Si5 0.186900 0.424867 0.648879
Si Si6 0.881761 0.573249 0.240734
Si Si7 0.860333 0.580657 0.732435
Si Si8 0.617575 0.926726 0.729133
O O1 0.578257 0.250000 0.234647
O O2 0.490979 0.427507 0.115488
O O3 0.650980 0.535334 0.265777
O O4 0.391770 0.447592 0.199228
O O5 0.386335 0.250000 0.499418
O O6 0.252556 0.090365 0.367121
O O7 0.500000 0.000000 0.500000
O O8 0.268276 0.995569 0.489342
O O9 0.717612 0.250000 0.438039
O O10 0.541393 0.027649 0.355399
O O11 0.816518 0.011248 0.418824
O O12 0.615498 0.250000 0.081534
O O13 0.735797 0.499108 0.160688
O O14 0.500000 0.500000 0.000000
O O15 0.168427 0.250000 0.630950
O O16 0.092988 0.472670 0.675757
O O17 0.865725 0.750000 0.235416
O O18 0.009426 0.519341 0.242892
O O19 0.910281 0.750000 0.765325
O O20 0.761862 0.510415 0.751541
O O21 0.624471 0.750000 0.717541
#
# Coordination Sequence:
#
# PCOD9167724 Si02
#       8
#     4   4   4   4   4   4   4   4
#     4   8  15  28  49  75 102 131 165 203 249 303
#     4  11  21  33  49  73 103 135 174 220 266 310
#     4  10  18  31  50  72  98 130 172 219 265 308
#     4  10  19  33  56  84 109 136 166 203 252 304
#     4   9  17  30  48  71  98 128 165 213 261 302
#     4  10  21  36  53  76 106 136 171 212 253 306
#     4  10  20  34  51  72 102 138 173 210 258 311
#     4   8  14  28  48  71  98 129 166 209 252 297
#
# _framework density 18.418444999999998
#
# number of rings (size 3 to 8) (size 9 to 14) (size 15 to 20)
#    0.000    2.500    1.250    2.625    0.000    3.000 
#    0.000    1.250    0.000    0.750    0.000    0.000 
#    0.000    0.000    0.000    0.000    0.000    0.000 
#
# Total GULP energy -178179.145827 kJ/mol
# GULP energy per Si atom -5568.098307 kJ/mol
# Density = 1.837652 g / cm^3
# Si number density = 18.418445 Si / 1000 Ang^3
#
#
#
# Elastic Constant Matrix: (Units=GPa)
#
#
# Indices 1 2 3 4 5 6 
#
# 1 124.9699 32.9768 36.9032 0.0000 -5.3213 0.0000
# 2 32.9768 54.4378 20.3675 0.0000 -0.8506 0.0000
# 3 36.9032 20.3675 35.7904 0.0000 -6.7315 0.0000
# 4 0.0000 0.0000 0.0000 20.5940 0.0000 -2.8163
# 5 -5.3213 -0.8506 -6.7315 0.0000 9.6251 0.0000
# 6 0.0000 0.0000 0.0000 -2.8163 0.0000 19.8496
#
#
#
# Elastic Compliance Matrix: (Units=1/GPa)
#
#
# Indices 1 2 3 4 5 6 
#
# 1 0.011977 -0.003267 -0.010707 0.000000 -0.001155 0.000000
# 2 -0.003267 0.024824 -0.012303 0.000000 -0.008217 0.000000
# 3 -0.010707 -0.012303 0.051429 0.000000 0.028961 0.000000
# 4 0.000000 0.000000 0.000000 0.049519 0.000000 0.007026
# 5 -0.001155 -0.008217 0.028961 0.000000 0.122784 0.000000
# 6 0.000000 0.000000 0.000000 0.007026 0.000000 0.051376
#
#
# Mechanical properties :
#
#
# Convention : Reuss Voigt Hill
#
# Bulk Modulus (GPa) = 28.03152 43.96591 35.99872
# Shear Modulus (GPa) = 13.28538 18.34379 15.81458
#
# Velocity S-wave (km/s) = 2.68863 3.15929 2.93341
# Velocity P-wave (km/s) = 4.98905 6.10168 5.57320
#
# Compressibility (1/GPa) = 0.03567412
#
# Stress axis : x y z
#
# Youngs Moduli (GPa) = 83.49592 40.28437 19.44432
#
# Poissons Ratio (x) = 0.13162 0.20819
# Poissons Ratio (y) = 0.27280 0.23923
# Poissons Ratio (z) = 0.89400 0.49563
#
# Static dielectric constant tensor:
#      x y z
#    x 1.624870 0.000000 -0.039900 
#    y 0.000000 1.623780 0.000000 
#    z -0.039900 0.000000 1.628660 
# 
# From -- ./inp_files/43837.got.cif
#   From: 2010.05.17/outbox.ucp.g08.bks.cvg/sg11_22_cif.got.tgz:43837.got - 2010.06.11 11:38:39.
