data_PCOD9167376
_publ_section_title
;
Structure prediction by ZEFSAII (Michael W. Deem and Ramdas Pophale) SiO2 
 PCOD9167376
Probable space group: P 21/M
;
_chemical_formula_sum "Si O2"
_cell_formula_units_Z 32
_cell_length_a 21.037968
_cell_length_b 7.440635
_cell_length_c 26.732007
_cell_angle_alpha 90.000000
_cell_angle_beta 20.108657
_cell_angle_gamma 90.000000
_cell_volume 1438.643630
_symmetry_space_group_name_H-M "P 21/M"
_symmetry_group_IT_number 11
_symmetry_cell_setting 'monoclinic'
loop_
_space_group_symop_operation_xyz
x,y,z
-x,1/2+y,-z
-x,-y,-z
x,1/2-y,z
loop_
_atom_site_type_symbol
_atom_site_label
_atom_site_fract_x
_atom_site_fract_y
_atom_site_fract_z
Si Si1 0.221004 0.969161 0.482806
Si Si2 0.186899 0.539083 0.890124
Si Si3 0.194930 0.544553 0.694868
Si Si4 0.606703 0.030047 0.356036
Si Si5 0.181899 0.964071 0.397322
Si Si6 0.412877 0.031054 0.925127
Si Si7 0.020477 0.029440 0.244006
Si Si8 0.616960 0.542706 0.164136
O O1 0.210942 0.750000 0.492128
O O2 0.164527 0.026406 0.468012
O O3 0.435688 0.028741 0.326480
O O4 0.099179 0.030823 0.619739
O O5 0.209893 0.750000 0.877959
O O6 0.341530 0.469859 0.737609
O O7 0.208537 0.465702 0.929327
O O8 0.000000 0.500000 0.000000
O O9 0.132244 0.750000 0.748313
O O10 0.237058 0.468366 0.719271
O O11 0.405345 0.540144 0.518547
O O12 0.068686 0.469044 0.743348
O O13 0.602853 0.250000 0.361045
O O14 0.202435 0.750000 0.385863
O O15 0.372718 0.028551 0.229754
O O16 0.000000 0.000000 0.500000
O O17 0.413974 0.250000 0.928203
O O18 0.360547 0.969088 0.907563
O O19 0.236215 0.975036 0.088359
O O20 0.013066 0.250000 0.248309
O O21 0.573585 0.750000 0.187158
#
# Coordination Sequence:
#
# PCOD9167376 Si02
#       8
#     4   4   4   4   4   4   4   4
#     4   8  15  28  48  75  99 123 159 197 236 286
#     4  11  23  34  46  66  94 128 166 209 252 294
#     4   9  17  29  50  71  88 117 157 198 243 295
#     4   9  19  33  45  64  93 122 157 199 247 295
#     4   9  17  32  52  75 101 130 162 192 230 282
#     4   8  16  29  49  74  99 127 160 198 241 290
#     4   9  15  25  47  74  95 119 158 203 240 279
#     4   9  17  32  52  70  92 124 162 205 247 293
#
# _framework density 22.243174
#
# number of rings (size 3 to 8) (size 9 to 14) (size 15 to 20)
#    0.000    3.000    0.000    2.625    1.750    2.000 
#    0.000    3.125    0.000    1.500    0.000    0.000 
#    0.000    0.000    0.000    0.000    0.000    0.000 
#
# Total GULP energy -178379.459996 kJ/mol
# GULP energy per Si atom -5574.358125 kJ/mol
# Density = 2.219255 g / cm^3
# Si number density = 22.243174 Si / 1000 Ang^3
#
#
#
# Elastic Constant Matrix: (Units=GPa)
#
#
# Indices 1 2 3 4 5 6 
#
# 1 76.1930 -2.9127 32.2653 0.0000 -26.9392 0.0000
# 2 -2.9127 67.9566 -2.0909 0.0000 5.6081 0.0000
# 3 32.2653 -2.0909 122.2953 0.0000 -7.1641 0.0000
# 4 0.0000 0.0000 0.0000 8.1340 0.0000 -6.8957
# 5 -26.9392 5.6081 -7.1641 0.0000 31.2381 0.0000
# 6 0.0000 0.0000 0.0000 -6.8957 0.0000 10.4026
#
#
#
# Elastic Compliance Matrix: (Units=1/GPa)
#
#
# Indices 1 2 3 4 5 6 
#
# 1 0.021162 -0.000663 -0.004580 0.000000 0.017318 0.000000
# 2 -0.000663 0.014959 0.000243 0.000000 -0.003202 0.000000
# 3 -0.004580 0.000243 0.009280 0.000000 -0.001865 0.000000
# 4 0.000000 0.000000 0.000000 0.280663 0.000000 0.186046
# 5 0.017318 -0.003202 -0.001865 0.000000 0.047094 0.000000
# 6 0.000000 0.000000 0.000000 0.186046 0.000000 0.219456
#
#
# Mechanical properties :
#
#
# Convention : Reuss Voigt Hill
#
# Bulk Modulus (GPa) = 28.24804 35.66318 31.95561
# Shear Modulus (GPa) = 8.13783 25.90049 17.01916
#
# Velocity S-wave (km/s) = 1.91481 3.41607 2.76912
# Velocity P-wave (km/s) = 4.19713 5.62383 4.96202
#
# Compressibility (1/GPa) = 0.03540069
#
# Stress axis : x y z
#
# Youngs Moduli (GPa) = 47.25489 66.85148 107.75661
#
# Poissons Ratio (x) = 0.04433 0.49352
# Poissons Ratio (y) = 0.03133 -0.02620
# Poissons Ratio (z) = 0.21643 -0.01625
#
# Static dielectric constant tensor:
#      x y z
#    x 1.817490 0.000000 0.001730 
#    y 0.000000 1.809150 0.000000 
#    z 0.001730 0.000000 1.841880 
# 
# From -- ./inp_files/26389.got.cif
#   From: 2010.05.17/outbox.cif.g08.bks.cpg/sg11_14_cif.got.tgz:26389.got - 2010.06.03 12:22:45.
