data_PCOD9167236
_publ_section_title
;
Structure prediction by ZEFSAII (Michael W. Deem and Ramdas Pophale) SiO2 
 PCOD9167236
Probable space group: P 21/M
;
_chemical_formula_sum "Si O2"
_cell_formula_units_Z 32
_cell_length_a 23.301757
_cell_length_b 14.207109
_cell_length_c 19.628786
_cell_angle_alpha 90.000000
_cell_angle_beta 163.192520
_cell_angle_gamma 90.000000
_cell_volume 1878.975820
_symmetry_space_group_name_H-M "P 21/M"
_symmetry_group_IT_number 11
_symmetry_cell_setting 'monoclinic'
loop_
_space_group_symop_operation_xyz
x,y,z
-x,1/2+y,-z
-x,-y,-z
x,1/2-y,z
loop_
_atom_site_type_symbol
_atom_site_label
_atom_site_fract_x
_atom_site_fract_y
_atom_site_fract_z
Si Si1 0.152431 0.637131 0.091376
Si Si2 0.225430 0.362868 0.664363
Si Si3 0.566508 0.860741 0.633045
Si Si4 0.347573 0.862869 0.908627
Si Si5 0.274561 0.137132 0.335626
Si Si6 0.336779 0.536156 0.173545
Si Si7 0.163229 0.536156 0.826463
Si Si8 0.933496 0.639259 0.366959
O O1 0.152632 0.750000 0.080221
O O2 0.338562 0.618144 0.352801
O O3 0.197966 0.586095 0.072235
O O4 0.943146 0.610083 0.886298
O O5 0.202529 0.250000 0.630104
O O6 0.189835 0.381852 0.704059
O O7 0.050582 0.413905 0.424836
O O8 0.443139 0.389917 0.886291
O O9 0.584057 0.750000 0.668143
O O10 0.689848 0.881852 0.704074
O O11 0.635463 0.928727 0.770945
O O12 0.347371 0.750000 0.919779
O O13 0.302036 0.913906 0.927764
O O14 0.161445 0.881857 0.647203
O O15 0.297464 0.250000 0.369886
O O16 0.449411 0.086095 0.575154
O O17 0.250008 0.544855 0.000008
O O18 0.135468 0.428727 0.770949
O O19 0.915946 0.750000 0.331859
#
# Coordination Sequence:
#
# PCOD9167236 Si02
#       8
#     4   4   4   4   4   4   4   4
#     4   9  18  34  56  77  96 124 164 208 249 288
#     4   9  18  34  56  77  96 124 164 208 249 288
#     4   9  19  35  53  73  96 127 171 212 240 277
#     4   9  18  34  56  77  96 124 164 208 249 288
#     4   9  18  34  56  77  96 124 164 208 249 288
#     4  11  22  32  47  75 107 135 161 193 242 302
#     4  11  22  32  47  75 107 135 161 193 242 302
#     4   9  19  35  53  73  96 127 171 212 240 277
#
# _framework density 17.030555
#
# number of rings (size 3 to 8) (size 9 to 14) (size 15 to 20)
#    0.000    2.500    0.000    5.250    0.000    7.500 
#    0.000    2.500    0.000    0.000    0.000   10.500 
#    0.000    0.000    0.000    0.000    0.000    0.000 
#
# Total GULP energy -178600.115383 kJ/mol
# GULP energy per Si atom -5581.253606 kJ/mol
# Density = 1.699179 g / cm^3
# Si number density = 17.030555 Si / 1000 Ang^3
#
#
#
# Elastic Constant Matrix: (Units=GPa)
#
#
# Indices 1 2 3 4 5 6 
#
# 1 43.9695 14.8207 47.7020 0.0000 15.5759 0.0000
# 2 14.8207 49.9553 17.4281 0.0000 5.7108 0.0000
# 3 47.7020 17.4281 65.4312 0.0000 31.4210 0.0000
# 4 0.0000 0.0000 0.0000 1.9478 0.0000 -5.0008
# 5 15.5759 5.7108 31.4210 0.0000 36.4367 0.0000
# 6 0.0000 0.0000 0.0000 -5.0008 0.0000 4.2211
#
#
#
# Elastic Compliance Matrix: (Units=1/GPa)
#
#
# Indices 1 2 3 4 5 6 
#
# 1 0.150536 -0.004022 -0.133260 0.000000 0.051196 0.000000
# 2 -0.004022 0.022339 -0.003690 0.000000 0.001400 0.000000
# 3 -0.133260 -0.003690 0.146418 0.000000 -0.068718 0.000000
# 4 0.000000 0.000000 0.000000 -0.251461 0.000000 -0.297910
# 5 0.051196 0.001400 -0.068718 0.000000 0.064599 0.000000
# 6 0.000000 0.000000 0.000000 -0.297910 0.000000 -0.116033
#
#
# Mechanical properties :
#
#
# Convention : Reuss Voigt Hill
#
# Bulk Modulus (GPa) = 26.77625 35.47307 31.12466
# Shear Modulus (GPa) = 16.08801 13.81479 14.95140
#
# Velocity S-wave (km/s) = 3.07686 2.85121 2.96618
# Velocity P-wave (km/s) = 5.32723 5.63147 5.48146
#
# Compressibility (1/GPa) = 0.03734653
#
# Stress axis : x y z
#
# Youngs Moduli (GPa) = 6.64294 44.76571 6.82978
#
# Poissons Ratio (x) = 0.18007 0.91014
# Poissons Ratio (y) = 0.02672 0.02520
# Poissons Ratio (z) = 0.88524 0.16519
#
# Static dielectric constant tensor:
#      x y z
#    x 1.542070 0.000000 0.027580 
#    y 0.000000 1.607430 0.000000 
#    z 0.027580 0.000000 1.554640 
# 
# From -- ./inp_files/61632.got.cif
#   From: 2010.05.17/outbox.cif.g08.bks.cpg/sg11_31_cif.got.tgz:61632.got - 2010.06.03 12:22:45.
