data_PCOD9167769
_publ_section_title
;
Structure prediction by ZEFSAII (Michael W. Deem and Ramdas Pophale) SiO2 
 PCOD9167769
Probable space group: P 21/M
;
_chemical_formula_sum "Si O2"
_cell_formula_units_Z 32
_cell_length_a 12.000000
_cell_length_b 9.000000
_cell_length_c 18.000000
_cell_angle_alpha 90.000000
_cell_angle_beta 90.000000
_cell_angle_gamma 90.000000
_cell_volume 1944.000000
_symmetry_space_group_name_H-M "P 21/M"
_symmetry_group_IT_number 11
_symmetry_cell_setting 'monoclinic'
loop_
_space_group_symop_operation_xyz
x,y,z
-x,1/2+y,-z
-x,-y,-z
x,1/2-y,z
loop_
_atom_site_type_symbol
_atom_site_label
_atom_site_fract_x
_atom_site_fract_y
_atom_site_fract_z
Si Si1 0.709972 0.074498 0.790713
Si Si2 0.849614 0.429532 0.932894
Si Si3 0.433743 0.071048 0.332488
Si Si4 0.908694 0.070601 0.097064
Si Si5 0.262219 0.930146 0.449322
Si Si6 0.683608 0.430510 0.381076
Si Si7 0.869105 0.070911 0.264487
Si Si8 0.089274 0.924380 0.328423
O O1 0.682310 0.250000 0.794849
O O2 0.754729 0.025480 0.872536
O O3 0.815098 0.059327 0.734514
O O4 0.611103 0.989805 0.747056
O O5 0.857204 0.250000 0.927313
O O6 0.968329 0.499498 0.909726
O O7 0.840325 0.467397 0.021250
O O8 0.425930 0.250000 0.331992
O O9 0.559314 0.027187 0.355457
O O10 0.354878 0.003911 0.396690
O O11 0.919818 0.250000 0.097198
O O12 0.860970 0.024666 0.177663
O O13 0.272762 0.750000 0.445126
O O14 0.280551 0.976227 0.535109
O O15 0.145499 0.967139 0.407512
O O16 0.685855 0.250000 0.382409
O O17 0.770151 0.481485 0.318234
O O18 0.868219 0.250000 0.264569
O O19 0.983793 0.016003 0.301144
O O20 0.059846 0.750000 0.331922
#
# Coordination Sequence:
#
# PCOD9167769 Si02
#       8
#     4   4   4   4   4   4   4   4
#     4   9  17  30  48  68  95 126 151 185 234 281
#     4   9  16  28  46  68  95 124 152 182 226 275
#     4  10  19  31  50  72  91 114 154 203 237 266
#     4   9  17  27  44  71  96 121 153 188 221 264
#     4   9  18  34  52  67  90 122 153 190 236 281
#     4   9  19  34  49  66  91 126 158 187 232 278
#     4  10  19  31  47  67  96 127 154 186 224 274
#     4   9  17  29  45  67  92 122 153 185 228 276
#
# _framework density 16.460905
#
# number of rings (size 3 to 8) (size 9 to 14) (size 15 to 20)
#    0.000    2.750    1.250    1.500    0.000    3.000 
#    0.000    2.500    0.000    0.750    0.000    0.000 
#    0.000    0.000    0.000    0.000    0.000    0.125 
#
# Total GULP energy -178169.799392 kJ/mol
# GULP energy per Si atom -5567.806231 kJ/mol
# Density = 1.642344 g / cm^3
# Si number density = 16.460905 Si / 1000 Ang^3
#
#
#
# Elastic Constant Matrix: (Units=GPa)
#
#
# Indices 1 2 3 4 5 6 
#
# 1 60.4621 15.6758 71.2239 0.0000 10.8023 0.0000
# 2 15.6758 14.0063 27.2017 0.0000 3.6789 0.0000
# 3 71.2239 27.2017 181.9723 0.0000 30.3947 0.0000
# 4 0.0000 0.0000 0.0000 21.9513 0.0000 6.9360
# 5 10.8023 3.6789 30.3947 0.0000 26.8722 0.0000
# 6 0.0000 0.0000 0.0000 6.9360 0.0000 19.9408
#
#
#
# Elastic Compliance Matrix: (Units=1/GPa)
#
#
# Indices 1 2 3 4 5 6 
#
# 1 0.033310 -0.016765 -0.010700 0.000000 0.001007 0.000000
# 2 -0.016765 0.109388 -0.010374 0.000000 0.003497 0.000000
# 3 -0.010700 -0.010374 0.012672 0.000000 -0.008612 0.000000
# 4 0.000000 0.000000 0.000000 0.051180 0.000000 -0.017802
# 5 0.001007 0.003497 -0.008612 0.000000 0.046071 0.000000
# 6 0.000000 0.000000 0.000000 -0.017802 0.000000 0.056340
#
#
# Mechanical properties :
#
#
# Convention : Reuss Voigt Hill
#
# Bulk Modulus (GPa) = 12.54813 53.84931 33.19872
# Shear Modulus (GPa) = 12.15940 23.24215 17.70077
#
# Velocity S-wave (km/s) = 2.72082 3.76168 3.28277
# Velocity P-wave (km/s) = 4.18450 7.18690 5.88054
#
# Compressibility (1/GPa) = 0.07969315
#
# Stress axis : x y z
#
# Youngs Moduli (GPa) = 30.02082 9.14174 78.91157
#
# Poissons Ratio (x) = 0.15326 0.84433
# Poissons Ratio (y) = 0.50331 0.81862
# Poissons Ratio (z) = 0.32121 0.09484
#
# Static dielectric constant tensor:
#      x y z
#    x 1.539410 0.000000 0.010730 
#    y 0.000000 1.554340 0.000000 
#    z 0.010730 0.000000 1.581060 
# 
# From -- ./inp_files/40708.got.cif
#   From: 2010.05.17/outbox.ucp.g08.bks.cvg/sg11_21_cif.got.tgz:40708.got - 2010.06.11 11:38:39.
