data_PCOD9167010
_publ_section_title
;
Structure prediction by ZEFSAII (Michael W. Deem and Ramdas Pophale) SiO2 
 PCOD9167010
Probable space group: P 21/M
;
_chemical_formula_sum "Si O2"
_cell_formula_units_Z 20
_cell_length_a 14.444120
_cell_length_b 12.695448
_cell_length_c 5.251552
_cell_angle_alpha 90.000000
_cell_angle_beta 121.895842
_cell_angle_gamma 90.000000
_cell_volume 817.597608
_symmetry_space_group_name_H-M "P 21/M"
_symmetry_group_IT_number 11
_symmetry_cell_setting 'monoclinic'
loop_
_space_group_symop_operation_xyz
x,y,z
-x,1/2+y,-z
-x,-y,-z
x,1/2-y,z
loop_
_atom_site_type_symbol
_atom_site_label
_atom_site_fract_x
_atom_site_fract_y
_atom_site_fract_z
Si Si1 0.754019 0.371366 0.840902
Si Si2 0.389116 0.250000 0.230313
Si Si3 0.615339 0.044832 0.250291
Si Si4 0.542070 0.250000 0.943719
Si Si5 0.094472 0.750000 0.259987
Si Si6 0.047709 0.250000 0.449176
Si Si7 0.775827 0.924136 0.176064
O O1 0.749605 0.250000 0.924302
O O2 0.638224 0.412758 0.564773
O O3 0.802613 0.466536 0.073529
O O4 0.830701 0.350966 0.701464
O O5 0.465306 0.250000 0.587586
O O6 0.463735 0.250000 0.082541
O O7 0.309141 0.351103 0.105312
O O8 0.705623 0.959083 0.317802
O O9 0.618070 0.148218 0.079307
O O10 0.500000 0.000000 0.000000
O O11 0.001803 0.750000 0.905301
O O12 0.044255 0.750000 0.465374
O O13 0.122735 0.352186 0.604320
#
# Coordination Sequence:
#
# PCOD9167010 Si02
#       7
#     4   2   4   2   2   2   4
#     4  10  26  46  73 112 150 192 258 306 374 457
#     4  11  26  46  66 108 147 195 253 299 362 436
#     4  12  25  43  72 106 155 203 243 302 375 433
#     4  12  25  42  68  96 151 199 247 293 353 449
#     4  10  27  52  79 110 149 196 245 325 389 434
#     4  11  28  52  79 112 147 192 257 317 392 441
#     4  11  27  44  76 107 153 195 255 311 374 457
#
# _framework density 24.46191
#
# number of rings (size 3 to 8) (size 9 to 14) (size 15 to 20)
#    0.600    0.400    3.000    1.200    9.800    4.800 
#    0.000    0.000    0.000    0.000    0.000    0.000 
#    0.000    0.000    0.000    0.000    0.000    0.000 
#
# Total GULP energy -111867.932111 kJ/mol
# GULP energy per Si atom -5593.396606 kJ/mol
# Density = 2.440623 g / cm^3
# Si number density = 24.461910 Si / 1000 Ang^3
#
#
#
# Elastic Constant Matrix: (Units=GPa)
#
#
# Indices 1 2 3 4 5 6 
#
# 1 80.3402 28.8966 10.0367 0.0000 -2.6369 0.0000
# 2 28.8966 172.7346 43.5934 0.0000 7.0782 0.0000
# 3 10.0367 43.5934 153.0378 0.0000 8.9444 0.0000
# 4 0.0000 0.0000 0.0000 31.9281 0.0000 -8.0844
# 5 -2.6369 7.0782 8.9444 0.0000 35.3807 0.0000
# 6 0.0000 0.0000 0.0000 -8.0844 0.0000 31.9939
#
#
#
# Elastic Compliance Matrix: (Units=1/GPa)
#
#
# Indices 1 2 3 4 5 6 
#
# 1 0.013333 -0.002208 -0.000334 0.000000 0.001520 0.000000
# 2 -0.002208 0.006626 -0.001680 0.000000 -0.001065 0.000000
# 3 -0.000334 -0.001680 0.007122 0.000000 -0.001489 0.000000
# 4 0.000000 0.000000 0.000000 0.033461 0.000000 0.008455
# 5 0.001520 -0.001065 -0.001489 0.000000 0.028967 0.000000
# 6 0.000000 0.000000 0.000000 0.008455 0.000000 0.033392
#
#
# Mechanical properties :
#
#
# Convention : Reuss Voigt Hill
#
# Bulk Modulus (GPa) = 53.66154 63.46288 58.56221
# Shear Modulus (GPa) = 36.34780 41.43293 38.89037
#
# Velocity S-wave (km/s) = 3.85891 4.12001 3.99160
# Velocity P-wave (km/s) = 6.46833 6.97370 6.72577
#
# Compressibility (1/GPa) = 0.01863532
#
# Stress axis : x y z
#
# Youngs Moduli (GPa) = 75.00169 150.91071 140.41055
#
# Poissons Ratio (x) = 0.33327 0.04692
# Poissons Ratio (y) = 0.16564 0.23595
# Poissons Ratio (z) = 0.02506 0.25360
#
# Static dielectric constant tensor:
#      x y z
#    x 2.095760 0.000000 -0.089870 
#    y 0.000000 1.930090 0.000000 
#    z -0.089870 0.000000 1.963600 
# 
# From -- ./inp_files/7765.got.cif
#   From: 2010.05.17/outbox.cif.g08.bks.cpg/sg11_4_cif.got.tgz:7765.got - 2010.06.03 12:22:45.
