data_PCOD9167672
_publ_section_title
;
Structure prediction by ZEFSAII (Michael W. Deem and Ramdas Pophale) SiO2 
 PCOD9167672
Probable space group: P 21/M
;
_chemical_formula_sum "Si O2"
_cell_formula_units_Z 32
_cell_length_a 11.146508
_cell_length_b 20.526140
_cell_length_c 11.146512
_cell_angle_alpha 90.000000
_cell_angle_beta 38.925438
_cell_angle_gamma 90.000000
_cell_volume 1602.352469
_symmetry_space_group_name_H-M "P 21/M"
_symmetry_group_IT_number 11
_symmetry_cell_setting 'monoclinic'
loop_
_space_group_symop_operation_xyz
x,y,z
-x,1/2+y,-z
-x,-y,-z
x,1/2-y,z
loop_
_atom_site_type_symbol
_atom_site_label
_atom_site_fract_x
_atom_site_fract_y
_atom_site_fract_z
Si Si1 0.302304 0.175743 0.361709
Si Si2 0.379985 0.556210 0.449281
Si Si3 0.949281 0.556210 0.879985
Si Si4 0.983001 0.089060 0.912092
Si Si5 0.196152 0.072062 0.256905
Si Si6 0.412092 0.410940 0.483001
Si Si7 0.861708 0.175742 0.802304
Si Si8 0.756905 0.427938 0.696152
O O1 0.354422 0.250000 0.295197
O O2 0.303221 0.127789 0.247292
O O3 0.428055 0.143462 0.369239
O O4 0.081577 0.176376 0.581577
O O5 0.159728 0.551284 0.659728
O O6 0.463274 0.482788 0.393011
O O7 0.480080 0.597859 0.475207
O O8 0.375757 0.581001 0.316920
O O9 0.893011 0.482788 0.963275
O O10 0.816920 0.581001 0.875758
O O11 0.975207 0.597859 0.980080
O O12 0.189343 0.086257 0.689343
O O13 0.869239 0.143462 0.928055
O O14 0.977637 0.072677 0.477637
O O15 0.273373 0.000000 0.226627
O O16 0.795197 0.250000 0.854422
O O17 0.747292 0.127789 0.803221
#
# Coordination Sequence:
#
# PCOD9167672 Si02
#       8
#     4   4   4   4   4   4   4   4
#     4   9  16  26  42  64  87 113 147 183 218 258
#     4   9  16  26  44  67  88 111 142 180 220 257
#     4   9  16  26  44  67  88 111 142 180 220 257
#     4   9  16  27  43  64  89 114 142 178 216 257
#     4   9  14  24  42  63  85 110 142 182 221 254
#     4   9  16  27  43  64  89 114 142 178 216 257
#     4   9  16  26  42  64  87 113 147 183 218 258
#     4   9  14  24  42  63  85 110 142 182 221 254
#
# _framework density 19.970637
#
# number of rings (size 3 to 8) (size 9 to 14) (size 15 to 20)
#    0.000    3.000    2.500    0.000    0.000    0.000 
#    0.000    1.250    0.000    4.500    0.000    0.000 
#    0.000    0.000    0.000    0.000    0.000    0.000 
#
# Total GULP energy -178469.944015 kJ/mol
# GULP energy per Si atom -5577.185750 kJ/mol
# Density = 1.992518 g / cm^3
# Si number density = 19.970637 Si / 1000 Ang^3
#
#
#
# Elastic Constant Matrix: (Units=GPa)
#
#
# Indices 1 2 3 4 5 6 
#
# 1 147.2842 90.8451 43.9299 0.0000 61.8391 0.0000
# 2 90.8451 148.1815 33.6496 0.0000 49.5326 0.0000
# 3 43.9299 33.6496 61.4759 0.0000 12.4730 0.0000
# 4 0.0000 0.0000 0.0000 5.5141 0.0000 12.6100
# 5 61.8391 49.5326 12.4730 0.0000 58.7264 0.0000
# 6 0.0000 0.0000 0.0000 12.6100 0.0000 20.0748
#
#
#
# Elastic Compliance Matrix: (Units=1/GPa)
#
#
# Indices 1 2 3 4 5 6 
#
# 1 0.017011 -0.004646 -0.007078 0.000000 -0.012490 0.000000
# 2 -0.004646 0.011546 -0.002107 0.000000 -0.004398 0.000000
# 3 -0.007078 -0.002107 0.021533 0.000000 0.004657 0.000000
# 4 0.000000 0.000000 0.000000 -0.415481 0.000000 0.260985
# 5 -0.012490 -0.004398 0.004657 0.000000 0.032901 0.000000
# 6 0.000000 0.000000 0.000000 0.260985 0.000000 -0.114124
#
#
# Mechanical properties :
#
#
# Convention : Reuss Voigt Hill
#
# Bulk Modulus (GPa) = 44.59125 77.08787 60.83956
# Shear Modulus (GPa) = -12.15138 29.43085 8.63974
#
# Velocity S-wave (km/s) = -2.46938 3.84305 2.08221
# Velocity P-wave (km/s) = 3.77444 7.64045 6.02590
#
# Compressibility (1/GPa) = 0.02242593
#
# Stress axis : x y z
#
# Youngs Moduli (GPa) = 58.78614 86.61329 46.44023
#
# Poissons Ratio (x) = 0.40243 0.32872
# Poissons Ratio (y) = 0.27314 0.09785
# Poissons Ratio (z) = 0.41611 0.18250
#
# Static dielectric constant tensor:
#      x y z
#    x 1.732340 0.000000 -0.027590 
#    y 0.000000 1.660680 0.000000 
#    z -0.027590 0.000000 1.764190 
# 
# From -- ./inp_files/35891.got.cif
#   From: 2010.05.17/outbox.cif.g08.bks.cpg/sg11_18_cif.got.tgz:35891.got - 2010.06.03 12:22:45.
