data_PCOD9167705
_publ_section_title
;
Structure prediction by ZEFSAII (Michael W. Deem and Ramdas Pophale) SiO2 
 PCOD9167705
Probable space group: P 21/M
;
_chemical_formula_sum "Si O2"
_cell_formula_units_Z 32
_cell_length_a 15.000000
_cell_length_b 9.000000
_cell_length_c 15.000000
_cell_angle_alpha 90.000000
_cell_angle_beta 60.000000
_cell_angle_gamma 90.000000
_cell_volume 1753.701443
_symmetry_space_group_name_H-M "P 21/M"
_symmetry_group_IT_number 11
_symmetry_cell_setting 'monoclinic'
loop_
_space_group_symop_operation_xyz
x,y,z
-x,1/2+y,-z
-x,-y,-z
x,1/2-y,z
loop_
_atom_site_type_symbol
_atom_site_label
_atom_site_fract_x
_atom_site_fract_y
_atom_site_fract_z
Si Si1 0.641122 0.422437 0.861445
Si Si2 0.214203 0.571252 0.368972
Si Si3 0.150714 0.568242 0.776265
Si Si4 0.052345 0.421288 0.343829
Si Si5 0.754675 0.426320 0.087522
Si Si6 0.085890 0.428641 0.126748
Si Si7 0.192752 0.576727 0.566438
Si Si8 0.598924 0.581390 0.062037
O O1 0.667991 0.250000 0.869007
O O2 0.710175 0.478842 0.746410
O O3 0.523035 0.423937 0.888676
O O4 0.646385 0.520941 0.946432
O O5 0.218688 0.750000 0.370749
O O6 0.101342 0.523593 0.393901
O O7 0.241341 0.510983 0.453094
O O8 0.150690 0.750000 0.771680
O O9 0.210260 0.520690 0.833468
O O10 0.202151 0.510817 0.659654
O O11 0.030698 0.526365 0.840612
O O12 0.079883 0.250000 0.348478
O O13 0.098245 0.466267 0.224668
O O14 0.929958 0.425886 0.391875
O O15 0.761751 0.250000 0.080783
O O16 0.641671 0.479552 0.118420
O O17 0.832695 0.494388 0.976827
O O18 0.092936 0.250000 0.115690
O O19 0.224324 0.750000 0.556187
O O20 0.631643 0.750000 0.060864
#
# Coordination Sequence:
#
# PCOD9167705 Si02
#       8
#     4   4   4   4   4   4   4   4
#     4   9  19  34  50  71  94 114 145 187 226 267
#     4  10  18  28  47  70  89 113 148 189 225 258
#     4   8  16  30  46  65  91 122 155 188 220 261
#     4   9  17  28  43  65  94 124 149 174 212 268
#     4  11  20  29  46  70  92 117 153 193 225 259
#     4   9  17  30  46  65  92 125 155 182 220 268
#     4   8  15  29  46  64  89 121 153 182 216 260
#     4  10  20  34  50  67  92 123 147 176 226 280
#
# _framework density 18.247119999999999
#
# number of rings (size 3 to 8) (size 9 to 14) (size 15 to 20)
#    0.000    2.750    0.000    3.750    0.000    3.500 
#    0.000    0.625    0.000    4.500    0.000    0.000 
#    0.000    0.000    0.000    0.000    0.000    0.500 
#
# Total GULP energy -178256.751476 kJ/mol
# GULP energy per Si atom -5570.523484 kJ/mol
# Density = 1.820559 g / cm^3
# Si number density = 18.247120 Si / 1000 Ang^3
#
#
#
# Elastic Constant Matrix: (Units=GPa)
#
#
# Indices 1 2 3 4 5 6 
#
# 1 51.7975 12.6433 33.8734 0.0000 22.4446 0.0000
# 2 12.6433 7.1729 20.5643 0.0000 10.0992 0.0000
# 3 33.8734 20.5643 69.1535 0.0000 11.6112 0.0000
# 4 0.0000 0.0000 0.0000 6.5892 0.0000 0.2197
# 5 22.4446 10.0992 11.6112 0.0000 18.9664 0.0000
# 6 0.0000 0.0000 0.0000 0.2197 0.0000 20.4432
#
#
#
# Elastic Compliance Matrix: (Units=1/GPa)
#
#
# Indices 1 2 3 4 5 6 
#
# 1 0.034514 -0.089179 0.009472 0.000000 0.000844 0.000000
# 2 -0.089179 -0.419658 0.126211 0.000000 0.251727 0.000000
# 3 0.009472 0.126211 -0.016211 0.000000 -0.068489 0.000000
# 4 0.000000 0.000000 0.000000 0.151818 0.000000 -0.001632
# 5 0.000844 0.251727 -0.068489 0.000000 -0.040385 0.000000
# 6 0.000000 0.000000 0.000000 -0.001632 0.000000 0.048934
#
#
# Mechanical properties :
#
#
# Convention : Reuss Voigt Hill
#
# Bulk Modulus (GPa) = -3.24309 29.14288 12.94990
# Shear Modulus (GPa) = -11.44746 13.26927 0.91091
#
# Velocity S-wave (km/s) = -2.50743 2.69959 0.70731
# Velocity P-wave (km/s) = 3.18812 5.07178 2.78916
#
# Compressibility (1/GPa) = -0.30834837
#
# Stress axis : x y z
#
# Youngs Moduli (GPa) = 28.97386 -2.38289 -61.68696
#
# Poissons Ratio (x) = -0.21250 0.58428
# Poissons Ratio (y) = 2.58387 7.78557
# Poissons Ratio (z) = -0.27443 0.30075
#
# Static dielectric constant tensor:
#      x y z
#    x 1.638990 0.000000 0.008560 
#    y 0.000000 1.613500 0.000000 
#    z 0.008560 0.000000 1.670090 
# 
# From -- ./inp_files/51669.got.cif
#   From: 2010.05.17/outbox.ucp.g08.bks.cvg/sg11_26_cif.got.tgz:51669.got - 2010.06.11 11:38:39.
