data_PCOD9167349
_publ_section_title
;
Structure prediction by ZEFSAII (Michael W. Deem and Ramdas Pophale) SiO2 
 PCOD9167349
Probable space group: P 21/M
;
_chemical_formula_sum "Si O2"
_cell_formula_units_Z 26
_cell_length_a 9.747694
_cell_length_b 14.960956
_cell_length_c 13.691663
_cell_angle_alpha 90.000000
_cell_angle_beta 36.288510
_cell_angle_gamma 90.000000
_cell_volume 1181.762546
_symmetry_space_group_name_H-M "P 21/M"
_symmetry_group_IT_number 11
_symmetry_cell_setting 'monoclinic'
loop_
_space_group_symop_operation_xyz
x,y,z
-x,1/2+y,-z
-x,-y,-z
x,1/2-y,z
loop_
_atom_site_type_symbol
_atom_site_label
_atom_site_fract_x
_atom_site_fract_y
_atom_site_fract_z
Si Si1 0.351191 0.250000 0.990267
Si Si2 0.198012 0.593483 0.986001
Si Si3 0.154175 0.150043 0.655652
Si Si4 0.999342 0.392145 0.109961
Si Si5 0.369132 0.854661 0.506188
Si Si6 0.919808 0.020137 0.437459
Si Si7 0.592429 0.589995 0.897497
O O1 0.213970 0.327130 0.004793
O O2 0.453189 0.171957 0.004985
O O3 0.098353 0.492594 0.052260
O O4 0.058905 0.647493 0.147659
O O5 0.463792 0.598163 0.867182
O O6 0.134509 0.624944 0.914522
O O7 0.182409 0.250000 0.597782
O O8 0.379663 0.129115 0.592173
O O9 0.116086 0.072375 0.599216
O O10 0.814413 0.376446 0.302639
O O11 0.347937 0.750000 0.491897
O O12 0.305779 0.918844 0.452397
O O13 0.133666 0.077647 0.272072
O O14 0.000000 0.000000 0.500000
O O15 0.500000 0.500000 0.000000
#
# Coordination Sequence:
#
# PCOD9167349 Si02
#       7
#     2   4   4   4   4   4   4
#     4  12  22  42  72  94 136 178 220 272 326 392
#     4  11  25  41  65 100 133 168 221 270 329 392
#     4  11  25  43  64  94 133 170 213 268 329 383
#     4  11  22  41  70  95 125 173 229 267 316 393
#     4  11  22  45  68  92 125 173 223 267 318 387
#     4  12  26  43  66  94 133 170 217 270 332 389
#     4  12  23  45  66  99 135 177 215 272 338 388
#
# _framework density 22.001035000000002
#
# number of rings (size 3 to 8) (size 9 to 14) (size 15 to 20)
#    0.000    0.615    6.923    0.462    4.308    1.846 
#    0.000    0.000    0.000    0.000    0.000    0.000 
#    0.000    0.000    0.000    0.000    0.000    0.000 
#
# Total GULP energy -144957.780193 kJ/mol
# GULP energy per Si atom -5575.299238 kJ/mol
# Density = 2.195096 g / cm^3
# Si number density = 22.001035 Si / 1000 Ang^3
#
#
#
# Elastic Constant Matrix: (Units=GPa)
#
#
# Indices 1 2 3 4 5 6 
#
# 1 201.9393 82.0384 10.1976 0.0000 -12.1222 0.0000
# 2 82.0384 134.3591 7.1708 0.0000 -3.5156 0.0000
# 3 10.1976 7.1708 21.6542 0.0000 -14.4100 0.0000
# 4 0.0000 0.0000 0.0000 7.1640 0.0000 -9.2119
# 5 -12.1222 -3.5156 -14.4100 0.0000 28.9511 0.0000
# 6 0.0000 0.0000 0.0000 -9.2119 0.0000 36.4385
#
#
#
# Elastic Compliance Matrix: (Units=1/GPa)
#
#
# Indices 1 2 3 4 5 6 
#
# 1 0.006741 -0.004038 -0.000427 0.000000 0.002120 0.000000
# 2 -0.004038 0.010000 -0.002582 0.000000 -0.001762 0.000000
# 3 -0.000427 -0.002582 0.070141 0.000000 0.034419 0.000000
# 4 0.000000 0.000000 0.000000 0.206818 0.000000 0.052285
# 5 0.002120 -0.001762 0.034419 0.000000 0.052346 0.000000
# 6 0.000000 0.000000 0.000000 0.052285 0.000000 0.040661
#
#
# Mechanical properties :
#
#
# Convention : Reuss Voigt Hill
#
# Bulk Modulus (GPa) = 13.73844 61.86292 37.80068
# Shear Modulus (GPa) = 11.76293 31.74712 21.75502
#
# Velocity S-wave (km/s) = 2.31477 3.80278 3.14796
# Velocity P-wave (km/s) = 3.66090 6.88918 5.51647
#
# Compressibility (1/GPa) = 0.07278846
#
# Stress axis : x y z
#
# Youngs Moduli (GPa) = 148.34193 100.00061 14.25697
#
# Poissons Ratio (x) = 0.40379 0.00609
# Poissons Ratio (y) = 0.59898 0.03681
# Poissons Ratio (z) = 0.06331 0.25823
#
# Static dielectric constant tensor:
#      x y z
#    x 1.847960 0.000000 -0.023030 
#    y 0.000000 1.852120 0.000000 
#    z -0.023030 0.000000 1.837640 
# 
# From -- ./inp_files/47755.got.cif
#   From: 2010.05.17/outbox.cif.g08.bks.cpg/sg11_24_cif.got.tgz:47755.got - 2010.06.03 12:22:45.
