data_PCOD9167067
_publ_section_title
;
Structure prediction by ZEFSAII (Michael W. Deem and Ramdas Pophale) SiO2 
 PCOD9167067
Probable space group: P 21/M
;
_chemical_formula_sum "Si O2"
_cell_formula_units_Z 24
_cell_length_a 7.904236
_cell_length_b 16.104690
_cell_length_c 6.715643
_cell_angle_alpha 90.000000
_cell_angle_beta 98.885774
_cell_angle_gamma 90.000000
_cell_volume 844.609660
_symmetry_space_group_name_H-M "P 21/M"
_symmetry_group_IT_number 11
_symmetry_cell_setting 'monoclinic'
loop_
_space_group_symop_operation_xyz
x,y,z
-x,1/2+y,-z
-x,-y,-z
x,1/2-y,z
loop_
_atom_site_type_symbol
_atom_site_label
_atom_site_fract_x
_atom_site_fract_y
_atom_site_fract_z
Si Si1 0.479949 0.339471 0.222913
Si Si2 0.846716 0.870487 0.094646
Si Si3 0.320284 0.528771 0.868215
Si Si4 0.213885 0.658677 0.254667
Si Si5 0.278702 0.479716 0.399456
Si Si6 0.947585 0.659987 0.542958
O O1 0.510521 0.250000 0.318280
O O2 0.645148 0.372741 0.131663
O O3 0.416914 0.409593 0.365370
O O4 0.314046 0.335434 0.051133
O O5 0.828343 0.843711 0.322735
O O6 0.041490 0.845290 0.087392
O O7 0.823148 0.969351 0.067915
O O8 0.299489 0.503665 0.632679
O O9 0.500000 0.500000 0.000000
O O10 0.295863 0.750000 0.239353
O O11 0.291620 0.565536 0.274836
O O12 0.129501 0.658873 0.463808
O O13 0.102667 0.424327 0.352881
O O14 0.922429 0.750000 0.637310
#
# Coordination Sequence:
#
# PCOD9167067 Si02
#       6
#     4   4   4   4   4   4
#     4  11  21  34  53  80 111 142 177 220 270 321
#     4   8  17  35  56  74 101 140 181 216 262 322
#     4   9  20  37  56  74 101 145 191 223 261 316
#     4   9  18  33  56  78 104 141 178 217 267 323
#     4  11  20  31  54  83 110 135 174 227 274 318
#     4   8  15  30  50  75 102 135 172 205 255 318
#
# _framework density 28.415492
#
# number of rings (size 3 to 8) (size 9 to 14) (size 15 to 20)
#    1.000    1.667    0.000    2.500    0.000    1.333 
#    0.000    0.833    0.000   11.000    0.000    0.000 
#    0.000    0.000    0.000    0.000    0.000    0.000 
#
# Total GULP energy -133829.955259 kJ/mol
# GULP energy per Si atom -5576.248136 kJ/mol
# Density = 2.835082 g / cm^3
# Si number density = 28.415492 Si / 1000 Ang^3
#
#
#
# Elastic Constant Matrix: (Units=GPa)
#
#
# Indices 1 2 3 4 5 6 
#
# 1 63.1949 64.0671 6.5790 0.0000 -5.6909 0.0000
# 2 64.0671 274.8298 37.9859 0.0000 -2.6917 0.0000
# 3 6.5790 37.9859 95.3416 0.0000 23.9129 0.0000
# 4 0.0000 0.0000 0.0000 24.2047 0.0000 -12.4407
# 5 -5.6909 -2.6917 23.9129 0.0000 42.1629 0.0000
# 6 0.0000 0.0000 0.0000 -12.4407 0.0000 29.8994
#
#
#
# Elastic Compliance Matrix: (Units=1/GPa)
#
#
# Indices 1 2 3 4 5 6 
#
# 1 0.020988 -0.004842 -0.000177 0.000000 0.002624 0.000000
# 2 -0.004842 0.005030 -0.001850 0.000000 0.000717 0.000000
# 3 -0.000177 -0.001850 0.013143 0.000000 -0.007596 0.000000
# 4 0.000000 0.000000 0.000000 0.052553 0.000000 0.021867
# 5 0.002624 0.000717 -0.007596 0.000000 0.028426 0.000000
# 6 0.000000 0.000000 0.000000 0.021867 0.000000 0.042544
#
#
# Mechanical properties :
#
#
# Convention : Reuss Voigt Hill
#
# Bulk Modulus (GPa) = 39.33494 72.29226 55.81360
# Shear Modulus (GPa) = 27.04209 40.90234 33.97221
#
# Velocity S-wave (km/s) = 3.08826 3.79811 3.46143
# Velocity P-wave (km/s) = 5.15648 6.68809 5.97159
#
# Compressibility (1/GPa) = 0.02542269
#
# Stress axis : x y z
#
# Youngs Moduli (GPa) = 47.64600 198.80142 76.08633
#
# Poissons Ratio (x) = 0.96269 0.01348
# Poissons Ratio (y) = 0.23072 0.14073
# Poissons Ratio (z) = 0.00844 0.36772
#
# Static dielectric constant tensor:
#      x y z
#    x 2.293830 0.000000 -0.106560 
#    y 0.000000 2.266710 0.000000 
#    z -0.106560 0.000000 2.290990 
# 
# From -- ./inp_files/17252.got.cif
#   From: 2010.05.17/outbox.cif.g08.bks.cpg/sg11_9_cif.got.tgz:17252.got - 2010.06.03 12:22:45.
