data_PCOD9167508
_publ_section_title
;
Structure prediction by ZEFSAII (Michael W. Deem and Ramdas Pophale) SiO2 
 PCOD9167508
Probable space group: P 21/M
;
_chemical_formula_sum "Si O2"
_cell_formula_units_Z 20
_cell_length_a 7.770752
_cell_length_b 17.962892
_cell_length_c 12.032806
_cell_angle_alpha 90.000000
_cell_angle_beta 31.630044
_cell_angle_gamma 90.000000
_cell_volume 880.837468
_symmetry_space_group_name_H-M "P 21/M"
_symmetry_group_IT_number 11
_symmetry_cell_setting 'monoclinic'
loop_
_space_group_symop_operation_xyz
x,y,z
-x,1/2+y,-z
-x,-y,-z
x,1/2-y,z
loop_
_atom_site_type_symbol
_atom_site_label
_atom_site_fract_x
_atom_site_fract_y
_atom_site_fract_z
Si Si1 0.324579 0.483425 0.318674
Si Si2 0.641141 0.166168 0.181836
Si Si3 0.749999 0.920486 0.250002
Si Si4 0.175422 0.016576 0.181326
Si Si5 0.141136 0.666168 0.681841
O O1 0.359543 0.394724 0.320332
O O2 0.613083 0.527533 0.226826
O O3 0.009676 0.505576 0.585297
O O4 0.509676 0.494425 0.085298
O O5 0.555732 0.250000 0.194437
O O6 0.750009 0.167510 0.249993
O O7 0.952367 0.133009 0.946847
O O8 0.886917 0.972469 0.273174
O O9 0.452366 0.866991 0.446852
O O10 0.140463 0.105277 0.179666
O O11 0.055733 0.750000 0.694437
#
# Coordination Sequence:
#
# PCOD9167508 Si02
#       5
#     4   4   4   4   4
#     4  12  23  41  69  97 126 174 223 263 323 392
#     4  11  24  43  67  98 134 173 215 271 331 385
#     4  12  23  46  69  94 134 174 218 274 319 388
#     4  12  23  41  69  97 126 174 223 263 323 392
#     4  11  24  43  67  98 134 173 215 271 331 385
#
# _framework density 22.705663999999999
#
# number of rings (size 3 to 8) (size 9 to 14) (size 15 to 20)
#    0.000    0.400    6.000    4.200    0.000    0.800 
#    0.000    0.000    0.000    8.400    0.000    0.000 
#    0.000    0.000    0.000    0.000    0.000    0.000 
#
# Total GULP energy -111762.726678 kJ/mol
# GULP energy per Si atom -5588.136334 kJ/mol
# Density = 2.265398 g / cm^3
# Si number density = 22.705664 Si / 1000 Ang^3
#
#
#
# Elastic Constant Matrix: (Units=GPa)
#
#
# Indices 1 2 3 4 5 6 
#
# 1 159.5799 88.8610 56.8141 0.0000 25.3918 0.0000
# 2 88.8610 259.5862 59.8933 0.0000 -8.1230 0.0000
# 3 56.8141 59.8933 100.1402 0.0000 -8.6996 0.0000
# 4 0.0000 0.0000 0.0000 60.2311 0.0000 -24.6408
# 5 25.3918 -8.1230 -8.6996 0.0000 65.0175 0.0000
# 6 0.0000 0.0000 0.0000 -24.6408 0.0000 53.5939
#
#
#
# Elastic Compliance Matrix: (Units=1/GPa)
#
#
# Indices 1 2 3 4 5 6 
#
# 1 0.010113 -0.002544 -0.004641 0.000000 -0.004888 0.000000
# 2 -0.002544 0.005112 -0.001489 0.000000 0.001433 0.000000
# 3 -0.004641 -0.001489 0.013811 0.000000 0.003474 0.000000
# 4 0.000000 0.000000 0.000000 0.020449 0.000000 0.009402
# 5 -0.004888 0.001433 0.003474 0.000000 0.017933 0.000000
# 6 0.000000 0.000000 0.000000 0.009402 0.000000 0.022982
#
#
# Mechanical properties :
#
#
# Convention : Reuss Voigt Hill
#
# Bulk Modulus (GPa) = 85.55852 103.38256 94.47054
# Shear Modulus (GPa) = 44.78494 56.68436 50.73465
#
# Velocity S-wave (km/s) = 4.44600 5.00190 4.73212
# Velocity P-wave (km/s) = 8.00745 8.88759 8.45897
#
# Compressibility (1/GPa) = 0.01168791
#
# Stress axis : x y z
#
# Youngs Moduli (GPa) = 98.88106 195.63075 72.40359
#
# Poissons Ratio (x) = 0.49772 0.33600
# Poissons Ratio (y) = 0.25157 0.10784
# Poissons Ratio (z) = 0.45888 0.29137
#
# Static dielectric constant tensor:
#      x y z
#    x 1.826960 0.000000 0.081240 
#    y 0.000000 1.768730 0.000000 
#    z 0.081240 0.000000 2.045770 
# 
# From -- ./inp_files/35826.got.cif
#   From: 2010.05.17/outbox.cif.g08.bks.cpg/sg11_18_cif.got.tgz:35826.got - 2010.06.03 12:22:45.
