data_PCOD9167333
_publ_section_title
;
Structure prediction by ZEFSAII (Michael W. Deem and Ramdas Pophale) SiO2 
 PCOD9167333
Probable space group: P 21/M
;
_chemical_formula_sum "Si O2"
_cell_formula_units_Z 24
_cell_length_a 11.058230
_cell_length_b 13.839981
_cell_length_c 14.279779
_cell_angle_alpha 90.000000
_cell_angle_beta 148.286194
_cell_angle_gamma 90.000000
_cell_volume 1148.844589
_symmetry_space_group_name_H-M "P 21/M"
_symmetry_group_IT_number 11
_symmetry_cell_setting 'monoclinic'
loop_
_space_group_symop_operation_xyz
x,y,z
-x,1/2+y,-z
-x,-y,-z
x,1/2-y,z
loop_
_atom_site_type_symbol
_atom_site_label
_atom_site_fract_x
_atom_site_fract_y
_atom_site_fract_z
Si Si1 0.197403 0.639042 0.767927
Si Si2 0.496027 0.136986 0.201749
Si Si3 0.822957 0.489063 0.547652
Si Si4 0.452735 0.859141 0.335220
Si Si5 0.987577 0.060988 0.850052
Si Si6 0.833038 0.357982 0.032114
O O1 0.116748 0.750000 0.697806
O O2 0.418778 0.623962 0.849267
O O3 0.237684 0.630727 0.905967
O O4 0.006063 0.559209 0.618240
O O5 0.509334 0.250000 0.233325
O O6 0.673109 0.077701 0.382150
O O7 0.236113 0.101388 0.041207
O O8 0.647531 0.563227 0.482804
O O9 0.948702 0.430975 0.712965
O O10 0.525564 0.750000 0.405302
O O11 0.219735 0.885994 0.235421
O O12 0.383652 0.864683 0.180013
O O13 0.999125 0.946431 0.880837
O O14 0.931726 0.250000 0.084576
#
# Coordination Sequence:
#
# PCOD9167333 Si02
#       6
#     4   4   4   4   4   4
#     4   9  20  41  64  93 126 159 203 253 304 360
#     4  11  24  42  63  90 127 163 203 255 307 363
#     4  11  23  40  65  92 122 163 208 249 304 364
#     4  11  22  40  64  93 125 160 205 254 304 362
#     4  11  23  42  63  90 128 160 204 251 308 367
#     4   9  19  36  63  90 118 161 205 245 297 357
#
# _framework density 20.890553000000001
#
# number of rings (size 3 to 8) (size 9 to 14) (size 15 to 20)
#    0.000    1.667    1.667    2.500    0.000    4.667 
#    3.000    0.000    0.000    0.000    0.000    0.000 
#    0.000    0.000    0.000    0.000    0.000    0.000 
#
# Total GULP energy -134101.893102 kJ/mol
# GULP energy per Si atom -5587.578879 kJ/mol
# Density = 2.084301 g / cm^3
# Si number density = 20.890553 Si / 1000 Ang^3
#
#
#
# Elastic Constant Matrix: (Units=GPa)
#
#
# Indices 1 2 3 4 5 6 
#
# 1 43.8727 30.3154 7.0283 0.0000 14.2327 0.0000
# 2 30.3154 93.1180 20.9973 0.0000 0.4319 0.0000
# 3 7.0283 20.9973 56.2736 0.0000 -0.8803 0.0000
# 4 0.0000 0.0000 0.0000 4.9530 0.0000 3.8296
# 5 14.2327 0.4319 -0.8803 0.0000 29.2069 0.0000
# 6 0.0000 0.0000 0.0000 3.8296 0.0000 20.3313
#
#
#
# Elastic Compliance Matrix: (Units=1/GPa)
#
#
# Indices 1 2 3 4 5 6 
#
# 1 0.036772 -0.011782 -0.000474 0.000000 -0.017759 0.000000
# 2 -0.011782 0.015503 -0.004229 0.000000 0.005385 0.000000
# 3 -0.000474 -0.004229 0.019421 0.000000 0.000879 0.000000
# 4 0.000000 0.000000 0.000000 0.236313 0.000000 -0.044511
# 5 -0.017759 0.005385 0.000879 0.000000 0.042839 0.000000
# 6 0.000000 0.000000 0.000000 -0.044511 0.000000 0.057569
#
#
# Mechanical properties :
#
#
# Convention : Reuss Voigt Hill
#
# Bulk Modulus (GPa) = 25.82255 34.43847 30.13051
# Shear Modulus (GPa) = 11.00601 19.89312 15.44957
#
# Velocity S-wave (km/s) = 2.29779 3.08921 2.72241
# Velocity P-wave (km/s) = 4.40767 5.40789 4.93319
#
# Compressibility (1/GPa) = 0.03872585
#
# Stress axis : x y z
#
# Youngs Moduli (GPa) = 27.19489 64.50179 51.48989
#
# Poissons Ratio (x) = 0.75996 0.02442
# Poissons Ratio (y) = 0.32041 0.21775
# Poissons Ratio (z) = 0.01290 0.27278
#
# Static dielectric constant tensor:
#      x y z
#    x 1.746440 0.000000 -0.031460 
#    y 0.000000 1.770250 0.000000 
#    z -0.031460 0.000000 1.741060 
# 
# From -- ./inp_files/50423.got.cif
#   From: 2010.05.17/outbox.cif.g08.bks.cpg/sg11_26_cif.got.tgz:50423.got - 2010.06.03 12:22:45.
