data_PCOD9167244
_publ_section_title
;
Structure prediction by ZEFSAII (Michael W. Deem and Ramdas Pophale) SiO2 
 PCOD9167244
Probable space group: P 21/M
;
_chemical_formula_sum "Si O2"
_cell_formula_units_Z 28
_cell_length_a 30.861808
_cell_length_b 7.695584
_cell_length_c 9.632175
_cell_angle_alpha 90.000000
_cell_angle_beta 38.495973
_cell_angle_gamma 90.000000
_cell_volume 1423.962337
_symmetry_space_group_name_H-M "P 21/M"
_symmetry_group_IT_number 11
_symmetry_cell_setting 'monoclinic'
loop_
_space_group_symop_operation_xyz
x,y,z
-x,1/2+y,-z
-x,-y,-z
x,1/2-y,z
loop_
_atom_site_type_symbol
_atom_site_label
_atom_site_fract_x
_atom_site_fract_y
_atom_site_fract_z
Si Si1 0.433727 0.959354 0.573919
Si Si2 0.999481 0.043996 0.839608
Si Si3 0.283676 0.951169 0.962202
Si Si4 0.869612 0.036051 0.985886
Si Si5 0.866661 0.457672 0.675459
Si Si6 0.566463 0.459358 0.741433
Si Si7 0.716716 0.451253 0.375200
O O1 0.427267 0.750000 0.584159
O O2 0.358589 0.026940 0.816068
O O3 0.443987 0.021967 0.390261
O O4 0.500000 0.000000 0.500000
O O5 0.995721 0.250000 0.837034
O O6 0.931615 0.974512 0.928782
O O7 0.069776 0.989223 0.585781
O O8 0.000000 0.000000 0.000000
O O9 0.283367 0.750000 0.010569
O O10 0.284612 0.951001 0.790626
O O11 0.208373 0.028805 0.187158
O O12 0.868230 0.250000 0.990644
O O13 0.881623 0.981478 0.795488
O O14 0.792240 0.975103 0.224076
O O15 0.857411 0.250000 0.710352
O O16 0.572993 0.250000 0.719537
O O17 0.641813 0.526693 0.605563
O O18 0.500000 0.500000 0.000000
O O19 0.717731 0.250000 0.418620
#
# Coordination Sequence:
#
# PCOD9167244 Si02
#       7
#     4   4   4   4   4   4   4
#     4   9  17  30  47  69  95 124 156 191 230 275
#     4  11  22  34  47  68  99 130 154 183 226 278
#     4   7  12  25  47  70  90 114 150 192 232 272
#     4   8  15  29  52  75  90 111 153 199 233 268
#     4   9  16  31  55  76  90 112 151 199 240 275
#     4   9  17  29  47  69  94 121 152 190 231 272
#     4   7  11  24  46  69  88 112 150 194 229 262
#
# _framework density 19.663440999999999
#
# number of rings (size 3 to 8) (size 9 to 14) (size 15 to 20)
#    0.000    3.429    0.000    4.286    0.000    0.571 
#    0.000    2.857    0.000   13.714    0.000    0.000 
#    0.000    0.000    0.000    0.000    0.000    0.000 
#
# Total GULP energy -155871.924765 kJ/mol
# GULP energy per Si atom -5566.854456 kJ/mol
# Density = 1.961869 g / cm^3
# Si number density = 19.663441 Si / 1000 Ang^3
#
#
#
# Elastic Constant Matrix: (Units=GPa)
#
#
# Indices 1 2 3 4 5 6 
#
# 1 152.3220 5.6472 106.6034 0.0000 -44.5916 0.0000
# 2 5.6472 31.1799 2.8065 0.0000 -2.8093 0.0000
# 3 106.6034 2.8065 174.9301 0.0000 -45.5626 0.0000
# 4 0.0000 0.0000 0.0000 22.0753 0.0000 -2.8940
# 5 -44.5916 -2.8093 -45.5626 0.0000 34.4696 0.0000
# 6 0.0000 0.0000 0.0000 -2.8940 0.0000 15.2802
#
#
#
# Elastic Compliance Matrix: (Units=1/GPa)
#
#
# Indices 1 2 3 4 5 6 
#
# 1 0.013396 -0.001035 -0.005575 0.000000 0.009877 0.000000
# 2 -0.001035 0.032397 0.000686 0.000000 0.002209 0.000000
# 3 -0.005575 0.000686 0.011040 0.000000 0.007437 0.000000
# 4 0.000000 0.000000 0.000000 0.046453 0.000000 0.008798
# 5 0.009877 0.002209 0.007437 0.000000 0.051799 0.000000
# 6 0.000000 0.000000 0.000000 0.008798 0.000000 0.067111
#
#
# Mechanical properties :
#
#
# Convention : Reuss Voigt Hill
#
# Bulk Modulus (GPa) = 22.22892 65.39404 43.81148
# Shear Modulus (GPa) = 20.07733 30.59001 25.33367
#
# Velocity S-wave (km/s) = 3.19885 3.94849 3.59327
# Velocity P-wave (km/s) = 4.99728 7.35638 6.28844
#
# Compressibility (1/GPa) = 0.04498644
#
# Stress axis : x y z
#
# Youngs Moduli (GPa) = 74.64749 30.86746 90.58163
#
# Poissons Ratio (x) = 0.03194 0.50495
# Poissons Ratio (y) = 0.07723 -0.06214
# Poissons Ratio (z) = 0.41612 -0.02118
#
# Static dielectric constant tensor:
#      x y z
#    x 1.704990 0.000000 -0.064840 
#    y 0.000000 1.756230 0.000000 
#    z -0.064840 0.000000 1.680060 
# 
# From -- ./inp_files/28989.got.cif
#   From: 2010.05.17/outbox.cif.g08.bks.cpg/sg11_15_cif.got.tgz:28989.got - 2010.06.03 12:22:45.
