data_PCOD9167350
_publ_section_title
;
Structure prediction by ZEFSAII (Michael W. Deem and Ramdas Pophale) SiO2 
 PCOD9167350
Probable space group: P 21/M
;
_chemical_formula_sum "Si O2"
_cell_formula_units_Z 20
_cell_length_a 19.173221
_cell_length_b 10.161491
_cell_length_c 10.389189
_cell_angle_alpha 90.000000
_cell_angle_beta 152.259448
_cell_angle_gamma 90.000000
_cell_volume 942.159721
_symmetry_space_group_name_H-M "P 21/M"
_symmetry_group_IT_number 11
_symmetry_cell_setting 'monoclinic'
loop_
_space_group_symop_operation_xyz
x,y,z
-x,1/2+y,-z
-x,-y,-z
x,1/2-y,z
loop_
_atom_site_type_symbol
_atom_site_label
_atom_site_fract_x
_atom_site_fract_y
_atom_site_fract_z
Si Si1 0.615256 0.750000 0.334125
Si Si2 0.351532 0.397951 0.159934
Si Si3 0.118520 0.020671 0.580031
Si Si4 0.100110 0.250000 0.357019
Si Si5 0.822300 0.250000 0.736659
Si Si6 0.744338 0.250000 0.307652
Si Si7 0.671094 0.992920 0.611245
O O1 0.723643 0.750000 0.388064
O O2 0.663513 0.876419 0.496355
O O3 0.436845 0.750000 0.011978
O O4 0.398081 0.250000 0.268417
O O5 0.265540 0.451558 0.145539
O O6 0.498920 0.477798 0.365175
O O7 0.251230 0.404028 0.870482
O O8 0.064490 0.118672 0.380049
O O9 0.181930 0.881536 0.632511
O O10 0.000000 0.000000 0.500000
O O11 0.997340 0.250000 0.061361
O O12 0.784215 0.250000 0.523939
O O13 0.251000 0.620618 0.319549
#
# Coordination Sequence:
#
# PCOD9167350 Si02
#       7
#     2   4   4   2   2   2   4
#     4  12  26  46  73 108 144 188 246 288 353 447
#     4  11  22  41  72 107 137 183 236 289 358 418
#     4  12  26  47  73 105 145 184 239 297 361 424
#     4  12  29  47  72 103 142 198 246 286 361 434
#     4  12  28  49  68 101 147 194 239 297 357 420
#     4  12  29  46  75 108 147 190 237 297 361 421
#     4  11  24  43  73 102 145 183 236 296 354 427
#
# _framework density 21.227824999999999
#
# number of rings (size 3 to 8) (size 9 to 14) (size 15 to 20)
#    0.000    0.400    5.000    3.000    2.800    7.200 
#    0.000    0.000    0.000    0.000    0.000    0.000 
#    0.000    0.000    0.000    0.000    0.000    0.000 
#
# Total GULP energy -111811.845698 kJ/mol
# GULP energy per Si atom -5590.592285 kJ/mol
# Density = 2.117951 g / cm^3
# Si number density = 21.227825 Si / 1000 Ang^3
#
#
#
# Elastic Constant Matrix: (Units=GPa)
#
#
# Indices 1 2 3 4 5 6 
#
# 1 128.2156 59.8140 25.6890 0.0000 -5.9619 0.0000
# 2 59.8140 149.9654 19.2520 0.0000 -8.2809 0.0000
# 3 25.6890 19.2520 89.5787 0.0000 -15.7104 0.0000
# 4 0.0000 0.0000 0.0000 14.9066 0.0000 1.5585
# 5 -5.9619 -8.2809 -15.7104 0.0000 36.4425 0.0000
# 6 0.0000 0.0000 0.0000 1.5585 0.0000 -132.4490
#
#
#
# Elastic Compliance Matrix: (Units=1/GPa)
#
#
# Indices 1 2 3 4 5 6 
#
# 1 0.009937 -0.003703 -0.002073 0.000000 -0.000110 0.000000
# 2 -0.003703 0.008271 -0.000532 0.000000 0.001044 0.000000
# 3 -0.002073 -0.000532 0.012756 0.000000 0.005039 0.000000
# 4 0.000000 0.000000 0.000000 0.067002 0.000000 0.000788
# 5 -0.000110 0.001044 0.005039 0.000000 0.029832 0.000000
# 6 0.000000 0.000000 0.000000 0.000788 0.000000 -0.007541
#
#
# Mechanical properties :
#
#
# Convention : Reuss Voigt Hill
#
# Bulk Modulus (GPa) = 54.50555 64.14108 59.32332
# Shear Modulus (GPa) = 35.97343 1.31367 18.64355
#
# Velocity S-wave (km/s) = 4.12106 0.78752 2.96676
# Velocity P-wave (km/s) = 6.95532 5.57746 6.30414
#
# Compressibility (1/GPa) = 0.01834675
#
# Stress axis : x y z
#
# Youngs Moduli (GPa) = 100.63082 120.89951 78.39411
#
# Poissons Ratio (x) = 0.44774 0.16252
# Poissons Ratio (y) = 0.37268 0.04174
# Poissons Ratio (z) = 0.20861 0.06438
#
# Static dielectric constant tensor:
#      x y z
#    x 1.765300 0.000000 -0.012440 
#    y 0.000000 1.747990 0.000000 
#    z -0.012440 0.000000 1.810170 
# 
# From -- ./inp_files/24688.got.cif
#   From: 2010.05.17/outbox.cif.g08.bks.cpg/sg11_13_cif.got.tgz:24688.got - 2010.06.03 12:22:45.
