data_PCOD9167092
_publ_section_title
;
Structure prediction by ZEFSAII (Michael W. Deem and Ramdas Pophale) SiO2 
 PCOD9167092
Probable space group: P 21/M
;
_chemical_formula_sum "Si O2"
_cell_formula_units_Z 32
_cell_length_a 8.339058
_cell_length_b 14.508899
_cell_length_c 13.591349
_cell_angle_alpha 90.000000
_cell_angle_beta 118.300654
_cell_angle_gamma 90.000000
_cell_volume 1447.869892
_symmetry_space_group_name_H-M "P 21/M"
_symmetry_group_IT_number 11
_symmetry_cell_setting 'monoclinic'
loop_
_space_group_symop_operation_xyz
x,y,z
-x,1/2+y,-z
-x,-y,-z
x,1/2-y,z
loop_
_atom_site_type_symbol
_atom_site_label
_atom_site_fract_x
_atom_site_fract_y
_atom_site_fract_z
Si Si1 0.623799 0.051460 0.912729
Si Si2 0.236451 0.105036 0.284090
Si Si3 0.294851 0.354161 0.076765
Si Si4 0.186682 0.852706 0.848865
Si Si5 0.620731 0.147981 0.423102
Si Si6 0.272143 0.498748 0.707868
Si Si7 0.096074 0.582205 0.341431
Si Si8 0.903463 0.351315 0.869946
O O1 0.770583 0.068986 0.868375
O O2 0.627100 0.945552 0.952475
O O3 0.430195 0.063998 0.802984
O O4 0.709100 0.114902 0.022429
O O5 0.317431 0.121757 0.197857
O O6 0.408972 0.144355 0.394071
O O7 0.033744 0.145937 0.210966
O O8 0.192353 0.008934 0.324810
O O9 0.358776 0.250000 0.074121
O O10 0.082855 0.355016 0.987884
O O11 0.242376 0.750000 0.841447
O O12 0.235733 0.922830 0.777987
O O13 0.651194 0.250000 0.385410
O O14 0.665857 0.057224 0.369440
O O15 0.758266 0.137993 0.553786
O O16 0.081219 0.444629 0.645928
O O17 0.037765 0.634739 0.225293
O O18 0.817371 0.250000 0.856656
#
# Coordination Sequence:
#
# PCOD9167092 Si02
#       8
#     4   4   4   4   4   4   4   4
#     4  12  22  39  62  96 131 172 205 258 321 383
#     4  11  21  39  67  96 125 159 210 268 324 371
#     4  11  20  34  62  95 126 162 207 259 318 379
#     4  11  23  40  62  97 136 170 210 261 321 385
#     4  12  24  43  67  91 121 165 223 275 318 372
#     4  11  25  41  62  89 127 176 219 259 313 377
#     4  11  24  44  64  91 128 171 215 263 320 381
#     4  11  22  39  65  95 129 168 210 262 323 384
#
# _framework density 22.101431999999999
#
# number of rings (size 3 to 8) (size 9 to 14) (size 15 to 20)
#    0.000    0.750    3.750    5.250    0.000    0.500 
#    0.000    3.750    0.000    0.000    0.000    0.000 
#    0.000    0.000    0.000    0.000    0.000    0.000 
#
# Total GULP energy -178512.305726 kJ/mol
# GULP energy per Si atom -5578.509554 kJ/mol
# Density = 2.205113 g / cm^3
# Si number density = 22.101432 Si / 1000 Ang^3
#
#
#
# Elastic Constant Matrix: (Units=GPa)
#
#
# Indices 1 2 3 4 5 6 
#
# 1 79.0155 19.2027 32.2303 0.0000 27.9410 0.0000
# 2 19.2027 79.7242 21.3353 0.0000 28.8477 0.0000
# 3 32.2303 21.3353 70.5143 0.0000 29.3467 0.0000
# 4 0.0000 0.0000 0.0000 13.3185 0.0000 -7.3988
# 5 27.9410 28.8477 29.3467 0.0000 34.6760 0.0000
# 6 0.0000 0.0000 0.0000 -7.3988 0.0000 -8.5486
#
#
#
# Elastic Compliance Matrix: (Units=1/GPa)
#
#
# Indices 1 2 3 4 5 6 
#
# 1 0.018291 0.001141 -0.003360 0.000000 -0.012844 0.000000
# 2 0.001141 0.018083 0.001004 0.000000 -0.016813 0.000000
# 3 -0.003360 0.001004 0.022592 0.000000 -0.017247 0.000000
# 4 0.000000 0.000000 0.000000 0.050704 0.000000 -0.043885
# 5 -0.012844 -0.016813 -0.017247 0.000000 0.067772 0.000000
# 6 0.000000 0.000000 0.000000 -0.043885 0.000000 -0.078996
#
#
# Mechanical properties :
#
#
# Convention : Reuss Voigt Hill
#
# Bulk Modulus (GPa) = 17.68776 41.64338 29.66557
# Shear Modulus (GPa) = 41.76406 18.32158 30.04282
#
# Velocity S-wave (km/s) = 4.35173 2.88232 3.69089
# Velocity P-wave (km/s) = 5.76805 5.47356 5.62274
#
# Compressibility (1/GPa) = 0.05653628
#
# Stress axis : x y z
#
# Youngs Moduli (GPa) = 54.67247 55.29921 44.26436
#
# Poissons Ratio (x) = -0.06310 0.14874
# Poissons Ratio (y) = -0.06238 -0.04446
# Poissons Ratio (z) = 0.18371 -0.05554
#
# Static dielectric constant tensor:
#      x y z
#    x 1.872450 0.000000 -0.004550 
#    y 0.000000 2.070990 0.000000 
#    z -0.004550 0.000000 1.799010 
# 
# From -- ./inp_files/47656.got.cif
#   From: 2010.05.17/outbox.cif.g08.bks.cpg/sg11_24_cif.got.tgz:47656.got - 2010.06.03 12:22:45.
