data_PCOD9167775
_publ_section_title
;
Structure prediction by ZEFSAII (Michael W. Deem and Ramdas Pophale) SiO2 
 PCOD9167775
Probable space group: P 21/M
;
_chemical_formula_sum "Si O2"
_cell_formula_units_Z 32
_cell_length_a 21.000000
_cell_length_b 9.000000
_cell_length_c 27.000000
_cell_angle_alpha 90.000000
_cell_angle_beta 160.000000
_cell_angle_gamma 90.000000
_cell_volume 1745.328791
_symmetry_space_group_name_H-M "P 21/M"
_symmetry_group_IT_number 11
_symmetry_cell_setting 'monoclinic'
loop_
_space_group_symop_operation_xyz
x,y,z
-x,1/2+y,-z
-x,-y,-z
x,1/2-y,z
loop_
_atom_site_type_symbol
_atom_site_label
_atom_site_fract_x
_atom_site_fract_y
_atom_site_fract_z
Si Si1 0.130265 0.576185 0.055388
Si Si2 0.326503 0.082108 0.597898
Si Si3 0.695091 0.421591 0.266957
Si Si4 0.602377 0.420626 0.894693
Si Si5 0.492856 0.418009 0.349878
Si Si6 0.055167 0.426835 0.895551
Si Si7 0.645566 0.424171 0.570730
Si Si8 0.033092 0.078862 0.459718
O O1 0.097210 0.750000 0.028297
O O2 0.336047 0.537367 0.223458
O O3 0.096451 0.502372 0.977990
O O4 0.000000 0.500000 0.000000
O O5 0.354240 0.250000 0.598436
O O6 0.472954 0.064555 0.750596
O O7 0.122235 0.073073 0.471417
O O8 0.355894 0.952219 0.580893
O O9 0.640339 0.250000 0.231941
O O10 0.525431 0.528673 0.153550
O O11 0.849778 0.463862 0.421642
O O12 0.814461 0.445336 0.304821
O O13 0.658207 0.250000 0.938436
O O14 0.779732 0.523778 0.019286
O O15 0.418289 0.250000 0.291221
O O16 0.576852 0.440018 0.464848
O O17 0.055063 0.250000 0.901094
O O18 0.854336 0.479894 0.730543
O O19 0.500000 0.500000 0.500000
O O20 0.647544 0.250000 0.584226
O O21 0.069628 0.250000 0.504596
#
# Coordination Sequence:
#
# PCOD9167775 Si02
#       8
#     4   4   4   4   4   4   4   4
#     4  12  24  38  56  81 108 136 172 215 262 317
#     4   9  17  30  48  73 106 140 176 217 261 309
#     4   9  15  24  41  66  98 139 178 213 259 311
#     4  10  19  31  48  74 108 140 174 218 264 314
#     4  11  22  37  56  80 108 139 175 217 265 318
#     4  11  22  38  58  80 105 138 178 220 267 318
#     4  10  24  42  59  80 105 135 175 221 267 319
#     4   8  15  26  40  63 100 139 176 216 259 307
#
# _framework density 18.334654
#
# number of rings (size 3 to 8) (size 9 to 14) (size 15 to 20)
#    0.000    2.000    1.250    4.125    0.000    6.500 
#    0.000    0.000    0.000    0.000    0.000    0.875 
#    0.000    0.000    0.000    0.000    0.000    0.000 
#
# Total GULP energy -178284.153754 kJ/mol
# GULP energy per Si atom -5571.379805 kJ/mol
# Density = 1.829292 g / cm^3
# Si number density = 18.334654 Si / 1000 Ang^3
#
#
#
# Elastic Constant Matrix: (Units=GPa)
#
#
# Indices 1 2 3 4 5 6 
#
# 1 55.0663 35.1593 35.6658 0.0000 31.2523 0.0000
# 2 35.1593 60.9554 40.9026 0.0000 4.8266 0.0000
# 3 35.6658 40.9026 55.7378 0.0000 25.7695 0.0000
# 4 0.0000 0.0000 0.0000 40.8858 0.0000 -15.9979
# 5 31.2523 4.8266 25.7695 0.0000 12.6788 0.0000
# 6 0.0000 0.0000 0.0000 -15.9979 0.0000 49.6840
#
#
#
# Elastic Compliance Matrix: (Units=1/GPa)
#
#
# Indices 1 2 3 4 5 6 
#
# 1 0.010801 0.013280 -0.033330 0.000000 0.036063 0.000000
# 2 0.013280 0.011950 -0.000494 0.000000 -0.036279 0.000000
# 3 -0.033330 -0.000494 0.025875 0.000000 0.029754 0.000000
# 4 0.000000 0.000000 0.000000 0.027984 0.000000 0.009011
# 5 0.036063 -0.036279 0.029754 0.000000 -0.056685 0.000000
# 6 0.000000 0.000000 0.000000 0.009011 0.000000 0.023029
#
#
# Mechanical properties :
#
#
# Convention : Reuss Voigt Hill
#
# Bulk Modulus (GPa) = 132.67480 43.91278 88.29379
# Shear Modulus (GPa) = 57.76796 24.65183 41.20990
#
# Velocity S-wave (km/s) = 5.61925 3.67079 4.74608
# Velocity P-wave (km/s) = 10.70613 6.47834 8.84845
#
# Compressibility (1/GPa) = 0.00753723
#
# Stress axis : x y z
#
# Youngs Moduli (GPa) = 92.58542 83.68396 38.64793
#
# Poissons Ratio (x) = -1.11128 1.28812
# Poissons Ratio (y) = -1.22949 0.01908
# Poissons Ratio (z) = 3.08585 0.04132
#
# Static dielectric constant tensor:
#      x y z
#    x 1.693920 0.000000 0.070480 
#    y 0.000000 1.644350 0.000000 
#    z 0.070480 0.000000 1.634590 
# 
# From -- ./inp_files/72167.got.cif
#   From: 2010.05.17/outbox.ucp.g08.bks.cvg/sg11_37_cif.got.tgz:72167.got - 2010.06.11 11:38:39.
