data_PCOD9167391
_publ_section_title
;
Structure prediction by ZEFSAII (Michael W. Deem and Ramdas Pophale) SiO2 
 PCOD9167391
Probable space group: P 21/M
;
_chemical_formula_sum "Si O2"
_cell_formula_units_Z 28
_cell_length_a 14.890366
_cell_length_b 18.913150
_cell_length_c 8.825731
_cell_angle_alpha 90.000000
_cell_angle_beta 144.951366
_cell_angle_gamma 90.000000
_cell_volume 1427.372166
_symmetry_space_group_name_H-M "P 21/M"
_symmetry_group_IT_number 11
_symmetry_cell_setting 'monoclinic'
loop_
_space_group_symop_operation_xyz
x,y,z
-x,1/2+y,-z
-x,-y,-z
x,1/2-y,z
loop_
_atom_site_type_symbol
_atom_site_label
_atom_site_fract_x
_atom_site_fract_y
_atom_site_fract_z
Si Si1 0.522668 0.083616 0.498985
Si Si2 0.754604 0.666859 0.723027
Si Si3 0.713170 0.060729 0.245152
Si Si4 0.012224 0.452712 0.863717
Si Si5 0.579076 0.904914 0.985813
Si Si6 0.157552 0.578700 0.904227
Si Si7 0.152929 0.330404 0.493565
O O1 0.399817 0.128911 0.426688
O O2 0.487151 0.095832 0.274362
O O3 0.500000 0.000000 0.500000
O O4 0.699498 0.101521 0.791300
O O5 0.761175 0.750000 0.772148
O O6 0.763700 0.660864 0.553821
O O7 0.901531 0.620906 0.985119
O O8 0.843153 0.056782 0.555501
O O9 0.565330 0.105054 0.098902
O O10 0.788649 0.087036 0.193977
O O11 0.651035 0.981897 0.123320
O O12 0.117128 0.497586 0.890373
O O13 0.000000 0.500000 0.000000
O O14 0.719689 0.851063 0.205751
O O15 0.997774 0.620176 0.709900
O O16 0.101867 0.250000 0.439446
#
# Coordination Sequence:
#
# PCOD9167391 Si02
#       7
#     4   4   4   4   4   4   4
#     4  12  24  40  69 104 131 174 228 279 330 403
#     4  11  25  44  66  96 138 178 217 276 351 407
#     4  11  23  37  67  98 131 170 220 284 325 392
#     4  12  21  38  67 101 132 171 227 278 331 396
#     4  11  23  42  65  99 133 169 225 277 336 395
#     4  12  23  40  67 100 131 172 229 276 333 394
#     4  11  26  46  66  93 135 180 220 276 346 404
#
# _framework density 19.616467
#
# number of rings (size 3 to 8) (size 9 to 14) (size 15 to 20)
#    0.000    0.571    5.714    2.143    4.000    1.143 
#    0.000    1.429    0.000    0.000    0.000    0.000 
#    0.000    0.000    0.000    0.000    0.000    0.000 
#
# Total GULP energy -156608.845294 kJ/mol
# GULP energy per Si atom -5593.173046 kJ/mol
# Density = 1.957182 g / cm^3
# Si number density = 19.616467 Si / 1000 Ang^3
#
#
#
# Elastic Constant Matrix: (Units=GPa)
#
#
# Indices 1 2 3 4 5 6 
#
# 1 88.5078 43.7253 35.7020 0.0000 6.4144 0.0000
# 2 43.7253 94.5215 37.9576 0.0000 1.7637 0.0000
# 3 35.7020 37.9576 159.0199 0.0000 -0.5290 0.0000
# 4 0.0000 0.0000 0.0000 23.5573 0.0000 -0.6365
# 5 6.4144 1.7637 -0.5290 0.0000 32.6126 0.0000
# 6 0.0000 0.0000 0.0000 -0.6365 0.0000 22.8575
#
#
#
# Elastic Compliance Matrix: (Units=1/GPa)
#
#
# Indices 1 2 3 4 5 6 
#
# 1 0.015391 -0.006280 -0.001966 0.000000 -0.002719 0.000000
# 2 -0.006280 0.014278 -0.001997 0.000000 0.000431 0.000000
# 3 -0.001966 -0.001997 0.007209 0.000000 0.000611 0.000000
# 4 0.000000 0.000000 0.000000 0.042482 0.000000 0.001183
# 5 -0.002719 0.000431 0.000611 0.000000 0.031184 0.000000
# 6 0.000000 0.000000 0.000000 0.001183 0.000000 0.043782
#
#
# Mechanical properties :
#
#
# Convention : Reuss Voigt Hill
#
# Bulk Modulus (GPa) = 61.00000 64.09103 62.54552
# Shear Modulus (GPa) = 27.73544 30.78308 29.25926
#
# Velocity S-wave (km/s) = 3.76425 3.96567 3.86627
# Velocity P-wave (km/s) = 7.07507 7.32883 7.20306
#
# Compressibility (1/GPa) = 0.01639344
#
# Stress axis : x y z
#
# Youngs Moduli (GPa) = 64.97438 70.03571 138.72508
#
# Poissons Ratio (x) = 0.43980 0.27267
# Poissons Ratio (y) = 0.40802 0.27702
# Poissons Ratio (z) = 0.12771 0.13986
#
# Static dielectric constant tensor:
#      x y z
#    x 1.700030 0.000000 -0.001600 
#    y 0.000000 1.689920 0.000000 
#    z -0.001600 0.000000 1.678060 
# 
# From -- ./inp_files/23225.got.cif
#   From: 2010.05.17/outbox.cif.g08.bks.cpg/sg11_12_cif.got.tgz:23225.got - 2010.06.03 12:22:45.
