data_PCOD9167658
_publ_section_title
;
Structure prediction by ZEFSAII (Michael W. Deem and Ramdas Pophale) SiO2 
 PCOD9167658
Probable space group: P 21/M
;
_chemical_formula_sum "Si O2"
_cell_formula_units_Z 32
_cell_length_a 17.052263
_cell_length_b 7.470916
_cell_length_c 15.434062
_cell_angle_alpha 90.000000
_cell_angle_beta 128.209267
_cell_angle_gamma 90.000000
_cell_volume 1544.985111
_symmetry_space_group_name_H-M "P 21/M"
_symmetry_group_IT_number 11
_symmetry_cell_setting 'monoclinic'
loop_
_space_group_symop_operation_xyz
x,y,z
-x,1/2+y,-z
-x,-y,-z
x,1/2-y,z
loop_
_atom_site_type_symbol
_atom_site_label
_atom_site_fract_x
_atom_site_fract_y
_atom_site_fract_z
Si Si1 0.255806 0.038311 0.879121
Si Si2 0.884501 0.461880 0.945151
Si Si3 0.566431 0.531662 0.662817
Si Si4 0.932362 0.955353 0.165540
Si Si5 0.577521 0.460811 0.131239
Si Si6 0.848074 0.470864 0.732782
Si Si7 0.352738 0.546443 0.469492
Si Si8 0.406693 0.469115 0.129977
O O1 0.247613 0.250000 0.889193
O O2 0.144700 0.964787 0.817794
O O3 0.315027 0.021274 0.829537
O O4 0.328162 0.966700 0.004649
O O5 0.869207 0.250000 0.943058
O O6 0.830100 0.527557 0.820819
O O7 0.873499 0.542634 0.032912
O O8 0.000000 0.500000 0.000000
O O9 0.567945 0.750000 0.656458
O O10 0.450066 0.471903 0.583353
O O11 0.615027 0.455036 0.609750
O O12 0.615005 0.477767 0.786750
O O13 0.952411 0.750000 0.203367
O O14 0.042337 0.032785 0.222942
O O15 0.586077 0.250000 0.147016
O O16 0.517082 0.528070 0.173525
O O17 0.500000 0.500000 0.000000
O O18 0.848280 0.250000 0.735177
O O19 0.758072 0.532188 0.610031
O O20 0.342608 0.750000 0.493973
O O21 0.406282 0.250000 0.128168
#
# Coordination Sequence:
#
# PCOD9167658 Si02
#       8
#     4   4   4   4   4   4   4   4
#     4   9  17  28  42  61  86 110 135 167 204 245
#     4   9  16  26  38  53  77 106 138 172 201 235
#     4   9  17  29  44  61  80 105 138 172 205 244
#     4   9  17  28  41  58  81 110 139 168 202 243
#     4   9  16  28  44  61  84 109 135 167 204 246
#     4   8  15  27  40  55  79 108 136 168 205 238
#     4   9  17  29  43  59  82 108 136 173 209 237
#     4   8  15  27  42  60  81 105 133 165 201 243
#
# _framework density 20.712171999999999
#
# number of rings (size 3 to 8) (size 9 to 14) (size 15 to 20)
#    0.000    3.250    0.000    2.250    1.750    0.500 
#    0.000    5.625    0.000    0.000    0.000    0.875 
#    0.000    0.000    0.000    0.000    0.000    0.000 
#
# Total GULP energy -178179.347277 kJ/mol
# GULP energy per Si atom -5568.104602 kJ/mol
# Density = 2.066503 g / cm^3
# Si number density = 20.712172 Si / 1000 Ang^3
#
#
#
# Elastic Constant Matrix: (Units=GPa)
#
#
# Indices 1 2 3 4 5 6 
#
# 1 99.5526 -0.9591 -4.3686 0.0000 17.2187 0.0000
# 2 -0.9591 63.7177 -1.0079 0.0000 2.7298 0.0000
# 3 -4.3686 -1.0079 28.7614 0.0000 15.2469 0.0000
# 4 0.0000 0.0000 0.0000 4.5400 0.0000 -1.0756
# 5 17.2187 2.7298 15.2469 0.0000 30.8164 0.0000
# 6 0.0000 0.0000 0.0000 -1.0756 0.0000 14.0261
#
#
#
# Elastic Compliance Matrix: (Units=1/GPa)
#
#
# Indices 1 2 3 4 5 6 
#
# 1 0.012216 0.000757 0.007504 0.000000 -0.010606 0.000000
# 2 0.000757 0.015866 0.002223 0.000000 -0.002928 0.000000
# 3 0.007504 0.002223 0.051936 0.000000 -0.030086 0.000000
# 4 0.000000 0.000000 0.000000 0.224341 0.000000 0.017204
# 5 -0.010606 -0.002928 -0.030086 0.000000 0.053521 0.000000
# 6 0.000000 0.000000 0.000000 0.017204 0.000000 0.072615
#
#
# Mechanical properties :
#
#
# Convention : Reuss Voigt Hill
#
# Bulk Modulus (GPa) = 9.90225 19.92893 14.91559
# Shear Modulus (GPa) = 11.28189 23.10096 17.19143
#
# Velocity S-wave (km/s) = 2.33641 3.34328 2.88412
# Velocity P-wave (km/s) = 3.47414 4.95440 4.27877
#
# Compressibility (1/GPa) = 0.10098715
#
# Stress axis : x y z
#
# Youngs Moduli (GPa) = 81.86061 63.02688 19.25453
#
# Poissons Ratio (x) = -0.04771 -0.14449
# Poissons Ratio (y) = -0.06196 -0.04281
# Poissons Ratio (z) = -0.61430 -0.14014
#
# Static dielectric constant tensor:
#      x y z
#    x 1.796900 0.000000 0.040910 
#    y 0.000000 1.786590 0.000000 
#    z 0.040910 0.000000 1.747790 
# 
# From -- ./inp_files/60701.got.cif
#   From: 2010.05.17/outbox.cif.g08.bks.cpg/sg11_31_cif.got.tgz:60701.got - 2010.06.03 12:22:45.
