data_PCOD9167602
_publ_section_title
;
Structure prediction by ZEFSAII (Michael W. Deem and Ramdas Pophale) SiO2 
 PCOD9167602
Probable space group: P 21/M
;
_chemical_formula_sum "Si O2"
_cell_formula_units_Z 18
_cell_length_a 5.163825
_cell_length_b 24.019159
_cell_length_c 5.831257
_cell_angle_alpha 90.000000
_cell_angle_beta 90.486279
_cell_angle_gamma 90.000000
_cell_volume 723.229036
_symmetry_space_group_name_H-M "P 21/M"
_symmetry_group_IT_number 11
_symmetry_cell_setting 'monoclinic'
loop_
_space_group_symop_operation_xyz
x,y,z
-x,1/2+y,-z
-x,-y,-z
x,1/2-y,z
loop_
_atom_site_type_symbol
_atom_site_label
_atom_site_fract_x
_atom_site_fract_y
_atom_site_fract_z
Si Si1 0.000000 0.500000 0.000000
Si Si2 0.759209 0.144285 0.302721
Si Si3 0.560551 0.954050 0.688574
Si Si4 0.263233 0.313453 0.047487
Si Si5 0.090869 0.395348 0.672379
O O1 0.999254 0.548260 0.207096
O O2 0.271334 0.474295 0.100893
O O3 0.700428 0.078660 0.235824
O O4 0.505108 0.176225 0.217593
O O5 0.995368 0.172414 0.173124
O O6 0.846128 0.138881 0.567658
O O7 0.739215 0.911731 0.546510
O O8 0.500000 0.000000 0.500000
O O9 0.265465 0.250000 0.967784
O O10 0.259521 0.356915 0.839429
#
# Coordination Sequence:
#
# PCOD9167602 Si02
#       5
#     2   4   4   4   4
#     4  12  24  44  74 114 158 200 246 308 386 468
#     4  12  26  52  78 112 155 200 259 320 387 458
#     4  12  27  45  77 116 161 204 248 313 389 472
#     4  12  30  53  79 110 152 206 266 327 387 455
#     4  12  27  47  78 119 156 204 259 317 391 464
#
# _framework density 24.888382
#
# number of rings (size 3 to 8) (size 9 to 14) (size 15 to 20)
#    0.000    0.000    6.667    1.333    6.222    4.444 
#    0.000    0.000    0.000    0.000    0.000    0.000 
#    0.000    0.000    0.000    0.000    0.000    0.000 
#
# Total GULP energy -100450.343474 kJ/mol
# GULP energy per Si atom -5580.574637 kJ/mol
# Density = 2.483173 g / cm^3
# Si number density = 24.888382 Si / 1000 Ang^3
#
#
#
# Elastic Constant Matrix: (Units=GPa)
#
#
# Indices 1 2 3 4 5 6 
#
# 1 154.7918 20.7721 41.4365 0.0000 17.2566 0.0000
# 2 20.7721 94.6031 12.4446 0.0000 9.6301 0.0000
# 3 41.4365 12.4446 67.2178 0.0000 21.7009 0.0000
# 4 0.0000 0.0000 0.0000 31.7303 0.0000 8.1861
# 5 17.2566 9.6301 21.7009 0.0000 46.3413 0.0000
# 6 0.0000 0.0000 0.0000 8.1861 0.0000 35.8642
#
#
#
# Elastic Compliance Matrix: (Units=1/GPa)
#
#
# Indices 1 2 3 4 5 6 
#
# 1 0.007865 -0.001079 -0.004448 0.000000 -0.000622 0.000000
# 2 -0.001079 0.011077 -0.000910 0.000000 -0.001474 0.000000
# 3 -0.004448 -0.000910 0.020254 0.000000 -0.007639 0.000000
# 4 0.000000 0.000000 0.000000 0.033488 0.000000 -0.007644
# 5 -0.000622 -0.001474 -0.007639 0.000000 0.025694 0.000000
# 6 0.000000 0.000000 0.000000 -0.007644 0.000000 0.029628
#
#
# Mechanical properties :
#
#
# Convention : Reuss Voigt Hill
#
# Bulk Modulus (GPa) = 37.99005 51.76881 44.87943
# Shear Modulus (GPa) = 33.41075 38.91780 36.16428
#
# Velocity S-wave (km/s) = 3.66788 3.95865 3.81604
# Velocity P-wave (km/s) = 5.76499 6.46065 6.12271
#
# Compressibility (1/GPa) = 0.02632268
#
# Stress axis : x y z
#
# Youngs Moduli (GPa) = 127.14503 90.27665 49.37369
#
# Poissons Ratio (x) = 0.09737 0.21962
# Poissons Ratio (y) = 0.13713 0.04493
# Poissons Ratio (z) = 0.56554 0.08215
#
# Static dielectric constant tensor:
#      x y z
#    x 2.679880 0.000000 -0.538020 
#    y 0.000000 1.222250 0.000000 
#    z -0.538020 0.000000 2.342520 
# 
# From -- ./inp_files/670.got.cif
#   From: 2010.05.17/outbox.cif.g08.bks.cpg/sg11_1_cif.got.tgz:670.got - 2010.06.03 12:22:45.
