data_PCOD9167081
_publ_section_title
;
Structure prediction by ZEFSAII (Michael W. Deem and Ramdas Pophale) SiO2 
 PCOD9167081
Probable space group: P 21/M
;
_chemical_formula_sum "Si O2"
_cell_formula_units_Z 32
_cell_length_a 26.312311
_cell_length_b 8.303929
_cell_length_c 19.585099
_cell_angle_alpha 90.000000
_cell_angle_beta 153.569076
_cell_angle_gamma 90.000000
_cell_volume 1904.776782
_symmetry_space_group_name_H-M "P 21/M"
_symmetry_group_IT_number 11
_symmetry_cell_setting 'monoclinic'
loop_
_space_group_symop_operation_xyz
x,y,z
-x,1/2+y,-z
-x,-y,-z
x,1/2-y,z
loop_
_atom_site_type_symbol
_atom_site_label
_atom_site_fract_x
_atom_site_fract_y
_atom_site_fract_z
Si Si1 0.488527 0.057118 0.909575
Si Si2 0.290629 0.940995 0.089084
Si Si3 0.882717 0.940291 0.733532
Si Si4 0.488936 0.944213 0.564854
Si Si5 0.590809 0.445699 0.898178
Si Si6 0.133461 0.435820 0.015762
Si Si7 0.342465 0.445133 0.613567
Si Si8 0.769942 0.438563 0.729149
O O1 0.490112 0.250000 0.913135
O O2 0.373313 0.009512 0.729089
O O3 0.587129 0.005675 0.973641
O O4 0.500000 0.000000 0.000000
O O5 0.269138 0.750000 0.061728
O O6 0.538657 0.992232 0.280785
O O7 0.409295 0.974779 0.271024
O O8 0.314773 0.002888 0.041183
O O9 0.897175 0.750000 0.738264
O O10 0.773570 0.003973 0.559306
O O11 0.850149 0.966991 0.773372
O O12 0.999578 0.027000 0.855499
O O13 0.499580 0.750000 0.581280
O O14 0.361874 0.990021 0.436458
O O15 0.500000 0.000000 0.500000
O O16 0.595419 0.250000 0.902080
O O17 0.808143 0.521961 0.985727
O O18 0.154749 0.250000 0.057141
O O19 0.191738 0.536038 0.146846
O O20 0.337068 0.250000 0.604085
O O21 0.778380 0.250000 0.722647
#
# Coordination Sequence:
#
# PCOD9167081 Si02
#       8
#     4   4   4   4   4   4   4   4
#     4   8  14  28  48  77 109 134 156 183 228 287
#     4  11  20  34  53  72  95 127 169 210 249 298
#     4  11  21  36  56  73  93 128 172 215 254 295
#     4  11  22  34  51  72  98 128 163 207 254 303
#     4   7  14  28  49  74 101 128 155 190 235 289
#     4  12  25  38  50  67  96 132 170 215 260 302
#     4   7  14  29  50  75 101 129 159 191 237 292
#     4  11  23  38  53  72  96 127 168 214 259 305
#
# _framework density 16.799869000000001
#
# number of rings (size 3 to 8) (size 9 to 14) (size 15 to 20)
#    0.750    1.500    1.250    3.750    0.000    2.500 
#    0.000    2.500    0.000    0.000    0.000    0.875 
#    0.000    0.000    0.000    0.000    0.000    0.000 
#
# Total GULP energy -178184.904914 kJ/mol
# GULP energy per Si atom -5568.278279 kJ/mol
# Density = 1.676163 g / cm^3
# Si number density = 16.799869 Si / 1000 Ang^3
#
#
#
# Elastic Constant Matrix: (Units=GPa)
#
#
# Indices 1 2 3 4 5 6 
#
# 1 117.4996 -1.5130 35.2836 0.0000 1.6591 0.0000
# 2 -1.5130 15.3819 -0.1002 0.0000 4.6223 0.0000
# 3 35.2836 -0.1002 30.4945 0.0000 8.4858 0.0000
# 4 0.0000 0.0000 0.0000 20.5069 0.0000 1.1412
# 5 1.6591 4.6223 8.4858 0.0000 28.9460 0.0000
# 6 0.0000 0.0000 0.0000 1.1412 0.0000 23.2893
#
#
#
# Elastic Compliance Matrix: (Units=1/GPa)
#
#
# Indices 1 2 3 4 5 6 
#
# 1 0.013482 -0.000028 -0.016753 0.000000 0.004143 0.000000
# 2 -0.000028 0.068643 0.003601 0.000000 -0.012016 0.000000
# 3 -0.016753 0.003601 0.056707 0.000000 -0.016239 0.000000
# 4 0.000000 0.000000 0.000000 0.048897 0.000000 -0.002396
# 5 0.004143 -0.012016 -0.016239 0.000000 0.040989 0.000000
# 6 0.000000 0.000000 0.000000 -0.002396 0.000000 0.043056
#
#
# Mechanical properties :
#
#
# Convention : Reuss Voigt Hill
#
# Bulk Modulus (GPa) = 8.89091 25.63519 17.26305
# Shear Modulus (GPa) = 14.89759 23.19546 19.04652
#
# Velocity S-wave (km/s) = 2.98110 3.71980 3.37074
# Velocity P-wave (km/s) = 4.14162 5.80874 5.04453
#
# Compressibility (1/GPa) = 0.11247439
#
# Stress axis : x y z
#
# Youngs Moduli (GPa) = 74.17052 14.56812 17.63442
#
# Poissons Ratio (x) = 0.00041 0.29543
# Poissons Ratio (y) = 0.00207 -0.06351
# Poissons Ratio (z) = 1.24256 -0.05247
#
# Static dielectric constant tensor:
#      x y z
#    x 1.602510 0.000000 -0.005820 
#    y 0.000000 1.575950 0.000000 
#    z -0.005820 0.000000 1.564240 
# 
# From -- ./inp_files/61816.got.cif
#   From: 2010.05.17/outbox.cif.g08.bks.cpg/sg11_31_cif.got.tgz:61816.got - 2010.06.03 12:22:45.
