data_PCOD9167726
_publ_section_title
;
Structure prediction by ZEFSAII (Michael W. Deem and Ramdas Pophale) SiO2 
 PCOD9167726
Probable space group: P 21/M
;
_chemical_formula_sum "Si O2"
_cell_formula_units_Z 28
_cell_length_a 15.000000
_cell_length_b 9.000000
_cell_length_c 18.000000
_cell_angle_alpha 90.000000
_cell_angle_beta 40.000000
_cell_angle_gamma 90.000000
_cell_volume 1561.973892
_symmetry_space_group_name_H-M "P 21/M"
_symmetry_group_IT_number 11
_symmetry_cell_setting 'monoclinic'
loop_
_space_group_symop_operation_xyz
x,y,z
-x,1/2+y,-z
-x,-y,-z
x,1/2-y,z
loop_
_atom_site_type_symbol
_atom_site_label
_atom_site_fract_x
_atom_site_fract_y
_atom_site_fract_z
Si Si1 0.342804 0.424448 0.398995
Si Si2 0.484622 0.924766 0.854814
Si Si3 0.366464 0.929968 0.544460
Si Si4 0.237296 0.427590 0.242287
Si Si5 0.206662 0.426363 0.084648
Si Si6 0.066861 0.569138 0.566316
Si Si7 0.922326 0.570222 0.274298
O O1 0.083535 0.250000 0.719350
O O2 0.466595 0.431942 0.261457
O O3 0.372854 0.516108 0.454390
O O4 0.206320 0.494207 0.446828
O O5 0.462347 0.750000 0.888457
O O6 0.617967 0.983675 0.816595
O O7 0.345473 0.015013 0.957573
O O8 0.363770 0.750000 0.551202
O O9 0.220790 0.001553 0.666577
O O10 0.500000 0.000000 0.500000
O O11 0.239570 0.250000 0.255030
O O12 0.232342 0.451301 0.156683
O O13 0.084395 0.478127 0.367447
O O14 0.185866 0.250000 0.087699
O O15 0.068341 0.514063 0.147546
O O16 0.075563 0.750000 0.561236
O O17 0.070664 0.504265 0.648025
O O18 0.316897 0.250000 0.433074
#
# Coordination Sequence:
#
# PCOD9167726 Si02
#       7
#     4   4   4   4   4   4   4
#     4  10  20  33  49  73 104 136 169 205 253 308
#     4  10  20  33  48  68 100 140 178 216 255 297
#     4  11  21  36  59  84 107 128 157 199 247 301
#     4   8  16  30  47  69  97 132 176 223 261 292
#     4  10  19  32  50  72 100 135 178 220 255 293
#     4   9  16  29  48  69  97 132 170 213 257 299
#     4  10  18  31  52  77 103 131 165 203 249 299
#
# _framework density 17.926036
#
# number of rings (size 3 to 8) (size 9 to 14) (size 15 to 20)
#    0.000    2.286    0.000    6.857    0.000    1.714 
#    0.000    3.571    0.000    0.857    0.000    0.000 
#    0.000    0.000    0.000    0.000    0.000    0.000 
#
# Total GULP energy -156061.891413 kJ/mol
# GULP energy per Si atom -5573.638979 kJ/mol
# Density = 1.788524 g / cm^3
# Si number density = 17.926036 Si / 1000 Ang^3
#
#
#
# Elastic Constant Matrix: (Units=GPa)
#
#
# Indices 1 2 3 4 5 6 
#
# 1 103.1711 39.6198 44.3919 0.0000 -34.6517 0.0000
# 2 39.6198 117.6224 46.9734 0.0000 -16.0589 0.0000
# 3 44.3919 46.9734 108.2138 0.0000 -37.3199 0.0000
# 4 0.0000 0.0000 0.0000 31.0280 0.0000 -10.7166
# 5 -34.6517 -16.0589 -37.3199 0.0000 30.0700 0.0000
# 6 0.0000 0.0000 0.0000 -10.7166 0.0000 22.7590
#
#
#
# Elastic Compliance Matrix: (Units=1/GPa)
#
#
# Indices 1 2 3 4 5 6 
#
# 1 0.016983 -0.003582 0.001185 0.000000 0.019128 0.000000
# 2 -0.003582 0.011040 -0.004743 0.000000 -0.004119 0.000000
# 3 0.001185 -0.004743 0.018202 0.000000 0.021423 0.000000
# 4 0.000000 0.000000 0.000000 0.038488 0.000000 0.018123
# 5 0.019128 -0.004119 0.021423 0.000000 0.079686 0.000000
# 6 0.000000 0.000000 0.000000 0.018123 0.000000 0.052472
#
#
# Mechanical properties :
#
#
# Convention : Reuss Voigt Hill
#
# Bulk Modulus (GPa) = 31.30496 65.66418 48.48457
# Shear Modulus (GPa) = 20.67811 29.97288 25.32549
#
# Velocity S-wave (km/s) = 3.40004 4.09348 3.76277
# Velocity P-wave (km/s) = 5.73716 7.68455 6.78112
#
# Compressibility (1/GPa) = 0.03194382
#
# Stress axis : x y z
#
# Youngs Moduli (GPa) = 58.88277 90.57684 54.93906
#
# Poissons Ratio (x) = 0.32446 -0.06509
# Poissons Ratio (y) = 0.21093 0.26060
# Poissons Ratio (z) = -0.06977 0.42964
#
# Static dielectric constant tensor:
#      x y z
#    x 1.628260 0.000000 -0.011180 
#    y 0.000000 1.598510 0.000000 
#    z -0.011180 0.000000 1.676200 
# 
# From -- ./inp_files/40377.got.cif
#   From: 2010.05.17/outbox.ucp.g08.bks.cvg/sg11_21_cif.got.tgz:40377.got - 2010.06.11 11:38:39.
