data_PCOD9167819
_publ_section_title
;
Structure prediction by ZEFSAII (Michael W. Deem and Ramdas Pophale) SiO2 
 PCOD9167819
Probable space group: P 21/M
;
_chemical_formula_sum "Si O2"
_cell_formula_units_Z 24
_cell_length_a 12.000000
_cell_length_b 9.000000
_cell_length_c 24.000000
_cell_angle_alpha 90.000000
_cell_angle_beta 150.000000
_cell_angle_gamma 90.000000
_cell_volume 1296.000000
_symmetry_space_group_name_H-M "P 21/M"
_symmetry_group_IT_number 11
_symmetry_cell_setting 'monoclinic'
loop_
_space_group_symop_operation_xyz
x,y,z
-x,1/2+y,-z
-x,-y,-z
x,1/2-y,z
loop_
_atom_site_type_symbol
_atom_site_label
_atom_site_fract_x
_atom_site_fract_y
_atom_site_fract_z
Si Si1 0.215996 0.072671 0.626253
Si Si2 0.672074 0.571037 0.532105
Si Si3 0.861918 0.070832 0.207021
Si Si4 0.932890 0.429162 0.106992
Si Si5 0.420038 0.926647 0.310471
Si Si6 0.532332 0.570653 0.149107
O O1 0.167622 0.250000 0.609536
O O2 0.428064 0.051167 0.677808
O O3 0.317505 0.022501 0.731190
O O4 0.000000 0.000000 0.500000
O O5 0.500000 0.500000 0.500000
O O6 0.664244 0.750000 0.530451
O O7 0.579249 0.524843 0.431207
O O8 0.916517 0.529799 0.661065
O O9 0.835994 0.250000 0.199055
O O10 0.881366 0.031902 0.149836
O O11 0.661221 0.989140 0.150839
O O12 0.948139 0.250000 0.111026
O O13 0.179274 0.495462 0.202430
O O14 0.729052 0.473494 0.976522
O O15 0.379782 0.750000 0.299837
O O16 0.532142 0.750000 0.151098
#
# Coordination Sequence:
#
# PCOD9167819 Si02
#       6
#     4   4   4   4   4   4
#     4  10  22  41  61  83 112 145 185 231 279 331
#     4  10  19  32  52  79 108 139 177 223 272 322
#     4  10  20  35  56  82 114 149 186 230 276 329
#     4  10  21  37  56  82 115 148 186 230 277 329
#     4  10  21  36  56  82 113 147 185 230 277 328
#     4  10  22  38  57  82 112 148 188 231 276 327
#
# _framework density 18.518519000000001
#
# number of rings (size 3 to 8) (size 9 to 14) (size 15 to 20)
#    0.000    2.000    1.667    1.500    0.000    5.333 
#    0.000    0.000    0.000    0.000    0.000    0.000 
#    0.000    0.000    0.000    0.000    0.000    0.000 
#
# Total GULP energy -133690.807519 kJ/mol
# GULP energy per Si atom -5570.450313 kJ/mol
# Density = 1.847637 g / cm^3
# Si number density = 18.518519 Si / 1000 Ang^3
#
#
#
# Elastic Constant Matrix: (Units=GPa)
#
#
# Indices 1 2 3 4 5 6 
#
# 1 71.2178 14.4588 36.9092 0.0000 -6.7434 0.0000
# 2 14.4588 9.3208 29.5739 0.0000 0.8032 0.0000
# 3 36.9092 29.5739 171.9902 0.0000 -0.2570 0.0000
# 4 0.0000 0.0000 0.0000 36.3577 0.0000 5.3054
# 5 -6.7434 0.8032 -0.2570 0.0000 34.0518 0.0000
# 6 0.0000 0.0000 0.0000 5.3054 0.0000 23.9950
#
#
#
# Elastic Compliance Matrix: (Units=1/GPa)
#
#
# Indices 1 2 3 4 5 6 
#
# 1 0.021872 -0.042963 0.002702 0.000000 0.005365 0.000000
# 2 -0.042963 0.321670 -0.046116 0.000000 -0.016444 0.000000
# 3 0.002702 -0.046116 0.013167 0.000000 0.001722 0.000000
# 4 0.000000 0.000000 0.000000 0.028421 0.000000 -0.006284
# 5 0.005365 -0.016444 0.001722 0.000000 0.030830 0.000000
# 6 0.000000 0.000000 0.000000 -0.006284 0.000000 0.043065
#
#
# Mechanical properties :
#
#
# Convention : Reuss Voigt Hill
#
# Bulk Modulus (GPa) = 5.43615 46.04585 25.74100
# Shear Modulus (GPa) = 7.21399 30.32004 18.76701
#
# Velocity S-wave (km/s) = 1.97586 4.05072 3.18688
# Velocity P-wave (km/s) = 2.85434 6.84080 5.24136
#
# Compressibility (1/GPa) = 0.18395364
#
# Stress axis : x y z
#
# Youngs Moduli (GPa) = 45.72130 3.10878 75.94900
#
# Poissons Ratio (x) = 0.13356 -0.20521
# Poissons Ratio (y) = 1.96433 3.50247
# Poissons Ratio (z) = -0.12353 0.14336
#
# Static dielectric constant tensor:
#      x y z
#    x 1.647190 0.000000 -0.023510 
#    y 0.000000 1.624880 0.000000 
#    z -0.023510 0.000000 1.674830 
# 
# From -- ./inp_files/33900.got.cif
#   From: 2010.05.17/outbox.ucp.g08.bks.cvg/sg11_17_cif.got.tgz:33900.got - 2010.06.11 11:38:39.
