data_PCOD9167922
_publ_section_title
;
Structure prediction by ZEFSAII (Michael W. Deem and Ramdas Pophale) SiO2 
 PCOD9167922
Probable space group: P 21/M
;
_chemical_formula_sum "Si O2"
_cell_formula_units_Z 28
_cell_length_a 21.000000
_cell_length_b 9.000000
_cell_length_c 12.000000
_cell_angle_alpha 90.000000
_cell_angle_beta 50.000000
_cell_angle_gamma 90.000000
_cell_volume 1737.388797
_symmetry_space_group_name_H-M "P 21/M"
_symmetry_group_IT_number 11
_symmetry_cell_setting 'monoclinic'
loop_
_space_group_symop_operation_xyz
x,y,z
-x,1/2+y,-z
-x,-y,-z
x,1/2-y,z
loop_
_atom_site_type_symbol
_atom_site_label
_atom_site_fract_x
_atom_site_fract_y
_atom_site_fract_z
Si Si1 0.937025 0.574670 0.658019
Si Si2 0.733963 0.070694 0.522805
Si Si3 0.880253 0.428803 0.194530
Si Si4 0.957742 0.071978 0.876035
Si Si5 0.764301 0.923301 0.724578
Si Si6 0.604955 0.418131 0.979697
Si Si7 0.553002 0.419862 0.776280
O O1 0.955807 0.750000 0.647595
O O2 0.940114 0.500618 0.776375
O O3 0.847097 0.557521 0.702712
O O4 0.000000 0.500000 0.500000
O O5 0.732426 0.250000 0.534003
O O6 0.794061 0.030984 0.352718
O O7 0.637196 0.023455 0.622853
O O8 0.767673 0.007497 0.602171
O O9 0.890922 0.250000 0.193909
O O10 0.954716 0.509933 0.176030
O O11 0.892102 0.463033 0.049785
O O12 0.961853 0.250000 0.859468
O O13 0.752023 0.750000 0.713664
O O14 0.686816 0.982854 0.882976
O O15 0.624596 0.250000 0.989808
O O16 0.575756 0.416082 0.882708
O O17 0.529680 0.482964 0.136755
O O18 0.536492 0.250000 0.760263
#
# Coordination Sequence:
#
# PCOD9167922 Si02
#       7
#     4   4   4   4   4   4   4
#     4  11  23  36  50  69  94 124 157 193 232 275
#     4   9  17  29  46  68  93 122 153 186 227 271
#     4   9  18  33  51  70  94 123 156 193 230 273
#     4  10  20  33  50  71  94 123 157 192 233 275
#     4  10  20  31  44  65  92 122 155 189 227 271
#     4   9  16  26  41  61  87 120 152 182 222 271
#     4   8  14  24  39  61  89 118 147 181 222 269
#
# _framework density 16.116139
#
# number of rings (size 3 to 8) (size 9 to 14) (size 15 to 20)
#    0.000    2.571    0.000    3.429    0.000    9.143 
#    0.000    0.000    0.000    0.000    0.000    1.000 
#    0.000    0.000    0.000    0.000    0.000    0.000 
#
# Total GULP energy -156006.189357 kJ/mol
# GULP energy per Si atom -5571.649620 kJ/mol
# Density = 1.607946 g / cm^3
# Si number density = 16.116139 Si / 1000 Ang^3
#
#
#
# Elastic Constant Matrix: (Units=GPa)
#
#
# Indices 1 2 3 4 5 6 
#
# 1 40.7319 41.6577 52.3605 0.0000 -1.2337 0.0000
# 2 41.6577 48.1383 53.8836 0.0000 -5.9942 0.0000
# 3 52.3605 53.8836 163.4082 0.0000 -12.7648 0.0000
# 4 0.0000 0.0000 0.0000 25.0417 0.0000 -1.4221
# 5 -1.2337 -5.9942 -12.7648 0.0000 24.4489 0.0000
# 6 0.0000 0.0000 0.0000 -1.4221 0.0000 21.9273
#
#
#
# Elastic Compliance Matrix: (Units=1/GPa)
#
#
# Indices 1 2 3 4 5 6 
#
# 1 0.279688 -0.227652 -0.018566 0.000000 -0.051395 0.000000
# 2 -0.227652 0.218373 0.004402 0.000000 0.044350 0.000000
# 3 -0.018566 0.004402 0.011080 0.000000 0.005927 0.000000
# 4 0.000000 0.000000 0.000000 0.040081 0.000000 0.002600
# 5 -0.051395 0.044350 0.005927 0.000000 0.052276 0.000000
# 6 0.000000 0.000000 0.000000 0.002600 0.000000 0.045774
#
#
# Mechanical properties :
#
#
# Convention : Reuss Voigt Hill
#
# Bulk Modulus (GPa) = 39.20308 60.89798 50.05053
# Shear Modulus (GPa) = 4.38824 21.24203 12.81513
#
# Velocity S-wave (km/s) = 1.65191 3.63445 2.82294
# Velocity P-wave (km/s) = 5.29307 7.44857 6.46134
#
# Compressibility (1/GPa) = 0.02550820
#
# Stress axis : x y z
#
# Youngs Moduli (GPa) = 3.57542 4.57932 90.25146
#
# Poissons Ratio (x) = 1.04249 1.67563
# Poissons Ratio (y) = 0.81395 -0.39732
# Poissons Ratio (z) = 0.06638 -0.02016
#
# Static dielectric constant tensor:
#      x y z
#    x 1.517190 0.000000 -0.025950 
#    y 0.000000 1.551720 0.000000 
#    z -0.025950 0.000000 1.552730 
# 
# From -- ./inp_files/42325.got.cif
#   From: 2010.05.17/outbox.ucp.g08.bks.cvg/sg11_22_cif.got.tgz:42325.got - 2010.06.11 11:38:39.
