data_PCOD9167023
_publ_section_title
;
Structure prediction by ZEFSAII (Michael W. Deem and Ramdas Pophale) SiO2 
 PCOD9167023
Probable space group: P 21/M
;
_chemical_formula_sum "Si O2"
_cell_formula_units_Z 24
_cell_length_a 26.916149
_cell_length_b 10.986906
_cell_length_c 16.609620
_cell_angle_alpha 90.000000
_cell_angle_beta 164.216684
_cell_angle_gamma 90.000000
_cell_volume 1336.032453
_symmetry_space_group_name_H-M "P 21/M"
_symmetry_group_IT_number 11
_symmetry_cell_setting 'monoclinic'
loop_
_space_group_symop_operation_xyz
x,y,z
-x,1/2+y,-z
-x,-y,-z
x,1/2-y,z
loop_
_atom_site_type_symbol
_atom_site_label
_atom_site_fract_x
_atom_site_fract_y
_atom_site_fract_z
Si Si1 0.529390 0.459931 0.739940
Si Si2 0.666797 0.750000 0.221455
Si Si3 0.371617 0.750000 0.891728
Si Si4 0.864809 0.391607 0.156891
Si Si5 0.975915 0.750000 0.841806
Si Si6 0.744051 0.986437 0.233025
Si Si7 0.682812 0.750000 0.514908
Si Si8 0.717381 0.113261 0.757601
O O1 0.368975 0.366966 0.513667
O O2 0.441750 0.548016 0.537758
O O3 0.703801 0.397226 0.970459
O O4 0.609192 0.517571 0.946061
O O5 0.822636 0.750000 0.533437
O O6 0.691119 0.874375 0.208949
O O7 0.471897 0.750000 0.962318
O O8 0.271370 0.621039 0.751128
O O9 0.531927 0.750000 0.208622
O O10 0.917386 0.250000 0.226372
O O11 0.046328 0.462770 0.464669
O O12 0.789426 0.440845 0.953680
O O13 0.876657 0.750000 0.772614
O O14 0.109782 0.636367 0.032180
O O15 0.653694 0.250000 0.679958
#
# Coordination Sequence:
#
# PCOD9167023 Si02
#       8
#     4   2   2   4   2   4   2   4
#     4  11  22  36  58  86 120 142 196 242 291 335
#     4  11  18  38  67  81 115 165 198 224 293 362
#     4   9  22  36  56  92 121 150 196 245 283 342
#     4  11  20  40  62  82 114 160 197 229 291 361
#     4   9  18  38  60  80 111 153 200 227 285 360
#     4  11  21  38  60  90 117 152 196 241 294 339
#     4   9  20  36  57  81 113 160 182 236 293 348
#     4   9  20  37  58  82 111 150 197 231 286 346
#
# _framework density 17.963636000000001
#
# number of rings (size 3 to 8) (size 9 to 14) (size 15 to 20)
#    0.500    1.333    3.333    1.500    1.167    0.667 
#    1.500    0.833    3.667    0.000    0.000    0.000 
#    0.000    0.000    0.000    0.000    0.000    0.000 
#
# Total GULP energy -133667.066711 kJ/mol
# GULP energy per Si atom -5569.461113 kJ/mol
# Density = 1.792275 g / cm^3
# Si number density = 17.963636 Si / 1000 Ang^3
#
#
#
# Elastic Constant Matrix: (Units=GPa)
#
#
# Indices 1 2 3 4 5 6 
#
# 1 43.2205 8.6395 3.5070 0.0000 21.4875 0.0000
# 2 8.6395 71.7453 21.1141 0.0000 0.1625 0.0000
# 3 3.5070 21.1141 56.2006 0.0000 -2.1529 0.0000
# 4 0.0000 0.0000 0.0000 -4.5339 0.0000 8.0285
# 5 21.4875 0.1625 -2.1529 0.0000 33.1935 0.0000
# 6 0.0000 0.0000 0.0000 8.0285 0.0000 12.5348
#
#
#
# Elastic Compliance Matrix: (Units=1/GPa)
#
#
# Indices 1 2 3 4 5 6 
#
# 1 0.035485 -0.003720 -0.001700 0.000000 -0.023063 0.000000
# 2 -0.003720 0.016068 -0.005729 0.000000 0.001958 0.000000
# 3 -0.001700 -0.005729 0.020145 0.000000 0.002435 0.000000
# 4 0.000000 0.000000 0.000000 -0.103348 0.000000 0.066194
# 5 -0.023063 0.001958 0.002435 0.000000 0.045204 0.000000
# 6 0.000000 0.000000 0.000000 0.066194 0.000000 0.037381
#
#
# Mechanical properties :
#
#
# Convention : Reuss Voigt Hill
#
# Bulk Modulus (GPa) = 20.24370 26.40972 23.32671
# Shear Modulus (GPa) = 55.74047 17.43262 36.58655
#
# Velocity S-wave (km/s) = 5.57647 3.11857 4.51788
# Velocity P-wave (km/s) = 7.26336 5.26317 6.34261
#
# Compressibility (1/GPa) = 0.04939809
#
# Stress axis : x y z
#
# Youngs Moduli (GPa) = 28.18115 62.23594 49.63954
#
# Poissons Ratio (x) = 0.23155 0.08439
# Poissons Ratio (y) = 0.10485 0.28440
# Poissons Ratio (z) = 0.04791 0.35657
#
# Static dielectric constant tensor:
#      x y z
#    x 1.632010 0.000000 0.022100 
#    y 0.000000 1.626650 0.000000 
#    z 0.022100 0.000000 1.592770 
# 
# From -- ./inp_files/55855.got.cif
#   From: 2010.05.17/outbox.cif.g08.bks.cpg/sg11_28_cif.got.tgz:55855.got - 2010.06.03 12:22:45.
