data_PCOD9167560
_publ_section_title
;
Structure prediction by ZEFSAII (Michael W. Deem and Ramdas Pophale) SiO2 
 PCOD9167560
Probable space group: P 21/M
;
_chemical_formula_sum "Si O2"
_cell_formula_units_Z 18
_cell_length_a 5.008209
_cell_length_b 8.427269
_cell_length_c 17.266469
_cell_angle_alpha 90.000000
_cell_angle_beta 88.420706
_cell_angle_gamma 90.000000
_cell_volume 728.463560
_symmetry_space_group_name_H-M "P 21/M"
_symmetry_group_IT_number 11
_symmetry_cell_setting 'monoclinic'
loop_
_space_group_symop_operation_xyz
x,y,z
-x,1/2+y,-z
-x,-y,-z
x,1/2-y,z
loop_
_atom_site_type_symbol
_atom_site_label
_atom_site_fract_x
_atom_site_fract_y
_atom_site_fract_z
Si Si1 0.387060 0.250000 0.760523
Si Si2 0.945542 0.066862 0.198671
Si Si3 0.256298 0.506099 0.344278
Si Si4 0.459708 0.750000 0.555853
Si Si5 0.031448 0.250000 0.544687
Si Si6 0.246351 0.434983 0.045221
O O1 0.556603 0.116781 0.708724
O O2 0.220223 0.400004 0.803040
O O3 0.836107 0.250000 0.181450
O O4 0.186463 0.035649 0.135816
O O5 0.065719 0.076906 0.283545
O O6 0.447475 0.398171 0.394293
O O7 0.061960 0.602220 0.403237
O O8 0.156137 0.750000 0.530009
O O9 0.658633 0.750000 0.479623
O O10 0.259314 0.250000 0.036463
O O11 0.500000 0.500000 0.000000
O O12 0.000000 0.500000 0.000000
#
# Coordination Sequence:
#
# PCOD9167560 Si02
#       6
#     2   4   4   2   2   4
#     4  11  27  44  76 112 151 194 266 309 386 445
#     4  11  27  49  77 109 153 204 255 316 379 460
#     4  11  26  45  75 107 151 200 261 314 385 458
#     4  12  26  47  75 107 153 202 247 330 385 455
#     4  11  27  45  71 113 150 198 257 317 395 450
#     4  11  27  49  78 115 156 201 253 311 385 455
#
# _framework density 24.709540000000001
#
# number of rings (size 3 to 8) (size 9 to 14) (size 15 to 20)
#    0.000    0.889    1.111    3.333   17.111    0.000 
#    0.000    0.000    0.000    0.000    0.000    0.000 
#    0.000    0.000    0.000    0.000    0.000    0.000 
#
# Total GULP energy -100231.560629 kJ/mol
# GULP energy per Si atom -5568.420035 kJ/mol
# Density = 2.465330 g / cm^3
# Si number density = 24.709540 Si / 1000 Ang^3
#
#
#
# Elastic Constant Matrix: (Units=GPa)
#
#
# Indices 1 2 3 4 5 6 
#
# 1 82.8642 31.2422 18.5135 0.0000 -25.1394 0.0000
# 2 31.2422 167.0458 42.0477 0.0000 -36.2684 0.0000
# 3 18.5135 42.0477 87.9766 0.0000 -2.9376 0.0000
# 4 0.0000 0.0000 0.0000 50.4348 0.0000 -14.6352
# 5 -25.1394 -36.2684 -2.9376 0.0000 46.4380 0.0000
# 6 0.0000 0.0000 0.0000 -14.6352 0.0000 31.2073
#
#
#
# Elastic Compliance Matrix: (Units=1/GPa)
#
#
# Indices 1 2 3 4 5 6 
#
# 1 0.015183 -0.000496 -0.002702 0.000000 0.007661 0.000000
# 2 -0.000496 0.008300 -0.003663 0.000000 0.005982 0.000000
# 3 -0.002702 -0.003663 0.013570 0.000000 -0.003465 0.000000
# 4 0.000000 0.000000 0.000000 0.022951 0.000000 0.010763
# 5 0.007661 0.005982 -0.003465 0.000000 0.030134 0.000000
# 6 0.000000 0.000000 0.000000 0.010763 0.000000 0.037091
#
#
# Mechanical properties :
#
#
# Convention : Reuss Voigt Hill
#
# Bulk Modulus (GPa) = 42.86146 57.94372 50.40259
# Shear Modulus (GPa) = 33.61832 42.02155 37.81994
#
# Velocity S-wave (km/s) = 3.69255 4.12833 3.91651
# Velocity P-wave (km/s) = 5.96353 6.79890 6.39487
#
# Compressibility (1/GPa) = 0.02333099
#
# Stress axis : x y z
#
# Youngs Moduli (GPa) = 65.86366 120.48294 73.69114
#
# Poissons Ratio (x) = 0.05978 0.19912
# Poissons Ratio (y) = 0.03268 0.26991
# Poissons Ratio (z) = 0.17797 0.44130
#
# Static dielectric constant tensor:
#      x y z
#    x 1.941070 0.000000 0.026310 
#    y 0.000000 2.022100 0.000000 
#    z 0.026310 0.000000 1.996300 
# 
# From -- ./inp_files/56650.got.cif
#   From: 2010.05.17/outbox.cif.g08.bks.cpg/sg11_29_cif.got.tgz:56650.got - 2010.06.03 12:22:45.
