data_PCOD9167344
_publ_section_title
;
Structure prediction by ZEFSAII (Michael W. Deem and Ramdas Pophale) SiO2 
 PCOD9167344
Probable space group: P 21/M
;
_chemical_formula_sum "Si O2"
_cell_formula_units_Z 22
_cell_length_a 10.514252
_cell_length_b 14.710096
_cell_length_c 6.423266
_cell_angle_alpha 90.000000
_cell_angle_beta 78.635068
_cell_angle_gamma 90.000000
_cell_volume 973.978882
_symmetry_space_group_name_H-M "P 21/M"
_symmetry_group_IT_number 11
_symmetry_cell_setting 'monoclinic'
loop_
_space_group_symop_operation_xyz
x,y,z
-x,1/2+y,-z
-x,-y,-z
x,1/2-y,z
loop_
_atom_site_type_symbol
_atom_site_label
_atom_site_fract_x
_atom_site_fract_y
_atom_site_fract_z
Si Si1 0.732357 0.592074 0.180755
Si Si2 0.037280 0.250000 0.449814
Si Si3 0.721695 0.407230 0.016178
Si Si4 0.362628 0.750000 0.255356
Si Si5 0.300741 0.250000 0.143378
Si Si6 0.390811 0.250000 0.523080
Si Si7 0.805839 0.250000 0.292868
Si Si8 0.007514 0.566501 0.300119
O O1 0.678072 0.654741 0.386071
O O2 0.879690 0.563150 0.195479
O O3 0.662277 0.498445 0.135881
O O4 0.718039 0.661908 0.993041
O O5 0.960923 0.250000 0.256669
O O6 0.000744 0.164531 0.595648
O O7 0.186366 0.250000 0.346956
O O8 0.644969 0.341656 0.880795
O O9 0.854061 0.439446 0.857705
O O10 0.759873 0.339072 0.189134
O O11 0.484885 0.750000 0.366810
O O12 0.243780 0.750000 0.455482
O O13 0.420746 0.250000 0.265923
O O14 0.000000 0.500000 0.500000
#
# Coordination Sequence:
#
# PCOD9167344 Si02
#       8
#     4   2   4   2   2   2   2   4
#     4  11  24  42  67 101 135 170 215 272 335 400
#     4  12  18  36  64  90 130 182 196 260 332 386
#     4  11  24  42  67 101 135 170 215 272 335 400
#     4  11  26  46  67  92 126 179 235 275 321 383
#     4  11  22  41  66  92 138 171 220 265 332 388
#     4  11  26  46  67  92 126 179 235 275 321 383
#     4  11  22  41  66  92 138 171 220 265 332 388
#     4  12  22  38  68 104 139 166 208 260 337 413
#
# _framework density 22.587758999999998
#
# number of rings (size 3 to 8) (size 9 to 14) (size 15 to 20)
#    0.000    0.727    3.636    4.909    0.000    3.636 
#    0.000    1.818    0.000    0.000    0.000    0.000 
#    0.000    0.000    0.000    0.000    0.000    0.000 
#
# Total GULP energy -122928.476320 kJ/mol
# GULP energy per Si atom -5587.658015 kJ/mol
# Density = 2.253635 g / cm^3
# Si number density = 22.587759 Si / 1000 Ang^3
#
#
#
# Elastic Constant Matrix: (Units=GPa)
#
#
# Indices 1 2 3 4 5 6 
#
# 1 61.7997 7.8110 16.6006 0.0000 24.7343 0.0000
# 2 7.8110 182.9760 67.9242 0.0000 17.9544 0.0000
# 3 16.6006 67.9242 117.1177 0.0000 31.8711 0.0000
# 4 0.0000 0.0000 0.0000 4.3456 0.0000 -1.1260
# 5 24.7343 17.9544 31.8711 0.0000 48.7419 0.0000
# 6 0.0000 0.0000 0.0000 -1.1260 0.0000 -0.1527
#
#
#
# Elastic Compliance Matrix: (Units=1/GPa)
#
#
# Indices 1 2 3 4 5 6 
#
# 1 0.020313 0.000219 -0.000218 0.000000 -0.010246 0.000000
# 2 0.000219 0.006967 -0.004067 0.000000 -0.000018 0.000000
# 3 -0.000218 -0.004067 0.012761 0.000000 -0.006735 0.000000
# 4 0.000000 0.000000 0.000000 0.079050 0.000000 -0.583019
# 5 -0.010246 -0.000018 -0.006735 0.000000 0.030126 0.000000
# 6 0.000000 0.000000 0.000000 -0.583019 0.000000 -2.250071
#
#
# Mechanical properties :
#
#
# Convention : Reuss Voigt Hill
#
# Bulk Modulus (GPa) = 31.33846 60.72943 46.03395
# Shear Modulus (GPa) = -2.40144 28.55748 13.07802
#
# Velocity S-wave (km/s) = -1.03221 3.55954 2.40883
# Velocity P-wave (km/s) = 3.53321 6.62104 5.30668
#
# Compressibility (1/GPa) = 0.03190967
#
# Stress axis : x y z
#
# Youngs Moduli (GPa) = 49.22952 143.52653 78.36481
#
# Poissons Ratio (x) = -0.03146 0.01709
# Poissons Ratio (y) = -0.01079 0.31870
# Poissons Ratio (z) = 0.01074 0.58370
#
# Static dielectric constant tensor:
#      x y z
#    x 2.088330 0.000000 0.213130 
#    y 0.000000 1.790020 0.000000 
#    z 0.213130 0.000000 2.120540 
# 
# From -- ./inp_files/4340.got.cif
#   From: 2010.05.17/outbox.cif.g08.bks.cpg/sg11_3_cif.got.tgz:4340.got - 2010.06.03 12:22:45.
