data_PCOD9167610
_publ_section_title
;
Structure prediction by ZEFSAII (Michael W. Deem and Ramdas Pophale) SiO2 
 PCOD9167610
Probable space group: P 21/M
;
_chemical_formula_sum "Si O2"
_cell_formula_units_Z 22
_cell_length_a 11.604918
_cell_length_b 14.339150
_cell_length_c 5.297833
_cell_angle_alpha 90.000000
_cell_angle_beta 93.354209
_cell_angle_gamma 90.000000
_cell_volume 880.073863
_symmetry_space_group_name_H-M "P 21/M"
_symmetry_group_IT_number 11
_symmetry_cell_setting 'monoclinic'
loop_
_space_group_symop_operation_xyz
x,y,z
-x,1/2+y,-z
-x,-y,-z
x,1/2-y,z
loop_
_atom_site_type_symbol
_atom_site_label
_atom_site_fract_x
_atom_site_fract_y
_atom_site_fract_z
Si Si1 0.620472 0.945850 0.489474
Si Si2 0.371353 0.750000 0.094739
Si Si3 0.996185 0.389225 0.508771
Si Si4 0.474463 0.250000 0.378665
Si Si5 0.903060 0.750000 0.822264
Si Si6 0.202024 0.406532 0.886275
Si Si7 0.789981 0.081600 0.822958
O O1 0.596915 0.844514 0.599738
O O2 0.673150 0.925313 0.218607
O O3 0.500000 0.000000 0.500000
O O4 0.714183 0.012129 0.636677
O O5 0.434001 0.750000 0.375540
O O6 0.292887 0.657918 0.067198
O O7 0.461464 0.750000 0.879689
O O8 0.003821 0.331423 0.256001
O O9 0.115737 0.362763 0.665801
O O10 0.000000 0.500000 0.500000
O O11 0.886616 0.368171 0.667974
O O12 0.812956 0.832101 0.897813
O O13 0.158749 0.508027 0.970765
#
# Coordination Sequence:
#
# PCOD9167610 Si02
#       7
#     4   2   4   2   2   4   4
#     4  12  26  49  78 110 156 207 264 339 397 477
#     4  12  29  53  77 119 156 220 267 344 403 485
#     4  12  25  51  72 116 158 198 259 326 401 482
#     4  12  29  51  78 113 166 202 287 334 410 485
#     4  12  26  46  79 110 156 204 256 328 391 478
#     4  12  26  47  79 112 151 206 264 318 407 475
#     4  12  27  49  80 109 157 207 264 327 406 483
#
# _framework density 24.997903999999998
#
# number of rings (size 3 to 8) (size 9 to 14) (size 15 to 20)
#    0.000    0.000    5.455    3.273    2.545    3.636 
#    3.273    0.000    0.000    0.000    0.000    0.000 
#    0.000    0.000    0.000    0.000    0.000    0.000 
#
# Total GULP energy -122775.398039 kJ/mol
# GULP energy per Si atom -5580.699911 kJ/mol
# Density = 2.494101 g / cm^3
# Si number density = 24.997904 Si / 1000 Ang^3
#
#
#
# Elastic Constant Matrix: (Units=GPa)
#
#
# Indices 1 2 3 4 5 6 
#
# 1 106.8982 37.5381 44.9144 0.0000 -35.7011 0.0000
# 2 37.5381 215.2884 41.4565 0.0000 -33.4724 0.0000
# 3 44.9144 41.4565 67.9795 0.0000 -38.7940 0.0000
# 4 0.0000 0.0000 0.0000 -40.3323 0.0000 -16.4084
# 5 -35.7011 -33.4724 -38.7940 0.0000 63.9273 0.0000
# 6 0.0000 0.0000 0.0000 -16.4084 0.0000 23.1371
#
#
#
# Elastic Compliance Matrix: (Units=1/GPa)
#
#
# Indices 1 2 3 4 5 6 
#
# 1 0.013428 -0.000557 -0.006760 0.000000 0.003105 0.000000
# 2 -0.000557 0.005351 -0.002255 0.000000 0.001122 0.000000
# 3 -0.006760 -0.002255 0.027113 0.000000 0.011498 0.000000
# 4 0.000000 0.000000 0.000000 -0.019242 0.000000 -0.013646
# 5 0.003105 0.001122 0.011498 0.000000 0.024942 0.000000
# 6 0.000000 0.000000 0.000000 -0.013646 0.000000 0.033543
#
#
# Mechanical properties :
#
#
# Convention : Reuss Voigt Hill
#
# Bulk Modulus (GPa) = 37.38581 70.88712 54.13647
# Shear Modulus (GPa) = 44.17227 27.09688 35.63458
#
# Velocity S-wave (km/s) = 4.20818 3.29594 3.77968
# Velocity P-wave (km/s) = 6.21287 6.55004 6.38368
#
# Compressibility (1/GPa) = 0.02674812
#
# Stress axis : x y z
#
# Youngs Moduli (GPa) = 74.47385 186.89181 36.88236
#
# Poissons Ratio (x) = 0.10405 0.24934
# Poissons Ratio (y) = 0.04146 0.08316
# Poissons Ratio (z) = 0.50346 0.42137
#
# Static dielectric constant tensor:
#      x y z
#    x 1.998800 0.000000 0.106000 
#    y 0.000000 1.959740 0.000000 
#    z 0.106000 0.000000 2.131760 
# 
# From -- ./inp_files/4280.got.cif
#   From: 2010.05.17/outbox.cif.g08.bks.cpg/sg11_3_cif.got.tgz:4280.got - 2010.06.03 12:22:45.
