data_PCOD9167462
_publ_section_title
;
Structure prediction by ZEFSAII (Michael W. Deem and Ramdas Pophale) SiO2 
 PCOD9167462
Probable space group: P 21/M
;
_chemical_formula_sum "Si O2"
_cell_formula_units_Z 24
_cell_length_a 9.761827
_cell_length_b 17.814600
_cell_length_c 9.855993
_cell_angle_alpha 90.000000
_cell_angle_beta 136.100568
_cell_angle_gamma 90.000000
_cell_volume 1188.469599
_symmetry_space_group_name_H-M "P 21/M"
_symmetry_group_IT_number 11
_symmetry_cell_setting 'monoclinic'
loop_
_space_group_symop_operation_xyz
x,y,z
-x,1/2+y,-z
-x,-y,-z
x,1/2-y,z
loop_
_atom_site_type_symbol
_atom_site_label
_atom_site_fract_x
_atom_site_fract_y
_atom_site_fract_z
Si Si1 0.271395 0.086846 0.300965
Si Si2 0.047824 0.336459 0.907286
Si Si3 0.326956 0.392301 0.876600
Si Si4 0.282133 0.569021 0.463604
Si Si5 0.766195 0.438536 0.250249
Si Si6 0.856841 0.663323 0.530694
O O1 0.485434 0.086122 0.383104
O O2 0.264888 0.144394 0.421364
O O3 0.241054 0.005264 0.345672
O O4 0.107010 0.111654 0.076253
O O5 0.032983 0.250000 0.938301
O O6 0.220844 0.347038 0.919851
O O7 0.850338 0.365214 0.693138
O O8 0.242153 0.477688 0.816577
O O9 0.270090 0.356864 0.692348
O O10 0.560629 0.399176 0.063538
O O11 0.229625 0.555404 0.583195
O O12 0.951505 0.390240 0.334623
O O13 0.915780 0.750000 0.568430
#
# Coordination Sequence:
#
# PCOD9167462 Si02
#       6
#     4   4   4   4   4   4
#     4  11  25  45  67  96 132 170 221 271 319 376
#     4  12  25  41  65 100 135 171 212 265 332 390
#     4  11  23  42  69  97 127 170 220 274 313 379
#     4  11  23  44  71  96 124 177 222 264 319 387
#     4  11  23  43  71  96 127 169 228 268 313 384
#     4  12  25  42  65  98 136 172 211 269 333 383
#
# _framework density 20.194037999999999
#
# number of rings (size 3 to 8) (size 9 to 14) (size 15 to 20)
#    0.000    0.667    5.000    3.000    0.000    4.000 
#    0.000    0.000    0.000    0.000    0.000    0.000 
#    0.000    0.000    0.000    0.000    0.000    0.000 
#
# Total GULP energy -134323.371661 kJ/mol
# GULP energy per Si atom -5596.807153 kJ/mol
# Density = 2.014808 g / cm^3
# Si number density = 20.194038 Si / 1000 Ang^3
#
#
#
# Elastic Constant Matrix: (Units=GPa)
#
#
# Indices 1 2 3 4 5 6 
#
# 1 28.8576 8.0385 -12.1222 0.0000 6.7893 0.0000
# 2 8.0385 79.1252 16.8606 0.0000 16.7924 0.0000
# 3 -12.1222 16.8606 73.0316 0.0000 5.1706 0.0000
# 4 0.0000 0.0000 0.0000 7.4587 0.0000 -5.2953
# 5 6.7893 16.7924 5.1706 0.0000 31.0753 0.0000
# 6 0.0000 0.0000 0.0000 -5.2953 0.0000 14.2204
#
#
#
# Elastic Compliance Matrix: (Units=1/GPa)
#
#
# Indices 1 2 3 4 5 6 
#
# 1 0.041283 -0.004264 0.008411 0.000000 -0.008115 0.000000
# 2 -0.004264 0.015297 -0.003765 0.000000 -0.006708 0.000000
# 3 0.008411 -0.003765 0.016134 0.000000 -0.002488 0.000000
# 4 0.000000 0.000000 0.000000 0.182252 0.000000 0.067866
# 5 -0.008115 -0.006708 -0.002488 0.000000 0.037992 0.000000
# 6 0.000000 0.000000 0.000000 0.067866 0.000000 0.095593
#
#
# Mechanical properties :
#
#
# Convention : Reuss Voigt Hill
#
# Bulk Modulus (GPa) = 13.60912 22.95203 18.28057
# Shear Modulus (GPa) = 12.12767 21.76670 16.94719
#
# Velocity S-wave (km/s) = 2.45329 3.28667 2.90007
# Velocity P-wave (km/s) = 3.84430 5.07871 4.50399
#
# Compressibility (1/GPa) = 0.07348014
#
# Stress axis : x y z
#
# Youngs Moduli (GPa) = 24.22282 65.37128 61.98033
#
# Poissons Ratio (x) = 0.27876 -0.52135
# Poissons Ratio (y) = 0.10329 0.23333
# Poissons Ratio (z) = -0.20375 0.24609
#
# Static dielectric constant tensor:
#      x y z
#    x 1.688710 0.000000 -0.000380 
#    y 0.000000 1.697930 0.000000 
#    z -0.000380 0.000000 1.690330 
# 
# From -- ./inp_files/14401.got.cif
#   From: 2010.05.17/outbox.cif.g08.bks.cpg/sg11_8_cif.got.tgz:14401.got - 2010.06.03 12:22:45.
