data_PCOD9167331
_publ_section_title
;
Structure prediction by ZEFSAII (Michael W. Deem and Ramdas Pophale) SiO2 
 PCOD9167331
Probable space group: P 21/M
;
_chemical_formula_sum "Si O2"
_cell_formula_units_Z 32
_cell_length_a 27.502976
_cell_length_b 8.127096
_cell_length_c 21.723521
_cell_angle_alpha 90.000000
_cell_angle_beta 161.514286
_cell_angle_gamma 90.000000
_cell_volume 1539.564811
_symmetry_space_group_name_H-M "P 21/M"
_symmetry_group_IT_number 11
_symmetry_cell_setting 'monoclinic'
loop_
_space_group_symop_operation_xyz
x,y,z
-x,1/2+y,-z
-x,-y,-z
x,1/2-y,z
loop_
_atom_site_type_symbol
_atom_site_label
_atom_site_fract_x
_atom_site_fract_y
_atom_site_fract_z
Si Si1 0.913819 0.448671 0.988694
Si Si2 0.028470 0.441327 0.379567
Si Si3 0.850013 0.050166 0.049257
Si Si4 0.768678 0.551518 0.691150
Si Si5 0.140671 0.062373 0.709547
Si Si6 0.468051 0.941350 0.121424
Si Si7 0.458759 0.951336 0.252215
Si Si8 0.636239 0.439258 0.207553
O O1 0.918829 0.250000 0.996810
O O2 0.794791 0.498436 0.792754
O O3 0.872510 0.510799 0.006990
O O4 0.081603 0.506213 0.167140
O O5 0.984685 0.250000 0.335628
O O6 0.205046 0.464193 0.608786
O O7 0.990880 0.487281 0.264118
O O8 0.920952 0.545360 0.295126
O O9 0.841560 0.250000 0.035306
O O10 0.694428 0.994515 0.896223
O O11 0.768499 0.750000 0.689160
O O12 0.610830 0.495363 0.470991
O O13 0.177117 0.250000 0.737633
O O14 0.294741 0.958204 0.888406
O O15 0.000000 0.000000 0.500000
O O16 0.514730 0.750000 0.176711
O O17 0.465768 0.001864 0.189155
O O18 0.577269 0.037814 0.206399
O O19 0.455053 0.750000 0.246801
O O20 0.668073 0.250000 0.232017
O O21 0.500000 0.500000 0.000000
#
# Coordination Sequence:
#
# PCOD9167331 Si02
#       8
#     4   4   4   4   4   4   4   4
#     4   9  18  33  55  82 114 151 193 236 283 339
#     4  11  22  40  64  90 118 155 201 248 298 357
#     4   9  18  34  58  86 114 149 194 240 286 346
#     4   9  18  33  55  82 114 151 193 236 283 339
#     4  12  24  40  62  88 121 158 197 244 297 354
#     4  11  22  40  64  90 118 155 201 248 298 357
#     4   9  18  34  58  86 114 149 194 240 286 346
#     4  12  26  44  62  88 121 156 197 248 305 360
#
# _framework density 20.785094000000001
#
# number of rings (size 3 to 8) (size 9 to 14) (size 15 to 20)
#    0.000    1.750    1.250    3.750    1.750    0.500 
#    0.000    2.500    0.000    0.000    0.000    0.000 
#    0.000    0.000    0.000    0.000    0.000    0.000 
#
# Total GULP energy -178835.369719 kJ/mol
# GULP energy per Si atom -5588.605304 kJ/mol
# Density = 2.073779 g / cm^3
# Si number density = 20.785094 Si / 1000 Ang^3
#
#
#
# Elastic Constant Matrix: (Units=GPa)
#
#
# Indices 1 2 3 4 5 6 
#
# 1 88.5329 6.8637 8.2186 0.0000 -14.5591 0.0000
# 2 6.8637 31.9194 1.7995 0.0000 -7.1503 0.0000
# 3 8.2186 1.7995 94.1071 0.0000 -12.0224 0.0000
# 4 0.0000 0.0000 0.0000 23.0917 0.0000 -1.7015
# 5 -14.5591 -7.1503 -12.0224 0.0000 29.9100 0.0000
# 6 0.0000 0.0000 0.0000 -1.7015 0.0000 26.0949
#
#
#
# Elastic Compliance Matrix: (Units=1/GPa)
#
#
# Indices 1 2 3 4 5 6 
#
# 1 0.012346 -0.001395 -0.000344 0.000000 0.005538 0.000000
# 2 -0.001395 0.033273 0.000437 0.000000 0.007451 0.000000
# 3 -0.000344 0.000437 0.011216 0.000000 0.004445 0.000000
# 4 0.000000 0.000000 0.000000 0.043515 0.000000 0.002837
# 5 0.005538 0.007451 0.004445 0.000000 0.039697 0.000000
# 6 0.000000 0.000000 0.000000 0.002837 0.000000 0.038507
#
#
# Mechanical properties :
#
#
# Convention : Reuss Voigt Hill
#
# Bulk Modulus (GPa) = 18.43922 27.59144 23.01533
# Shear Modulus (GPa) = 25.09612 28.99784 27.04698
#
# Velocity S-wave (km/s) = 3.47855 3.73919 3.61122
# Velocity P-wave (km/s) = 5.00244 5.65204 5.33713
#
# Compressibility (1/GPa) = 0.05423223
#
# Stress axis : x y z
#
# Youngs Moduli (GPa) = 80.99785 30.05412 89.16018
#
# Poissons Ratio (x) = 0.04192 0.03068
# Poissons Ratio (y) = 0.11298 -0.03901
# Poissons Ratio (z) = 0.02787 -0.01315
#
# Static dielectric constant tensor:
#      x y z
#    x 1.749350 0.000000 -0.012360 
#    y 0.000000 0.324190 0.000000 
#    z -0.012360 0.000000 1.725080 
# 
# From -- ./inp_files/67269.got.cif
#   From: 2010.05.17/outbox.cif.g08.bks.cpg/sg11_34_cif.got.tgz:67269.got - 2010.06.03 12:22:45.
