data_PCOD9167322
_publ_section_title
;
Structure prediction by ZEFSAII (Michael W. Deem and Ramdas Pophale) SiO2 
 PCOD9167322
Probable space group: P 21/M
;
_chemical_formula_sum "Si O2"
_cell_formula_units_Z 32
_cell_length_a 11.399375
_cell_length_b 18.124814
_cell_length_c 14.212022
_cell_angle_alpha 90.000000
_cell_angle_beta 31.879317
_cell_angle_gamma 90.000000
_cell_volume 1550.789370
_symmetry_space_group_name_H-M "P 21/M"
_symmetry_group_IT_number 11
_symmetry_cell_setting 'monoclinic'
loop_
_space_group_symop_operation_xyz
x,y,z
-x,1/2+y,-z
-x,-y,-z
x,1/2-y,z
loop_
_atom_site_type_symbol
_atom_site_label
_atom_site_fract_x
_atom_site_fract_y
_atom_site_fract_z
Si Si1 0.505346 0.162257 0.247781
Si Si2 0.525113 0.923668 0.357424
Si Si3 0.906833 0.337317 0.336207
Si Si4 0.695056 0.577682 0.452942
Si Si5 0.922175 0.660985 0.580051
Si Si6 0.214340 0.581355 0.083216
Si Si7 0.632520 0.162107 0.839760
Si Si8 0.243710 0.084047 0.995335
O O1 0.521804 0.250000 0.230030
O O2 0.445837 0.137346 0.393178
O O3 0.295185 0.135223 0.327217
O O4 0.719845 0.124614 0.056489
O O5 0.347734 0.857711 0.471502
O O6 0.641333 0.921343 0.379243
O O7 0.695270 0.922527 0.155412
O O8 0.380945 0.998880 0.453765
O O9 0.934531 0.250000 0.305227
O O10 0.045095 0.362773 0.334594
O O11 0.003446 0.382146 0.182329
O O12 0.956642 0.590137 0.285199
O O13 0.908116 0.750000 0.592443
O O14 0.145437 0.643458 0.370572
O O15 0.353794 0.617570 0.072602
O O16 0.261345 0.495865 0.031503
O O17 0.628006 0.250000 0.861426
O O18 0.422529 0.138001 0.921754
#
# Coordination Sequence:
#
# PCOD9167322 Si02
#       8
#     4   4   4   4   4   4   4   4
#     4  11  23  42  67  99 135 173 218 271 333 394
#     4  11  25  46  68  92 129 176 224 277 333 387
#     4  11  23  42  67  99 135 173 218 271 333 394
#     4  11  25  46  68  92 129 176 224 277 333 387
#     4   9  19  37  64  91 128 172 205 257 330 391
#     4  12  24  41  67 103 132 175 223 270 327 402
#     4  11  22  39  65  98 139 174 209 267 334 395
#     4  12  24  41  67 103 132 175 223 270 327 402
#
# _framework density 20.634654000000001
#
# number of rings (size 3 to 8) (size 9 to 14) (size 15 to 20)
#    0.000    1.000    5.000    1.875    0.000    4.000 
#    0.000    2.500    0.000    0.000    0.000    0.000 
#    0.000    0.000    0.000    0.000    0.000    0.000 
#
# Total GULP energy -178956.692131 kJ/mol
# GULP energy per Si atom -5592.396629 kJ/mol
# Density = 2.058769 g / cm^3
# Si number density = 20.634654 Si / 1000 Ang^3
#
#
#
# Elastic Constant Matrix: (Units=GPa)
#
#
# Indices 1 2 3 4 5 6 
#
# 1 30.8608 7.9088 4.1040 0.0000 22.4975 0.0000
# 2 7.9088 83.3251 24.3190 0.0000 18.0211 0.0000
# 3 4.1040 24.3190 93.1002 0.0000 36.4800 0.0000
# 4 0.0000 0.0000 0.0000 406.3586 0.0000 -46.4723
# 5 22.4975 18.0211 36.4800 0.0000 33.6823 0.0000
# 6 0.0000 0.0000 0.0000 -46.4723 0.0000 26.2530
#
#
#
# Elastic Compliance Matrix: (Units=1/GPa)
#
#
# Indices 1 2 3 4 5 6 
#
# 1 0.123457 0.003898 0.046329 0.000000 -0.134723 0.000000
# 2 0.003898 0.013774 0.000240 0.000000 -0.010233 0.000000
# 3 0.046329 0.000240 0.036155 0.000000 -0.070231 0.000000
# 4 0.000000 0.000000 0.000000 0.003086 0.000000 0.005462
# 5 -0.134723 -0.010233 -0.070231 0.000000 0.201215 0.000000
# 6 0.000000 0.000000 0.000000 0.005462 0.000000 0.047759
#
#
# Mechanical properties :
#
#
# Convention : Reuss Voigt Hill
#
# Bulk Modulus (GPa) = 3.64538 31.10553 17.37545
# Shear Modulus (GPa) = 12.02059 104.65574 58.33816
#
# Velocity S-wave (km/s) = 2.41621 7.12941 5.32290
# Velocity P-wave (km/s) = 3.09105 9.10376 6.79828
#
# Compressibility (1/GPa) = 0.27431980
#
# Stress axis : x y z
#
# Youngs Moduli (GPa) = 8.10000 72.59861 27.65841
#
# Poissons Ratio (x) = -0.28298 -1.28139
# Poissons Ratio (y) = -0.03157 -0.00663
# Poissons Ratio (z) = -0.37527 -0.01740
#
# Static dielectric constant tensor:
#      x y z
#    x 1.737880 0.000000 0.006370 
#    y 0.000000 1.711530 0.000000 
#    z 0.006370 0.000000 1.750940 
# 
# From -- ./inp_files/50647.got.cif
#   From: 2010.05.17/outbox.cif.g08.bks.cpg/sg11_26_cif.got.tgz:50647.got - 2010.06.03 12:22:45.
