data_PCOD9167964
_publ_section_title
;
Structure prediction by ZEFSAII (Michael W. Deem and Ramdas Pophale) SiO2 
 PCOD9167964
Probable space group: P 21/M
;
_chemical_formula_sum "Si O2"
_cell_formula_units_Z 28
_cell_length_a 27.000000
_cell_length_b 9.000000
_cell_length_c 9.000000
_cell_angle_alpha 90.000000
_cell_angle_beta 140.000000
_cell_angle_gamma 90.000000
_cell_volume 1405.776502
_symmetry_space_group_name_H-M "P 21/M"
_symmetry_group_IT_number 11
_symmetry_cell_setting 'monoclinic'
loop_
_space_group_symop_operation_xyz
x,y,z
-x,1/2+y,-z
-x,-y,-z
x,1/2-y,z
loop_
_atom_site_type_symbol
_atom_site_label
_atom_site_fract_x
_atom_site_fract_y
_atom_site_fract_z
Si Si1 0.749392 0.070596 0.263538
Si Si2 0.380154 0.072228 0.834317
Si Si3 0.548127 0.427112 0.295467
Si Si4 0.170980 0.073510 0.030641
Si Si5 0.310866 0.573856 0.201707
Si Si6 0.034286 0.428924 0.926892
Si Si7 0.104566 0.427587 0.545926
O O1 0.757759 0.250000 0.296674
O O2 0.695010 0.006571 0.268978
O O3 0.832046 0.992293 0.425009
O O4 0.708700 0.033282 0.012003
O O5 0.367412 0.250000 0.800721
O O6 0.410222 0.013038 0.744116
O O7 0.458066 0.038216 0.108184
O O8 0.552207 0.250000 0.271248
O O9 0.601180 0.459610 0.557949
O O10 0.181670 0.250000 0.071193
O O11 0.117680 0.025259 0.048071
O O12 0.129577 0.048057 0.774930
O O13 0.253531 0.999430 0.190291
O O14 0.298495 0.750000 0.185519
O O15 0.034625 0.250000 0.942771
O O16 0.973267 0.483931 0.664226
O O17 0.000000 0.500000 0.000000
O O18 0.096367 0.250000 0.504271
#
# Coordination Sequence:
#
# PCOD9167964 Si02
#       7
#     4   4   4   4   4   4   4
#     4  10  20  35  55  80 108 138 174 217 266 319
#     4  10  20  34  53  77 106 142 181 220 265 317
#     4   9  19  36  54  75 106 142 180 222 267 315
#     4   9  20  37  57  80 107 138 174 217 265 317
#     4   9  19  35  56  80 105 136 176 219 264 316
#     4  11  23  38  55  80 112 144 178 218 264 313
#     4  10  20  37  59  81 105 137 177 220 266 316
#
# _framework density 19.917818
#
# number of rings (size 3 to 8) (size 9 to 14) (size 15 to 20)
#    0.000    2.286    0.000    2.143    0.000    5.143 
#    0.000    2.857    0.000    0.000    0.000    0.000 
#    0.000    0.000    0.000    0.000    0.000    0.000 
#
# Total GULP energy -156180.137210 kJ/mol
# GULP energy per Si atom -5577.862043 kJ/mol
# Density = 1.987248 g / cm^3
# Si number density = 19.917818 Si / 1000 Ang^3
#
#
#
# Elastic Constant Matrix: (Units=GPa)
#
#
# Indices 1 2 3 4 5 6 
#
# 1 82.9561 12.2562 -29.9158 0.0000 7.5458 0.0000
# 2 12.2562 40.0673 -5.3267 0.0000 0.2805 0.0000
# 3 -29.9158 -5.3267 26.2366 0.0000 8.5646 0.0000
# 4 0.0000 0.0000 0.0000 22.1217 0.0000 2.0410
# 5 7.5458 0.2805 8.5646 0.0000 20.5514 0.0000
# 6 0.0000 0.0000 0.0000 2.0410 0.0000 36.2358
#
#
#
# Elastic Compliance Matrix: (Units=1/GPa)
#
#
# Indices 1 2 3 4 5 6 
#
# 1 0.031737 -0.003450 0.045460 0.000000 -0.030551 0.000000
# 2 -0.003450 0.026177 0.001254 0.000000 0.000387 0.000000
# 3 0.045460 0.001254 0.110721 0.000000 -0.062851 0.000000
# 4 0.000000 0.000000 0.000000 0.045441 0.000000 -0.002559
# 5 -0.030551 0.000387 -0.062851 0.000000 0.086063 0.000000
# 6 0.000000 0.000000 0.000000 -0.002559 0.000000 0.027741
#
#
# Mechanical properties :
#
#
# Convention : Reuss Voigt Hill
#
# Bulk Modulus (GPa) = 3.91905 11.47636 7.69771
# Shear Modulus (GPa) = 15.31828 27.26490 21.29159
#
# Velocity S-wave (km/s) = 2.77623 3.70384 3.27306
# Velocity P-wave (km/s) = 3.49978 4.90567 4.26111
#
# Compressibility (1/GPa) = 0.25516372
#
# Stress axis : x y z
#
# Youngs Moduli (GPa) = 31.50866 38.20076 9.03169
#
# Poissons Ratio (x) = 0.13181 -0.41058
# Poissons Ratio (y) = 0.10872 -0.01133
# Poissons Ratio (z) = -1.43239 -0.04791
#
# Static dielectric constant tensor:
#      x y z
#    x 1.661550 0.000000 -0.006890 
#    y 0.000000 1.669980 0.000000 
#    z -0.006890 0.000000 1.788600 
# 
# From -- ./inp_files/28529.got.cif
#   From: 2010.05.17/outbox.ucp.g08.bks.cvg/sg11_15_cif.got.tgz:28529.got - 2010.06.11 11:38:39.
