data_PCOD9167498
_publ_section_title
;
Structure prediction by ZEFSAII (Michael W. Deem and Ramdas Pophale) SiO2 
 PCOD9167498
Probable space group: P 21/M
;
_chemical_formula_sum "Si O2"
_cell_formula_units_Z 28
_cell_length_a 12.220246
_cell_length_b 14.035491
_cell_length_c 9.271587
_cell_angle_alpha 90.000000
_cell_angle_beta 118.616297
_cell_angle_gamma 90.000000
_cell_volume 1395.983735
_symmetry_space_group_name_H-M "P 21/M"
_symmetry_group_IT_number 11
_symmetry_cell_setting 'monoclinic'
loop_
_space_group_symop_operation_xyz
x,y,z
-x,1/2+y,-z
-x,-y,-z
x,1/2-y,z
loop_
_atom_site_type_symbol
_atom_site_label
_atom_site_fract_x
_atom_site_fract_y
_atom_site_fract_z
Si Si1 0.405841 0.635282 0.095791
Si Si2 0.191124 0.636210 0.462974
Si Si3 0.711017 0.639208 0.607283
Si Si4 0.308734 0.359651 0.753139
Si Si5 0.053104 0.488084 0.192003
Si Si6 0.183288 0.954798 0.772288
Si Si7 0.565447 0.133951 0.554437
O O1 0.394036 0.750000 0.082673
O O2 0.546126 0.613368 0.130428
O O3 0.398315 0.606439 0.259458
O O4 0.297314 0.589732 0.933750
O O5 0.180509 0.750000 0.455520
O O6 0.096277 0.586498 0.293169
O O7 0.173179 0.594749 0.610550
O O8 0.329236 0.608255 0.493330
O O9 0.723512 0.750000 0.657688
O O10 0.709621 0.636216 0.431634
O O11 0.825448 0.578223 0.734266
O O12 0.574824 0.602156 0.568819
O O13 0.289759 0.250000 0.786243
O O14 0.217446 0.434588 0.768409
O O15 0.945100 0.444370 0.223508
O O16 0.000000 0.500000 0.000000
O O17 0.558934 0.250000 0.553306
#
# Coordination Sequence:
#
# PCOD9167498 Si02
#       7
#     4   4   4   4   4   4   4
#     4   9  18  36  62  93 125 160 199 246 309 375
#     4  11  24  42  64  94 128 161 204 264 317 367
#     4   9  19  40  67  91 117 159 209 257 306 366
#     4   9  19  38  64  91 122 157 202 258 313 368
#     4  12  27  44  60  89 126 169 220 252 303 378
#     4  12  23  40  61  93 127 164 207 248 312 379
#     4   8  17  38  66  93 120 155 204 254 309 366
#
# _framework density 20.057541000000001
#
# number of rings (size 3 to 8) (size 9 to 14) (size 15 to 20)
#    0.000    2.000    1.429    3.857    0.000    2.857 
#    5.143    0.000    0.000    0.000    0.000    0.000 
#    0.000    0.000    0.000    0.000    0.000    0.000 
#
# Total GULP energy -156545.412889 kJ/mol
# GULP energy per Si atom -5590.907603 kJ/mol
# Density = 2.001189 g / cm^3
# Si number density = 20.057541 Si / 1000 Ang^3
#
#
#
# Elastic Constant Matrix: (Units=GPa)
#
#
# Indices 1 2 3 4 5 6 
#
# 1 96.8405 34.9225 88.2837 0.0000 2.2357 0.0000
# 2 34.9225 82.5345 59.3211 0.0000 8.6294 0.0000
# 3 88.2837 59.3211 132.4822 0.0000 15.6938 0.0000
# 4 0.0000 0.0000 0.0000 19.6474 0.0000 -0.4176
# 5 2.2357 8.6294 15.6938 0.0000 29.7972 0.0000
# 6 0.0000 0.0000 0.0000 -0.4176 0.0000 27.2789
#
#
#
# Elastic Compliance Matrix: (Units=1/GPa)
#
#
# Indices 1 2 3 4 5 6 
#
# 1 0.028342 0.002098 -0.020800 0.000000 0.008221 0.000000
# 2 0.002098 0.018051 -0.009431 0.000000 -0.000418 0.000000
# 3 -0.020800 -0.009431 0.026795 0.000000 -0.009821 0.000000
# 4 0.000000 0.000000 0.000000 0.050914 0.000000 0.000779
# 5 0.008221 -0.000418 -0.009821 0.000000 0.038237 0.000000
# 6 0.000000 0.000000 0.000000 0.000779 0.000000 0.036670
#
#
# Mechanical properties :
#
#
# Convention : Reuss Voigt Hill
#
# Bulk Modulus (GPa) = 59.09517 75.21241 67.15379
# Shear Modulus (GPa) = 19.16343 23.96672 21.56507
#
# Velocity S-wave (km/s) = 3.09434 3.46048 3.28252
# Velocity P-wave (km/s) = 6.50334 7.31753 6.92242
#
# Compressibility (1/GPa) = 0.01692186
#
# Stress axis : x y z
#
# Youngs Moduli (GPa) = 35.28382 55.39984 37.32065
#
# Poissons Ratio (x) = -0.11622 0.77625
# Poissons Ratio (y) = -0.07402 0.35197
# Poissons Ratio (z) = 0.73389 0.52247
#
# Static dielectric constant tensor:
#      x y z
#    x 1.704050 0.000000 0.009390 
#    y 0.000000 1.727660 0.000000 
#    z 0.009390 0.000000 1.662320 
# 
# From -- ./inp_files/17958.got.cif
#   From: 2010.05.17/outbox.cif.g08.bks.cpg/sg11_9_cif.got.tgz:17958.got - 2010.06.03 12:22:45.
