data_PCOD9167289
_publ_section_title
;
Structure prediction by ZEFSAII (Michael W. Deem and Ramdas Pophale) SiO2 
 PCOD9167289
Probable space group: P 21/M
;
_chemical_formula_sum "Si O2"
_cell_formula_units_Z 20
_cell_length_a 8.256252
_cell_length_b 8.791571
_cell_length_c 19.989089
_cell_angle_alpha 90.000000
_cell_angle_beta 140.924698
_cell_angle_gamma 90.000000
_cell_volume 914.572505
_symmetry_space_group_name_H-M "P 21/M"
_symmetry_group_IT_number 11
_symmetry_cell_setting 'monoclinic'
loop_
_space_group_symop_operation_xyz
x,y,z
-x,1/2+y,-z
-x,-y,-z
x,1/2-y,z
loop_
_atom_site_type_symbol
_atom_site_label
_atom_site_fract_x
_atom_site_fract_y
_atom_site_fract_z
Si Si1 0.434696 0.579725 0.046604
Si Si2 0.372658 0.066683 0.392623
Si Si3 0.130663 0.077918 0.105182
Si Si4 0.181775 0.568336 0.729502
Si Si5 0.406683 0.429098 0.673126
O O1 0.537864 0.750000 0.088420
O O2 0.563400 0.485285 0.148446
O O3 0.500000 0.500000 0.000000
O O4 0.130124 0.593943 0.938013
O O5 0.386404 0.250000 0.394058
O O6 0.069557 0.024729 0.306723
O O7 0.500000 0.000000 0.500000
O O8 0.529132 0.002517 0.378617
O O9 0.234115 0.250000 0.128416
O O10 0.329082 0.966913 0.203303
O O11 0.000000 0.000000 0.000000
O O12 0.176257 0.750000 0.721383
O O13 0.198984 0.499108 0.659367
O O14 0.360346 0.250000 0.651068
#
# Coordination Sequence:
#
# PCOD9167289 Si02
#       5
#     4   4   4   4   4
#     4  11  23  37  58  90 128 171 217 263 319 383
#     4  11  26  48  72  99 129 168 218 277 340 397
#     4  11  22  37  59  90 129 171 215 260 311 376
#     4  11  24  43  68  96 130 171 220 273 327 391
#     4  12  25  42  68 100 135 178 221 269 330 393
#
# _framework density 21.868138999999999
#
# number of rings (size 3 to 8) (size 9 to 14) (size 15 to 20)
#    0.000    0.800    2.000    5.400    0.000   11.200 
#    0.000    0.000    0.000    0.000    0.000    0.000 
#    0.000    0.000    0.000    0.000    0.000    0.000 
#
# Total GULP energy -111500.002451 kJ/mol
# GULP energy per Si atom -5575.000123 kJ/mol
# Density = 2.181837 g / cm^3
# Si number density = 21.868139 Si / 1000 Ang^3
#
#
#
# Elastic Constant Matrix: (Units=GPa)
#
#
# Indices 1 2 3 4 5 6 
#
# 1 122.6453 45.4442 4.3941 0.0000 -26.5467 0.0000
# 2 45.4442 107.3278 -11.3621 0.0000 -5.4915 0.0000
# 3 4.3941 -11.3621 43.2447 0.0000 -12.1913 0.0000
# 4 0.0000 0.0000 0.0000 29.1266 0.0000 -8.2300
# 5 -26.5467 -5.4915 -12.1913 0.0000 43.1106 0.0000
# 6 0.0000 0.0000 0.0000 -8.2300 0.0000 38.6367
#
#
#
# Elastic Compliance Matrix: (Units=1/GPa)
#
#
# Indices 1 2 3 4 5 6 
#
# 1 0.011160 -0.004473 -0.000578 0.000000 0.006139 0.000000
# 2 -0.004473 0.011555 0.003400 0.000000 -0.000321 0.000000
# 3 -0.000578 0.003400 0.026185 0.000000 0.007482 0.000000
# 4 0.000000 0.000000 0.000000 0.036532 0.000000 0.007782
# 5 0.006139 -0.000321 0.007482 0.000000 0.029051 0.000000
# 6 0.000000 0.000000 0.000000 0.007782 0.000000 0.027540
#
#
# Mechanical properties :
#
#
# Convention : Reuss Voigt Hill
#
# Bulk Modulus (GPa) = 21.93081 38.90780 30.41931
# Shear Modulus (GPa) = 31.14781 37.82422 34.48601
#
# Velocity S-wave (km/s) = 3.77815 4.16342 3.97545
# Velocity P-wave (km/s) = 5.39286 6.39865 5.91716
#
# Compressibility (1/GPa) = 0.04559794
#
# Stress axis : x y z
#
# Youngs Moduli (GPa) = 89.60278 86.54630 38.18908
#
# Poissons Ratio (x) = 0.38709 0.02209
# Poissons Ratio (y) = 0.40076 -0.12984
# Poissons Ratio (z) = 0.05183 -0.29424
#
# Static dielectric constant tensor:
#      x y z
#    x 1.991440 0.000000 -0.008650 
#    y 0.000000 -1.878290 0.000000 
#    z -0.008650 0.000000 1.761150 
# 
# From -- ./inp_files/63319.got.cif
#   From: 2010.05.17/outbox.cif.g08.bks.cpg/sg11_32_cif.got.tgz:63319.got - 2010.06.03 12:22:45.
