data_PCOD9167371
_publ_section_title
;
Structure prediction by ZEFSAII (Michael W. Deem and Ramdas Pophale) SiO2 
 PCOD9167371
Probable space group: P 21/M
;
_chemical_formula_sum "Si O2"
_cell_formula_units_Z 22
_cell_length_a 22.589836
_cell_length_b 9.791331
_cell_length_c 15.359701
_cell_angle_alpha 90.000000
_cell_angle_beta 161.503594
_cell_angle_gamma 90.000000
_cell_volume 1077.786131
_symmetry_space_group_name_H-M "P 21/M"
_symmetry_group_IT_number 11
_symmetry_cell_setting 'monoclinic'
loop_
_space_group_symop_operation_xyz
x,y,z
-x,1/2+y,-z
-x,-y,-z
x,1/2-y,z
loop_
_atom_site_type_symbol
_atom_site_label
_atom_site_fract_x
_atom_site_fract_y
_atom_site_fract_z
Si Si1 0.463117 0.750000 0.867190
Si Si2 0.760041 0.971986 0.909403
Si Si3 0.054476 0.750000 0.376132
Si Si4 0.782515 0.250000 0.204576
Si Si5 0.882221 0.250000 0.155336
Si Si6 0.462368 0.022564 0.757018
Si Si7 0.731244 0.750000 0.407141
Si Si8 0.636532 0.093642 0.568553
O O1 0.504318 0.613547 0.870354
O O2 0.246197 0.750000 0.590513
O O3 0.578824 0.750000 0.117550
O O4 0.761188 0.005146 0.808442
O O5 0.565903 0.903726 0.666688
O O6 0.768574 0.116612 0.969928
O O7 0.930974 0.880477 0.178751
O O8 0.106479 0.750000 0.550533
O O9 0.912393 0.250000 0.300781
O O10 0.645318 0.118811 0.008323
O O11 0.070071 0.250000 0.361516
O O12 0.308828 0.116064 0.591240
O O13 0.392764 0.975878 0.565424
O O14 0.703558 0.250000 0.653340
#
# Coordination Sequence:
#
# PCOD9167371 Si02
#       8
#     2   4   2   2   2   4   2   4
#     4  12  24  43  70  95 142 189 222 276 343 415
#     4  11  25  41  72 100 139 178 224 290 341 398
#     4  12  26  45  64 106 141 179 230 281 340 403
#     4  11  26  42  70 105 143 170 237 283 329 413
#     4  12  24  44  66 106 139 176 226 294 338 394
#     4  11  23  44  70  99 133 191 224 273 342 414
#     4  11  26  42  66  98 143 184 227 270 352 413
#     4  11  22  45  71 103 135 177 233 280 346 402
#
# _framework density 20.412213000000001
#
# number of rings (size 3 to 8) (size 9 to 14) (size 15 to 20)
#    0.000    0.727    6.364    1.636    2.545    3.636 
#    0.000    5.455    0.000    0.000    0.000    0.000 
#    0.000    0.000    0.000    0.000    0.000    0.000 
#
# Total GULP energy -123080.482447 kJ/mol
# GULP energy per Si atom -5594.567384 kJ/mol
# Density = 2.036575 g / cm^3
# Si number density = 20.412213 Si / 1000 Ang^3
#
#
#
# Elastic Constant Matrix: (Units=GPa)
#
#
# Indices 1 2 3 4 5 6 
#
# 1 126.5975 51.4403 43.1064 0.0000 -40.1499 0.0000
# 2 51.4403 140.9842 23.1856 0.0000 -28.9355 0.0000
# 3 43.1064 23.1856 68.7760 0.0000 -34.9255 0.0000
# 4 0.0000 0.0000 0.0000 7.1435 0.0000 -43.8754
# 5 -40.1499 -28.9355 -34.9255 0.0000 50.8518 0.0000
# 6 0.0000 0.0000 0.0000 -43.8754 0.0000 -53.2949
#
#
#
# Elastic Compliance Matrix: (Units=1/GPa)
#
#
# Indices 1 2 3 4 5 6 
#
# 1 0.011983 -0.002646 -0.003960 0.000000 0.005236 0.000000
# 2 -0.002646 0.008631 0.000279 0.000000 0.003014 0.000000
# 3 -0.003960 0.000279 0.023679 0.000000 0.013296 0.000000
# 4 0.000000 0.000000 0.000000 0.023114 0.000000 -0.019029
# 5 0.005236 0.003014 0.013296 0.000000 0.034646 0.000000
# 6 0.000000 0.000000 0.000000 -0.019029 0.000000 -0.003098
#
#
# Mechanical properties :
#
#
# Convention : Reuss Voigt Hill
#
# Bulk Modulus (GPa) = 31.60520 63.53581 47.57051
# Shear Modulus (GPa) = 40.93155 15.51509 28.22332
#
# Velocity S-wave (km/s) = 4.48286 2.75996 3.72246
# Velocity P-wave (km/s) = 6.50475 6.43043 6.46770
#
# Compressibility (1/GPa) = 0.03164037
#
# Stress axis : x y z
#
# Youngs Moduli (GPa) = 83.45041 115.85914 42.23080
#
# Poissons Ratio (x) = 0.30662 0.16722
# Poissons Ratio (y) = 0.22085 -0.01180
# Poissons Ratio (z) = 0.33043 -0.03237
#
# Static dielectric constant tensor:
#      x y z
#    x 1.720200 0.000000 0.002370 
#    y 0.000000 1.716210 0.000000 
#    z 0.002370 0.000000 1.702780 
# 
# From -- ./inp_files/55506.got.cif
#   From: 2010.05.17/outbox.cif.g08.bks.cpg/sg11_28_cif.got.tgz:55506.got - 2010.06.03 12:22:45.
