data_PCOD9167138
_publ_section_title
;
Structure prediction by ZEFSAII (Michael W. Deem and Ramdas Pophale) SiO2 
 PCOD9167138
Probable space group: P 21/M
;
_chemical_formula_sum "Si O2"
_cell_formula_units_Z 28
_cell_length_a 8.117356
_cell_length_b 8.738712
_cell_length_c 26.739788
_cell_angle_alpha 90.000000
_cell_angle_beta 140.831749
_cell_angle_gamma 90.000000
_cell_volume 1198.014174
_symmetry_space_group_name_H-M "P 21/M"
_symmetry_group_IT_number 11
_symmetry_cell_setting 'monoclinic'
loop_
_space_group_symop_operation_xyz
x,y,z
-x,1/2+y,-z
-x,-y,-z
x,1/2-y,z
loop_
_atom_site_type_symbol
_atom_site_label
_atom_site_fract_x
_atom_site_fract_y
_atom_site_fract_z
Si Si1 0.183440 0.933071 0.309149
Si Si2 0.209305 0.425380 0.976411
Si Si3 0.517795 0.566695 0.253653
Si Si4 0.018773 0.928779 0.834211
Si Si5 0.091878 0.935316 0.399661
Si Si6 0.373454 0.925752 0.111587
Si Si7 0.723861 0.434749 0.452753
O O1 0.179069 0.750000 0.308115
O O2 0.137303 0.993251 0.354464
O O3 0.982698 0.988437 0.219702
O O4 0.476403 0.991616 0.367309
O O5 0.254351 0.250000 0.974208
O O6 0.202781 0.518407 0.923278
O O7 0.917717 0.438404 0.932334
O O8 0.387258 0.475848 0.064776
O O9 0.464163 0.750000 0.247809
O O10 0.271651 0.471888 0.214066
O O11 0.548770 0.542132 0.201100
O O12 0.792671 0.525924 0.342490
O O13 0.047035 0.750000 0.833375
O O14 0.102497 0.750000 0.399614
O O15 0.278180 0.981422 0.488711
O O16 0.409618 0.750000 0.104923
O O17 0.717269 0.250000 0.447046
O O18 0.000000 0.500000 0.500000
#
# Coordination Sequence:
#
# PCOD9167138 Si02
#       7
#     4   4   4   4   4   4   4
#     4  11  22  38  57  78 107 144 180 217 264 316
#     4   9  16  27  45  70 102 139 176 217 267 319
#     4   9  17  33  55  79 106 139 179 222 269 320
#     4  11  21  33  51  78 108 139 179 226 270 315
#     4   9  20  37  58  80 106 141 179 217 261 315
#     4   8  14  24  43  72 104 134 168 216 270 318
#     4  11  22  38  60  87 113 140 176 218 263 311
#
# _framework density 23.372008999999998
#
# number of rings (size 3 to 8) (size 9 to 14) (size 15 to 20)
#    0.000    2.286    0.000    4.714    0.000    4.571 
#    0.000    4.286    0.000    0.857    0.000    0.000 
#    0.000    0.000    0.000    0.000    0.000    0.000 
#
# Total GULP energy -156523.330611 kJ/mol
# GULP energy per Si atom -5590.118950 kJ/mol
# Density = 2.331881 g / cm^3
# Si number density = 23.372009 Si / 1000 Ang^3
#
#
#
# Elastic Constant Matrix: (Units=GPa)
#
#
# Indices 1 2 3 4 5 6 
#
# 1 79.5895 14.8458 12.3367 0.0000 -16.4224 0.0000
# 2 14.8458 75.0006 30.9012 0.0000 -18.5597 0.0000
# 3 12.3367 30.9012 136.9242 0.0000 -9.6820 0.0000
# 4 0.0000 0.0000 0.0000 31.3119 0.0000 -11.9975
# 5 -16.4224 -18.5597 -9.6820 0.0000 40.2795 0.0000
# 6 0.0000 0.0000 0.0000 -11.9975 0.0000 17.4706
#
#
#
# Elastic Compliance Matrix: (Units=1/GPa)
#
#
# Indices 1 2 3 4 5 6 
#
# 1 0.013917 -0.001279 -0.000616 0.000000 0.004937 0.000000
# 2 -0.001279 0.016443 -0.003150 0.000000 0.006298 0.000000
# 3 -0.000616 -0.003150 0.008087 0.000000 0.000241 0.000000
# 4 0.000000 0.000000 0.000000 0.043341 0.000000 0.029763
# 5 0.004937 0.006298 0.000241 0.000000 0.029799 0.000000
# 6 0.000000 0.000000 0.000000 0.029763 0.000000 0.077678
#
#
# Mechanical properties :
#
#
# Convention : Reuss Voigt Hill
#
# Bulk Modulus (GPa) = 35.26662 45.29796 40.28229
# Shear Modulus (GPa) = 23.94543 33.37444 28.65994
#
# Velocity S-wave (km/s) = 3.20431 3.78294 3.50559
# Velocity P-wave (km/s) = 5.36769 6.20518 5.80157
#
# Compressibility (1/GPa) = 0.02835543
#
# Stress axis : x y z
#
# Youngs Moduli (GPa) = 71.85336 60.81680 123.65795
#
# Poissons Ratio (x) = 0.07780 0.07619
# Poissons Ratio (y) = 0.09192 0.38956
# Poissons Ratio (z) = 0.04427 0.19159
#
# Static dielectric constant tensor:
#      x y z
#    x 1.956360 0.000000 0.004480 
#    y 0.000000 1.746110 0.000000 
#    z 0.004480 0.000000 1.889900 
# 
# From -- ./inp_files/28647.got.cif
#   From: 2010.05.17/outbox.cif.g08.bks.cpg/sg11_15_cif.got.tgz:28647.got - 2010.06.03 12:22:45.
