data_PCOD9167473
_publ_section_title
;
Structure prediction by ZEFSAII (Michael W. Deem and Ramdas Pophale) SiO2 
 PCOD9167473
Probable space group: P 21/M
;
_chemical_formula_sum "Si O2"
_cell_formula_units_Z 20
_cell_length_a 10.957710
_cell_length_b 10.204766
_cell_length_c 7.937144
_cell_angle_alpha 90.000000
_cell_angle_beta 96.405605
_cell_angle_gamma 90.000000
_cell_volume 881.997426
_symmetry_space_group_name_H-M "P 21/M"
_symmetry_group_IT_number 11
_symmetry_cell_setting 'monoclinic'
loop_
_space_group_symop_operation_xyz
x,y,z
-x,1/2+y,-z
-x,-y,-z
x,1/2-y,z
loop_
_atom_site_type_symbol
_atom_site_label
_atom_site_fract_x
_atom_site_fract_y
_atom_site_fract_z
Si Si1 0.294451 0.750000 0.363192
Si Si2 0.178241 0.012827 0.219736
Si Si3 0.300484 0.999850 0.872871
Si Si4 0.443066 0.250000 0.767056
Si Si5 0.674096 0.750000 0.618321
Si Si6 0.420886 0.750000 0.754593
Si Si7 0.056834 0.589626 0.658024
O O1 0.210727 0.875396 0.311974
O O2 0.411655 0.750000 0.253147
O O3 0.349629 0.750000 0.561741
O O4 0.245865 0.122851 0.339173
O O5 0.238160 0.010654 0.045017
O O6 0.036903 0.056689 0.203462
O O7 0.385141 0.874453 0.858106
O O8 0.188490 0.970120 0.726611
O O9 0.385127 0.123621 0.846454
O O10 0.383356 0.250000 0.572898
O O11 0.562826 0.750000 0.731994
O O12 0.061141 0.750000 0.633065
O O13 0.000000 0.500000 0.500000
#
# Coordination Sequence:
#
# PCOD9167473 Si02
#       7
#     2   4   4   2   2   2   4
#     4  11  25  44  71 102 137 183 231 275 334 407
#     4  12  26  44  69 102 140 177 224 286 344 400
#     4  12  26  44  69 102 140 177 224 286 344 400
#     4  11  25  44  71 102 137 183 231 275 334 407
#     4  11  23  44  69  98 137 183 231 279 332 405
#     4  11  23  44  69  98 137 183 231 279 332 405
#     4  12  27  48  74 102 134 179 230 280 336 409
#
# _framework density 22.675805
#
# number of rings (size 3 to 8) (size 9 to 14) (size 15 to 20)
#    0.000    0.400    2.000    6.600    2.800    8.000 
#    0.000    0.000    0.000    0.000    0.000    0.000 
#    0.000    0.000    0.000    0.000    0.000    0.000 
#
# Total GULP energy -112000.464323 kJ/mol
# GULP energy per Si atom -5600.023216 kJ/mol
# Density = 2.262419 g / cm^3
# Si number density = 22.675805 Si / 1000 Ang^3
#
#
#
# Elastic Constant Matrix: (Units=GPa)
#
#
# Indices 1 2 3 4 5 6 
#
# 1 116.5281 45.2202 3.7704 0.0000 -14.4744 0.0000
# 2 45.2202 204.5149 26.7727 0.0000 -7.0295 0.0000
# 3 3.7704 26.7727 87.5673 0.0000 -12.9879 0.0000
# 4 0.0000 0.0000 0.0000 -42.0000 0.0000 -18.2477
# 5 -14.4744 -7.0295 -12.9879 0.0000 49.5613 0.0000
# 6 0.0000 0.0000 0.0000 -18.2477 0.0000 37.7185
#
#
#
# Elastic Compliance Matrix: (Units=1/GPa)
#
#
# Indices 1 2 3 4 5 6 
#
# 1 0.009728 -0.002141 0.000637 0.000000 0.002704 0.000000
# 2 -0.002141 0.005570 -0.001650 0.000000 -0.000268 0.000000
# 3 0.000637 -0.001650 0.012371 0.000000 0.003194 0.000000
# 4 0.000000 0.000000 0.000000 -0.019674 0.000000 -0.009518
# 5 0.002704 -0.000268 0.003194 0.000000 0.021766 0.000000
# 6 0.000000 0.000000 0.000000 -0.009518 0.000000 0.021907
#
#
# Mechanical properties :
#
#
# Convention : Reuss Voigt Hill
#
# Bulk Modulus (GPa) = 46.81935 62.23745 54.52840
# Shear Modulus (GPa) = 76.80856 31.24577 54.02717
#
# Velocity S-wave (km/s) = 5.82632 3.71608 4.88647
# Velocity P-wave (km/s) = 8.12117 6.77632 7.47904
#
# Compressibility (1/GPa) = 0.02135869
#
# Stress axis : x y z
#
# Youngs Moduli (GPa) = 102.79712 179.53482 80.83637
#
# Poissons Ratio (x) = 0.38445 -0.05149
# Poissons Ratio (y) = 0.22013 0.13342
# Poissons Ratio (z) = -0.06547 0.29632
#
# Static dielectric constant tensor:
#      x y z
#    x 1.832320 0.000000 -0.019420 
#    y 0.000000 1.619950 0.000000 
#    z -0.019420 0.000000 1.875240 
# 
# From -- ./inp_files/16040.got.cif
#   From: 2010.05.17/outbox.cif.g08.bks.cpg/sg11_9_cif.got.tgz:16040.got - 2010.06.03 12:22:45.
