data_PCOD9167583
_publ_section_title
;
Structure prediction by ZEFSAII (Michael W. Deem and Ramdas Pophale) SiO2 
 PCOD9167583
Probable space group: P 21/M
;
_chemical_formula_sum "Si O2"
_cell_formula_units_Z 24
_cell_length_a 15.991916
_cell_length_b 8.903058
_cell_length_c 9.802379
_cell_angle_alpha 90.000000
_cell_angle_beta 102.567141
_cell_angle_gamma 90.000000
_cell_volume 1362.195898
_symmetry_space_group_name_H-M "P 21/M"
_symmetry_group_IT_number 11
_symmetry_cell_setting 'monoclinic'
loop_
_space_group_symop_operation_xyz
x,y,z
-x,1/2+y,-z
-x,-y,-z
x,1/2-y,z
loop_
_atom_site_type_symbol
_atom_site_label
_atom_site_fract_x
_atom_site_fract_y
_atom_site_fract_z
Si Si1 0.779171 0.428890 0.169256
Si Si2 0.470482 0.928751 0.133123
Si Si3 0.285731 0.428320 0.122782
Si Si4 0.759300 0.069406 0.610148
Si Si5 0.092967 0.569214 0.550182
Si Si6 0.374508 0.927804 0.670037
O O1 0.784327 0.250000 0.143761
O O2 0.859196 0.473956 0.292290
O O3 0.694445 0.451543 0.232633
O O4 0.769117 0.518085 0.026569
O O5 0.465401 0.750000 0.117857
O O6 0.378520 0.994541 0.139532
O O7 0.541856 0.976647 0.268501
O O8 0.500000 0.000000 0.000000
O O9 0.295239 0.250000 0.125650
O O10 0.245483 0.485561 0.249229
O O11 0.760531 0.250000 0.631088
O O12 0.842175 0.028142 0.549315
O O13 0.676094 0.036068 0.486778
O O14 0.087404 0.750000 0.548459
O O15 0.000000 0.500000 0.500000
O O16 0.395587 0.750000 0.676875
#
# Coordination Sequence:
#
# PCOD9167583 Si02
#       6
#     4   4   4   4   4   4
#     4   9  18  35  58  81 110 147 184 227 279 331
#     4  12  23  35  54  80 112 149 191 235 276 323
#     4  12  24  36  54  83 114 149 189 232 281 327
#     4   9  20  39  59  81 113 150 184 226 283 334
#     4   9  19  37  63  90 112 142 181 224 278 337
#     4   9  18  35  58  80 105 145 194 235 274 324
#
# _framework density 17.618613
#
# number of rings (size 3 to 8) (size 9 to 14) (size 15 to 20)
#    0.000    2.000    1.667    5.000    0.000    2.667 
#    0.000    4.167    0.000    0.000    0.000    0.000 
#    0.000    0.000    0.000    0.000    0.000    0.000 
#
# Total GULP energy -134035.516935 kJ/mol
# GULP energy per Si atom -5584.813206 kJ/mol
# Density = 1.757851 g / cm^3
# Si number density = 17.618613 Si / 1000 Ang^3
#
#
#
# Elastic Constant Matrix: (Units=GPa)
#
#
# Indices 1 2 3 4 5 6 
#
# 1 117.0962 58.6119 72.7645 0.0000 21.5367 0.0000
# 2 58.6119 92.7405 79.0263 0.0000 6.1116 0.0000
# 3 72.7645 79.0263 145.7932 0.0000 3.4003 0.0000
# 4 0.0000 0.0000 0.0000 27.4693 0.0000 5.4848
# 5 21.5367 6.1116 3.4003 0.0000 22.1477 0.0000
# 6 0.0000 0.0000 0.0000 5.4848 0.0000 30.3958
#
#
#
# Elastic Compliance Matrix: (Units=1/GPa)
#
#
# Indices 1 2 3 4 5 6 
#
# 1 0.017196 -0.005372 -0.005334 0.000000 -0.014420 0.000000
# 2 -0.005372 0.022054 -0.009286 0.000000 0.000564 0.000000
# 3 -0.005334 -0.009286 0.014426 0.000000 0.005535 0.000000
# 4 0.000000 0.000000 0.000000 0.037765 0.000000 -0.006815
# 5 -0.014420 0.000564 0.005535 0.000000 0.058168 0.000000
# 6 0.000000 0.000000 0.000000 -0.006815 0.000000 0.034129
#
#
# Mechanical properties :
#
#
# Convention : Reuss Voigt Hill
#
# Bulk Modulus (GPa) = 73.04296 86.27061 79.65678
# Shear Modulus (GPa) = 21.90246 25.68438 23.79342
#
# Velocity S-wave (km/s) = 3.52965 3.82225 3.67886
# Velocity P-wave (km/s) = 7.62621 8.27958 7.95960
#
# Compressibility (1/GPa) = 0.01369057
#
# Stress axis : x y z
#
# Youngs Moduli (GPa) = 58.15373 45.34407 69.32154
#
# Poissons Ratio (x) = 0.24360 0.36976
# Poissons Ratio (y) = 0.31241 0.64372
# Poissons Ratio (z) = 0.31019 0.42106
#
# Static dielectric constant tensor:
#      x y z
#    x 1.577110 0.000000 0.008540 
#    y 0.000000 1.582960 0.000000 
#    z 0.008540 0.000000 1.603260 
# 
# From -- ./inp_files/20345.got.cif
#   From: 2010.05.17/outbox.cif.g08.bks.cpg/sg11_11_cif.got.tgz:20345.got - 2010.06.03 12:22:45.
