data_PCOD9167923
_publ_section_title
;
Structure prediction by ZEFSAII (Michael W. Deem and Ramdas Pophale) SiO2 
 PCOD9167923
Probable space group: P 21/M
;
_chemical_formula_sum "Si O2"
_cell_formula_units_Z 32
_cell_length_a 21.000000
_cell_length_b 9.000000
_cell_length_c 30.000000
_cell_angle_alpha 90.000000
_cell_angle_beta 160.000000
_cell_angle_gamma 90.000000
_cell_volume 1939.254213
_symmetry_space_group_name_H-M "P 21/M"
_symmetry_group_IT_number 11
_symmetry_cell_setting 'monoclinic'
loop_
_space_group_symop_operation_xyz
x,y,z
-x,1/2+y,-z
-x,-y,-z
x,1/2-y,z
loop_
_atom_site_type_symbol
_atom_site_label
_atom_site_fract_x
_atom_site_fract_y
_atom_site_fract_z
Si Si1 0.043925 0.571099 0.828958
Si Si2 0.818180 0.070655 0.517620
Si Si3 0.689198 0.428519 0.743282
Si Si4 0.235372 0.070832 0.791659
Si Si5 0.410673 0.070613 0.227834
Si Si6 0.720711 0.571579 0.548548
Si Si7 0.640196 0.071050 0.033205
Si Si8 0.933439 0.570559 0.059444
O O1 0.042367 0.750000 0.832724
O O2 0.051138 0.496016 0.881456
O O3 0.858771 0.528519 0.679251
O O4 0.225904 0.530078 0.919493
O O5 0.817501 0.250000 0.519073
O O6 0.629420 0.026330 0.366728
O O7 0.026707 0.024775 0.639347
O O8 0.787916 0.006350 0.547322
O O9 0.695281 0.250000 0.753404
O O10 0.658965 0.505360 0.770979
O O11 0.499373 0.461914 0.590692
O O12 0.882494 0.474489 0.847543
O O13 0.233939 0.250000 0.793989
O O14 0.420694 0.030562 0.885167
O O15 0.277757 0.003034 0.868182
O O16 0.405998 0.250000 0.226985
O O17 0.259624 0.024326 0.091511
O O18 0.738054 0.750000 0.554099
O O19 0.650955 0.250000 0.045466
O O20 0.934603 0.750000 0.062443
#
# Coordination Sequence:
#
# PCOD9167923 Si02
#       8
#     4   4   4   4   4   4   4   4
#     4  10  20  32  46  64  92 126 154 181 220 273
#     4   9  16  27  46  71  94 116 146 184 226 271
#     4   9  18  32  50  70  90 114 149 193 234 270
#     4   9  16  26  45  71  94 116 146 181 221 268
#     4   9  18  32  49  69  92 117 149 191 232 266
#     4   9  17  30  46  66  93 121 147 182 229 271
#     4   9  17  29  44  66  95 122 146 179 221 266
#     4  10  21  34  47  65  90 122 157 191 226 265
#
# _framework density 16.501189
#
# number of rings (size 3 to 8) (size 9 to 14) (size 15 to 20)
#    0.000    2.750    1.250    0.375    0.000    2.500 
#    0.000    0.000    0.000    0.750    0.000    0.000 
#    0.000    0.000    0.000    0.000    0.000    0.000 
#
# Total GULP energy -178192.387923 kJ/mol
# GULP energy per Si atom -5568.512123 kJ/mol
# Density = 1.646363 g / cm^3
# Si number density = 16.501189 Si / 1000 Ang^3
#
#
#
# Elastic Constant Matrix: (Units=GPa)
#
#
# Indices 1 2 3 4 5 6 
#
# 1 34.8347 6.6494 45.8018 0.0000 -4.8116 0.0000
# 2 6.6494 -1.4957 18.2690 0.0000 -0.4454 0.0000
# 3 45.8018 18.2690 171.5838 0.0000 3.3533 0.0000
# 4 0.0000 0.0000 0.0000 18.4274 0.0000 -2.3399
# 5 -4.8116 -0.4454 3.3533 0.0000 24.1197 0.0000
# 6 0.0000 0.0000 0.0000 -2.3399 0.0000 21.6961
#
#
#
# Elastic Compliance Matrix: (Units=1/GPa)
#
#
# Indices 1 2 3 4 5 6 
#
# 1 0.045503 0.020764 -0.014582 0.000000 0.011488 0.000000
# 2 0.020764 -0.278906 0.024239 0.000000 -0.004378 0.000000
# 3 -0.014582 0.024239 0.007207 0.000000 -0.003463 0.000000
# 4 0.000000 0.000000 0.000000 0.055021 0.000000 0.005934
# 5 0.011488 -0.004378 -0.003463 0.000000 0.044152 0.000000
# 6 0.000000 0.000000 0.000000 0.005934 0.000000 0.046731
#
#
# Mechanical properties :
#
#
# Convention : Reuss Voigt Hill
#
# Bulk Modulus (GPa) = -6.04765 38.48480 16.21858
# Shear Modulus (GPa) = -25.47746 21.79546 -1.84100
#
# Velocity S-wave (km/s) = -3.93361 3.63828 -1.05740
# Velocity P-wave (km/s) = 4.92991 6.40488 2.89124
#
# Compressibility (1/GPa) = -0.16535337
#
# Stress axis : x y z
#
# Youngs Moduli (GPa) = 21.97673 -3.58544 138.74784
#
# Poissons Ratio (x) = 0.07445 2.02317
# Poissons Ratio (y) = -0.45633 -3.36308
# Poissons Ratio (z) = 0.32046 0.08691
#
# Static dielectric constant tensor:
#      x y z
#    x 1.518560 0.000000 0.028140 
#    y 0.000000 1.545570 0.000000 
#    z 0.028140 0.000000 1.601390 
# 
# From -- ./inp_files/40621.got.cif
#   From: 2010.05.17/outbox.ucp.g08.bks.cvg/sg11_21_cif.got.tgz:40621.got - 2010.06.11 11:38:39.
