data_PCOD9167760
_publ_section_title
;
Structure prediction by ZEFSAII (Michael W. Deem and Ramdas Pophale) SiO2 
 PCOD9167760
Probable space group: P 21/M
;
_chemical_formula_sum "Si O2"
_cell_formula_units_Z 28
_cell_length_a 15.000000
_cell_length_b 9.000000
_cell_length_c 18.000000
_cell_angle_alpha 90.000000
_cell_angle_beta 40.000000
_cell_angle_gamma 90.000000
_cell_volume 1561.973892
_symmetry_space_group_name_H-M "P 21/M"
_symmetry_group_IT_number 11
_symmetry_cell_setting 'monoclinic'
loop_
_space_group_symop_operation_xyz
x,y,z
-x,1/2+y,-z
-x,-y,-z
x,1/2-y,z
loop_
_atom_site_type_symbol
_atom_site_label
_atom_site_fract_x
_atom_site_fract_y
_atom_site_fract_z
Si Si1 0.899506 0.927089 0.346037
Si Si2 0.849297 0.082140 0.530828
Si Si3 0.546618 0.927026 0.105657
Si Si4 0.172762 0.421864 0.147328
Si Si5 0.472629 0.914450 0.313843
Si Si6 0.746231 0.919975 0.733090
Si Si7 0.592702 0.924310 0.502322
O O1 0.900059 0.750000 0.347116
O O2 0.752475 0.978850 0.405631
O O3 0.905319 0.987667 0.426617
O O4 0.033714 0.989419 0.219183
O O5 0.906221 0.250000 0.494918
O O6 0.684495 0.091518 0.617063
O O7 0.846682 0.007038 0.612838
O O8 0.529627 0.750000 0.101255
O O9 0.562254 0.944419 0.184101
O O10 0.407005 0.008783 0.169959
O O11 0.685649 0.981533 0.978130
O O12 0.156090 0.250000 0.134910
O O13 0.198325 0.423696 0.219199
O O14 0.504555 0.750000 0.324147
O O15 0.474674 0.036212 0.375531
O O16 0.735302 0.750000 0.714103
O O17 0.596510 0.750000 0.487559
O O18 0.500000 0.000000 0.500000
#
# Coordination Sequence:
#
# PCOD9167760 Si02
#       7
#     4   4   4   4   4   4   4
#     4  10  21  35  51  74 101 128 162 203 249 299
#     4   9  17  31  50  69  95 132 168 205 251 298
#     4   9  18  33  51  71  98 135 176 210 243 287
#     4  10  21  34  48  69 100 138 174 207 247 293
#     4   8  15  29  50  74  98 125 158 198 242 285
#     4  10  19  30  47  72  99 130 173 219 253 283
#     4  10  20  34  55  81 103 122 150 192 242 298
#
# _framework density 17.926036
#
# number of rings (size 3 to 8) (size 9 to 14) (size 15 to 20)
#    0.000    2.571    0.000    3.000    0.000    7.429 
#    0.000    0.000    0.000    0.857    0.000    0.000 
#    0.000    0.000    0.000    0.000    0.000    0.000 
#
# Total GULP energy -156110.371649 kJ/mol
# GULP energy per Si atom -5575.370416 kJ/mol
# Density = 1.788524 g / cm^3
# Si number density = 17.926036 Si / 1000 Ang^3
#
#
#
# Elastic Constant Matrix: (Units=GPa)
#
#
# Indices 1 2 3 4 5 6 
#
# 1 59.5593 31.0671 32.3369 0.0000 -14.1467 0.0000
# 2 31.0671 52.8561 28.2219 0.0000 -12.9004 0.0000
# 3 32.3369 28.2219 97.0079 0.0000 -23.8269 0.0000
# 4 0.0000 0.0000 0.0000 22.9066 0.0000 -0.8458
# 5 -14.1467 -12.9004 -23.8269 0.0000 14.0195 0.0000
# 6 0.0000 0.0000 0.0000 -0.8458 0.0000 22.8582
#
#
#
# Elastic Compliance Matrix: (Units=1/GPa)
#
#
# Indices 1 2 3 4 5 6 
#
# 1 0.027184 -0.011556 -0.002702 0.000000 0.012205 0.000000
# 2 -0.011556 0.029737 -0.001617 0.000000 0.012953 0.000000
# 3 -0.002702 -0.001617 0.018272 0.000000 0.026840 0.000000
# 4 0.000000 0.000000 0.000000 0.043715 0.000000 0.001617
# 5 0.012205 0.012953 0.026840 0.000000 0.141180 0.000000
# 6 0.000000 0.000000 0.000000 0.001617 0.000000 0.043808
#
#
# Mechanical properties :
#
#
# Convention : Reuss Voigt Hill
#
# Bulk Modulus (GPa) = 23.01951 43.63055 33.32503
# Shear Modulus (GPa) = 14.28054 19.81001 17.04527
#
# Velocity S-wave (km/s) = 2.82554 3.32791 3.08696
# Velocity P-wave (km/s) = 4.84914 6.25769 5.59789
#
# Compressibility (1/GPa) = 0.04344141
#
# Stress axis : x y z
#
# Youngs Moduli (GPa) = 36.78659 33.62840 54.72886
#
# Poissons Ratio (x) = 0.38862 0.14787
# Poissons Ratio (y) = 0.42512 0.08852
# Poissons Ratio (z) = 0.09939 0.05439
#
# Static dielectric constant tensor:
#      x y z
#    x 1.607520 0.000000 -0.006850 
#    y 0.000000 1.505470 0.000000 
#    z -0.006850 0.000000 1.639850 
# 
# From -- ./inp_files/42311.got.cif
#   From: 2010.05.17/outbox.ucp.g08.bks.cvg/sg11_22_cif.got.tgz:42311.got - 2010.06.11 11:38:39.
