data_PCOD9167513
_publ_section_title
;
Structure prediction by ZEFSAII (Michael W. Deem and Ramdas Pophale) SiO2 
 PCOD9167513
Probable space group: P 21/M
;
_chemical_formula_sum "Si O2"
_cell_formula_units_Z 20
_cell_length_a 6.752506
_cell_length_b 14.626199
_cell_length_c 10.516437
_cell_angle_alpha 90.000000
_cell_angle_beta 107.073287
_cell_angle_gamma 90.000000
_cell_volume 992.867221
_symmetry_space_group_name_H-M "P 21/M"
_symmetry_group_IT_number 11
_symmetry_cell_setting 'monoclinic'
loop_
_space_group_symop_operation_xyz
x,y,z
-x,1/2+y,-z
-x,-y,-z
x,1/2-y,z
loop_
_atom_site_type_symbol
_atom_site_label
_atom_site_fract_x
_atom_site_fract_y
_atom_site_fract_z
Si Si1 0.187654 0.450835 0.965131
Si Si2 0.516945 0.397054 0.452443
Si Si3 0.800401 0.250000 0.107790
Si Si4 0.849615 0.250000 0.585601
Si Si5 0.392271 0.931132 0.821754
Si Si6 0.149674 0.250000 0.393603
Si Si7 0.040243 0.250000 0.899536
O O1 0.223632 0.494477 0.833142
O O2 0.161026 0.343043 0.949426
O O3 0.388997 0.468564 0.088452
O O4 0.000000 0.500000 0.000000
O O5 0.500000 0.500000 0.500000
O O6 0.697017 0.337566 0.552183
O O7 0.586821 0.405829 0.319785
O O8 0.303806 0.338111 0.421309
O O9 0.671435 0.339801 0.116242
O O10 0.002599 0.250000 0.240067
O O11 0.860285 0.250000 0.971706
O O12 0.002126 0.250000 0.491012
O O13 0.968444 0.250000 0.740820
#
# Coordination Sequence:
#
# PCOD9167513 Si02
#       7
#     4   4   2   2   4   2   2
#     4  11  25  44  67 104 133 177 227 282 343 411
#     4  11  26  44  70  97 138 186 229 286 343 415
#     4  12  21  45  75  95 130 182 227 286 335 401
#     4  11  27  46  65 106 138 177 231 284 359 407
#     4  11  24  43  69  99 134 173 238 278 336 413
#     4  11  24  47  68  98 135 178 242 276 333 425
#     4  12  26  42  70  99 143 173 220 294 351 395
#
# _framework density 20.143681999999998
#
# number of rings (size 3 to 8) (size 9 to 14) (size 15 to 20)
#    0.000    0.800    4.000    2.400    5.600    0.800 
#    3.600    0.000    0.000    0.000    0.000    0.000 
#    0.000    0.000    0.000    0.000    0.000    0.000 
#
# Total GULP energy -111781.193568 kJ/mol
# GULP energy per Si atom -5589.059678 kJ/mol
# Density = 2.009783 g / cm^3
# Si number density = 20.143682 Si / 1000 Ang^3
#
#
#
# Elastic Constant Matrix: (Units=GPa)
#
#
# Indices 1 2 3 4 5 6 
#
# 1 112.3930 48.8988 19.5070 0.0000 -9.2696 0.0000
# 2 48.8988 144.0381 -4.9923 0.0000 -15.6661 0.0000
# 3 19.5070 -4.9923 63.7377 0.0000 -14.4009 0.0000
# 4 0.0000 0.0000 0.0000 18.0513 0.0000 -7.0353
# 5 -9.2696 -15.6661 -14.4009 0.0000 31.1261 0.0000
# 6 0.0000 0.0000 0.0000 -7.0353 0.0000 43.1722
#
#
#
# Elastic Compliance Matrix: (Units=1/GPa)
#
#
# Indices 1 2 3 4 5 6 
#
# 1 0.011277 -0.004011 -0.003867 0.000000 -0.000450 0.000000
# 2 -0.004011 0.008916 0.002982 0.000000 0.004672 0.000000
# 3 -0.003867 0.002982 0.019191 0.000000 0.009228 0.000000
# 4 0.000000 0.000000 0.000000 0.059155 0.000000 0.009640
# 5 -0.000450 0.004672 0.009228 0.000000 0.038615 0.000000
# 6 0.000000 0.000000 0.000000 0.009640 0.000000 0.024734
#
#
# Mechanical properties :
#
#
# Convention : Reuss Voigt Hill
#
# Bulk Modulus (GPa) = 33.79435 49.66620 41.73027
# Shear Modulus (GPa) = 27.54159 35.58695 31.56427
#
# Velocity S-wave (km/s) = 3.70166 4.20772 3.96277
# Velocity P-wave (km/s) = 5.92307 6.95097 6.45751
#
# Compressibility (1/GPa) = 0.02959075
#
# Stress axis : x y z
#
# Youngs Moduli (GPa) = 88.67960 112.15959 52.10680
#
# Poissons Ratio (x) = 0.44989 0.20150
# Poissons Ratio (y) = 0.35571 -0.15536
# Poissons Ratio (z) = 0.34292 -0.33442
#
# Static dielectric constant tensor:
#      x y z
#    x 1.717520 0.000000 0.004500 
#    y 0.000000 1.677690 0.000000 
#    z 0.004500 0.000000 1.705470 
# 
# From -- ./inp_files/4284.got.cif
#   From: 2010.05.17/outbox.cif.g08.bks.cpg/sg11_3_cif.got.tgz:4284.got - 2010.06.03 12:22:45.
