data_PCOD9167603
_publ_section_title
;
Structure prediction by ZEFSAII (Michael W. Deem and Ramdas Pophale) SiO2 
 PCOD9167603
Probable space group: P 21/M
;
_chemical_formula_sum "Si O2"
_cell_formula_units_Z 18
_cell_length_a 9.379131
_cell_length_b 17.775126
_cell_length_c 6.126142
_cell_angle_alpha 90.000000
_cell_angle_beta 128.472116
_cell_angle_gamma 90.000000
_cell_volume 799.603628
_symmetry_space_group_name_H-M "P 21/M"
_symmetry_group_IT_number 11
_symmetry_cell_setting 'monoclinic'
loop_
_space_group_symop_operation_xyz
x,y,z
-x,1/2+y,-z
-x,-y,-z
x,1/2-y,z
loop_
_atom_site_type_symbol
_atom_site_label
_atom_site_fract_x
_atom_site_fract_y
_atom_site_fract_z
Si Si1 0.183190 0.124976 0.433772
Si Si2 0.499463 0.631177 0.938596
Si Si3 0.682107 0.470025 0.557304
Si Si4 0.616840 0.750000 0.683779
Si Si5 0.786969 0.166177 0.966084
O O1 0.284182 0.183750 0.371165
O O2 0.978921 0.154057 0.268105
O O3 0.186155 0.041092 0.338225
O O4 0.302610 0.119140 0.766755
O O5 0.388465 0.560141 0.742175
O O6 0.530445 0.685315 0.764466
O O7 0.375539 0.663213 0.015169
O O8 0.500000 0.500000 0.500000
O O9 0.762962 0.400504 0.770026
O O10 0.779859 0.250000 0.856836
#
# Coordination Sequence:
#
# PCOD9167603 Si02
#       5
#     4   4   4   2   4
#     4  12  27  51  72 110 146 194 245 302 363 437
#     4  12  26  46  79 106 144 196 242 299 362 435
#     4  12  26  47  79 104 151 194 241 301 368 431
#     4  12  24  44  78 104 146 194 240 294 364 428
#     4  12  28  48  74 111 148 189 248 303 363 436
#
# _framework density 22.511154999999999
#
# number of rings (size 3 to 8) (size 9 to 14) (size 15 to 20)
#    0.000    0.000    6.667    2.000    4.667    2.667 
#    0.000    0.000    0.000    0.000    0.000    0.000 
#    0.000    0.000    0.000    0.000    0.000    0.000 
#
# Total GULP energy -100235.093144 kJ/mol
# GULP energy per Si atom -5568.616286 kJ/mol
# Density = 2.245992 g / cm^3
# Si number density = 22.511155 Si / 1000 Ang^3
#
#
#
# Elastic Constant Matrix: (Units=GPa)
#
#
# Indices 1 2 3 4 5 6 
#
# 1 29.7493 -2.5821 29.7963 0.0000 37.4434 0.0000
# 2 -2.5821 178.1293 48.3367 0.0000 12.9725 0.0000
# 3 29.7963 48.3367 96.8566 0.0000 27.7694 0.0000
# 4 0.0000 0.0000 0.0000 15.5019 0.0000 7.7926
# 5 37.4434 12.9725 27.7694 0.0000 -0.6264 0.0000
# 6 0.0000 0.0000 0.0000 7.7926 0.0000 30.6242
#
#
#
# Elastic Compliance Matrix: (Units=1/GPa)
#
#
# Indices 1 2 3 4 5 6 
#
# 1 0.008686 0.001152 -0.011593 0.000000 0.029111 0.000000
# 2 0.001152 0.006642 -0.004584 0.000000 0.003191 0.000000
# 3 -0.011593 -0.004584 0.017657 0.000000 -0.005156 0.000000
# 4 0.000000 0.000000 0.000000 0.073970 0.000000 -0.018822
# 5 0.029111 0.003191 -0.005156 0.000000 -0.018806 0.000000
# 6 0.000000 0.000000 0.000000 -0.018822 0.000000 0.037443
#
#
# Mechanical properties :
#
#
# Convention : Reuss Voigt Hill
#
# Bulk Modulus (GPa) = 340.79896 50.64856 195.72376
# Shear Modulus (GPa) = 31.92431 24.37891 28.15161
#
# Velocity S-wave (km/s) = 3.76993 3.29442 3.54017
# Velocity P-wave (km/s) = 13.06406 6.08433 10.19040
#
# Compressibility (1/GPa) = 0.00293428
#
# Stress axis : x y z
#
# Youngs Moduli (GPa) = 115.13074 150.55492 56.63539
#
# Poissons Ratio (x) = -0.17340 0.65658
# Poissons Ratio (y) = -0.13260 0.25961
# Poissons Ratio (z) = 1.33472 0.69012
#
# Static dielectric constant tensor:
#      x y z
#    x 1.770140 0.000000 0.016410 
#    y 0.000000 1.895560 0.000000 
#    z 0.016410 0.000000 1.888820 
# 
# From -- ./inp_files/1843.got.cif
#   From: 2010.05.17/outbox.cif.g08.bks.cpg/sg11_1_cif.got.tgz:1843.got - 2010.06.03 12:22:45.
