data_PCOD9167409
_publ_section_title
;
Structure prediction by ZEFSAII (Michael W. Deem and Ramdas Pophale) SiO2 
 PCOD9167409
Probable space group: P 21/M
;
_chemical_formula_sum "Si O2"
_cell_formula_units_Z 28
_cell_length_a 23.715161
_cell_length_b 8.810438
_cell_length_c 26.245843
_cell_angle_alpha 90.000000
_cell_angle_beta 17.019765
_cell_angle_gamma 90.000000
_cell_volume 1605.126141
_symmetry_space_group_name_H-M "P 21/M"
_symmetry_group_IT_number 11
_symmetry_cell_setting 'monoclinic'
loop_
_space_group_symop_operation_xyz
x,y,z
-x,1/2+y,-z
-x,-y,-z
x,1/2-y,z
loop_
_atom_site_type_symbol
_atom_site_label
_atom_site_fract_x
_atom_site_fract_y
_atom_site_fract_z
Si Si1 0.966565 0.931831 0.972515
Si Si2 0.550190 0.069358 0.311711
Si Si3 0.341761 0.067825 0.598115
Si Si4 0.349899 0.929896 0.386889
Si Si5 0.427526 0.571011 0.010551
Si Si6 0.416671 0.430659 0.916547
Si Si7 0.062525 0.927939 0.265857
O O1 0.021635 0.250000 0.035709
O O2 0.135765 0.996073 0.790183
O O3 0.754676 0.984626 0.138599
O O4 0.000000 0.000000 0.000000
O O5 0.585253 0.250000 0.281459
O O6 0.419588 0.034319 0.474171
O O7 0.439373 0.018487 0.357002
O O8 0.331611 0.250000 0.613087
O O9 0.500000 0.000000 0.500000
O O10 0.365722 0.750000 0.382359
O O11 0.464080 0.966712 0.236502
O O12 0.129877 0.977231 0.568755
O O13 0.467229 0.750000 0.974831
O O14 0.197140 0.550912 0.199744
O O15 0.500000 0.500000 0.000000
O O16 0.511530 0.491174 0.887159
O O17 0.390602 0.250000 0.942827
O O18 0.209825 0.513581 0.095252
O O19 0.021671 0.750000 0.295248
#
# Coordination Sequence:
#
# PCOD9167409 Si02
#       7
#     4   4   4   4   4   4   4
#     4  12  24  40  64  90 121 155 193 242 298 357
#     4  11  25  42  62  88 118 155 198 244 293 353
#     4  11  23  40  64  90 119 155 194 241 300 353
#     4  11  23  39  61  87 117 156 199 243 292 347
#     4   9  18  33  58  88 117 155 196 239 293 345
#     4   9  19  36  58  84 117 154 194 240 291 342
#     4   9  20  36  58  85 116 156 194 238 293 342
#
# _framework density 17.444109999999998
#
# number of rings (size 3 to 8) (size 9 to 14) (size 15 to 20)
#    0.857    0.857    1.429    3.429    0.000    5.143 
#    0.000    0.714    0.000    0.000    0.000    0.000 
#    0.000    0.000    0.000    0.000    0.000    0.000 
#
# Total GULP energy -156141.363995 kJ/mol
# GULP energy per Si atom -5576.477286 kJ/mol
# Density = 1.740441 g / cm^3
# Si number density = 17.444110 Si / 1000 Ang^3
#
#
#
# Elastic Constant Matrix: (Units=GPa)
#
#
# Indices 1 2 3 4 5 6 
#
# 1 110.4010 53.0626 45.8693 0.0000 11.4642 0.0000
# 2 53.0626 86.3087 52.8562 0.0000 11.3070 0.0000
# 3 45.8693 52.8562 122.9507 0.0000 12.1764 0.0000
# 4 0.0000 0.0000 0.0000 42.0775 0.0000 6.7020
# 5 11.4642 11.3070 12.1764 0.0000 24.1971 0.0000
# 6 0.0000 0.0000 0.0000 6.7020 0.0000 43.4123
#
#
#
# Elastic Compliance Matrix: (Units=1/GPa)
#
#
# Indices 1 2 3 4 5 6 
#
# 1 0.013301 -0.006763 -0.001835 0.000000 -0.002218 0.000000
# 2 -0.006763 0.019573 -0.005581 0.000000 -0.003133 0.000000
# 3 -0.001835 -0.005581 0.011443 0.000000 -0.002281 0.000000
# 4 0.000000 0.000000 0.000000 0.024365 0.000000 -0.003761
# 5 -0.002218 -0.003133 -0.002281 0.000000 0.044990 0.000000
# 6 0.000000 0.000000 0.000000 -0.003761 0.000000 0.023616
#
#
# Mechanical properties :
#
#
# Convention : Reuss Voigt Hill
#
# Bulk Modulus (GPa) = 62.66181 69.24853 65.95517
# Shear Modulus (GPa) = 29.24573 33.12888 31.18731
#
# Velocity S-wave (km/s) = 4.09900 4.36264 4.23287
# Velocity P-wave (km/s) = 7.64211 8.07220 7.86010
#
# Compressibility (1/GPa) = 0.01595868
#
# Stress axis : x y z
#
# Youngs Moduli (GPa) = 75.18045 51.09208 87.38942
#
# Poissons Ratio (x) = 0.34555 0.16038
# Poissons Ratio (y) = 0.50846 0.48769
# Poissons Ratio (z) = 0.13797 0.28513
#
# Static dielectric constant tensor:
#      x y z
#    x 1.573710 0.000000 -0.000860 
#    y 0.000000 1.584320 0.000000 
#    z -0.000860 0.000000 1.577100 
# 
# From -- ./inp_files/69793.got.cif
#   From: 2010.05.17/outbox.cif.g08.bks.cpg/sg11_35_cif.got.tgz:69793.got - 2010.06.03 12:22:45.
