data_PCOD9167788
_publ_section_title
;
Structure prediction by ZEFSAII (Michael W. Deem and Ramdas Pophale) SiO2 
 PCOD9167788
Probable space group: P 21/M
;
_chemical_formula_sum "Si O2"
_cell_formula_units_Z 28
_cell_length_a 12.000000
_cell_length_b 9.000000
_cell_length_c 15.000000
_cell_angle_alpha 90.000000
_cell_angle_beta 60.000000
_cell_angle_gamma 90.000000
_cell_volume 1402.961154
_symmetry_space_group_name_H-M "P 21/M"
_symmetry_group_IT_number 11
_symmetry_cell_setting 'monoclinic'
loop_
_space_group_symop_operation_xyz
x,y,z
-x,1/2+y,-z
-x,-y,-z
x,1/2-y,z
loop_
_atom_site_type_symbol
_atom_site_label
_atom_site_fract_x
_atom_site_fract_y
_atom_site_fract_z
Si Si1 0.633679 0.920208 0.448433
Si Si2 0.812229 0.919626 0.214511
Si Si3 0.329155 0.928633 0.887961
Si Si4 0.011025 0.927306 0.705803
Si Si5 0.275149 0.427290 0.103588
Si Si6 0.188572 0.572582 0.478001
Si Si7 0.376014 0.070764 0.253158
O O1 0.631392 0.750000 0.483626
O O2 0.686447 0.914519 0.327292
O O3 0.500000 0.000000 0.500000
O O4 0.719661 0.021888 0.477800
O O5 0.852325 0.750000 0.178349
O O6 0.776316 0.006104 0.138907
O O7 0.909707 0.994593 0.246087
O O8 0.321124 0.750000 0.894510
O O9 0.472664 0.965848 0.791132
O O10 0.304265 0.991654 0.998198
O O11 0.034878 0.750000 0.699437
O O12 0.053133 0.971792 0.586019
O O13 0.865201 0.953816 0.795565
O O14 0.287134 0.250000 0.082484
O O15 0.362833 0.469128 0.153350
O O16 0.183170 0.750000 0.465234
O O17 0.264539 0.500910 0.361674
O O18 0.359748 0.250000 0.267399
#
# Coordination Sequence:
#
# PCOD9167788 Si02
#       7
#     4   4   4   4   4   4   4
#     4  10  19  31  50  78 111 147 186 229 279 335
#     4  10  21  36  56  82 112 148 188 230 279 337
#     4  11  23  38  58  85 115 148 189 236 284 334
#     4   9  20  39  60  85 116 149 187 231 281 335
#     4  10  22  41  62  82 111 151 192 236 283 333
#     4  10  20  34  55  83 114 148 186 229 277 333
#     4  10  22  39  59  85 116 150 188 233 285 336
#
# _framework density 19.957787
#
# number of rings (size 3 to 8) (size 9 to 14) (size 15 to 20)
#    0.000    2.000    0.000    3.000    0.000    8.000 
#    0.000    0.000    0.000    0.000    0.000    0.000 
#    0.000    0.000    0.000    0.000    0.000    0.000 
#
# Total GULP energy -155938.707027 kJ/mol
# GULP energy per Si atom -5569.239537 kJ/mol
# Density = 1.991236 g / cm^3
# Si number density = 19.957787 Si / 1000 Ang^3
#
#
#
# Elastic Constant Matrix: (Units=GPa)
#
#
# Indices 1 2 3 4 5 6 
#
# 1 39.0778 13.0134 9.7055 0.0000 7.0148 0.0000
# 2 13.0134 47.4418 31.1200 0.0000 -2.3498 0.0000
# 3 9.7055 31.1200 114.4204 0.0000 17.0683 0.0000
# 4 0.0000 0.0000 0.0000 45.5518 0.0000 5.3360
# 5 7.0148 -2.3498 17.0683 0.0000 36.8469 0.0000
# 6 0.0000 0.0000 0.0000 5.3360 0.0000 15.8845
#
#
#
# Elastic Compliance Matrix: (Units=1/GPa)
#
#
# Indices 1 2 3 4 5 6 
#
# 1 0.029565 -0.009061 0.000948 0.000000 -0.006645 0.000000
# 2 -0.009061 0.029406 -0.008343 0.000000 0.007465 0.000000
# 3 0.000948 -0.008343 0.011854 0.000000 -0.006203 0.000000
# 4 0.000000 0.000000 0.000000 0.022852 0.000000 -0.007677
# 5 -0.006645 0.007465 -0.006203 0.000000 0.031754 0.000000
# 6 0.000000 0.000000 0.000000 -0.007677 0.000000 0.065533
#
#
# Mechanical properties :
#
#
# Convention : Reuss Voigt Hill
#
# Bulk Modulus (GPa) = 26.37589 34.29086 30.33337
# Shear Modulus (GPa) = 21.14048 29.46337 25.30193
#
# Velocity S-wave (km/s) = 3.25816 3.84641 3.56444
# Velocity P-wave (km/s) = 5.23437 6.07828 5.67204
#
# Compressibility (1/GPa) = 0.03791342
#
# Stress axis : x y z
#
# Youngs Moduli (GPa) = 33.82405 34.00652 84.36144
#
# Poissons Ratio (x) = 0.30812 -0.07996
# Poissons Ratio (y) = 0.30647 0.70381
# Poissons Ratio (z) = -0.03206 0.28371
#
# Static dielectric constant tensor:
#      x y z
#    x 1.753970 0.000000 -0.038580 
#    y 0.000000 1.694850 0.000000 
#    z -0.038580 0.000000 1.707810 
# 
# From -- ./inp_files/48930.got.cif
#   From: 2010.05.17/outbox.ucp.g08.bks.cvg/sg11_25_cif.got.tgz:48930.got - 2010.06.11 11:38:39.
