data_PCOD9167021
_publ_section_title
;
Structure prediction by ZEFSAII (Michael W. Deem and Ramdas Pophale) SiO2 
 PCOD9167021
Probable space group: P 21/M
;
_chemical_formula_sum "Si O2"
_cell_formula_units_Z 32
_cell_length_a 15.435924
_cell_length_b 14.505680
_cell_length_c 9.134852
_cell_angle_alpha 90.000000
_cell_angle_beta 107.854091
_cell_angle_gamma 90.000000
_cell_volume 1946.867346
_symmetry_space_group_name_H-M "P 21/M"
_symmetry_group_IT_number 11
_symmetry_cell_setting 'monoclinic'
loop_
_space_group_symop_operation_xyz
x,y,z
-x,1/2+y,-z
-x,-y,-z
x,1/2-y,z
loop_
_atom_site_type_symbol
_atom_site_label
_atom_site_fract_x
_atom_site_fract_y
_atom_site_fract_z
Si Si1 0.604790 1.000000 0.512723
Si Si2 0.241174 0.500000 0.164126
Si Si3 0.715149 0.857439 0.389682
Si Si4 0.770095 0.500000 0.177103
Si Si5 0.014372 1.000000 0.682284
Si Si6 0.715149 0.142561 0.389682
Si Si7 0.128688 0.357417 0.283042
Si Si8 0.871312 0.142583 0.716958
O O1 0.635318 0.088499 0.432939
O O2 0.500000 0.000000 0.500000
O O3 0.669138 1.000000 0.689002
O O4 0.635318 0.911501 0.432939
O O5 0.180483 0.411888 0.181002
O O6 0.180483 0.588112 0.181002
O O7 0.263339 0.500000 0.005803
O O8 0.696179 0.750000 0.358656
O O9 0.737003 0.911823 0.252782
O O10 0.803628 0.866162 0.541632
O O11 0.879460 0.500000 0.230088
O O12 0.737003 0.411823 0.252782
O O13 0.962752 0.088272 0.723447
O O14 0.000000 0.000000 0.500000
O O15 0.962752 0.911728 0.723447
O O16 0.696179 0.250000 0.358656
O O17 0.803628 0.133839 0.541631
O O18 0.114690 0.250000 0.244863
O O19 0.885310 0.250000 0.755137
#
# Coordination Sequence:
#
# PCOD9167021 Si02
#       8
#     4   4   4   4   4   4   4   4
#     4   9  18  36  59  76  92 123 165 202 240 297
#     4   9  20  35  50  72 102 130 158 201 256 295
#     4   9  18  33  52  74 100 131 164 198 241 293
#     4  11  20  32  49  73 105 133 160 203 249 286
#     4  11  18  30  48  74  98 131 177 206 231 277
#     4   9  18  33  52  74 100 131 164 198 241 293
#     4   9  18  33  50  69  98 135 174 206 233 279
#     4   9  18  33  50  69  98 135 174 206 233 279
#
# _framework density 16.436661000000001
#
# number of rings (size 3 to 8) (size 9 to 14) (size 15 to 20)
#    0.000    2.500    2.500    1.500    0.000    5.000 
#    0.000    3.750    0.000    1.500    0.000    0.000 
#    0.000    0.000    0.000    0.000    0.000    0.000 
#
# Total GULP energy -178482.266181 kJ/mol
# GULP energy per Si atom -5577.570818 kJ/mol
# Density = 1.639925 g / cm^3
# Si number density = 16.436661 Si / 1000 Ang^3
#
#
#
# Elastic Constant Matrix: (Units=GPa)
#
#
# Indices 1 2 3 4 5 6 
#
# 1 139.0176 68.6447 39.1159 0.0000 -13.1871 0.0000
# 2 68.6447 171.5326 56.7760 0.0000 -20.5672 0.0000
# 3 39.1159 56.7760 92.1909 0.0000 -27.0408 0.0000
# 4 0.0000 0.0000 0.0000 9.1547 0.0000 3.2446
# 5 -13.1871 -20.5672 -27.0408 0.0000 16.7862 0.0000
# 6 0.0000 0.0000 0.0000 3.2446 0.0000 7.2160
#
#
#
# Elastic Compliance Matrix: (Units=1/GPa)
#
#
# Indices 1 2 3 4 5 6 
#
# 1 0.009271 -0.003011 -0.001943 0.000000 0.000463 0.000000
# 2 -0.003011 0.008395 -0.002975 0.000000 0.003128 0.000000
# 3 -0.001943 -0.002975 0.022723 0.000000 0.031434 0.000000
# 4 0.000000 0.000000 0.000000 0.129940 0.000000 -0.058425
# 5 0.000463 0.003128 0.031434 0.000000 0.114406 0.000000
# 6 0.000000 0.000000 0.000000 -0.058425 0.000000 0.164851
#
#
# Mechanical properties :
#
#
# Convention : Reuss Voigt Hill
#
# Bulk Modulus (GPa) = 40.76540 81.31272 61.03906
# Shear Modulus (GPa) = 10.55695 22.51167 16.53431
#
# Velocity S-wave (km/s) = 2.53707 3.70483 3.17510
# Velocity P-wave (km/s) = 5.78253 8.23885 7.11746
#
# Compressibility (1/GPa) = 0.02453061
#
# Stress axis : x y z
#
# Youngs Moduli (GPa) = 107.86306 119.12513 44.00734
#
# Poissons Ratio (x) = 0.35873 0.08551
# Poissons Ratio (y) = 0.32482 0.13091
# Poissons Ratio (z) = 0.20959 0.35436
#
# Static dielectric constant tensor:
#      x y z
#    x 1.522600 0.000000 0.002990 
#    y 0.000000 1.549340 0.000000 
#    z 0.002990 0.000000 1.548260 
# 
# From -- ./inp_files/21891.got.cif
#   From: 2010.05.17/outbox.cif.g08.bks.cpg/sg11_11_cif.got.tgz:21891.got - 2010.06.03 12:22:45.
