data_PCOD9167808
_publ_section_title
;
Structure prediction by ZEFSAII (Michael W. Deem and Ramdas Pophale) SiO2 
 PCOD9167808
Probable space group: P 21/M
;
_chemical_formula_sum "Si O2"
_cell_formula_units_Z 24
_cell_length_a 24.000000
_cell_length_b 9.000000
_cell_length_c 18.000000
_cell_angle_alpha 90.000000
_cell_angle_beta 20.000000
_cell_angle_gamma 90.000000
_cell_volume 1329.774317
_symmetry_space_group_name_H-M "P 21/M"
_symmetry_group_IT_number 11
_symmetry_cell_setting 'monoclinic'
loop_
_space_group_symop_operation_xyz
x,y,z
-x,1/2+y,-z
-x,-y,-z
x,1/2-y,z
loop_
_atom_site_type_symbol
_atom_site_label
_atom_site_fract_x
_atom_site_fract_y
_atom_site_fract_z
Si Si1 0.555887 0.420886 0.044932
Si Si2 0.755999 0.580273 0.676589
Si Si3 0.056312 0.926312 0.682191
Si Si4 0.686439 0.571118 0.528485
Si Si5 0.720544 0.926508 0.177600
Si Si6 0.640623 0.427060 0.427341
O O1 0.609176 0.250000 0.984179
O O2 0.401278 0.423314 0.181820
O O3 0.479713 0.470967 0.218683
O O4 0.694047 0.516943 0.832389
O O5 0.808472 0.750000 0.617432
O O6 0.889544 0.484729 0.466044
O O7 0.084754 0.750000 0.650656
O O8 0.167974 0.005934 0.604125
O O9 0.870184 0.957946 0.935959
O O10 0.695291 0.750000 0.517067
O O11 0.689079 0.506240 0.442800
O O12 0.719657 0.750000 0.195286
O O13 0.548316 0.962508 0.355134
O O14 0.735897 0.013674 0.235791
O O15 0.658632 0.250000 0.412005
#
# Coordination Sequence:
#
# PCOD9167808 Si02
#       6
#     4   4   4   4   4   4
#     4   8  15  27  43  65  95 130 162 194 237 286
#     4   9  16  26  43  69  99 128 160 199 241 287
#     4  10  19  32  51  74 101 131 163 202 245 288
#     4  10  20  33  50  75 104 130 162 204 245 288
#     4   9  20  37  54  73  97 128 166 203 242 293
#     4  10  20  35  55  75  96 127 165 203 246 295
#
# _framework density 18.048175000000001
#
# number of rings (size 3 to 8) (size 9 to 14) (size 15 to 20)
#    0.000    2.667    0.000    3.000    0.000    7.333 
#    0.000    0.000    0.000    1.000    0.000    0.000 
#    0.000    0.000    0.000    0.000    0.000    0.000 
#
# Total GULP energy -133812.795406 kJ/mol
# GULP energy per Si atom -5575.533142 kJ/mol
# Density = 1.800710 g / cm^3
# Si number density = 18.048175 Si / 1000 Ang^3
#
#
#
# Elastic Constant Matrix: (Units=GPa)
#
#
# Indices 1 2 3 4 5 6 
#
# 1 -19.2307 -7.2402 -12.3554 0.0000 -3.0991 0.0000
# 2 -7.2402 44.1193 31.1844 0.0000 3.6358 0.0000
# 3 -12.3554 31.1844 73.9334 0.0000 12.3312 0.0000
# 4 0.0000 0.0000 0.0000 26.2102 0.0000 9.0579
# 5 -3.0991 3.6358 12.3312 0.0000 9.6704 0.0000
# 6 0.0000 0.0000 0.0000 9.0579 0.0000 16.4814
#
#
#
# Elastic Compliance Matrix: (Units=1/GPa)
#
#
# Indices 1 2 3 4 5 6 
#
# 1 -0.046294 -0.003387 -0.005138 0.000000 -0.007010 0.000000
# 2 -0.003387 0.032385 -0.015259 0.000000 0.006196 0.000000
# 3 -0.005138 -0.015259 0.023397 0.000000 -0.025744 0.000000
# 4 0.000000 0.000000 0.000000 0.047098 0.000000 -0.025885
# 5 -0.007010 0.006196 -0.025744 0.000000 0.131660 0.000000
# 6 0.000000 0.000000 0.000000 -0.025885 0.000000 0.074900
#
#
# Mechanical properties :
#
#
# Convention : Reuss Voigt Hill
#
# Bulk Modulus (GPa) = -26.25915 13.55550 -6.35183
# Shear Modulus (GPa) = 16.77725 16.28795 16.53260
#
# Velocity S-wave (km/s) = 3.05221 3.00737 3.02988
# Velocity P-wave (km/s) = 1.46960 4.42562 2.95181
#
# Compressibility (1/GPa) = -0.03808196
#
# Stress axis : x y z
#
# Youngs Moduli (GPa) = -21.60119 30.87873 42.74058
#
# Poissons Ratio (x) = 0.10460 0.21962
# Poissons Ratio (y) = -0.07317 0.65218
# Poissons Ratio (z) = -0.11099 0.47118
#
# Static dielectric constant tensor:
#      x y z
#    x 1.586320 0.000000 0.007420 
#    y 0.000000 1.605810 0.000000 
#    z 0.007420 0.000000 1.634100 
# 
# From -- ./inp_files/44437.got.cif
#   From: 2010.05.17/outbox.ucp.g08.bks.cvg/sg11_23_cif.got.tgz:44437.got - 2010.06.11 11:38:39.
