data_PCOD9167744
_publ_section_title
;
Structure prediction by ZEFSAII (Michael W. Deem and Ramdas Pophale) SiO2 
 PCOD9167744
Probable space group: P 21/M
;
_chemical_formula_sum "Si O2"
_cell_formula_units_Z 32
_cell_length_a 15.000000
_cell_length_b 9.000000
_cell_length_c 24.000000
_cell_angle_alpha 90.000000
_cell_angle_beta 150.000000
_cell_angle_gamma 90.000000
_cell_volume 1620.000000
_symmetry_space_group_name_H-M "P 21/M"
_symmetry_group_IT_number 11
_symmetry_cell_setting 'monoclinic'
loop_
_space_group_symop_operation_xyz
x,y,z
-x,1/2+y,-z
-x,-y,-z
x,1/2-y,z
loop_
_atom_site_type_symbol
_atom_site_label
_atom_site_fract_x
_atom_site_fract_y
_atom_site_fract_z
Si Si1 0.442158 0.571856 0.527519
Si Si2 0.792231 0.927175 0.285408
Si Si3 0.135958 0.428999 0.432482
Si Si4 0.711920 0.571141 0.364809
Si Si5 0.564825 0.425747 0.977676
Si Si6 0.291114 0.927405 0.132336
Si Si7 0.854428 0.926449 0.058616
Si Si8 0.245484 0.572709 0.234324
O O1 0.500000 0.500000 0.500000
O O2 0.432170 0.750000 0.517620
O O3 0.257371 0.504600 0.451113
O O4 0.592419 0.520502 0.653142
O O5 0.832249 0.750000 0.305889
O O6 0.795760 0.981944 0.351719
O O7 0.594066 0.945642 0.153561
O O8 0.933205 0.014811 0.324118
O O9 0.147927 0.250000 0.434690
O O10 0.208825 0.478146 0.533269
O O11 0.730456 0.750000 0.373981
O O12 0.501750 0.539352 0.249789
O O13 0.589835 0.250000 0.999687
O O14 0.258085 0.504001 0.953513
O O15 0.500000 0.500000 0.000000
O O16 0.269799 0.750000 0.111302
O O17 0.213972 0.962601 0.151904
O O18 0.211995 0.013488 0.037193
O O19 0.825908 0.750000 0.046246
O O20 0.066748 0.953752 0.172974
O O21 0.289559 0.750000 0.260416
#
# Coordination Sequence:
#
# PCOD9167744 Si02
#       8
#     4   4   4   4   4   4   4   4
#     4  12  26  44  66  90 119 159 207 257 304 362
#     4  10  21  39  61  89 123 162 203 246 301 359
#     4  11  22  39  64  93 125 160 198 247 305 364
#     4   9  17  34  61  89 122 162 198 240 300 359
#     4  11  24  43  65  86 118 162 206 258 309 360
#     4  10  18  36  63  89 125 168 202 244 303 361
#     4  11  23  38  61  95 128 160 203 253 304 364
#     4  10  22  41  64  91 128 166 201 249 305 359
#
# _framework density 19.753086
#
# number of rings (size 3 to 8) (size 9 to 14) (size 15 to 20)
#    0.000    1.500    2.500    3.000    0.000    3.500 
#    0.000    1.875    0.000    0.000    0.000    0.000 
#    0.000    0.000    0.000    0.000    0.000    0.000 
#
# Total GULP energy -178864.743643 kJ/mol
# GULP energy per Si atom -5589.523239 kJ/mol
# Density = 1.970813 g / cm^3
# Si number density = 19.753086 Si / 1000 Ang^3
#
#
#
# Elastic Constant Matrix: (Units=GPa)
#
#
# Indices 1 2 3 4 5 6 
#
# 1 161.9144 55.0572 7.9485 0.0000 21.1931 0.0000
# 2 55.0572 81.8534 14.6517 0.0000 14.2604 0.0000
# 3 7.9485 14.6517 11.2019 0.0000 13.3370 0.0000
# 4 0.0000 0.0000 0.0000 29.0456 0.0000 -0.4542
# 5 21.1931 14.2604 13.3370 0.0000 34.8238 0.0000
# 6 0.0000 0.0000 0.0000 -0.4542 0.0000 37.9568
#
#
#
# Elastic Compliance Matrix: (Units=1/GPa)
#
#
# Indices 1 2 3 4 5 6 
#
# 1 0.008770 -0.006580 0.010165 0.000000 -0.006536 0.000000
# 2 -0.006580 0.021026 -0.031889 0.000000 0.007608 0.000000
# 3 0.010165 -0.031889 0.212468 0.000000 -0.074499 0.000000
# 4 0.000000 0.000000 0.000000 0.034435 0.000000 0.000412
# 5 -0.006536 0.007608 -0.074499 0.000000 0.058110 0.000000
# 6 0.000000 0.000000 0.000000 0.000412 0.000000 0.026351
#
#
# Mechanical properties :
#
#
# Convention : Reuss Voigt Hill
#
# Bulk Modulus (GPa) = 5.38636 45.58715 25.48675
# Shear Modulus (GPa) = 10.42419 32.18606 21.30512
#
# Velocity S-wave (km/s) = 2.29972 4.04099 3.28772
# Velocity P-wave (km/s) = 3.12800 6.70085 5.22904
#
# Compressibility (1/GPa) = 0.18565430
#
# Stress axis : x y z
#
# Youngs Moduli (GPa) = 114.02571 47.56123 4.70659
#
# Poissons Ratio (x) = 0.31294 -0.04784
# Poissons Ratio (y) = 0.75026 0.15009
# Poissons Ratio (z) = -1.15904 1.51670
#
# Static dielectric constant tensor:
#      x y z
#    x 1.691690 0.000000 0.002280 
#    y 0.000000 1.659030 0.000000 
#    z 0.002280 0.000000 1.706190 
# 
# From -- ./inp_files/69080.got.cif
#   From: 2010.05.17/outbox.ucp.g08.bks.cvg/sg11_35_cif.got.tgz:69080.got - 2010.06.11 11:38:39.
