data_PCOD9167996
_publ_section_title
;
Structure prediction by ZEFSAII (Michael W. Deem and Ramdas Pophale) SiO2 
 PCOD9167996
Probable space group: P 21/M
;
_chemical_formula_sum "Si O2"
_cell_formula_units_Z 32
_cell_length_a 24.000000
_cell_length_b 9.000000
_cell_length_c 15.000000
_cell_angle_alpha 90.000000
_cell_angle_beta 30.000000
_cell_angle_gamma 90.000000
_cell_volume 1620.000000
_symmetry_space_group_name_H-M "P 21/M"
_symmetry_group_IT_number 11
_symmetry_cell_setting 'monoclinic'
loop_
_space_group_symop_operation_xyz
x,y,z
-x,1/2+y,-z
-x,-y,-z
x,1/2-y,z
loop_
_atom_site_type_symbol
_atom_site_label
_atom_site_fract_x
_atom_site_fract_y
_atom_site_fract_z
Si Si1 0.461929 0.914400 0.690480
Si Si2 0.187176 0.423456 0.676456
Si Si3 0.860290 0.579783 0.067138
Si Si4 0.969122 0.580654 0.281102
Si Si5 0.383333 0.925327 0.987413
Si Si6 0.645532 0.087516 0.355102
Si Si7 0.377692 0.928189 0.304993
Si Si8 0.756106 0.929474 0.673962
O O1 0.513333 0.750000 0.636662
O O2 0.405188 0.906128 0.673136
O O3 0.550637 0.045154 0.556888
O O4 0.378919 0.940186 0.886839
O O5 0.219470 0.250000 0.645801
O O6 0.126646 0.479777 0.849647
O O7 0.104681 0.424694 0.707070
O O8 0.293507 0.518655 0.499607
O O9 0.893193 0.750000 0.022704
O O10 0.730561 0.547596 0.235478
O O11 0.922607 0.505834 0.898584
O O12 0.998898 0.750000 0.259740
O O13 0.883498 0.526651 0.474921
O O14 0.380840 0.750000 0.013819
O O15 0.288058 0.013066 0.171144
O O16 0.502352 0.996114 0.849244
O O17 0.695893 0.250000 0.304935
O O18 0.385878 0.750000 0.290147
O O19 0.322069 0.993492 0.292054
O O20 0.748329 0.750000 0.675688
#
# Coordination Sequence:
#
# PCOD9167996 Si02
#       8
#     4   4   4   4   4   4   4   4
#     4   9  20  37  55  77 105 134 164 204 253 300
#     4   9  19  34  49  71 105 139 169 206 252 296
#     4  11  21  32  51  77 104 134 169 209 251 299
#     4   9  19  35  52  70  98 135 171 209 250 294
#     4  11  21  34  53  75 101 133 169 209 253 300
#     4  10  20  35  55  78 105 135 166 202 248 303
#     4  11  21  32  49  75 105 137 172 207 246 296
#     4  10  21  37  53  72 101 135 171 211 253 295
#
# _framework density 19.753086
#
# number of rings (size 3 to 8) (size 9 to 14) (size 15 to 20)
#    0.000    2.000    0.000    4.875    0.000    8.000 
#    0.000    0.000    0.000    0.750    0.000    0.000 
#    0.000    0.000    0.000    0.000    0.000    0.000 
#
# Total GULP energy -178409.709052 kJ/mol
# GULP energy per Si atom -5575.303408 kJ/mol
# Density = 1.970813 g / cm^3
# Si number density = 19.753086 Si / 1000 Ang^3
#
#
#
# Elastic Constant Matrix: (Units=GPa)
#
#
# Indices 1 2 3 4 5 6 
#
# 1 21.2010 2.0211 -4.0621 0.0000 13.9671 0.0000
# 2 2.0211 44.4289 18.6954 0.0000 13.3599 0.0000
# 3 -4.0621 18.6954 95.4609 0.0000 25.1602 0.0000
# 4 0.0000 0.0000 0.0000 26.6256 0.0000 2.1948
# 5 13.9671 13.3599 25.1602 0.0000 20.9100 0.0000
# 6 0.0000 0.0000 0.0000 2.1948 0.0000 17.4922
#
#
#
# Elastic Compliance Matrix: (Units=1/GPa)
#
#
# Indices 1 2 3 4 5 6 
#
# 1 0.240187 0.040699 0.075256 0.000000 -0.276992 0.000000
# 2 0.040699 0.034839 0.011629 0.000000 -0.063437 0.000000
# 3 0.075256 0.011629 0.038965 0.000000 -0.104583 0.000000
# 4 0.000000 0.000000 0.000000 0.037950 0.000000 -0.004762
# 5 -0.276992 -0.063437 -0.104583 0.000000 0.399216 0.000000
# 6 0.000000 0.000000 0.000000 -0.004762 0.000000 0.057766
#
#
# Mechanical properties :
#
#
# Convention : Reuss Voigt Hill
#
# Bulk Modulus (GPa) = 1.75698 21.59994 11.67846
# Shear Modulus (GPa) = 6.72516 22.63466 14.67991
#
# Velocity S-wave (km/s) = 1.84716 3.38876 2.72907
# Velocity P-wave (km/s) = 2.33254 5.12545 3.98190
#
# Compressibility (1/GPa) = 0.56915715
#
# Stress axis : x y z
#
# Youngs Moduli (GPa) = 4.16342 28.70366 25.66411
#
# Poissons Ratio (x) = -1.16820 -1.93137
# Poissons Ratio (y) = -0.16945 -0.29844
# Poissons Ratio (z) = -0.31332 -0.33379
#
# Static dielectric constant tensor:
#      x y z
#    x 1.719130 0.000000 0.003530 
#    y 0.000000 1.712090 0.000000 
#    z 0.003530 0.000000 1.718100 
# 
# From -- ./inp_files/55619.got.cif
#   From: 2010.05.17/outbox.ucp.g08.bks.cvg/sg11_28_cif.got.tgz:55619.got - 2010.06.11 11:38:39.
