data_PCOD9167619
_publ_section_title
;
Structure prediction by ZEFSAII (Michael W. Deem and Ramdas Pophale) SiO2 
 PCOD9167619
Probable space group: P 21/M
;
_chemical_formula_sum "Si O2"
_cell_formula_units_Z 32
_cell_length_a 15.982355
_cell_length_b 14.085388
_cell_length_c 14.392130
_cell_angle_alpha 90.000000
_cell_angle_beta 26.177822
_cell_angle_gamma 90.000000
_cell_volume 1429.319510
_symmetry_space_group_name_H-M "P 21/M"
_symmetry_group_IT_number 11
_symmetry_cell_setting 'monoclinic'
loop_
_space_group_symop_operation_xyz
x,y,z
-x,1/2+y,-z
-x,-y,-z
x,1/2-y,z
loop_
_atom_site_type_symbol
_atom_site_label
_atom_site_fract_x
_atom_site_fract_y
_atom_site_fract_z
Si Si1 0.585434 0.140715 0.916225
Si Si2 0.708163 0.463160 0.412404
Si Si3 0.014497 0.421375 0.340401
Si Si4 0.615638 0.353729 0.675847
Si Si5 0.788213 0.143879 0.149622
Si Si6 0.240357 0.355532 0.746251
Si Si7 0.160683 0.038772 0.007780
Si Si8 0.214901 0.444856 0.320830
O O1 0.650249 0.250000 0.867479
O O2 0.524029 0.134695 0.868299
O O3 0.719966 0.047791 0.788109
O O4 0.400531 0.114392 0.159900
O O5 0.595683 0.431093 0.615520
O O6 0.693052 0.390991 0.340731
O O7 0.666617 0.566400 0.412816
O O8 0.932067 0.462411 0.216292
O O9 0.168746 0.430717 0.106220
O O10 0.101593 0.392424 0.352236
O O11 0.840592 0.356981 0.479543
O O12 0.912352 0.522689 0.465799
O O13 0.567993 0.250000 0.685699
O O14 0.734617 0.250000 0.177129
O O15 0.764672 0.064848 0.094022
O O16 0.014962 0.143761 0.946348
O O17 0.312250 0.250000 0.662861
O O18 0.247011 0.390438 0.845808
#
# Coordination Sequence:
#
# PCOD9167619 Si02
#       8
#     4   4   4   4   4   4   4   4
#     4   9  18  33  51  68  88 120 157 189 230 279
#     4   8  13  21  35  56  85 118 150 184 220 265
#     4   9  17  29  45  68  94 119 148 185 238 279
#     4   9  16  26  44  70  96 120 152 195 234 270
#     4   8  12  19  31  49  77 112 145 175 213 258
#     4   8  13  21  34  54  85 123 152 179 218 264
#     4   8  14  22  33  55  86 114 143 178 217 272
#     4   9  18  33  50  66  92 120 146 192 235 277
#
# _framework density 22.388276000000001
#
# number of rings (size 3 to 8) (size 9 to 14) (size 15 to 20)
#    0.000    3.500    0.000    1.875    0.000    3.500 
#    0.000    3.125    0.000   12.000    0.000    3.500 
#    0.000    2.000    0.000    1.500    0.000    3.000 
#
# Total GULP energy -178466.284504 kJ/mol
# GULP energy per Si atom -5577.071391 kJ/mol
# Density = 2.233732 g / cm^3
# Si number density = 22.388276 Si / 1000 Ang^3
#
#
#
# Elastic Constant Matrix: (Units=GPa)
#
#
# Indices 1 2 3 4 5 6 
#
# 1 45.6026 9.9044 0.8076 0.0000 -0.0758 0.0000
# 2 9.9044 103.4775 -0.2705 0.0000 8.8643 0.0000
# 3 0.8076 -0.2705 71.6350 0.0000 5.1517 0.0000
# 4 0.0000 0.0000 0.0000 5.9135 0.0000 1.6403
# 5 -0.0758 8.8643 5.1517 0.0000 32.3706 0.0000
# 6 0.0000 0.0000 0.0000 1.6403 0.0000 10.0900
#
#
#
# Elastic Compliance Matrix: (Units=1/GPa)
#
#
# Indices 1 2 3 4 5 6 
#
# 1 0.022415 -0.002207 -0.000312 0.000000 0.000706 0.000000
# 2 -0.002207 0.010117 0.000266 0.000000 -0.002818 0.000000
# 3 -0.000312 0.000266 0.014131 0.000000 -0.002322 0.000000
# 4 0.000000 0.000000 0.000000 0.177089 0.000000 -0.028788
# 5 0.000706 -0.002818 -0.002322 0.000000 0.032035 0.000000
# 6 0.000000 0.000000 0.000000 -0.028788 0.000000 0.103788
#
#
# Mechanical properties :
#
#
# Convention : Reuss Voigt Hill
#
# Bulk Modulus (GPa) = 23.72068 26.84424 25.28246
# Shear Modulus (GPa) = 13.22284 23.69307 18.45795
#
# Velocity S-wave (km/s) = 2.43289 3.25665 2.87443
# Velocity P-wave (km/s) = 4.30234 5.11443 4.72586
#
# Compressibility (1/GPa) = 0.04215730
#
# Stress axis : x y z
#
# Youngs Moduli (GPa) = 44.61386 98.84113 70.76541
#
# Poissons Ratio (x) = 0.21812 0.02207
# Poissons Ratio (y) = 0.09845 -0.01881
# Poissons Ratio (z) = 0.01391 -0.02627
#
# Static dielectric constant tensor:
#      x y z
#    x 1.844340 0.000000 -0.054500 
#    y 0.000000 1.797530 0.000000 
#    z -0.054500 0.000000 1.884690 
# 
# From -- ./inp_files/53715.got.cif
#   From: 2010.05.17/outbox.cif.g08.bks.cpg/sg11_27_cif.got.tgz:53715.got - 2010.06.03 12:22:45.
