data_PCOD9167219
_publ_section_title
;
Structure prediction by ZEFSAII (Michael W. Deem and Ramdas Pophale) SiO2 
 PCOD9167219
Probable space group: P 21/M
;
_chemical_formula_sum "Si O2"
_cell_formula_units_Z 20
_cell_length_a 6.785578
_cell_length_b 19.632741
_cell_length_c 6.590335
_cell_angle_alpha 90.000000
_cell_angle_beta 123.137438
_cell_angle_gamma 90.000000
_cell_volume 735.171007
_symmetry_space_group_name_H-M "P 21/M"
_symmetry_group_IT_number 11
_symmetry_cell_setting 'monoclinic'
loop_
_space_group_symop_operation_xyz
x,y,z
-x,1/2+y,-z
-x,-y,-z
x,1/2-y,z
loop_
_atom_site_type_symbol
_atom_site_label
_atom_site_fract_x
_atom_site_fract_y
_atom_site_fract_z
Si Si1 0.495891 0.122624 0.553729
Si Si2 0.261421 0.827319 0.926939
Si Si3 0.204923 0.320418 0.062401
Si Si4 0.766206 0.455048 0.397088
Si Si5 0.755190 0.537822 0.872719
O O1 0.421624 0.178571 0.344439
O O2 0.288947 0.069550 0.377479
O O3 0.720325 0.081847 0.589634
O O4 0.538661 0.153079 0.795558
O O5 0.293790 0.750000 0.863326
O O6 0.230462 0.889998 0.755030
O O7 0.029059 0.823017 0.934833
O O8 0.198329 0.250000 0.938308
O O9 0.224545 0.394530 0.974901
O O10 0.504298 0.490608 0.218376
O O11 0.000000 0.500000 0.500000
O O12 0.000000 0.500000 0.000000
#
# Coordination Sequence:
#
# PCOD9167219 Si02
#       5
#     4   4   4   4   4
#     4   8  21  41  72 100 148 196 250 316 380 451
#     4  11  21  41  73 110 144 197 260 319 393 461
#     4   8  18  38  67  99 140 188 247 309 379 451
#     4   9  22  44  71 112 155 196 258 321 385 462
#     4   8  19  44  71 102 152 200 246 304 387 463
#
# _framework density 27.204554000000002
#
# number of rings (size 3 to 8) (size 9 to 14) (size 15 to 20)
#    2.400    0.400    0.000    0.600    0.000    4.800 
#    7.200    9.000    0.000    4.800    0.000    0.000 
#    0.000    0.000    0.000    0.000    0.000    0.000 
#
# Total GULP energy -111358.824430 kJ/mol
# GULP energy per Si atom -5567.941222 kJ/mol
# Density = 2.714264 g / cm^3
# Si number density = 27.204554 Si / 1000 Ang^3
#
#
#
# Elastic Constant Matrix: (Units=GPa)
#
#
# Indices 1 2 3 4 5 6 
#
# 1 147.8329 53.0215 41.7203 0.0000 45.7384 0.0000
# 2 53.0215 191.9295 90.8813 0.0000 31.4132 0.0000
# 3 41.7203 90.8813 132.4543 0.0000 29.5251 0.0000
# 4 0.0000 0.0000 0.0000 8.7125 0.0000 -24.9958
# 5 45.7384 31.4132 29.5251 0.0000 51.4779 0.0000
# 6 0.0000 0.0000 0.0000 -24.9958 0.0000 20.0877
#
#
#
# Elastic Compliance Matrix: (Units=1/GPa)
#
#
# Indices 1 2 3 4 5 6 
#
# 1 0.009684 -0.001172 -0.000559 0.000000 -0.007569 0.000000
# 2 -0.001172 0.008028 -0.004907 0.000000 -0.001044 0.000000
# 3 -0.000559 -0.004907 0.011826 0.000000 -0.003292 0.000000
# 4 0.000000 0.000000 0.000000 -0.044661 0.000000 -0.055574
# 5 -0.007569 -0.001044 -0.003292 0.000000 0.028676 0.000000
# 6 0.000000 0.000000 0.000000 -0.055574 0.000000 -0.019371
#
#
# Mechanical properties :
#
#
# Convention : Reuss Voigt Hill
#
# Bulk Modulus (GPa) = 61.48778 93.71810 77.60294
# Shear Modulus (GPa) = 388.24973 35.16185 211.70579
#
# Velocity S-wave (km/s) = 11.95930 3.59903 8.83113
# Velocity P-wave (km/s) = 14.60653 7.19687 11.51403
#
# Compressibility (1/GPa) = 0.01626339
#
# Stress axis : x y z
#
# Youngs Moduli (GPa) = 103.26150 124.56200 84.55706
#
# Poissons Ratio (x) = 0.14595 0.04729
# Poissons Ratio (y) = 0.12099 0.41489
# Poissons Ratio (z) = 0.05775 0.61118
#
# Static dielectric constant tensor:
#      x y z
#    x 2.160160 0.000000 -0.044500 
#    y 0.000000 2.293100 0.000000 
#    z -0.044500 0.000000 2.172900 
# 
# From -- ./inp_files/32129.got.cif
#   From: 2010.05.17/outbox.cif.g08.bks.cpg/sg11_17_cif.got.tgz:32129.got - 2010.06.03 12:22:45.
