data_PCOD9167121
_publ_section_title
;
Structure prediction by ZEFSAII (Michael W. Deem and Ramdas Pophale) SiO2 
 PCOD9167121
Probable space group: P 21/M
;
_chemical_formula_sum "Si O2"
_cell_formula_units_Z 26
_cell_length_a 13.924365
_cell_length_b 15.371745
_cell_length_c 8.924766
_cell_angle_alpha 90.000000
_cell_angle_beta 139.277127
_cell_angle_gamma 90.000000
_cell_volume 1246.263944
_symmetry_space_group_name_H-M "P 21/M"
_symmetry_group_IT_number 11
_symmetry_cell_setting 'monoclinic'
loop_
_space_group_symop_operation_xyz
x,y,z
-x,1/2+y,-z
-x,-y,-z
x,1/2-y,z
loop_
_atom_site_type_symbol
_atom_site_label
_atom_site_fract_x
_atom_site_fract_y
_atom_site_fract_z
Si Si1 0.960974 0.594325 0.892633
Si Si2 0.715476 0.250000 0.067216
Si Si3 0.183174 0.750000 0.167693
Si Si4 0.484197 0.917236 0.204442
Si Si5 0.642064 0.250000 0.308742
Si Si6 0.645703 0.650220 0.648521
Si Si7 0.207908 0.146938 0.570804
Si Si8 0.389166 0.111977 0.048743
O O1 0.808979 0.626350 0.787730
O O2 0.923535 0.598941 0.670370
O O3 0.000000 0.500000 0.000000
O O4 0.087189 0.663218 0.076364
O O5 0.754978 0.250000 0.297997
O O6 0.783758 0.250000 0.975387
O O7 0.627362 0.339942 0.957041
O O8 0.295570 0.750000 0.444917
O O9 0.526607 0.911663 0.429415
O O10 0.639409 0.891549 0.313098
O O11 0.426794 0.010292 0.087419
O O12 0.530100 0.167977 0.161278
O O13 0.613180 0.750000 0.564852
O O14 0.635166 0.640349 0.811082
O O15 0.194877 0.250000 0.524136
O O16 0.239706 0.133374 0.782347
#
# Coordination Sequence:
#
# PCOD9167121 Si02
#       8
#     4   2   2   4   2   4   4   4
#     4  11  26  46  66  90 127 183 238 268 324 401
#     4  12  24  43  66  99 142 180 218 268 362 412
#     4  12  28  47  65  95 143 186 221 284 338 398
#     4  11  21  37  64  98 138 170 213 276 346 407
#     4  12  26  42  67 106 143 168 217 290 348 416
#     4  11  21  42  67  93 130 184 229 275 331 404
#     4  11  20  44  68  89 131 177 221 277 334 397
#     4  12  23  38  68 106 132 163 224 287 347 402
#
# _framework density 20.862355999999998
#
# number of rings (size 3 to 8) (size 9 to 14) (size 15 to 20)
#    0.000    0.615    6.154    2.769    6.462    0.000 
#    2.769    0.769    0.000    0.000    0.000    0.000 
#    0.000    0.000    0.000    0.000    0.000    0.000 
#
# Total GULP energy -144974.693575 kJ/mol
# GULP energy per Si atom -5575.949753 kJ/mol
# Density = 2.081487 g / cm^3
# Si number density = 20.862356 Si / 1000 Ang^3
#
#
#
# Elastic Constant Matrix: (Units=GPa)
#
#
# Indices 1 2 3 4 5 6 
#
# 1 62.6086 10.9854 18.3626 0.0000 -26.0931 0.0000
# 2 10.9854 174.8601 43.4638 0.0000 6.3629 0.0000
# 3 18.3626 43.4638 132.3618 0.0000 -28.4975 0.0000
# 4 0.0000 0.0000 0.0000 15.5617 0.0000 1.0488
# 5 -26.0931 6.3629 -28.4975 0.0000 35.4072 0.0000
# 6 0.0000 0.0000 0.0000 1.0488 0.0000 5.4133
#
#
#
# Elastic Compliance Matrix: (Units=1/GPa)
#
#
# Indices 1 2 3 4 5 6 
#
# 1 0.024125 -0.002671 0.001768 0.000000 0.019682 0.000000
# 2 -0.002671 0.006868 -0.003114 0.000000 -0.005709 0.000000
# 3 0.001768 -0.003114 0.010564 0.000000 0.010365 0.000000
# 4 0.000000 0.000000 0.000000 0.065111 0.000000 -0.012615
# 5 0.019682 -0.005709 0.010365 0.000000 0.052115 0.000000
# 6 0.000000 0.000000 0.000000 -0.012615 0.000000 0.187175
#
#
# Mechanical properties :
#
#
# Convention : Reuss Voigt Hill
#
# Bulk Modulus (GPa) = 29.83075 57.27265 43.55170
# Shear Modulus (GPa) = 13.69237 31.07769 22.38503
#
# Velocity S-wave (km/s) = 2.56465 3.86379 3.27920
# Velocity P-wave (km/s) = 4.80623 6.88603 5.93790
#
# Compressibility (1/GPa) = 0.03352246
#
# Stress axis : x y z
#
# Youngs Moduli (GPa) = 41.45061 145.59332 94.66223
#
# Poissons Ratio (x) = 0.38891 -0.16734
# Poissons Ratio (y) = 0.11072 0.29478
# Poissons Ratio (z) = -0.07327 0.45338
#
# Static dielectric constant tensor:
#      x y z
#    x 1.845660 0.000000 -0.100410 
#    y 0.000000 1.705220 0.000000 
#    z -0.100410 0.000000 1.825330 
# 
# From -- ./inp_files/22477.got.cif
#   From: 2010.05.17/outbox.cif.g08.bks.cpg/sg11_12_cif.got.tgz:22477.got - 2010.06.03 12:22:45.
