data_PCOD9167131
_publ_section_title
;
Structure prediction by ZEFSAII (Michael W. Deem and Ramdas Pophale) SiO2 
 PCOD9167131
Probable space group: P 21/M
;
_chemical_formula_sum "Si O2"
_cell_formula_units_Z 28
_cell_length_a 20.203208
_cell_length_b 8.719041
_cell_length_c 11.507892
_cell_angle_alpha 90.000000
_cell_angle_beta 52.753318
_cell_angle_gamma 90.000000
_cell_volume 1613.682600
_symmetry_space_group_name_H-M "P 21/M"
_symmetry_group_IT_number 11
_symmetry_cell_setting 'monoclinic'
loop_
_space_group_symop_operation_xyz
x,y,z
-x,1/2+y,-z
-x,-y,-z
x,1/2-y,z
loop_
_atom_site_type_symbol
_atom_site_label
_atom_site_fract_x
_atom_site_fract_y
_atom_site_fract_z
Si Si1 0.850669 0.576866 0.419426
Si Si2 0.311576 0.565988 0.318846
Si Si3 0.330050 0.564626 0.025892
Si Si4 0.008835 0.067310 0.119134
Si Si5 0.087819 0.075797 0.384696
Si Si6 0.503146 0.433683 0.866634
Si Si7 0.165842 0.570079 0.085749
O O1 0.846273 0.750000 0.376653
O O2 0.760677 0.497914 0.521489
O O3 0.928704 0.492216 0.277136
O O4 0.870740 0.585406 0.534680
O O5 0.303369 0.750000 0.323307
O O6 0.310145 0.514741 0.182371
O O7 0.403111 0.527296 0.271698
O O8 0.330426 0.750000 0.028248
O O9 0.260948 0.515988 0.004146
O O10 0.421220 0.503896 0.896007
O O11 0.007335 0.250000 0.119041
O O12 0.097029 0.011744 0.079200
O O13 0.000000 0.000000 0.000000
O O14 0.082553 0.250000 0.341717
O O15 0.132850 0.961166 0.250447
O O16 0.000000 0.000000 0.500000
O O17 0.496154 0.250000 0.876511
O O18 0.500000 0.500000 0.000000
O O19 0.165346 0.750000 0.057511
#
# Coordination Sequence:
#
# PCOD9167131 Si02
#       7
#     4   4   4   4   4   4   4
#     4  11  22  34  52  78 106 138 177 217 259 310
#     4   9  17  30  46  71 105 143 178 212 257 303
#     4   9  18  30  47  72 105 142 176 212 255 305
#     4  12  26  43  60  76 101 135 175 220 267 316
#     4  11  21  31  48  75 106 138 173 212 259 311
#     4   9  17  28  43  66 102 142 178 213 252 304
#     4  11  21  35  54  77 107 139 177 218 260 312
#
# _framework density 17.351614000000001
#
# number of rings (size 3 to 8) (size 9 to 14) (size 15 to 20)
#    0.000    1.714    2.857    3.857    0.000    5.143 
#    0.000    0.000    0.000    0.000    0.000    1.000 
#    0.000    0.000    0.000    0.000    0.000    0.000 
#
# Total GULP energy -155917.763165 kJ/mol
# GULP energy per Si atom -5568.491542 kJ/mol
# Density = 1.731212 g / cm^3
# Si number density = 17.351614 Si / 1000 Ang^3
#
#
#
# Elastic Constant Matrix: (Units=GPa)
#
#
# Indices 1 2 3 4 5 6 
#
# 1 136.7605 46.8747 64.3109 0.0000 -37.1207 0.0000
# 2 46.8747 60.6224 26.1234 0.0000 -14.4572 0.0000
# 3 64.3109 26.1234 40.6603 0.0000 -13.9456 0.0000
# 4 0.0000 0.0000 0.0000 23.6637 0.0000 -3.7534
# 5 -37.1207 -14.4572 -13.9456 0.0000 35.5839 0.0000
# 6 0.0000 0.0000 0.0000 -3.7534 0.0000 25.4315
#
#
#
# Elastic Compliance Matrix: (Units=1/GPa)
#
#
# Indices 1 2 3 4 5 6 
#
# 1 0.036385 -0.002435 -0.050031 0.000000 0.017360 0.000000
# 2 -0.002435 0.023496 -0.010215 0.000000 0.003003 0.000000
# 3 -0.050031 -0.010215 0.105091 0.000000 -0.015156 0.000000
# 4 0.000000 0.000000 0.000000 0.043272 0.000000 0.006386
# 5 0.017360 0.003003 -0.015156 0.000000 0.041493 0.000000
# 6 0.000000 0.000000 0.000000 0.006386 0.000000 0.040264
#
#
# Mechanical properties :
#
#
# Convention : Reuss Voigt Hill
#
# Bulk Modulus (GPa) = 25.24542 56.96235 41.10388
# Shear Modulus (GPa) = 11.66679 23.65144 17.65911
#
# Velocity S-wave (km/s) = 2.59583 3.69598 3.19364
# Velocity P-wave (km/s) = 4.85442 7.14935 6.11059
#
# Compressibility (1/GPa) = 0.03961115
#
# Stress axis : x y z
#
# Youngs Moduli (GPa) = 27.48348 42.56032 9.51552
#
# Poissons Ratio (x) = 0.10362 0.47607
# Poissons Ratio (y) = 0.06691 0.09720
# Poissons Ratio (z) = 1.37503 0.43476
#
# Static dielectric constant tensor:
#      x y z
#    x 1.646380 0.000000 -0.045130 
#    y 0.000000 1.615590 0.000000 
#    z -0.045130 0.000000 1.666170 
# 
# From -- ./inp_files/42378.got.cif
#   From: 2010.05.17/outbox.cif.g08.bks.cpg/sg11_22_cif.got.tgz:42378.got - 2010.06.03 12:22:45.
