data_PCOD9167319
_publ_section_title
;
Structure prediction by ZEFSAII (Michael W. Deem and Ramdas Pophale) SiO2 
 PCOD9167319
Probable space group: P 21/M
;
_chemical_formula_sum "Si O2"
_cell_formula_units_Z 28
_cell_length_a 6.645337
_cell_length_b 19.263756
_cell_length_c 11.724098
_cell_angle_alpha 90.000000
_cell_angle_beta 95.859477
_cell_angle_gamma 90.000000
_cell_volume 1493.008907
_symmetry_space_group_name_H-M "P 21/M"
_symmetry_group_IT_number 11
_symmetry_cell_setting 'monoclinic'
loop_
_space_group_symop_operation_xyz
x,y,z
-x,1/2+y,-z
-x,-y,-z
x,1/2-y,z
loop_
_atom_site_type_symbol
_atom_site_label
_atom_site_fract_x
_atom_site_fract_y
_atom_site_fract_z
Si Si1 0.683594 0.037774 0.442482
Si Si2 0.716131 0.832055 0.961434
Si Si3 0.669519 0.668261 0.230756
Si Si4 0.430893 0.572677 0.804501
Si Si5 0.088099 0.572041 0.956832
Si Si6 0.995494 0.575916 0.360397
Si Si7 0.681601 0.432321 0.810922
O O1 0.592308 0.080882 0.332089
O O2 0.833714 0.081612 0.531759
O O3 0.500000 0.000000 0.500000
O O4 0.829492 0.979330 0.394450
O O5 0.729205 0.750000 0.946771
O O6 0.534913 0.864910 0.878221
O O7 0.913514 0.872490 0.930404
O O8 0.699661 0.845727 0.096746
O O9 0.636634 0.750000 0.244401
O O10 0.865104 0.641570 0.310996
O O11 0.475540 0.621892 0.252777
O O12 0.216136 0.560024 0.851318
O O13 0.563944 0.503355 0.829675
O O14 0.235533 0.597825 0.066139
O O15 0.000000 0.500000 0.000000
O O16 0.129950 0.552653 0.260189
#
# Coordination Sequence:
#
# PCOD9167319 Si02
#       7
#     4   4   4   4   4   4   4
#     4  11  23  40  65  94 125 158 211 268 309 364
#     4  11  25  40  59  92 134 170 202 248 313 382
#     4  11  23  40  60  91 133 169 206 256 313 376
#     4  12  23  38  64  93 127 161 205 260 313 369
#     4  12  22  35  63  95 126 161 207 257 314 374
#     4  11  22  39  64  93 125 161 209 260 320 362
#     4  12  21  37  63  97 123 157 210 263 314 368
#
# _framework density 18.754075
#
# number of rings (size 3 to 8) (size 9 to 14) (size 15 to 20)
#    0.000    0.571    7.143    2.143    0.000    1.714 
#    0.000    0.714    0.000    4.286    0.000    0.000 
#    0.000    0.000    0.000    0.000    0.000    0.000 
#
# Total GULP energy -156403.737392 kJ/mol
# GULP energy per Si atom -5585.847764 kJ/mol
# Density = 1.871139 g / cm^3
# Si number density = 18.754075 Si / 1000 Ang^3
#
#
#
# Elastic Constant Matrix: (Units=GPa)
#
#
# Indices 1 2 3 4 5 6 
#
# 1 122.4500 48.7243 46.4618 0.0000 -8.6337 0.0000
# 2 48.7243 89.4841 28.3134 0.0000 -0.3195 0.0000
# 3 46.4618 28.3134 113.3653 0.0000 8.4557 0.0000
# 4 0.0000 0.0000 0.0000 20.1256 0.0000 6.0003
# 5 -8.6337 -0.3195 8.4557 0.0000 50.2672 0.0000
# 6 0.0000 0.0000 0.0000 6.0003 0.0000 26.5483
#
#
#
# Elastic Compliance Matrix: (Units=1/GPa)
#
#
# Indices 1 2 3 4 5 6 
#
# 1 0.011870 -0.005269 -0.003746 0.000000 0.002635 0.000000
# 2 -0.005269 0.014490 -0.001417 0.000000 -0.000575 0.000000
# 3 -0.003746 -0.001417 0.010895 0.000000 -0.002485 0.000000
# 4 0.000000 0.000000 0.000000 0.053278 0.000000 -0.012042
# 5 0.002635 -0.000575 -0.002485 0.000000 0.020761 0.000000
# 6 0.000000 0.000000 0.000000 -0.012042 0.000000 0.040389
#
#
# Mechanical properties :
#
#
# Convention : Reuss Voigt Hill
#
# Bulk Modulus (GPa) = 60.99977 63.58872 62.29424
# Shear Modulus (GPa) = 28.08831 32.84154 30.46493
#
# Velocity S-wave (km/s) = 3.87423 4.18924 4.03481
# Velocity P-wave (km/s) = 7.25325 7.57495 7.41584
#
# Compressibility (1/GPa) = 0.01639351
#
# Stress axis : x y z
#
# Youngs Moduli (GPa) = 84.24528 69.01188 91.78257
#
# Poissons Ratio (x) = 0.36361 0.34377
# Poissons Ratio (y) = 0.44387 0.13004
# Poissons Ratio (z) = 0.31554 0.09778
#
# Static dielectric constant tensor:
#      x y z
#    x 1.681940 0.000000 0.024910 
#    y 0.000000 1.609960 0.000000 
#    z 0.024910 0.000000 1.689050 
# 
# From -- ./inp_files/29890.got.cif
#   From: 2010.05.17/outbox.cif.g08.bks.cpg/sg11_15_cif.got.tgz:29890.got - 2010.06.03 12:22:45.
