data_PCOD9167325
_publ_section_title
;
Structure prediction by ZEFSAII (Michael W. Deem and Ramdas Pophale) SiO2 
 PCOD9167325
Probable space group: P 21/M
;
_chemical_formula_sum "Si O2"
_cell_formula_units_Z 28
_cell_length_a 23.671884
_cell_length_b 9.013626
_cell_length_c 20.728904
_cell_angle_alpha 90.000000
_cell_angle_beta 18.890292
_cell_angle_gamma 90.000000
_cell_volume 1431.950534
_symmetry_space_group_name_H-M "P 21/M"
_symmetry_group_IT_number 11
_symmetry_cell_setting 'monoclinic'
loop_
_space_group_symop_operation_xyz
x,y,z
-x,1/2+y,-z
-x,-y,-z
x,1/2-y,z
loop_
_atom_site_type_symbol
_atom_site_label
_atom_site_fract_x
_atom_site_fract_y
_atom_site_fract_z
Si Si1 0.060491 0.429819 0.229680
Si Si2 0.993571 0.081534 0.439121
Si Si3 0.732996 0.928619 0.120273
Si Si4 0.582654 0.417810 0.850744
Si Si5 0.006429 0.427096 0.922856
Si Si6 0.659713 0.069987 0.629441
Si Si7 0.393930 0.425971 0.448694
O O1 0.065276 0.250000 0.229224
O O2 0.087625 0.484480 0.273821
O O3 0.864785 0.467448 0.417484
O O4 0.193385 0.473176 0.030229
O O5 0.055916 0.250000 0.381608
O O6 0.790706 0.086716 0.637427
O O7 0.000000 0.000000 0.500000
O O8 0.733796 0.750000 0.123544
O O9 0.539323 0.993262 0.334547
O O10 0.862825 0.997207 0.032374
O O11 0.515604 0.250000 0.923242
O O12 0.561125 0.478013 0.801478
O O13 0.500000 0.500000 0.000000
O O14 0.977560 0.250000 0.957470
O O15 0.198690 0.452396 0.685416
O O16 0.000000 0.500000 0.000000
O O17 0.646065 0.250000 0.639574
O O18 0.595037 0.994482 0.634723
O O19 0.574740 0.750000 0.586191
#
# Coordination Sequence:
#
# PCOD9167325 Si02
#       7
#     4   4   4   4   4   4   4
#     4   8  16  33  57  80 107 147 198 249 296 351
#     4   9  18  33  50  73 106 146 191 241 293 347
#     4  11  22  39  67  96 122 161 208 253 301 360
#     4   9  19  33  51  75 108 149 195 246 298 353
#     4  11  25  45  68  94 128 166 202 249 306 363
#     4   9  17  35  59  80 108 153 205 252 300 361
#     4  11  24  40  61  94 130 160 197 251 308 364
#
# _framework density 19.553747999999999
#
# number of rings (size 3 to 8) (size 9 to 14) (size 15 to 20)
#    0.000    2.286    1.429    3.000    0.000    4.571 
#    0.000    7.857    0.000    0.000    0.000    0.000 
#    0.000    0.000    0.000    0.000    0.000    0.000 
#
# Total GULP energy -156257.433660 kJ/mol
# GULP energy per Si atom -5580.622631 kJ/mol
# Density = 1.950924 g / cm^3
# Si number density = 19.553748 Si / 1000 Ang^3
#
#
#
# Elastic Constant Matrix: (Units=GPa)
#
#
# Indices 1 2 3 4 5 6 
#
# 1 157.5133 66.3684 56.4391 0.0000 7.9168 0.0000
# 2 66.3684 70.7003 47.2713 0.0000 1.1322 0.0000
# 3 56.4391 47.2713 59.4269 0.0000 -5.7098 0.0000
# 4 0.0000 0.0000 0.0000 25.2611 0.0000 -0.5331
# 5 7.9168 1.1322 -5.7098 0.0000 31.2735 0.0000
# 6 0.0000 0.0000 0.0000 -0.5331 0.0000 34.8993
#
#
#
# Elastic Compliance Matrix: (Units=1/GPa)
#
#
# Indices 1 2 3 4 5 6 
#
# 1 0.011515 -0.006830 -0.005862 0.000000 -0.003738 0.000000
# 2 -0.006830 0.035252 -0.021895 0.000000 -0.003545 0.000000
# 3 -0.005862 -0.021895 0.040745 0.000000 0.009716 0.000000
# 4 0.000000 0.000000 0.000000 0.039599 0.000000 0.000605
# 5 -0.003738 -0.003545 0.009716 0.000000 0.034824 0.000000
# 6 0.000000 0.000000 0.000000 0.000605 0.000000 0.028663
#
#
# Mechanical properties :
#
#
# Convention : Reuss Voigt Hill
#
# Bulk Modulus (GPa) = 54.53460 69.75534 62.14497
# Shear Modulus (GPa) = 18.80504 26.12421 22.46463
#
# Velocity S-wave (km/s) = 3.10451 3.65913 3.39317
# Velocity P-wave (km/s) = 6.38755 7.32143 6.87038
#
# Compressibility (1/GPa) = 0.01833698
#
# Stress axis : x y z
#
# Youngs Moduli (GPa) = 86.84451 28.36716 24.54282
#
# Poissons Ratio (x) = 0.19374 0.14387
# Poissons Ratio (y) = 0.59314 0.53738
# Poissons Ratio (z) = 0.50910 0.62111
#
# Static dielectric constant tensor:
#      x y z
#    x 1.690030 0.000000 0.002670 
#    y 0.000000 1.665030 0.000000 
#    z 0.002670 0.000000 1.713740 
# 
# From -- ./inp_files/66657.got.cif
#   From: 2010.05.17/outbox.cif.g08.bks.cpg/sg11_34_cif.got.tgz:66657.got - 2010.06.03 12:22:45.
