data_PCOD9167164
_publ_section_title
;
Structure prediction by ZEFSAII (Michael W. Deem and Ramdas Pophale) SiO2 
 PCOD9167164
Probable space group: P 21/M
;
_chemical_formula_sum "Si O2"
_cell_formula_units_Z 24
_cell_length_a 18.109812
_cell_length_b 8.260467
_cell_length_c 14.635953
_cell_angle_alpha 90.000000
_cell_angle_beta 35.664941
_cell_angle_gamma 90.000000
_cell_volume 1276.559384
_symmetry_space_group_name_H-M "P 21/M"
_symmetry_group_IT_number 11
_symmetry_cell_setting 'monoclinic'
loop_
_space_group_symop_operation_xyz
x,y,z
-x,1/2+y,-z
-x,-y,-z
x,1/2-y,z
loop_
_atom_site_type_symbol
_atom_site_label
_atom_site_fract_x
_atom_site_fract_y
_atom_site_fract_z
Si Si1 0.853676 0.945459 0.546118
Si Si2 0.741452 0.557231 0.049956
Si Si3 0.009840 0.944366 0.094263
Si Si4 0.492304 0.057836 0.403522
Si Si5 0.246035 0.447772 0.543214
Si Si6 0.143343 0.445907 0.252678
O O1 0.851610 0.750000 0.548650
O O2 0.767624 0.001282 0.548309
O O3 0.818500 0.001051 0.683738
O O4 0.998784 0.997841 0.382968
O O5 0.725413 0.750000 0.063519
O O6 0.618729 0.484717 0.221250
O O7 0.866242 0.516616 0.982919
O O8 0.769768 0.497762 0.918347
O O9 0.018362 0.750000 0.089757
O O10 0.882662 0.994820 0.275417
O O11 0.000000 0.000000 0.000000
O O12 0.479407 0.250000 0.419892
O O13 0.369025 0.992756 0.473701
O O14 0.500000 0.000000 0.500000
O O15 0.249718 0.250000 0.539212
O O16 0.143347 0.250000 0.251827
#
# Coordination Sequence:
#
# PCOD9167164 Si02
#       6
#     4   4   4   4   4   4
#     4   9  16  32  56  81 109 142 179 226 281 334
#     4  11  22  37  54  81 116 149 185 227 273 335
#     4  11  21  35  56  83 109 141 183 236 288 334
#     4  11  23  40  59  80 108 149 191 232 284 338
#     4   9  19  35  56  80 107 139 183 231 279 334
#     4   9  18  31  53  83 113 143 178 224 277 327
#
# _framework density 18.800535
#
# number of rings (size 3 to 8) (size 9 to 14) (size 15 to 20)
#    0.000    2.000    1.667    2.500    0.000    2.000 
#    0.000    5.000    0.000    0.000    0.000    0.000 
#    0.000    0.000    0.000    0.000    0.000    0.000 
#
# Total GULP energy -133972.065522 kJ/mol
# GULP energy per Si atom -5582.169397 kJ/mol
# Density = 1.875774 g / cm^3
# Si number density = 18.800535 Si / 1000 Ang^3
#
#
#
# Elastic Constant Matrix: (Units=GPa)
#
#
# Indices 1 2 3 4 5 6 
#
# 1 187.9279 9.9307 84.5223 0.0000 12.8224 0.0000
# 2 9.9307 16.6084 3.3851 0.0000 3.3585 0.0000
# 3 84.5223 3.3851 111.0813 0.0000 10.9803 0.0000
# 4 0.0000 0.0000 0.0000 15.2295 0.0000 2.8110
# 5 12.8224 3.3585 10.9803 0.0000 37.6838 0.0000
# 6 0.0000 0.0000 0.0000 2.8110 0.0000 20.0925
#
#
#
# Elastic Compliance Matrix: (Units=1/GPa)
#
#
# Indices 1 2 3 4 5 6 
#
# 1 0.008329 -0.003579 -0.006157 0.000000 -0.000721 0.000000
# 2 -0.003579 0.063056 0.001274 0.000000 -0.004773 0.000000
# 3 -0.006157 0.001274 0.013852 0.000000 -0.002055 0.000000
# 4 0.000000 0.000000 0.000000 0.067403 0.000000 -0.009430
# 5 -0.000721 -0.004773 -0.002055 0.000000 0.027806 0.000000
# 6 0.000000 0.000000 0.000000 -0.009430 0.000000 0.051089
#
#
# Mechanical properties :
#
#
# Convention : Reuss Voigt Hill
#
# Bulk Modulus (GPa) = 14.63885 56.81041 35.72463
# Shear Modulus (GPa) = 18.43455 29.11979 23.77717
#
# Velocity S-wave (km/s) = 3.13474 3.93985 3.56013
# Velocity P-wave (km/s) = 4.57225 7.14000 5.99521
#
# Compressibility (1/GPa) = 0.06831139
#
# Stress axis : x y z
#
# Youngs Moduli (GPa) = 120.06698 15.85886 72.19386
#
# Poissons Ratio (x) = 0.05676 0.44450
# Poissons Ratio (y) = 0.42975 -0.09196
# Poissons Ratio (z) = 0.73925 -0.02020
#
# Static dielectric constant tensor:
#      x y z
#    x 1.664580 0.000000 0.022310 
#    y 0.000000 1.667580 0.000000 
#    z 0.022310 0.000000 1.623280 
# 
# From -- ./inp_files/20498.got.cif
#   From: 2010.05.17/outbox.cif.g08.bks.cpg/sg11_11_cif.got.tgz:20498.got - 2010.06.03 12:22:45.
