data_PCOD9167354
_publ_section_title
;
Structure prediction by ZEFSAII (Michael W. Deem and Ramdas Pophale) SiO2 
 PCOD9167354
Probable space group: P 21/M
;
_chemical_formula_sum "Si O2"
_cell_formula_units_Z 20
_cell_length_a 12.301049
_cell_length_b 10.240839
_cell_length_c 10.825475
_cell_angle_alpha 90.000000
_cell_angle_beta 126.999788
_cell_angle_gamma 90.000000
_cell_volume 1089.116846
_symmetry_space_group_name_H-M "P 21/M"
_symmetry_group_IT_number 11
_symmetry_cell_setting 'monoclinic'
loop_
_space_group_symop_operation_xyz
x,y,z
-x,1/2+y,-z
-x,-y,-z
x,1/2-y,z
loop_
_atom_site_type_symbol
_atom_site_label
_atom_site_fract_x
_atom_site_fract_y
_atom_site_fract_z
Si Si1 0.687973 0.250000 0.741561
Si Si2 0.075546 0.409673 0.728556
Si Si3 0.212525 0.496249 0.567539
Si Si4 0.848608 0.500666 0.951756
Si Si5 0.633829 0.250000 0.406173
Si Si6 0.627870 0.750000 0.430987
Si Si7 0.678032 0.750000 0.754963
O O1 0.769544 0.374653 0.847699
O O2 0.675156 0.250000 0.581873
O O3 0.535342 0.250000 0.692932
O O4 0.072579 0.250000 0.737664
O O5 0.161926 0.453318 0.668251
O O6 0.923533 0.465259 0.601822
O O7 0.135395 0.478419 0.890716
O O8 0.305178 0.623851 0.619119
O O9 0.298742 0.376852 0.572984
O O10 0.763883 0.624219 0.848390
O O11 0.000000 0.500000 0.000000
O O12 0.471088 0.250000 0.287207
O O13 0.653898 0.750000 0.593633
#
# Coordination Sequence:
#
# PCOD9167354 Si02
#       7
#     2   4   4   4   2   2   2
#     4  11  25  41  63  98 134 162 212 261 308 377
#     4  11  23  43  65  96 129 160 217 265 306 379
#     4  11  23  40  69  90 126 170 209 260 316 361
#     4  12  24  41  66  92 129 168 203 263 324 368
#     4  11  22  42  65  93 130 168 212 261 305 374
#     4  11  22  42  63  97 128 166 216 259 303 380
#     4  11  23  39  65  94 126 172 212 251 320 379
#
# _framework density 18.363503000000001
#
# number of rings (size 3 to 8) (size 9 to 14) (size 15 to 20)
#    0.000    0.800    3.000    5.400    0.000    4.800 
#    0.000    6.000    0.000    0.000    0.000    0.000 
#    0.000    0.000    0.000    0.000    0.000    0.000 
#
# Total GULP energy -111769.947562 kJ/mol
# GULP energy per Si atom -5588.497378 kJ/mol
# Density = 1.832171 g / cm^3
# Si number density = 18.363503 Si / 1000 Ang^3
#
#
#
# Elastic Constant Matrix: (Units=GPa)
#
#
# Indices 1 2 3 4 5 6 
#
# 1 112.6467 51.6613 49.3577 0.0000 38.3380 0.0000
# 2 51.6613 162.2807 51.7306 0.0000 26.6323 0.0000
# 3 49.3577 51.7306 110.8547 0.0000 21.0601 0.0000
# 4 0.0000 0.0000 0.0000 96.6216 0.0000 40.9840
# 5 38.3380 26.6323 21.0601 0.0000 30.0515 0.0000
# 6 0.0000 0.0000 0.0000 40.9840 0.0000 58.9493
#
#
#
# Elastic Compliance Matrix: (Units=1/GPa)
#
#
# Indices 1 2 3 4 5 6 
#
# 1 0.017332 -0.001354 -0.003590 0.000000 -0.018395 0.000000
# 2 -0.001354 0.007961 -0.002423 0.000000 -0.003630 0.000000
# 3 -0.003590 -0.002423 0.012080 0.000000 -0.001738 0.000000
# 4 0.000000 0.000000 0.000000 0.014678 0.000000 -0.010205
# 5 -0.018395 -0.003630 -0.001738 0.000000 0.061179 0.000000
# 6 0.000000 0.000000 0.000000 -0.010205 0.000000 0.024059
#
#
# Mechanical properties :
#
#
# Convention : Reuss Voigt Hill
#
# Bulk Modulus (GPa) = 44.17121 76.80902 60.49011
# Shear Modulus (GPa) = 31.33419 52.66000 41.99709
#
# Velocity S-wave (km/s) = 4.13526 5.36085 4.78743
# Velocity P-wave (km/s) = 6.84883 8.95746 7.97316
#
# Compressibility (1/GPa) = 0.02263918
#
# Stress axis : x y z
#
# Youngs Moduli (GPa) = 57.69639 125.60841 82.78008
#
# Poissons Ratio (x) = 0.17010 0.29722
# Poissons Ratio (y) = 0.07813 0.20054
# Poissons Ratio (z) = 0.20716 0.30429
#
# Static dielectric constant tensor:
#      x y z
#    x 1.627430 0.000000 0.000530 
#    y 0.000000 1.641670 0.000000 
#    z 0.000530 0.000000 1.625950 
# 
# From -- ./inp_files/15986.got.cif
#   From: 2010.05.17/outbox.cif.g08.bks.cpg/sg11_8_cif.got.tgz:15986.got - 2010.06.03 12:22:45.
