data_PCOD9167534
_publ_section_title
;
Structure prediction by ZEFSAII (Michael W. Deem and Ramdas Pophale) SiO2 
 PCOD9167534
Probable space group: P 21/M
;
_chemical_formula_sum "Si O2"
_cell_formula_units_Z 18
_cell_length_a 9.277423
_cell_length_b 10.052599
_cell_length_c 12.459803
_cell_angle_alpha 90.000000
_cell_angle_beta 48.399048
_cell_angle_gamma 90.000000
_cell_volume 868.950101
_symmetry_space_group_name_H-M "P 21/M"
_symmetry_group_IT_number 11
_symmetry_cell_setting 'monoclinic'
loop_
_space_group_symop_operation_xyz
x,y,z
-x,1/2+y,-z
-x,-y,-z
x,1/2-y,z
loop_
_atom_site_type_symbol
_atom_site_label
_atom_site_fract_x
_atom_site_fract_y
_atom_site_fract_z
Si Si1 0.789685 0.750000 0.560424
Si Si2 0.228992 0.750000 0.159650
Si Si3 0.891076 0.959847 0.343536
Si Si4 0.518923 0.750000 0.212369
Si Si5 0.144093 0.750000 0.543016
Si Si6 0.391481 0.750000 0.839809
Si Si7 0.785362 0.983878 0.153624
O O1 0.775014 0.879056 0.491744
O O2 0.621451 0.750000 0.729643
O O3 0.994426 0.750000 0.518032
O O4 0.399355 0.750000 0.161449
O O5 0.094846 0.880928 0.241394
O O6 0.304106 0.750000 0.001434
O O7 0.802672 0.943961 0.269369
O O8 0.895179 0.114753 0.371926
O O9 0.358616 0.750000 0.386665
O O10 0.658419 0.875889 0.154599
O O11 0.318765 0.623102 0.811101
O O12 0.000000 0.000000 0.000000
#
# Coordination Sequence:
#
# PCOD9167534 Si02
#       7
#     2   2   4   2   2   2   4
#     4  11  25  43  73 104 150 182 237 302 352 420
#     4  11  25  47  72 104 144 197 237 295 356 418
#     4  11  24  47  74 100 149 189 233 295 361 414
#     4  12  27  45  76 104 141 192 241 291 363 425
#     4  12  25  43  75 109 142 186 246 294 352 427
#     4  12  26  44  72 107 143 187 245 292 359 422
#     4  12  26  46  72 103 144 187 235 294 355 425
#
# _framework density 20.714653999999999
#
# number of rings (size 3 to 8) (size 9 to 14) (size 15 to 20)
#    0.000    0.444    4.444    4.667    3.111    8.000 
#    0.000    0.000    0.000    0.000    0.000    0.000 
#    0.000    0.000    0.000    0.000    0.000    0.000 
#
# Total GULP energy -100728.287801 kJ/mol
# GULP energy per Si atom -5596.015989 kJ/mol
# Density = 2.066751 g / cm^3
# Si number density = 20.714654 Si / 1000 Ang^3
#
#
#
# Elastic Constant Matrix: (Units=GPa)
#
#
# Indices 1 2 3 4 5 6 
#
# 1 130.8533 46.6235 18.2899 0.0000 -1.5810 0.0000
# 2 46.6235 147.0366 -2.5694 0.0000 -15.6260 0.0000
# 3 18.2899 -2.5694 75.6302 0.0000 -25.4807 0.0000
# 4 0.0000 0.0000 0.0000 36.2050 0.0000 -14.7275
# 5 -1.5810 -15.6260 -25.4807 0.0000 44.0648 0.0000
# 6 0.0000 0.0000 0.0000 -14.7275 0.0000 137.6410
#
#
#
# Elastic Compliance Matrix: (Units=1/GPa)
#
#
# Indices 1 2 3 4 5 6 
#
# 1 0.009231 -0.003272 -0.003257 0.000000 -0.002713 0.000000
# 2 -0.003272 0.008340 0.002523 0.000000 0.004299 0.000000
# 3 -0.003257 0.002523 0.017832 0.000000 0.011089 0.000000
# 4 0.000000 0.000000 0.000000 0.028877 0.000000 0.003090
# 5 -0.002713 0.004299 0.011089 0.000000 0.030533 0.000000
# 6 0.000000 0.000000 0.000000 0.003090 0.000000 0.007596
#
#
# Mechanical properties :
#
#
# Convention : Reuss Voigt Hill
#
# Bulk Modulus (GPa) = 36.51137 53.13421 44.82279
# Shear Modulus (GPa) = 41.82321 62.99393 52.40857
#
# Velocity S-wave (km/s) = 4.49822 5.52054 5.03539
# Velocity P-wave (km/s) = 6.68153 8.14502 7.44930
#
# Compressibility (1/GPa) = 0.02738873
#
# Stress axis : x y z
#
# Youngs Moduli (GPa) = 108.33622 119.91121 56.07981
#
# Poissons Ratio (x) = 0.39236 0.18267
# Poissons Ratio (y) = 0.35449 -0.14149
# Poissons Ratio (z) = 0.35289 -0.30253
#
# Static dielectric constant tensor:
#      x y z
#    x 1.716820 0.000000 -0.026960 
#    y 0.000000 1.716870 0.000000 
#    z -0.026960 0.000000 1.744930 
# 
# From -- ./inp_files/26043.got.cif
#   From: 2010.05.17/outbox.cif.g08.bks.cpg/sg11_14_cif.got.tgz:26043.got - 2010.06.03 12:22:45.
