data_PCOD9167107
_publ_section_title
;
Structure prediction by ZEFSAII (Michael W. Deem and Ramdas Pophale) SiO2 
 PCOD9167107
Probable space group: P 21/M
;
_chemical_formula_sum "Si O2"
_cell_formula_units_Z 28
_cell_length_a 12.831745
_cell_length_b 14.539163
_cell_length_c 8.005409
_cell_angle_alpha 90.000000
_cell_angle_beta 74.558037
_cell_angle_gamma 90.000000
_cell_volume 1439.596978
_symmetry_space_group_name_H-M "P 21/M"
_symmetry_group_IT_number 11
_symmetry_cell_setting 'monoclinic'
loop_
_space_group_symop_operation_xyz
x,y,z
-x,1/2+y,-z
-x,-y,-z
x,1/2-y,z
loop_
_atom_site_type_symbol
_atom_site_label
_atom_site_fract_x
_atom_site_fract_y
_atom_site_fract_z
Si Si1 0.302418 0.357915 0.259534
Si Si2 0.257817 0.979600 0.745149
Si Si3 0.891917 0.647848 0.244653
Si Si4 0.567641 0.932345 0.088849
Si Si5 0.409437 0.970324 0.407362
Si Si6 0.948050 0.597072 0.578106
Si Si7 0.941367 0.143179 0.118046
O O1 0.303489 0.250000 0.314665
O O2 0.366733 0.435216 0.339092
O O3 0.178108 0.393601 0.311923
O O4 0.361863 0.364035 0.053910
O O5 0.202776 0.073928 0.706414
O O6 0.347037 0.007755 0.841704
O O7 0.311834 0.932381 0.560480
O O8 0.164488 0.917296 0.859070
O O9 0.851087 0.750000 0.223646
O O10 0.950192 0.649480 0.399547
O O11 0.970693 0.618594 0.060661
O O12 0.472331 0.901797 0.256045
O O13 0.500000 0.000000 0.000000
O O14 0.500000 0.000000 0.500000
O O15 0.000000 0.500000 0.500000
O O16 0.013331 0.629183 0.713572
O O17 0.916889 0.250000 0.104401
#
# Coordination Sequence:
#
# PCOD9167107 Si02
#       7
#     4   4   4   4   4   4   4
#     4  11  21  37  61  91 122 157 206 260 307 366
#     4  11  20  38  63  84 121 162 201 250 317 368
#     4  11  23  38  61  94 127 161 210 257 304 372
#     4   9  21  38  60  84 116 150 199 251 314 370
#     4   9  19  38  59  85 112 155 201 251 312 368
#     4  12  23  38  63  92 130 169 199 248 316 373
#     4  11  24  40  58  89 128 165 208 252 301 375
#
# _framework density 19.449888000000001
#
# number of rings (size 3 to 8) (size 9 to 14) (size 15 to 20)
#    0.000    1.429    2.857    2.571    2.000    1.714 
#    0.000    9.286    0.000    0.000    0.000    0.000 
#    0.000    0.000    0.000    0.000    0.000    0.000 
#
# Total GULP energy -155964.730701 kJ/mol
# GULP energy per Si atom -5570.168954 kJ/mol
# Density = 1.940562 g / cm^3
# Si number density = 19.449888 Si / 1000 Ang^3
#
#
#
# Elastic Constant Matrix: (Units=GPa)
#
#
# Indices 1 2 3 4 5 6 
#
# 1 90.1044 33.0819 25.9265 0.0000 -1.1097 0.0000
# 2 33.0819 54.5660 19.3275 0.0000 -18.2982 0.0000
# 3 25.9265 19.3275 112.9630 0.0000 -14.4242 0.0000
# 4 0.0000 0.0000 0.0000 -57.2674 0.0000 61.4121
# 5 -1.1097 -18.2982 -14.4242 0.0000 35.7546 0.0000
# 6 0.0000 0.0000 0.0000 61.4121 0.0000 -42.2681
#
#
#
# Elastic Compliance Matrix: (Units=1/GPa)
#
#
# Indices 1 2 3 4 5 6 
#
# 1 0.015640 -0.010579 -0.002540 0.000000 -0.005953 0.000000
# 2 -0.010579 0.029950 -0.000824 0.000000 0.014667 0.000000
# 3 -0.002540 -0.000824 0.010029 0.000000 0.003546 0.000000
# 4 0.000000 0.000000 0.000000 0.031290 0.000000 0.045462
# 5 -0.005953 0.014667 0.003546 0.000000 0.036720 0.000000
# 6 0.000000 0.000000 0.000000 0.045462 0.000000 0.042393
#
#
# Mechanical properties :
#
#
# Convention : Reuss Voigt Hill
#
# Bulk Modulus (GPa) = 36.05550 46.03390 41.04470
# Shear Modulus (GPa) = 24.61224 -0.80302 11.90461
#
# Velocity S-wave (km/s) = 3.56113 -0.64324 2.47668
# Velocity P-wave (km/s) = 5.95708 4.81328 5.41546
#
# Compressibility (1/GPa) = 0.02773502
#
# Stress axis : x y z
#
# Youngs Moduli (GPa) = 63.94016 33.38884 99.71089
#
# Poissons Ratio (x) = 0.35321 0.25323
# Poissons Ratio (y) = 0.67640 0.08212
# Poissons Ratio (z) = 0.16239 0.02750
#
# Static dielectric constant tensor:
#      x y z
#    x 1.655240 0.000000 -0.007090 
#    y 0.000000 1.677770 0.000000 
#    z -0.007090 0.000000 1.770330 
# 
# From -- ./inp_files/17701.got.cif
#   From: 2010.05.17/outbox.cif.g08.bks.cpg/sg11_9_cif.got.tgz:17701.got - 2010.06.03 12:22:45.
