data_PCOD9167481
_publ_section_title
;
Structure prediction by ZEFSAII (Michael W. Deem and Ramdas Pophale) SiO2 
 PCOD9167481
Probable space group: P 21/M
;
_chemical_formula_sum "Si O2"
_cell_formula_units_Z 26
_cell_length_a 5.379696
_cell_length_b 19.765065
_cell_length_c 10.541047
_cell_angle_alpha 90.000000
_cell_angle_beta 69.184103
_cell_angle_gamma 90.000000
_cell_volume 1047.670155
_symmetry_space_group_name_H-M "P 21/M"
_symmetry_group_IT_number 11
_symmetry_cell_setting 'monoclinic'
loop_
_space_group_symop_operation_xyz
x,y,z
-x,1/2+y,-z
-x,-y,-z
x,1/2-y,z
loop_
_atom_site_type_symbol
_atom_site_label
_atom_site_fract_x
_atom_site_fract_y
_atom_site_fract_z
Si Si1 0.824053 0.616030 0.593759
Si Si2 0.662484 0.948592 0.387548
Si Si3 0.351321 0.671422 0.807305
Si Si4 0.742403 0.629592 0.966047
Si Si5 0.115916 0.005813 0.192863
Si Si6 0.936085 0.250000 0.558347
Si Si7 0.635939 0.367943 0.748562
O O1 0.869729 0.579728 0.451775
O O2 0.508482 0.632147 0.667870
O O3 0.882483 0.560911 0.691847
O O4 0.966676 0.688732 0.558771
O O5 0.483053 0.890123 0.364832
O O6 0.500000 0.000000 0.500000
O O7 0.808351 0.984151 0.243817
O O8 0.362713 0.750000 0.774839
O O9 0.537876 0.656023 0.895557
O O10 0.045760 0.653053 0.888324
O O11 0.768955 0.548351 0.943547
O O12 0.616240 0.653838 0.119961
O O13 0.260016 0.935271 0.197726
O O14 0.837186 0.308285 0.680219
#
# Coordination Sequence:
#
# PCOD9167481 Si02
#       7
#     4   4   4   4   4   2   4
#     4  11  23  47  74 112 144 190 255 310 383 447
#     4  12  23  43  75 107 144 193 252 315 376 450
#     4  11  25  49  78 108 152 205 250 318 372 457
#     4  11  28  47  77 114 150 202 262 307 379 451
#     4  11  24  48  76 104 146 197 253 318 369 452
#     4  12  26  46  68 108 150 192 238 312 380 456
#     4  12  28  47  73 109 154 198 251 312 384 453
#
# _framework density 24.816970000000001
#
# number of rings (size 3 to 8) (size 9 to 14) (size 15 to 20)
#    0.000    0.615    3.846    3.231    6.462    2.462 
#    5.538    0.000    0.000    0.000    0.000    0.000 
#    0.000    0.000    0.000    0.000    0.000    0.000 
#
# Total GULP energy -144821.446844 kJ/mol
# GULP energy per Si atom -5570.055648 kJ/mol
# Density = 2.476049 g / cm^3
# Si number density = 24.816970 Si / 1000 Ang^3
#
#
#
# Elastic Constant Matrix: (Units=GPa)
#
#
# Indices 1 2 3 4 5 6 
#
# 1 75.8830 18.6474 19.3099 0.0000 -21.1560 0.0000
# 2 18.6474 147.4280 27.9608 0.0000 -15.6932 0.0000
# 3 19.3099 27.9608 117.8350 0.0000 -23.4725 0.0000
# 4 0.0000 0.0000 0.0000 -75.1101 0.0000 120.6226
# 5 -21.1560 -15.6932 -23.4725 0.0000 42.3763 0.0000
# 6 0.0000 0.0000 0.0000 120.6226 0.0000 -159.4223
#
#
#
# Elastic Compliance Matrix: (Units=1/GPa)
#
#
# Indices 1 2 3 4 5 6 
#
# 1 0.015594 -0.001064 -0.000934 0.000000 0.006874 0.000000
# 2 -0.001064 0.007315 -0.001267 0.000000 0.001476 0.000000
# 3 -0.000934 -0.001267 0.009840 0.000000 0.004515 0.000000
# 4 0.000000 0.000000 0.000000 0.061898 0.000000 0.046833
# 5 0.006874 0.001476 0.004515 0.000000 0.030077 0.000000
# 6 0.000000 0.000000 0.000000 0.046833 0.000000 0.029162
#
#
# Mechanical properties :
#
#
# Convention : Reuss Voigt Hill
#
# Bulk Modulus (GPa) = 38.14092 52.55358 45.34725
# Shear Modulus (GPa) = 29.55884 -20.08269 4.73808
#
# Velocity S-wave (km/s) = 3.45494 -2.84779 1.38324
# Velocity P-wave (km/s) = 5.59622 3.22634 4.56766
#
# Compressibility (1/GPa) = 0.02621856
#
# Stress axis : x y z
#
# Youngs Moduli (GPa) = 64.12900 136.70559 101.63111
#
# Poissons Ratio (x) = 0.14539 0.09490
# Poissons Ratio (y) = 0.06821 0.12881
# Poissons Ratio (z) = 0.05988 0.17327
#
# Static dielectric constant tensor:
#      x y z
#    x 2.028660 0.000000 -0.044690 
#    y 0.000000 1.993240 0.000000 
#    z -0.044690 0.000000 1.959980 
# 
# From -- ./inp_files/29946.got.cif
#   From: 2010.05.17/outbox.cif.g08.bks.cpg/sg11_15_cif.got.tgz:29946.got - 2010.06.03 12:22:45.
