data_PCOD9167008
_publ_section_title
;
Structure prediction by ZEFSAII (Michael W. Deem and Ramdas Pophale) SiO2 
 PCOD9167008
Probable space group: P 21/M
;
_chemical_formula_sum "Si O2"
_cell_formula_units_Z 18
_cell_length_a 10.573072
_cell_length_b 12.245147
_cell_length_c 13.021176
_cell_angle_alpha 90.000000
_cell_angle_beta 144.290867
_cell_angle_gamma 90.000000
_cell_volume 983.973172
_symmetry_space_group_name_H-M "P 21/M"
_symmetry_group_IT_number 11
_symmetry_cell_setting 'monoclinic'
loop_
_space_group_symop_operation_xyz
x,y,z
-x,1/2+y,-z
-x,-y,-z
x,1/2-y,z
loop_
_atom_site_type_symbol
_atom_site_label
_atom_site_fract_x
_atom_site_fract_y
_atom_site_fract_z
Si Si1 0.222005 0.750000 0.456241
Si Si2 0.974539 0.626403 0.750000
Si Si3 0.809525 0.750000 0.043760
Si Si4 0.397152 0.482212 0.044200
Si Si5 0.272464 0.250000 0.249999
Si Si6 0.191248 0.982212 0.544200
O O1 0.468798 0.750000 0.580081
O O2 0.187402 0.858329 0.500874
O O3 0.047607 0.750000 0.250001
O O4 0.029169 0.750000 0.750000
O O5 0.823929 0.647520 0.750000
O O6 0.851912 0.561127 0.580324
O O7 0.191263 0.561127 0.919675
O O8 0.685655 0.858329 0.999126
O O9 0.808641 0.750000 0.919922
O O10 0.581269 0.503319 0.250000
O O11 0.500000 0.500000 0.000000
O O12 0.000000 0.000000 0.500000
#
# Coordination Sequence:
#
# PCOD9167008 Si02
#       6
#     2   4   2   4   2   4
#     4  12  24  45  69 102 131 183 228 267 346 394
#     4  10  26  46  63 104 131 180 229 266 338 400
#     4  12  24  45  69 102 131 183 228 267 346 394
#     4  12  24  43  72 101 136 177 219 289 337 398
#     4  10  26  46  68  94 142 180 222 282 314 422
#     4  12  24  43  72 101 136 177 219 289 337 398
#
# _framework density 18.293181000000001
#
# number of rings (size 3 to 8) (size 9 to 14) (size 15 to 20)
#    0.667    0.000    6.667    0.000    3.111    4.444 
#    0.000    0.000    0.000    0.000    0.000    0.000 
#    0.000    0.000    0.000    0.000    0.000    0.000 
#
# Total GULP energy -100551.591171 kJ/mol
# GULP energy per Si atom -5586.199510 kJ/mol
# Density = 1.825154 g / cm^3
# Si number density = 18.293181 Si / 1000 Ang^3
#
#
#
# Elastic Constant Matrix: (Units=GPa)
#
#
# Indices 1 2 3 4 5 6 
#
# 1 164.7967 80.1733 85.3483 0.0000 0.2386 0.0000
# 2 80.1733 171.5238 82.1625 0.0000 -0.1228 0.0000
# 3 85.3483 82.1625 232.1335 0.0000 -4.3904 0.0000
# 4 0.0000 0.0000 0.0000 31.6493 0.0000 0.8688
# 5 0.2386 -0.1228 -4.3904 0.0000 38.0719 0.0000
# 6 0.0000 0.0000 0.0000 0.8688 0.0000 45.7437
#
#
#
# Elastic Compliance Matrix: (Units=1/GPa)
#
#
# Indices 1 2 3 4 5 6 
#
# 1 0.008632 -0.003025 -0.002109 0.000000 -0.000307 0.000000
# 2 -0.003025 0.008083 -0.001752 0.000000 -0.000157 0.000000
# 3 -0.002109 -0.001752 0.005716 0.000000 0.000667 0.000000
# 4 0.000000 0.000000 0.000000 0.031613 0.000000 -0.000600
# 5 -0.000307 -0.000157 0.000667 0.000000 0.026344 0.000000
# 6 0.000000 0.000000 0.000000 -0.000600 0.000000 0.021872
#
#
# Mechanical properties :
#
#
# Convention : Reuss Voigt Hill
#
# Bulk Modulus (GPa) = 115.47383 118.20248 116.83816
# Shear Modulus (GPa) = 42.04551 44.47765 43.26158
#
# Velocity S-wave (km/s) = 4.79939 4.93625 4.86830
# Velocity P-wave (km/s) = 9.69398 9.86127 9.77798
#
# Compressibility (1/GPa) = 0.00865997
#
# Stress axis : x y z
#
# Youngs Moduli (GPa) = 115.84265 123.71673 174.94992
#
# Poissons Ratio (x) = 0.37423 0.36897
# Poissons Ratio (y) = 0.35041 0.30647
# Poissons Ratio (z) = 0.24432 0.21672
#
# Static dielectric constant tensor:
#      x y z
#    x 1.604550 0.000000 -0.000390 
#    y 0.000000 1.614330 0.000000 
#    z -0.000390 0.000000 1.610940 
# 
# From -- ./inp_files/49973.got.cif
#   From: 2010.05.17/outbox.cif.g08.bks.cpg/sg11_25_cif.got.tgz:49973.got - 2010.06.03 12:22:45.
