data_PCOD9167383
_publ_section_title
;
Structure prediction by ZEFSAII (Michael W. Deem and Ramdas Pophale) SiO2 
 PCOD9167383
Probable space group: P 21/M
;
_chemical_formula_sum "Si O2"
_cell_formula_units_Z 18
_cell_length_a 8.352037
_cell_length_b 19.347655
_cell_length_c 7.408243
_cell_angle_alpha 90.000000
_cell_angle_beta 52.826212
_cell_angle_gamma 90.000000
_cell_volume 953.869129
_symmetry_space_group_name_H-M "P 21/M"
_symmetry_group_IT_number 11
_symmetry_cell_setting 'monoclinic'
loop_
_space_group_symop_operation_xyz
x,y,z
-x,1/2+y,-z
-x,-y,-z
x,1/2-y,z
loop_
_atom_site_type_symbol
_atom_site_label
_atom_site_fract_x
_atom_site_fract_y
_atom_site_fract_z
Si Si1 0.337158 0.368764 0.044335
Si Si2 0.485811 0.250000 0.319216
Si Si3 0.228171 0.479087 0.820494
Si Si4 0.646153 0.250000 0.817435
Si Si5 0.451910 0.400807 0.377098
Si Si6 0.085658 0.250000 0.349891
O O1 0.396495 0.394834 0.203825
O O2 0.142881 0.318628 0.198234
O O3 0.300063 0.431412 0.936796
O O4 0.516201 0.317922 0.858020
O O5 0.503830 0.322921 0.405066
O O6 0.260495 0.250000 0.385280
O O7 0.637322 0.250000 0.043970
O O8 0.270333 0.433621 0.613725
O O9 0.363458 0.547634 0.721110
O O10 0.000000 0.500000 0.000000
O O11 0.865644 0.250000 0.583193
#
# Coordination Sequence:
#
# PCOD9167383 Si02
#       6
#     4   2   4   2   4   2
#     4   9  20  37  56  82 113 145 183 227 272 320
#     4   8  18  36  57  83 107 138 186 228 271 323
#     4  11  23  37  54  83 114 145 186 222 268 331
#     4   8  16  33  58  82 109 143 183 226 272 320
#     4   9  21  39  57  80 111 143 181 229 274 322
#     4   8  16  31  57  87 106 141 191 224 267 327
#
# _framework density 18.870512000000002
#
# number of rings (size 3 to 8) (size 9 to 14) (size 15 to 20)
#    0.000    3.556    0.000    0.667    0.000   13.333 
#    0.000    2.222    0.000    0.000    0.000    0.000 
#    0.000    0.000    0.000    0.000    0.000    0.000 
#
# Total GULP energy -100340.381198 kJ/mol
# GULP energy per Si atom -5574.465622 kJ/mol
# Density = 1.882756 g / cm^3
# Si number density = 18.870512 Si / 1000 Ang^3
#
#
#
# Elastic Constant Matrix: (Units=GPa)
#
#
# Indices 1 2 3 4 5 6 
#
# 1 20.7335 21.0936 25.4243 0.0000 1.0239 0.0000
# 2 21.0936 152.5335 44.3376 0.0000 -6.3629 0.0000
# 3 25.4243 44.3376 112.9005 0.0000 -36.0834 0.0000
# 4 0.0000 0.0000 0.0000 376.0365 0.0000 323.4769
# 5 1.0239 -6.3629 -36.0834 0.0000 36.0195 0.0000
# 6 0.0000 0.0000 0.0000 323.4769 0.0000 296.8837
#
#
#
# Elastic Compliance Matrix: (Units=1/GPa)
#
#
# Indices 1 2 3 4 5 6 
#
# 1 0.090225 -0.005573 -0.028336 0.000000 -0.031936 0.000000
# 2 -0.005573 0.007884 -0.001979 0.000000 -0.000432 0.000000
# 3 -0.028336 -0.001979 0.023773 0.000000 0.024271 0.000000
# 4 0.000000 0.000000 0.000000 0.042401 0.000000 -0.046199
# 5 -0.031936 -0.000432 0.024271 0.000000 0.052908 0.000000
# 6 0.000000 0.000000 0.000000 -0.046199 0.000000 0.053706
#
#
# Mechanical properties :
#
#
# Convention : Reuss Voigt Hill
#
# Bulk Modulus (GPa) = 19.95789 51.98650 35.97220
# Shear Modulus (GPa) = 13.91309 154.80875 84.36092
#
# Velocity S-wave (km/s) = 2.71826 9.06728 6.69345
# Velocity P-wave (km/s) = 4.52229 11.71450 8.87921
#
# Compressibility (1/GPa) = 0.05010550
#
# Stress axis : x y z
#
# Youngs Moduli (GPa) = 11.08342 126.84180 42.06501
#
# Poissons Ratio (x) = 0.70684 1.19196
# Poissons Ratio (y) = 0.06176 0.08325
# Poissons Ratio (z) = 0.31406 0.25103
#
# Static dielectric constant tensor:
#      x y z
#    x 1.639570 0.000000 0.028280 
#    y 0.000000 1.678730 0.000000 
#    z 0.028280 0.000000 1.651710 
# 
# From -- ./inp_files/4475.got.cif
#   From: 2010.05.17/outbox.cif.g08.bks.cpg/sg11_3_cif.got.tgz:4475.got - 2010.06.03 12:22:45.
