data_PCOD9167966
_publ_section_title
;
Structure prediction by ZEFSAII (Michael W. Deem and Ramdas Pophale) SiO2 
 PCOD9167966
Probable space group: P 21/M
;
_chemical_formula_sum "Si O2"
_cell_formula_units_Z 32
_cell_length_a 15.000000
_cell_length_b 9.000000
_cell_length_c 15.000000
_cell_angle_alpha 90.000000
_cell_angle_beta 120.000000
_cell_angle_gamma 90.000000
_cell_volume 1753.701443
_symmetry_space_group_name_H-M "P 21/M"
_symmetry_group_IT_number 11
_symmetry_cell_setting 'monoclinic'
loop_
_space_group_symop_operation_xyz
x,y,z
-x,1/2+y,-z
-x,-y,-z
x,1/2-y,z
loop_
_atom_site_type_symbol
_atom_site_label
_atom_site_fract_x
_atom_site_fract_y
_atom_site_fract_z
Si Si1 0.266284 0.925274 0.983746
Si Si2 0.435872 0.569249 0.208038
Si Si3 0.199392 0.071371 0.771967
Si Si4 0.239819 0.428633 0.438341
Si Si5 0.969399 0.074750 0.076763
Si Si6 0.332890 0.069451 0.674887
Si Si7 0.969883 0.428445 0.710439
Si Si8 0.404624 0.929163 0.398406
O O1 0.283691 0.750000 0.976336
O O2 0.153374 0.939836 0.970814
O O3 0.260023 0.008505 0.887024
O O4 0.352680 0.982554 0.094729
O O5 0.434319 0.750000 0.204306
O O6 0.551803 0.518898 0.246222
O O7 0.411017 0.529824 0.297542
O O8 0.203981 0.250000 0.777161
O O9 0.251654 0.018014 0.707484
O O10 0.079520 0.030776 0.721296
O O11 0.240471 0.250000 0.429373
O O12 0.299320 0.470223 0.558691
O O13 0.124952 0.491275 0.383677
O O14 0.301110 0.506018 0.389046
O O15 0.995013 0.250000 0.091781
O O16 0.022841 0.989355 0.185151
O O17 0.000000 0.000000 0.000000
O O18 0.333837 0.250000 0.677559
O O19 0.958190 0.250000 0.703801
O O20 0.408831 0.750000 0.407903
O O21 0.500000 0.000000 0.500000
#
# Coordination Sequence:
#
# PCOD9167966 Si02
#       8
#     4   4   4   4   4   4   4   4
#     4   9  19  35  55  79 109 144 182 225 276 334
#     4   9  18  34  56  81 110 148 183 215 273 339
#     4   9  19  37  59  80 108 146 186 232 281 331
#     4  11  22  37  57  84 113 148 190 232 280 340
#     4  10  20  34  53  79 110 146 187 231 281 335
#     4   9  18  35  58  81 109 147 187 226 280 341
#     4  10  21  37  55  79 111 146 187 235 285 335
#     4  11  21  36  58  82 114 153 188 229 278 332
#
# _framework density 18.247119999999999
#
# number of rings (size 3 to 8) (size 9 to 14) (size 15 to 20)
#    0.000    2.250    1.250    1.500    1.750    2.000 
#    0.000    2.500    0.000    0.000    0.000    0.000 
#    0.000    0.000    0.000    0.000    0.000    0.000 
#
# Total GULP energy -178551.519369 kJ/mol
# GULP energy per Si atom -5579.734980 kJ/mol
# Density = 1.820559 g / cm^3
# Si number density = 18.247120 Si / 1000 Ang^3
#
#
#
# Elastic Constant Matrix: (Units=GPa)
#
#
# Indices 1 2 3 4 5 6 
#
# 1 67.4760 16.4351 21.9876 0.0000 -6.9080 0.0000
# 2 16.4351 33.1217 2.1545 0.0000 4.3305 0.0000
# 3 21.9876 2.1545 23.5467 0.0000 28.3618 0.0000
# 4 0.0000 0.0000 0.0000 28.7825 0.0000 2.9277
# 5 -6.9080 4.3305 28.3618 0.0000 30.8260 0.0000
# 6 0.0000 0.0000 0.0000 2.9277 0.0000 21.1581
#
#
#
# Elastic Compliance Matrix: (Units=1/GPa)
#
#
# Indices 1 2 3 4 5 6 
#
# 1 0.002625 0.000229 0.029035 0.000000 -0.026158 0.000000
# 2 0.000229 0.029582 -0.018699 0.000000 0.013099 0.000000
# 3 0.029035 -0.018699 -0.056055 0.000000 0.060708 0.000000
# 4 0.000000 0.000000 0.000000 0.035239 0.000000 -0.004876
# 5 -0.026158 0.013099 0.060708 0.000000 -0.031117 0.000000
# 6 0.000000 0.000000 0.000000 -0.004876 0.000000 0.047938
#
#
# Mechanical properties :
#
#
# Convention : Reuss Voigt Hill
#
# Bulk Modulus (GPa) = -368.08681 22.81098 -172.63792
# Shear Modulus (GPa) = 809.73102 21.72445 415.72773
#
# Velocity S-wave (km/s) = 21.08842 3.45420 15.11048
# Velocity P-wave (km/s) = 19.76869 5.33263 14.47822
#
# Compressibility (1/GPa) = -0.00271675
#
# Stress axis : x y z
#
# Youngs Moduli (GPa) = 380.96721 33.80463 -17.83960
#
# Poissons Ratio (x) = -0.00774 0.51798
# Poissons Ratio (y) = -0.08720 -0.33357
# Poissons Ratio (z) = -11.06155 0.63210
#
# Static dielectric constant tensor:
#      x y z
#    x 1.637940 0.000000 0.007050 
#    y 0.000000 1.609400 0.000000 
#    z 0.007050 0.000000 1.605970 
# 
# From -- ./inp_files/51641.got.cif
#   From: 2010.05.17/outbox.ucp.g08.bks.cvg/sg11_26_cif.got.tgz:51641.got - 2010.06.11 11:38:39.
