data_PCOD9167375
_publ_section_title
;
Structure prediction by ZEFSAII (Michael W. Deem and Ramdas Pophale) SiO2 
 PCOD9167375
Probable space group: P 21/M
;
_chemical_formula_sum "Si O2"
_cell_formula_units_Z 22
_cell_length_a 9.204418
_cell_length_b 13.015308
_cell_length_c 12.273260
_cell_angle_alpha 90.000000
_cell_angle_beta 144.637160
_cell_angle_gamma 90.000000
_cell_volume 850.948963
_symmetry_space_group_name_H-M "P 21/M"
_symmetry_group_IT_number 11
_symmetry_cell_setting 'monoclinic'
loop_
_space_group_symop_operation_xyz
x,y,z
-x,1/2+y,-z
-x,-y,-z
x,1/2-y,z
loop_
_atom_site_type_symbol
_atom_site_label
_atom_site_fract_x
_atom_site_fract_y
_atom_site_fract_z
Si Si1 0.283546 0.750000 0.850526
Si Si2 0.580631 0.750000 0.548146
Si Si3 0.006472 0.750000 0.990494
Si Si4 0.796660 0.071376 0.629751
Si Si5 0.808500 0.750000 0.449099
Si Si6 0.710722 0.526567 0.351661
Si Si7 0.139757 0.250000 0.845452
Si Si8 0.200493 0.929370 0.972646
O O1 0.569244 0.750000 0.993632
O O2 0.224397 0.852165 0.884505
O O3 0.108859 0.750000 0.637060
O O4 0.409993 0.648253 0.448951
O O5 0.732967 0.750000 0.529939
O O6 0.765075 0.750000 0.763894
O O7 0.929193 0.750000 0.068258
O O8 0.159381 0.852275 0.049479
O O9 0.948909 0.995779 0.801802
O O10 0.009535 0.149670 0.716279
O O11 0.685910 0.009360 0.460888
O O12 0.701134 0.648796 0.332176
O O13 0.447705 0.498050 0.132188
O O14 0.000000 0.500000 0.500000
#
# Coordination Sequence:
#
# PCOD9167375 Si02
#       8
#     2   2   2   4   2   4   2   4
#     4  11  22  48  75  99 153 195 238 311 384 438
#     4  11  26  51  73 105 159 197 251 313 379 439
#     4  11  25  49  73 114 143 200 252 311 375 450
#     4  11  27  48  72 110 149 195 246 315 376 437
#     4  12  25  50  73 106 151 198 246 312 375 440
#     4  12  28  46  79 113 147 200 255 304 376 458
#     4  11  28  44  72 106 156 190 243 319 375 435
#     4  11  25  49  77 107 147 199 255 304 377 452
#
# _framework density 25.853491000000002
#
# number of rings (size 3 to 8) (size 9 to 14) (size 15 to 20)
#    0.000    0.727    3.636    2.182   10.182    6.545 
#    0.000    0.000    0.000    0.000    0.000    0.000 
#    0.000    0.000    0.000    0.000    0.000    0.000 
#
# Total GULP energy -123371.116070 kJ/mol
# GULP energy per Si atom -5607.778003 kJ/mol
# Density = 2.579465 g / cm^3
# Si number density = 25.853491 Si / 1000 Ang^3
#
#
#
# Elastic Constant Matrix: (Units=GPa)
#
#
# Indices 1 2 3 4 5 6 
#
# 1 93.3759 32.7528 29.9241 0.0000 19.1950 0.0000
# 2 32.7528 115.3196 18.3060 0.0000 10.9849 0.0000
# 3 29.9241 18.3060 144.5103 0.0000 30.4673 0.0000
# 4 0.0000 0.0000 0.0000 43.4059 0.0000 7.6533
# 5 19.1950 10.9849 30.4673 0.0000 49.1385 0.0000
# 6 0.0000 0.0000 0.0000 7.6533 0.0000 -5.4376
#
#
#
# Elastic Compliance Matrix: (Units=1/GPa)
#
#
# Indices 1 2 3 4 5 6 
#
# 1 0.013010 -0.003120 -0.001581 0.000000 -0.003404 0.000000
# 2 -0.003120 0.009692 -0.000439 0.000000 -0.000676 0.000000
# 3 -0.001581 -0.000439 0.008228 0.000000 -0.004386 0.000000
# 4 0.000000 0.000000 0.000000 0.018458 0.000000 0.025979
# 5 -0.003404 -0.000676 -0.004386 0.000000 0.024551 0.000000
# 6 0.000000 0.000000 0.000000 0.025979 0.000000 -0.147341
#
#
# Mechanical properties :
#
#
# Convention : Reuss Voigt Hill
#
# Bulk Modulus (GPa) = 48.42817 57.24129 52.83473
# Shear Modulus (GPa) = -88.90516 35.56958 -26.66779
#
# Velocity S-wave (km/s) = -5.87050 3.71322 -3.21518
# Velocity P-wave (km/s) = 5.21324 6.36967 2.58794
#
# Compressibility (1/GPa) = 0.02064914
#
# Stress axis : x y z
#
# Youngs Moduli (GPa) = 76.86234 103.18076 121.54256
#
# Poissons Ratio (x) = 0.32191 0.19217
# Poissons Ratio (y) = 0.23980 0.05339
# Poissons Ratio (z) = 0.12153 0.04532
#
# Static dielectric constant tensor:
#      x y z
#    x 2.022480 0.000000 0.021980 
#    y 0.000000 2.037940 0.000000 
#    z 0.021980 0.000000 1.999150 
# 
# From -- ./inp_files/32331.got.cif
#   From: 2010.05.17/outbox.cif.g08.bks.cpg/sg11_17_cif.got.tgz:32331.got - 2010.06.03 12:22:45.
