data_PCOD9167881
_publ_section_title
;
Structure prediction by ZEFSAII (Michael W. Deem and Ramdas Pophale) SiO2 
 PCOD9167881
Probable space group: P 21/M
;
_chemical_formula_sum "Si O2"
_cell_formula_units_Z 32
_cell_length_a 12.000000
_cell_length_b 9.000000
_cell_length_c 15.000000
_cell_angle_alpha 90.000000
_cell_angle_beta 90.000000
_cell_angle_gamma 90.000000
_cell_volume 1620.000000
_symmetry_space_group_name_H-M "P 21/M"
_symmetry_group_IT_number 11
_symmetry_cell_setting 'monoclinic'
loop_
_space_group_symop_operation_xyz
x,y,z
-x,1/2+y,-z
-x,-y,-z
x,1/2-y,z
loop_
_atom_site_type_symbol
_atom_site_label
_atom_site_fract_x
_atom_site_fract_y
_atom_site_fract_z
Si Si1 0.163156 0.927393 0.949067
Si Si2 0.888438 0.926649 0.534249
Si Si3 0.679436 0.076825 0.488168
Si Si4 0.812955 0.419713 0.712413
Si Si5 0.615207 0.076172 0.986608
Si Si6 0.627448 0.919837 0.808158
Si Si7 0.973744 0.081984 0.877206
Si Si8 0.530058 0.576456 0.634432
O O1 0.167111 0.750000 0.949818
O O2 0.288228 0.984116 0.949980
O O3 0.106101 0.974273 0.042935
O O4 0.083279 0.984556 0.873377
O O5 0.896615 0.750000 0.547956
O O6 0.782929 0.968840 0.473149
O O7 0.861558 0.022447 0.621472
O O8 0.000000 0.000000 0.500000
O O9 0.712263 0.250000 0.494001
O O10 0.589197 0.060517 0.410560
O O11 0.613857 0.026781 0.578141
O O12 0.767019 0.250000 0.707533
O O13 0.729596 0.548372 0.743365
O O14 0.907291 0.415657 0.787032
O O15 0.605062 0.250000 0.999457
O O16 0.645255 0.036772 0.885734
O O17 0.500000 0.000000 0.000000
O O18 0.622730 0.750000 0.840683
O O19 0.526725 0.950974 0.740308
O O20 0.006060 0.250000 0.901871
O O21 0.565154 0.750000 0.623283
#
# Coordination Sequence:
#
# PCOD9167881 Si02
#       8
#     4   4   4   4   4   4   4   4
#     4   9  18  34  54  80 113 148 186 232 282 332
#     4  12  25  41  59  84 116 153 195 237 288 348
#     4  10  19  34  57  84 116 153 189 233 287 337
#     4  11  21  37  59  87 118 149 188 238 286 335
#     4  11  23  40  58  82 116 153 193 236 286 343
#     4  11  21  35  58  88 117 150 192 237 281 335
#     4   9  18  33  55  84 114 143 183 233 282 335
#     4   9  19  34  55  86 118 147 189 238 282 336
#
# _framework density 19.753086
#
# number of rings (size 3 to 8) (size 9 to 14) (size 15 to 20)
#    0.000    1.750    2.500    2.625    0.000    3.000 
#    0.000    1.250    0.000    1.500    0.000    0.000 
#    0.000    0.000    0.000    0.000    0.000    0.000 
#
# Total GULP energy -178206.242544 kJ/mol
# GULP energy per Si atom -5568.945080 kJ/mol
# Density = 1.970813 g / cm^3
# Si number density = 19.753086 Si / 1000 Ang^3
#
#
#
# Elastic Constant Matrix: (Units=GPa)
#
#
# Indices 1 2 3 4 5 6 
#
# 1 79.1662 29.5760 15.4619 0.0000 15.9035 0.0000
# 2 29.5760 53.6425 -4.8010 0.0000 13.9737 0.0000
# 3 15.4619 -4.8010 10.1130 0.0000 11.5573 0.0000
# 4 0.0000 0.0000 0.0000 21.9081 0.0000 2.0831
# 5 15.9035 13.9737 11.5573 0.0000 25.3052 0.0000
# 6 0.0000 0.0000 0.0000 2.0831 0.0000 30.5122
#
#
#
# Elastic Compliance Matrix: (Units=1/GPa)
#
#
# Indices 1 2 3 4 5 6 
#
# 1 -0.042489 0.084216 0.266854 0.000000 -0.141678 0.000000
# 2 0.084216 -0.117070 -0.413609 0.000000 0.200621 0.000000
# 3 0.266854 -0.413609 -1.202414 0.000000 0.609849 0.000000
# 4 0.000000 0.000000 0.000000 0.045943 0.000000 -0.003137
# 5 -0.141678 0.200621 0.609849 0.000000 -0.260753 0.000000
# 6 0.000000 0.000000 0.000000 -0.003137 0.000000 0.032988
#
#
# Mechanical properties :
#
#
# Convention : Reuss Voigt Hill
#
# Bulk Modulus (GPa) = -0.67247 24.82172 12.07462
# Shear Modulus (GPa) = -2.61179 22.39076 9.88949
#
# Velocity S-wave (km/s) = -1.15112 3.37045 2.23996
# Velocity P-wave (km/s) = 1.45188 5.26686 3.57994
#
# Compressibility (1/GPa) = -1.48705209
#
# Stress axis : x y z
#
# Youngs Moduli (GPa) = -23.53569 -8.54192 -0.83166
#
# Poissons Ratio (x) = 0.71937 0.22193
# Poissons Ratio (y) = 1.98208 -0.34398
# Poissons Ratio (z) = 6.28059 -3.53302
#
# Static dielectric constant tensor:
#      x y z
#    x 1.831780 0.000000 -0.286010 
#    y 0.000000 1.717520 0.000000 
#    z -0.286010 0.000000 3.322130 
# 
# From -- ./inp_files/49317.got.cif
#   From: 2010.05.17/outbox.ucp.g08.bks.cvg/sg11_25_cif.got.tgz:49317.got - 2010.06.11 11:38:39.
