data_PCOD9167299
_publ_section_title
;
Structure prediction by ZEFSAII (Michael W. Deem and Ramdas Pophale) SiO2 
 PCOD9167299
Probable space group: P 21/M
;
_chemical_formula_sum "Si O2"
_cell_formula_units_Z 24
_cell_length_a 9.241411
_cell_length_b 8.802667
_cell_length_c 21.451897
_cell_angle_alpha 90.000000
_cell_angle_beta 49.292250
_cell_angle_gamma 90.000000
_cell_volume 1322.860026
_symmetry_space_group_name_H-M "P 21/M"
_symmetry_group_IT_number 11
_symmetry_cell_setting 'monoclinic'
loop_
_space_group_symop_operation_xyz
x,y,z
-x,1/2+y,-z
-x,-y,-z
x,1/2-y,z
loop_
_atom_site_type_symbol
_atom_site_label
_atom_site_fract_x
_atom_site_fract_y
_atom_site_fract_z
Si Si1 0.705283 0.066318 0.424320
Si Si2 0.571989 0.564966 0.732212
Si Si3 0.972606 0.067916 0.576521
Si Si4 0.774769 0.065358 0.262237
Si Si5 0.696355 0.425909 0.085740
Si Si6 0.947398 0.573955 0.916916
O O1 0.702820 0.250000 0.428639
O O2 0.756564 0.021264 0.338901
O O3 0.500000 0.000000 0.500000
O O4 0.861062 0.998244 0.426894
O O5 0.589497 0.750000 0.727682
O O6 0.414627 0.524616 0.723744
O O7 0.482802 0.515690 0.823885
O O8 0.770927 0.489122 0.660154
O O9 0.980699 0.250000 0.572070
O O10 0.000000 0.000000 0.500000
O O11 0.783713 0.250000 0.257484
O O12 0.961568 0.008828 0.172189
O O13 0.660815 0.250000 0.082873
O O14 0.874277 0.434157 0.084531
O O15 0.768893 0.501023 0.002078
O O16 0.902566 0.750000 0.919448
#
# Coordination Sequence:
#
# PCOD9167299 Si02
#       6
#     4   4   4   4   4   4
#     4  11  22  38  59  82 108 139 176 218 267 320
#     4   9  17  33  55  79 108 140 175 216 263 314
#     4  12  25  40  57  79 106 137 176 220 268 320
#     4   8  16  31  53  78 105 138 174 214 261 312
#     4   8  14  24  42  71 105 137 168 208 257 303
#     4   8  13  24  43  69 101 136 172 208 249 301
#
# _framework density 18.142509
#
# number of rings (size 3 to 8) (size 9 to 14) (size 15 to 20)
#    0.000    2.667    0.000    5.000    0.000    2.000 
#    0.000    5.000    0.000    1.000    0.000    0.000 
#    0.000    0.000    0.000    0.000    0.000    0.000 
#
# Total GULP energy -133765.936478 kJ/mol
# GULP energy per Si atom -5573.580687 kJ/mol
# Density = 1.810122 g / cm^3
# Si number density = 18.142509 Si / 1000 Ang^3
#
#
#
# Elastic Constant Matrix: (Units=GPa)
#
#
# Indices 1 2 3 4 5 6 
#
# 1 86.9635 36.3383 89.9929 0.0000 2.6358 0.0000
# 2 36.3383 66.3847 72.2224 0.0000 -0.7841 0.0000
# 3 89.9929 72.2224 232.9828 0.0000 0.6306 0.0000
# 4 0.0000 0.0000 0.0000 34.3198 0.0000 -3.6921
# 5 2.6358 -0.7841 0.6306 0.0000 24.7254 0.0000
# 6 0.0000 0.0000 0.0000 -3.6921 0.0000 21.3068
#
#
#
# Elastic Compliance Matrix: (Units=1/GPa)
#
#
# Indices 1 2 3 4 5 6 
#
# 1 0.019875 -0.003860 -0.006475 0.000000 -0.002076 0.000000
# 2 -0.003860 0.023499 -0.005797 0.000000 0.001304 0.000000
# 3 -0.006475 -0.005797 0.008590 0.000000 0.000287 0.000000
# 4 0.000000 0.000000 0.000000 0.029691 0.000000 0.005145
# 5 -0.002076 0.001304 0.000287 0.000000 0.040700 0.000000
# 6 0.000000 0.000000 0.000000 0.005145 0.000000 0.047825
#
#
# Mechanical properties :
#
#
# Convention : Reuss Voigt Hill
#
# Bulk Modulus (GPa) = 50.76128 87.04872 68.90500
# Shear Modulus (GPa) = 23.92235 28.58890 26.25563
#
# Velocity S-wave (km/s) = 3.63517 3.97394 3.80832
# Velocity P-wave (km/s) = 6.75716 8.31510 7.57628
#
# Compressibility (1/GPa) = 0.01970006
#
# Stress axis : x y z
#
# Youngs Moduli (GPa) = 50.31330 42.55558 116.42095
#
# Poissons Ratio (x) = 0.16425 0.75384
# Poissons Ratio (y) = 0.19419 0.67490
# Poissons Ratio (z) = 0.32578 0.24670
#
# Static dielectric constant tensor:
#      x y z
#    x 1.607190 0.000000 0.007420 
#    y 0.000000 1.614820 0.000000 
#    z 0.007420 0.000000 1.653400 
# 
# From -- ./inp_files/25759.got.cif
#   From: 2010.05.17/outbox.cif.g08.bks.cpg/sg11_13_cif.got.tgz:25759.got - 2010.06.03 12:22:45.
