data_PCOD9167198
_publ_section_title
;
Structure prediction by ZEFSAII (Michael W. Deem and Ramdas Pophale) SiO2 
 PCOD9167198
Probable space group: P 21/M
;
_chemical_formula_sum "Si O2"
_cell_formula_units_Z 28
_cell_length_a 22.787532
_cell_length_b 8.731638
_cell_length_c 10.433537
_cell_angle_alpha 90.000000
_cell_angle_beta 48.479704
_cell_angle_gamma 90.000000
_cell_volume 1554.334766
_symmetry_space_group_name_H-M "P 21/M"
_symmetry_group_IT_number 11
_symmetry_cell_setting 'monoclinic'
loop_
_space_group_symop_operation_xyz
x,y,z
-x,1/2+y,-z
-x,-y,-z
x,1/2-y,z
loop_
_atom_site_type_symbol
_atom_site_label
_atom_site_fract_x
_atom_site_fract_y
_atom_site_fract_z
Si Si1 0.990690 0.432633 0.370968
Si Si2 0.170991 0.067171 0.494057
Si Si3 0.163965 0.433008 0.023707
Si Si4 0.410283 0.565907 0.492052
Si Si5 0.238594 0.565549 0.658160
Si Si6 0.424698 0.565889 0.768648
Si Si7 0.738437 0.065549 0.878950
O O1 0.978705 0.250000 0.397205
O O2 0.916139 0.507986 0.411645
O O3 0.000000 0.500000 0.500000
O O4 0.071710 0.461183 0.178985
O O5 0.171718 0.250000 0.493635
O O6 0.200546 0.002281 0.586096
O O7 0.226588 0.005279 0.300188
O O8 0.176668 0.250000 0.006065
O O9 0.194877 0.504346 0.847511
O O10 0.210465 0.507242 0.075022
O O11 0.414443 0.750000 0.484236
O O12 0.330116 0.519809 0.539278
O O13 0.406837 0.517733 0.647126
O O14 0.490623 0.500225 0.319349
O O15 0.234731 0.750000 0.661460
O O16 0.429091 0.750000 0.762913
O O17 0.351606 0.520667 0.962449
O O18 0.743015 0.250000 0.866529
#
# Coordination Sequence:
#
# PCOD9167198 Si02
#       7
#     4   4   4   4   4   4   4
#     4  11  23  40  63  91 122 157 200 248 302 354
#     4  12  26  42  61  89 122 159 203 249 304 361
#     4  11  23  38  62  93 121 154 200 250 297 354
#     4   9  18  34  56  86 119 154 195 243 296 352
#     4  11  23  42  63  87 122 163 202 244 304 363
#     4   9  18  33  56  89 119 151 196 245 294 349
#     4  11  21  38  62  89 121 159 202 246 298 357
#
# _framework density 18.014137000000002
#
# number of rings (size 3 to 8) (size 9 to 14) (size 15 to 20)
#    0.000    1.429    2.857    3.000    0.000    4.571 
#    0.000    0.714    0.000    0.000    0.000    0.000 
#    0.000    0.000    0.000    0.000    0.000    0.000 
#
# Total GULP energy -156464.644802 kJ/mol
# GULP energy per Si atom -5588.023029 kJ/mol
# Density = 1.797314 g / cm^3
# Si number density = 18.014137 Si / 1000 Ang^3
#
#
#
# Elastic Constant Matrix: (Units=GPa)
#
#
# Indices 1 2 3 4 5 6 
#
# 1 138.9582 58.3531 70.2496 0.0000 -5.3484 0.0000
# 2 58.3531 82.6618 59.9204 0.0000 -10.8144 0.0000
# 3 70.2496 59.9204 119.0574 0.0000 -6.8758 0.0000
# 4 0.0000 0.0000 0.0000 33.7556 0.0000 -0.9055
# 5 -5.3484 -10.8144 -6.8758 0.0000 35.5391 0.0000
# 6 0.0000 0.0000 0.0000 -0.9055 0.0000 33.6408
#
#
#
# Elastic Compliance Matrix: (Units=1/GPa)
#
#
# Indices 1 2 3 4 5 6 
#
# 1 0.011451 -0.005106 -0.004224 0.000000 -0.000648 0.000000
# 2 -0.005106 0.021898 -0.007754 0.000000 0.004395 0.000000
# 3 -0.004224 -0.007754 0.014787 0.000000 -0.000135 0.000000
# 4 0.000000 0.000000 0.000000 0.029646 0.000000 0.000798
# 5 -0.000648 0.004395 -0.000135 0.000000 0.029352 0.000000
# 6 0.000000 0.000000 0.000000 0.000798 0.000000 0.029747
#
#
# Mechanical properties :
#
#
# Convention : Reuss Voigt Hill
#
# Bulk Modulus (GPa) = 71.60091 79.74708 75.67399
# Shear Modulus (GPa) = 28.45647 30.73073 29.59360
#
# Velocity S-wave (km/s) = 3.97882 4.13476 4.05754
# Velocity P-wave (km/s) = 7.80650 8.19514 8.00318
#
# Compressibility (1/GPa) = 0.01396630
#
# Stress axis : x y z
#
# Youngs Moduli (GPa) = 87.32556 45.66584 67.62833
#
# Poissons Ratio (x) = 0.23319 0.28568
# Poissons Ratio (y) = 0.44593 0.52441
# Poissons Ratio (z) = 0.36889 0.35411
#
# Static dielectric constant tensor:
#      x y z
#    x 1.593060 0.000000 -0.019420 
#    y 0.000000 1.594300 0.000000 
#    z -0.019420 0.000000 1.601440 
# 
# From -- ./inp_files/26045.got.cif
#   From: 2010.05.17/outbox.cif.g08.bks.cpg/sg11_14_cif.got.tgz:26045.got - 2010.06.03 12:22:45.
