data_PCOD9167031
_publ_section_title
;
Structure prediction by ZEFSAII (Michael W. Deem and Ramdas Pophale) SiO2 
 PCOD9167031
Probable space group: P 21/M
;
_chemical_formula_sum "Si O2"
_cell_formula_units_Z 24
_cell_length_a 11.823194
_cell_length_b 21.852837
_cell_length_c 11.108100
_cell_angle_alpha 90.000000
_cell_angle_beta 24.676675
_cell_angle_gamma 90.000000
_cell_volume 1198.218379
_symmetry_space_group_name_H-M "P 21/M"
_symmetry_group_IT_number 11
_symmetry_cell_setting 'monoclinic'
loop_
_space_group_symop_operation_xyz
x,y,z
-x,1/2+y,-z
-x,-y,-z
x,1/2-y,z
loop_
_atom_site_type_symbol
_atom_site_label
_atom_site_fract_x
_atom_site_fract_y
_atom_site_fract_z
Si Si1 0.320944 0.492600 0.860347
Si Si2 0.819864 0.926810 0.380229
Si Si3 0.992974 0.426601 0.532884
Si Si4 0.467976 0.398496 0.915906
Si Si5 0.699206 0.179768 0.474084
Si Si6 0.801060 0.872186 0.157633
O O1 0.513785 0.550472 0.656860
O O2 0.435383 0.460367 0.869457
O O3 0.314992 0.439176 0.767653
O O4 0.015349 0.515305 0.167142
O O5 0.889618 0.911251 0.449919
O O6 0.883783 0.876979 0.216420
O O7 0.000000 0.500000 0.500000
O O8 0.683921 0.407617 0.812424
O O9 0.174326 0.391186 0.258696
O O10 0.582907 0.349570 0.709901
O O11 0.777786 0.250000 0.415457
O O12 0.444685 0.173547 0.629933
O O13 0.951022 0.143503 0.171528
#
# Coordination Sequence:
#
# PCOD9167031 Si02
#       6
#     4   4   4   4   4   4
#     4  11  19  34  54  84 125 159 187 230 276 355
#     4  12  22  33  56  85 129 163 184 220 292 358
#     4  12  21  35  56  86 128 165 188 220 279 364
#     4  11  21  37  57  88 116 154 204 237 278 342
#     4  11  24  44  67  82 107 150 205 269 305 325
#     4  11  23  38  58  90 116 148 201 242 298 350
#
# _framework density 20.029737999999998
#
# number of rings (size 3 to 8) (size 9 to 14) (size 15 to 20)
#    0.000    0.667    3.333    8.000    0.000    0.000 
#    0.000    0.000    0.000    6.000    0.000    0.000 
#    0.000    0.000    0.000    0.000    0.000    0.000 
#
# Total GULP energy -134047.263398 kJ/mol
# GULP energy per Si atom -5585.302642 kJ/mol
# Density = 1.998415 g / cm^3
# Si number density = 20.029738 Si / 1000 Ang^3
#
#
#
# Elastic Constant Matrix: (Units=GPa)
#
#
# Indices 1 2 3 4 5 6 
#
# 1 106.9565 22.0237 21.1509 0.0000 10.1077 0.0000
# 2 22.0237 39.1166 -6.2983 0.0000 3.2762 0.0000
# 3 21.1509 -6.2983 54.8826 0.0000 -12.2295 0.0000
# 4 0.0000 0.0000 0.0000 15.9595 0.0000 -2.3037
# 5 10.1077 3.2762 -12.2295 0.0000 28.3441 0.0000
# 6 0.0000 0.0000 0.0000 -2.3037 0.0000 7.1622
#
#
#
# Elastic Compliance Matrix: (Units=1/GPa)
#
#
# Indices 1 2 3 4 5 6 
#
# 1 0.013165 -0.008041 -0.007563 0.000000 -0.007028 0.000000
# 2 -0.008041 0.031051 0.007193 0.000000 0.002382 0.000000
# 3 -0.007563 0.007193 0.024757 0.000000 0.012547 0.000000
# 4 0.000000 0.000000 0.000000 0.065709 0.000000 0.021135
# 5 -0.007028 0.002382 0.012547 0.000000 0.042925 0.000000
# 6 0.000000 0.000000 0.000000 0.021135 0.000000 0.146420
#
#
# Mechanical properties :
#
#
# Convention : Reuss Voigt Hill
#
# Bulk Modulus (GPa) = 19.17506 30.52313 24.84909
# Shear Modulus (GPa) = 13.95744 21.23180 17.59462
#
# Velocity S-wave (km/s) = 2.64263 3.25932 2.96704
# Velocity P-wave (km/s) = 4.34803 5.42551 4.91638
#
# Compressibility (1/GPa) = 0.05215109
#
# Stress axis : x y z
#
# Youngs Moduli (GPa) = 75.95837 32.20527 40.39342
#
# Poissons Ratio (x) = 0.25897 0.30548
# Poissons Ratio (y) = 0.61081 -0.29056
# Poissons Ratio (z) = 0.57444 -0.23166
#
# Static dielectric constant tensor:
#      x y z
#    x 1.750300 0.000000 0.030130 
#    y 0.000000 1.686620 0.000000 
#    z 0.030130 0.000000 1.721460 
# 
# From -- ./inp_files/36532.got.cif
#   From: 2010.05.17/outbox.cif.g08.bks.cpg/sg11_19_cif.got.tgz:36532.got - 2010.06.03 12:22:45.
