data_PCOD9167496
_publ_section_title
;
Structure prediction by ZEFSAII (Michael W. Deem and Ramdas Pophale) SiO2 
 PCOD9167496
Probable space group: P 21/M
;
_chemical_formula_sum "Si O2"
_cell_formula_units_Z 32
_cell_length_a 12.997828
_cell_length_b 17.914476
_cell_length_c 17.007769
_cell_angle_alpha 90.000000
_cell_angle_beta 154.197892
_cell_angle_gamma 90.000000
_cell_volume 1723.753716
_symmetry_space_group_name_H-M "P 21/M"
_symmetry_group_IT_number 11
_symmetry_cell_setting 'monoclinic'
loop_
_space_group_symop_operation_xyz
x,y,z
-x,1/2+y,-z
-x,-y,-z
x,1/2-y,z
loop_
_atom_site_type_symbol
_atom_site_label
_atom_site_fract_x
_atom_site_fract_y
_atom_site_fract_z
Si Si1 0.453790 0.086181 0.949092
Si Si2 0.816161 0.841160 0.938707
Si Si3 0.875916 0.163102 0.152766
Si Si4 0.354333 0.841019 0.319962
Si Si5 0.555861 0.160685 0.185291
Si Si6 0.293578 0.163101 0.570419
Si Si7 0.939674 0.913820 0.444381
Si Si8 0.251234 0.341019 0.285613
O O1 0.202412 0.095580 0.734137
O O2 0.654837 0.115388 0.027892
O O3 0.480407 0.131251 0.048100
O O4 0.500000 0.000000 0.000000
O O5 0.816303 0.750000 0.938752
O O6 0.084488 0.865376 0.140612
O O7 0.630397 0.864996 0.876782
O O8 0.747129 0.865375 0.803243
O O9 0.806005 0.250000 0.095388
O O10 0.073501 0.160434 0.357844
O O11 0.013273 0.137817 0.168912
O O12 0.357280 0.750000 0.322345
O O13 0.480147 0.862182 0.324517
O O14 0.523384 0.865420 0.507787
O O15 0.560051 0.250000 0.186678
O O16 0.816547 0.131257 0.384215
O O17 0.325880 0.250000 0.615259
O O18 0.226049 0.115384 0.599091
O O19 0.000000 0.000000 0.500000
O O20 0.252485 0.250000 0.287427
#
# Coordination Sequence:
#
# PCOD9167496 Si02
#       8
#     4   4   4   4   4   4   4   4
#     4  12  24  40  61  84 118 164 203 247 306 363
#     4   9  18  32  53  81 119 156 187 233 289 350
#     4   9  17  32  56  87 120 147 189 254 302 347
#     4   8  15  28  49  80 115 149 185 236 298 344
#     4  11  24  42  61  91 128 157 199 251 294 358
#     4   9  17  32  56  87 120 147 189 254 302 347
#     4  12  24  40  61  84 118 164 203 247 306 363
#     4   8  15  28  49  80 115 149 185 236 298 344
#
# _framework density 18.564138
#
# number of rings (size 3 to 8) (size 9 to 14) (size 15 to 20)
#    0.000    2.250    2.500    2.250    1.750    3.000 
#    0.000    2.500    0.000    3.000    0.000    5.250 
#    0.000    0.000    0.000    0.000    0.000    0.000 
#
# Total GULP energy -178602.560156 kJ/mol
# GULP energy per Si atom -5581.330005 kJ/mol
# Density = 1.852189 g / cm^3
# Si number density = 18.564138 Si / 1000 Ang^3
#
#
#
# Elastic Constant Matrix: (Units=GPa)
#
#
# Indices 1 2 3 4 5 6 
#
# 1 152.6852 36.3424 93.8203 0.0000 5.2793 0.0000
# 2 36.3424 47.4272 31.3883 0.0000 1.1676 0.0000
# 3 93.8203 31.3883 142.1000 0.0000 -2.8164 0.0000
# 4 0.0000 0.0000 0.0000 16.6523 0.0000 -6.3526
# 5 5.2793 1.1676 -2.8164 0.0000 20.2691 0.0000
# 6 0.0000 0.0000 0.0000 -6.3526 0.0000 -9.8849
#
#
#
# Elastic Compliance Matrix: (Units=1/GPa)
#
#
# Indices 1 2 3 4 5 6 
#
# 1 0.012099 -0.004495 -0.007072 0.000000 -0.003875 0.000000
# 2 -0.004495 0.026462 -0.002892 0.000000 -0.000755 0.000000
# 3 -0.007072 -0.002892 0.012419 0.000000 0.003734 0.000000
# 4 0.000000 0.000000 0.000000 0.048228 0.000000 -0.030994
# 5 -0.003875 -0.000755 0.003734 0.000000 0.050908 0.000000
# 6 0.000000 0.000000 0.000000 -0.030994 0.000000 -0.081246
#
#
# Mechanical properties :
#
#
# Convention : Reuss Voigt Hill
#
# Bulk Modulus (GPa) = 45.32778 73.92384 59.62581
# Shear Modulus (GPa) = 47.55407 17.45141 32.50274
#
# Velocity S-wave (km/s) = 5.06673 3.06937 4.18884
# Velocity P-wave (km/s) = 7.66151 7.24352 7.45545
#
# Compressibility (1/GPa) = 0.02206153
#
# Stress axis : x y z
#
# Youngs Moduli (GPa) = 82.65179 37.78956 80.51900
#
# Poissons Ratio (x) = 0.16988 0.56944
# Poissons Ratio (y) = 0.37155 0.23288
# Poissons Ratio (z) = 0.58452 0.10930
#
# Static dielectric constant tensor:
#      x y z
#    x 1.633360 0.000000 -0.003460 
#    y 0.000000 1.606120 0.000000 
#    z -0.003460 0.000000 1.647730 
# 
# From -- ./inp_files/50740.got.cif
#   From: 2010.05.17/outbox.cif.g08.bks.cpg/sg11_26_cif.got.tgz:50740.got - 2010.06.03 12:22:45.
