data_PCOD9167499
_publ_section_title
;
Structure prediction by ZEFSAII (Michael W. Deem and Ramdas Pophale) SiO2 
 PCOD9167499
Probable space group: P 21/M
;
_chemical_formula_sum "Si O2"
_cell_formula_units_Z 28
_cell_length_a 9.352100
_cell_length_b 29.485297
_cell_length_c 5.947085
_cell_angle_alpha 90.000000
_cell_angle_beta 130.703105
_cell_angle_gamma 90.000000
_cell_volume 1243.210634
_symmetry_space_group_name_H-M "P 21/M"
_symmetry_group_IT_number 11
_symmetry_cell_setting 'monoclinic'
loop_
_space_group_symop_operation_xyz
x,y,z
-x,1/2+y,-z
-x,-y,-z
x,1/2-y,z
loop_
_atom_site_type_symbol
_atom_site_label
_atom_site_fract_x
_atom_site_fract_y
_atom_site_fract_z
Si Si1 0.234573 0.952907 0.822631
Si Si2 0.092764 0.040532 0.853122
Si Si3 0.923557 0.750000 0.593357
Si Si4 0.404091 0.837095 0.572885
Si Si5 0.397105 0.096375 0.892750
Si Si6 0.743209 0.835153 0.594293
Si Si7 0.083979 0.891376 0.012613
Si Si8 0.137490 0.750000 0.321631
O O1 0.449197 0.942543 0.988100
O O2 0.104261 0.966812 0.480698
O O3 0.147125 0.905999 0.829088
O O4 0.207567 0.993803 0.971268
O O5 0.226091 0.076072 0.859659
O O6 0.027762 0.065254 0.009641
O O7 0.794833 0.794734 0.479572
O O8 0.020600 0.750000 0.442899
O O9 0.039506 0.750000 0.962545
O O10 0.499802 0.861595 0.881083
O O11 0.576602 0.822187 0.590083
O O12 0.270017 0.794401 0.473998
O O13 0.275652 0.876901 0.332077
O O14 0.320387 0.118364 0.588315
O O15 0.942975 0.849644 0.903641
#
# Coordination Sequence:
#
# PCOD9167499 Si02
#       8
#     4   4   2   4   4   4   4   2
#     4  11  24  42  66 101 143 187 236 299 360 425
#     4  11  24  42  66 101 143 187 236 299 360 425
#     4  12  31  51  80 113 150 194 246 306 371 452
#     4  12  27  47  75 103 147 188 240 299 373 438
#     4  12  25  43  72 104 140 188 242 297 361 444
#     4  12  27  47  75 103 147 188 240 299 373 438
#     4  12  23  45  70 102 140 190 238 291 363 438
#     4  12  31  51  80 113 150 194 246 306 371 452
#
# _framework density 22.522331000000001
#
# number of rings (size 3 to 8) (size 9 to 14) (size 15 to 20)
#    0.000    0.286    7.143    1.286    8.000    0.571 
#    0.000    1.429    0.000    0.000    0.000    0.000 
#    0.000    0.000    0.000    0.000    0.000    0.000 
#
# Total GULP energy -156299.654515 kJ/mol
# GULP energy per Si atom -5582.130518 kJ/mol
# Density = 2.247107 g / cm^3
# Si number density = 22.522331 Si / 1000 Ang^3
#
#
#
# Elastic Constant Matrix: (Units=GPa)
#
#
# Indices 1 2 3 4 5 6 
#
# 1 91.9944 2.8961 4.6532 0.0000 -13.5285 0.0000
# 2 2.8961 68.4223 3.0929 0.0000 -5.9451 0.0000
# 3 4.6532 3.0929 58.3575 0.0000 10.6704 0.0000
# 4 0.0000 0.0000 0.0000 18.0953 0.0000 3.0799
# 5 -13.5285 -5.9451 10.6704 0.0000 25.1524 0.0000
# 6 0.0000 0.0000 0.0000 3.0799 0.0000 53.0109
#
#
#
# Elastic Compliance Matrix: (Units=1/GPa)
#
#
# Indices 1 2 3 4 5 6 
#
# 1 0.012094 0.000252 -0.002361 0.000000 0.007566 0.000000
# 2 0.000252 0.015058 -0.001619 0.000000 0.004382 0.000000
# 3 -0.002361 -0.001619 0.019202 0.000000 -0.009799 0.000000
# 4 0.000000 0.000000 0.000000 0.055815 0.000000 -0.003243
# 5 0.007566 0.004382 -0.009799 0.000000 0.049020 0.000000
# 6 0.000000 0.000000 0.000000 -0.003243 0.000000 0.019052
#
#
# Mechanical properties :
#
#
# Convention : Reuss Voigt Hill
#
# Bulk Modulus (GPa) = 25.70858 26.67319 26.19089
# Shear Modulus (GPa) = 26.22412 33.12719 29.67565
#
# Velocity S-wave (km/s) = 3.41598 3.83934 3.63383
# Velocity P-wave (km/s) = 5.19596 5.61451 5.40929
#
# Compressibility (1/GPa) = 0.03889751
#
# Stress axis : x y z
#
# Youngs Moduli (GPa) = 82.68273 66.40825 52.07924
#
# Poissons Ratio (x) = -0.01675 0.12297
# Poissons Ratio (y) = -0.02086 0.08434
# Poissons Ratio (z) = 0.19523 0.10754
#
# Static dielectric constant tensor:
#      x y z
#    x 1.822610 0.000000 -0.012480 
#    y 0.000000 1.852800 0.000000 
#    z -0.012480 0.000000 1.855320 
# 
# From -- ./inp_files/3490.got.cif
#   From: 2010.05.17/outbox.cif.g08.bks.cpg/sg11_2_cif.got.tgz:3490.got - 2010.06.03 12:22:45.
