data_PCOD9167642
_publ_section_title
;
Structure prediction by ZEFSAII (Michael W. Deem and Ramdas Pophale) SiO2 
 PCOD9167642
Probable space group: P 21/M
;
_chemical_formula_sum "Si O2"
_cell_formula_units_Z 32
_cell_length_a 20.765461
_cell_length_b 9.082210
_cell_length_c 7.943914
_cell_angle_alpha 90.000000
_cell_angle_beta 68.328699
_cell_angle_gamma 90.000000
_cell_volume 1392.296847
_symmetry_space_group_name_H-M "P 21/M"
_symmetry_group_IT_number 11
_symmetry_cell_setting 'monoclinic'
loop_
_space_group_symop_operation_xyz
x,y,z
-x,1/2+y,-z
-x,-y,-z
x,1/2-y,z
loop_
_atom_site_type_symbol
_atom_site_label
_atom_site_fract_x
_atom_site_fract_y
_atom_site_fract_z
Si Si1 0.231846 0.073287 0.647051
Si Si2 0.976884 0.074781 0.292107
Si Si3 0.723713 0.922960 0.878947
Si Si4 0.396709 0.918935 0.189555
Si Si5 0.361757 0.422787 0.690760
Si Si6 0.859811 0.574626 0.597431
Si Si7 0.517241 0.081370 0.247438
Si Si8 0.098447 0.072075 0.955217
O O1 0.240484 0.250000 0.643654
O O2 0.188947 0.043265 0.519962
O O3 0.308698 0.012469 0.603398
O O4 0.178551 0.035165 0.848755
O O5 0.970349 0.250000 0.314302
O O6 0.057454 0.042127 0.168031
O O7 0.932605 0.000784 0.483117
O O8 0.939671 0.015216 0.158053
O O9 0.723284 0.750000 0.832257
O O10 0.685652 0.933580 0.094211
O O11 0.804185 0.969161 0.793524
O O12 0.675487 0.008146 0.793617
O O13 0.388629 0.750000 0.248501
O O14 0.444090 0.006537 0.275817
O O15 0.440767 0.921255 0.971169
O O16 0.375240 0.250000 0.648637
O O17 0.433112 0.500882 0.668095
O O18 0.873102 0.750000 0.596479
O O19 0.492138 0.750000 0.695735
O O20 0.091693 0.250000 0.933216
#
# Coordination Sequence:
#
# PCOD9167642 Si02
#       8
#     4   4   4   4   4   4   4   4
#     4   8  14  26  44  62  81 108 139 169 203 246
#     4   9  15  23  39  62  83 105 138 177 209 240
#     4   9  17  28  43  63  85 109 137 170 207 245
#     4   9  16  26  42  63  85 109 138 172 206 241
#     4   9  16  27  44  64  83 106 139 173 203 241
#     4   9  17  29  43  60  85 114 139 166 206 251
#     4   9  16  26  41  62  87 111 135 168 209 246
#     4   8  14  25  40  59  83 109 137 171 211 248
#
# _framework density 22.983604
#
# number of rings (size 3 to 8) (size 9 to 14) (size 15 to 20)
#    0.000    3.250    0.000    1.875    0.000    4.000 
#    0.000    2.500    0.000    1.500    0.000    0.000 
#    0.000    0.000    0.000    0.000    0.000    1.125 
#
# Total GULP energy -178618.575117 kJ/mol
# GULP energy per Si atom -5581.830472 kJ/mol
# Density = 2.293129 g / cm^3
# Si number density = 22.983604 Si / 1000 Ang^3
#
#
#
# Elastic Constant Matrix: (Units=GPa)
#
#
# Indices 1 2 3 4 5 6 
#
# 1 141.2805 33.3387 22.7027 0.0000 -27.8333 0.0000
# 2 33.3387 45.6328 9.1625 0.0000 -8.3365 0.0000
# 3 22.7027 9.1625 119.3702 0.0000 -22.6668 0.0000
# 4 0.0000 0.0000 0.0000 10.0528 0.0000 -13.9363
# 5 -27.8333 -8.3365 -22.6668 0.0000 49.4629 0.0000
# 6 0.0000 0.0000 0.0000 -13.9363 0.0000 14.6312
#
#
#
# Elastic Compliance Matrix: (Units=1/GPa)
#
#
# Indices 1 2 3 4 5 6 
#
# 1 0.009374 -0.006004 -0.000561 0.000000 0.004006 0.000000
# 2 -0.006004 0.026591 -0.000755 0.000000 0.000757 0.000000
# 3 -0.000561 -0.000755 0.009264 0.000000 0.003802 0.000000
# 4 0.000000 0.000000 0.000000 -0.310398 0.000000 -0.295657
# 5 0.004006 0.000757 0.003802 0.000000 0.024341 0.000000
# 6 0.000000 0.000000 0.000000 -0.295657 0.000000 -0.213269
#
#
# Mechanical properties :
#
#
# Convention : Reuss Voigt Hill
#
# Bulk Modulus (GPa) = 32.69364 48.52126 40.60745
# Shear Modulus (GPa) = -11.64798 30.90136 9.62669
#
# Velocity S-wave (km/s) = -2.25365 3.67071 2.04880
# Velocity P-wave (km/s) = 2.73564 6.25481 4.82733
#
# Compressibility (1/GPa) = 0.03058699
#
# Stress axis : x y z
#
# Youngs Moduli (GPa) = 106.67407 37.60731 107.94453
#
# Poissons Ratio (x) = 0.22580 0.06060
# Poissons Ratio (y) = 0.64050 0.08154
# Poissons Ratio (z) = 0.05988 0.02841
#
# Static dielectric constant tensor:
#      x y z
#    x 1.884020 0.000000 0.022140 
#    y 0.000000 1.720970 0.000000 
#    z 0.022140 0.000000 1.969280 
# 
# From -- ./inp_files/42180.got.cif
#   From: 2010.05.17/outbox.cif.g08.bks.cpg/sg11_22_cif.got.tgz:42180.got - 2010.06.03 12:22:45.
