data_PCOD9167086
_publ_section_title
;
Structure prediction by ZEFSAII (Michael W. Deem and Ramdas Pophale) SiO2 
 PCOD9167086
Probable space group: P 21/M
;
_chemical_formula_sum "Si O2"
_cell_formula_units_Z 28
_cell_length_a 16.068623
_cell_length_b 8.436554
_cell_length_c 12.185568
_cell_angle_alpha 90.000000
_cell_angle_beta 123.991272
_cell_angle_gamma 90.000000
_cell_volume 1369.646082
_symmetry_space_group_name_H-M "P 21/M"
_symmetry_group_IT_number 11
_symmetry_cell_setting 'monoclinic'
loop_
_space_group_symop_operation_xyz
x,y,z
-x,1/2+y,-z
-x,-y,-z
x,1/2-y,z
loop_
_atom_site_type_symbol
_atom_site_label
_atom_site_fract_x
_atom_site_fract_y
_atom_site_fract_z
Si Si1 0.386606 0.936824 0.414451
Si Si2 0.535291 0.940684 0.144986
Si Si3 0.645064 0.939344 0.845933
Si Si4 0.170569 0.443316 0.860479
Si Si5 0.768942 0.557004 0.333449
Si Si6 0.797274 0.561261 0.594365
Si Si7 0.982545 0.061070 0.864811
O O1 0.386898 0.750000 0.433091
O O2 0.500000 0.000000 0.500000
O O3 0.343236 0.977464 0.262225
O O4 0.314875 0.018294 0.450389
O O5 0.528019 0.750000 0.144707
O O6 0.651294 0.985672 0.245619
O O7 0.461631 0.014949 0.180476
O O8 0.500000 0.000000 0.000000
O O9 0.650667 0.750000 0.834226
O O10 0.731644 0.986941 0.995884
O O11 0.169342 0.250000 0.856861
O O12 0.181292 0.498947 0.743021
O O13 0.071128 0.498116 0.849655
O O14 0.772926 0.750000 0.335729
O O15 0.814889 0.503343 0.482743
O O16 0.807995 0.750000 0.604660
O O17 0.876406 0.488880 0.736754
O O18 0.988290 0.250000 0.871833
O O19 0.000000 0.000000 0.000000
#
# Coordination Sequence:
#
# PCOD9167086 Si02
#       7
#     4   4   4   4   4   4   4
#     4  12  25  42  63  90 125 163 210 256 308 373
#     4  11  20  34  57  87 124 166 209 255 310 371
#     4  11  21  37  62  90 123 161 208 260 315 373
#     4   9  19  37  61  88 117 158 204 253 310 368
#     4   9  19  37  60  86 120 162 206 249 306 375
#     4  11  23  41  65  91 125 165 204 254 317 376
#     4  11  23  41  66  91 121 159 209 262 317 378
#
# _framework density 20.443237
#
# number of rings (size 3 to 8) (size 9 to 14) (size 15 to 20)
#    0.000    1.429    1.429    4.714    0.000    2.857 
#    0.000    4.286    0.000    0.000    0.000    0.000 
#    0.000    0.000    0.000    0.000    0.000    0.000 
#
# Total GULP energy -156581.771757 kJ/mol
# GULP energy per Si atom -5592.206134 kJ/mol
# Density = 2.039671 g / cm^3
# Si number density = 20.443237 Si / 1000 Ang^3
#
#
#
# Elastic Constant Matrix: (Units=GPa)
#
#
# Indices 1 2 3 4 5 6 
#
# 1 120.9631 2.5051 43.9465 0.0000 -7.8748 0.0000
# 2 2.5051 34.8615 11.9198 0.0000 4.0675 0.0000
# 3 43.9465 11.9198 130.7092 0.0000 -13.3375 0.0000
# 4 0.0000 0.0000 0.0000 27.9384 0.0000 -0.7178
# 5 -7.8748 4.0675 -13.3375 0.0000 34.9857 0.0000
# 6 0.0000 0.0000 0.0000 -0.7178 0.0000 28.1508
#
#
#
# Elastic Compliance Matrix: (Units=1/GPa)
#
#
# Indices 1 2 3 4 5 6 
#
# 1 0.009450 0.000278 -0.003110 0.000000 0.000909 0.000000
# 2 0.000278 0.030363 -0.003346 0.000000 -0.004743 0.000000
# 3 -0.003110 -0.003346 0.009333 0.000000 0.003247 0.000000
# 4 0.000000 0.000000 0.000000 0.035816 0.000000 0.000913
# 5 0.000909 -0.004743 0.003247 0.000000 0.030577 0.000000
# 6 0.000000 0.000000 0.000000 0.000913 0.000000 0.035546
#
#
# Mechanical properties :
#
#
# Convention : Reuss Voigt Hill
#
# Bulk Modulus (GPa) = 27.18187 44.80851 35.99519
# Shear Modulus (GPa) = 28.45689 33.42582 30.94135
#
# Velocity S-wave (km/s) = 3.73499 4.04797 3.89463
# Velocity P-wave (km/s) = 5.65025 6.61923 6.15384
#
# Compressibility (1/GPa) = 0.03678922
#
# Stress axis : x y z
#
# Youngs Moduli (GPa) = 105.81712 32.93536 107.15066
#
# Poissons Ratio (x) = -0.00916 0.33323
# Poissons Ratio (y) = -0.02944 0.35856
# Poissons Ratio (z) = 0.32908 0.11021
#
# Static dielectric constant tensor:
#      x y z
#    x 1.730140 0.000000 -0.024290 
#    y 0.000000 1.699950 0.000000 
#    z -0.024290 0.000000 1.732690 
# 
# From -- ./inp_files/38454.got.cif
#   From: 2010.05.17/outbox.cif.g08.bks.cpg/sg11_20_cif.got.tgz:38454.got - 2010.06.03 12:22:45.
