data_PCOD9167062
_publ_section_title
;
Structure prediction by ZEFSAII (Michael W. Deem and Ramdas Pophale) SiO2 
 PCOD9167062
Probable space group: P 21/M
;
_chemical_formula_sum "Si O2"
_cell_formula_units_Z 32
_cell_length_a 15.936026
_cell_length_b 14.958367
_cell_length_c 20.501882
_cell_angle_alpha 90.000000
_cell_angle_beta 162.110401
_cell_angle_gamma 90.000000
_cell_volume 1501.261504
_symmetry_space_group_name_H-M "P 21/M"
_symmetry_group_IT_number 11
_symmetry_cell_setting 'monoclinic'
loop_
_space_group_symop_operation_xyz
x,y,z
-x,1/2+y,-z
-x,-y,-z
x,1/2-y,z
loop_
_atom_site_type_symbol
_atom_site_label
_atom_site_fract_x
_atom_site_fract_y
_atom_site_fract_z
Si Si1 0.420953 0.997065 0.367468
Si Si2 0.673626 0.144605 0.249171
Si Si3 0.044222 0.354449 0.648206
Si Si4 0.297070 0.150022 0.189601
Si Si5 0.701037 0.351940 0.121388
Si Si6 0.141565 0.494227 0.983878
Si Si7 0.692962 0.351072 0.810541
Si Si8 0.867163 0.974297 0.168130
O O1 0.485137 0.910054 0.371981
O O2 0.500000 0.000000 0.500000
O O3 0.471821 0.088452 0.367179
O O4 0.094852 0.994430 0.137225
O O5 0.590746 0.250000 0.193764
O O6 0.798280 0.136527 0.268425
O O7 0.876814 0.123200 0.458863
O O8 0.415903 0.078596 0.056268
O O9 0.997055 0.250000 0.628238
O O10 0.985065 0.415798 0.667077
O O11 0.370761 0.363675 0.877708
O O12 0.398904 0.250000 0.256337
O O13 0.994859 0.157937 0.000016
O O14 0.294771 0.096107 0.119524
O O15 0.760381 0.250000 0.144865
O O16 0.818026 0.429118 0.163026
O O17 0.023725 0.488341 0.824295
O O18 0.293694 0.586658 0.114710
O O19 0.595968 0.250000 0.750230
#
# Coordination Sequence:
#
# PCOD9167062 Si02
#       8
#     4   4   4   4   4   4   4   4
#     4   9  17  31  50  72  98 122 164 209 244 284
#     4   9  18  34  55  75  99 133 169 211 254 299
#     4   9  18  34  54  76 101 131 170 212 249 298
#     4   8  15  30  51  68  87 122 165 197 233 288
#     4   9  19  33  51  75 100 131 177 213 241 295
#     4   9  19  32  46  71 100 129 157 206 249 290
#     4   8  15  31  52  68  86 125 169 197 233 287
#     4  11  20  31  50  77 106 136 167 202 263 309
#
# _framework density 21.315407
#
# number of rings (size 3 to 8) (size 9 to 14) (size 15 to 20)
#    0.000    3.000    0.000    4.125    0.000    4.000 
#    4.500    0.000    0.000    0.000    0.000    0.000 
#    0.000    0.000    0.000    0.000    0.000    0.000 
#
# Total GULP energy -178289.773896 kJ/mol
# GULP energy per Si atom -5571.555434 kJ/mol
# Density = 2.126689 g / cm^3
# Si number density = 21.315407 Si / 1000 Ang^3
#
#
#
# Elastic Constant Matrix: (Units=GPa)
#
#
# Indices 1 2 3 4 5 6 
#
# 1 95.5874 58.4399 41.5472 0.0000 -28.2249 0.0000
# 2 58.4399 173.9705 47.3416 0.0000 -29.0683 0.0000
# 3 41.5472 47.3416 91.1767 0.0000 -45.3075 0.0000
# 4 0.0000 0.0000 0.0000 11.9616 0.0000 -10.7056
# 5 -28.2249 -29.0683 -45.3075 0.0000 37.4517 0.0000
# 6 0.0000 0.0000 0.0000 -10.7056 0.0000 4.3071
#
#
#
# Elastic Compliance Matrix: (Units=1/GPa)
#
#
# Indices 1 2 3 4 5 6 
#
# 1 0.015399 -0.003559 -0.001943 0.000000 0.006493 0.000000
# 2 -0.003559 0.007610 -0.001824 0.000000 0.001018 0.000000
# 3 -0.001943 -0.001824 0.028504 0.000000 0.031604 0.000000
# 4 0.000000 0.000000 0.000000 -0.068268 0.000000 -0.169686
# 5 0.006493 0.001018 0.031604 0.000000 0.070617 0.000000
# 6 0.000000 0.000000 0.000000 -0.169686 0.000000 -0.189594
#
#
# Mechanical properties :
#
#
# Convention : Reuss Voigt Hill
#
# Bulk Modulus (GPa) = 27.12776 72.82133 49.97454
# Shear Modulus (GPa) = -45.95936 24.97114 -10.49411
#
# Velocity S-wave (km/s) = -4.64848 3.42644 -2.22125
# Velocity P-wave (km/s) = 4.00708 7.06342 4.11310
#
# Compressibility (1/GPa) = 0.03686261
#
# Stress axis : x y z
#
# Youngs Moduli (GPa) = 64.93812 131.40405 35.08229
#
# Poissons Ratio (x) = 0.46772 0.06815
# Poissons Ratio (y) = 0.23114 0.06397
# Poissons Ratio (z) = 0.12615 0.23962
#
# Static dielectric constant tensor:
#      x y z
#    x 1.786460 0.000000 0.073550 
#    y 0.000000 1.724550 0.000000 
#    z 0.073550 0.000000 1.850950 
# 
# From -- ./inp_files/66287.got.cif
#   From: 2010.05.17/outbox.cif.g08.bks.cpg/sg11_34_cif.got.tgz:66287.got - 2010.06.03 12:22:45.
