data_PCOD9167688
_publ_section_title
;
Structure prediction by ZEFSAII (Michael W. Deem and Ramdas Pophale) SiO2 
 PCOD9167688
Probable space group: P 21/M
;
_chemical_formula_sum "Si O2"
_cell_formula_units_Z 32
_cell_length_a 12.000000
_cell_length_b 9.000000
_cell_length_c 30.000000
_cell_angle_alpha 90.000000
_cell_angle_beta 30.000000
_cell_angle_gamma 90.000000
_cell_volume 1620.000000
_symmetry_space_group_name_H-M "P 21/M"
_symmetry_group_IT_number 11
_symmetry_cell_setting 'monoclinic'
loop_
_space_group_symop_operation_xyz
x,y,z
-x,1/2+y,-z
-x,-y,-z
x,1/2-y,z
loop_
_atom_site_type_symbol
_atom_site_label
_atom_site_fract_x
_atom_site_fract_y
_atom_site_fract_z
Si Si1 0.461417 0.571949 0.925478
Si Si2 0.396993 0.429854 0.439772
Si Si3 0.888361 0.427104 0.609365
Si Si4 0.198670 0.425916 0.273053
Si Si5 0.477938 0.431182 0.693944
Si Si6 0.845411 0.422939 0.842870
Si Si7 0.992149 0.923002 0.111440
Si Si8 0.186017 0.571131 0.656713
O O1 0.454561 0.750000 0.936578
O O2 0.611048 0.549942 0.829667
O O3 0.607769 0.494739 0.913156
O O4 0.206069 0.516320 0.010280
O O5 0.390730 0.250000 0.440461
O O6 0.527791 0.494659 0.352177
O O7 0.557026 0.473784 0.425655
O O8 0.142054 0.485343 0.524606
O O9 0.902877 0.250000 0.601250
O O10 0.764378 0.476343 0.696867
O O11 0.719716 0.476577 0.629305
O O12 0.193766 0.250000 0.285166
O O13 0.956166 0.470817 0.337411
O O14 0.468060 0.250000 0.693910
O O15 0.262043 0.480901 0.797676
O O16 0.840803 0.250000 0.831548
O O17 0.915287 0.431114 0.870025
O O18 0.032615 0.506082 0.749191
O O19 0.969233 0.750000 0.106263
O O20 0.175817 0.750000 0.662783
#
# Coordination Sequence:
#
# PCOD9167688 Si02
#       8
#     4   4   4   4   4   4   4   4
#     4   9  18  33  51  72 102 139 171 206 255 306
#     4  10  20  35  55  80 106 133 169 212 263 313
#     4  10  22  37  54  75 103 139 174 216 262 301
#     4   9  19  35  53  72  99 137 178 213 251 304
#     4  10  20  36  55  78 107 136 170 211 259 308
#     4  10  17  27  47  77 107 134 168 206 251 307
#     4   9  17  30  50  75 103 135 170 205 253 311
#     4   9  18  33  52  75 106 139 168 207 260 310
#
# _framework density 19.753086
#
# number of rings (size 3 to 8) (size 9 to 14) (size 15 to 20)
#    0.000    2.500    1.250    1.875    0.000    3.500 
#    0.000    1.875    0.000    0.000    0.000    0.000 
#    0.000    0.000    0.000    0.000    0.000    0.000 
#
# Total GULP energy -178203.754438 kJ/mol
# GULP energy per Si atom -5568.867326 kJ/mol
# Density = 1.970813 g / cm^3
# Si number density = 19.753086 Si / 1000 Ang^3
#
#
#
# Elastic Constant Matrix: (Units=GPa)
#
#
# Indices 1 2 3 4 5 6 
#
# 1 43.2799 4.4442 22.6866 0.0000 0.0064 0.0000
# 2 4.4442 -27.3820 -12.0746 0.0000 -0.6252 0.0000
# 3 22.6866 -12.0746 80.9300 0.0000 -29.3651 0.0000
# 4 0.0000 0.0000 0.0000 17.3858 0.0000 4.0203
# 5 0.0064 -0.6252 -29.3651 0.0000 19.4660 0.0000
# 6 0.0000 0.0000 0.0000 4.0203 0.0000 14.6911
#
#
#
# Elastic Compliance Matrix: (Units=1/GPa)
#
#
# Indices 1 2 3 4 5 6 
#
# 1 0.029322 0.011453 -0.014097 0.000000 -0.020908 0.000000
# 2 0.011453 -0.026749 -0.016602 0.000000 -0.025907 0.000000
# 3 -0.014097 -0.016602 0.030133 0.000000 0.044928 0.000000
# 4 0.000000 0.000000 0.000000 0.061404 0.000000 -0.016804
# 5 -0.020908 -0.025907 0.044928 0.000000 0.118322 0.000000
# 6 0.000000 0.000000 0.000000 -0.016804 0.000000 0.072667
#
#
# Mechanical properties :
#
#
# Convention : Reuss Voigt Hill
#
# Bulk Modulus (GPa) = -172.83288 14.10447 -79.36421
# Shear Modulus (GPa) = 15.54427 15.76005 15.65216
#
# Velocity S-wave (km/s) = 2.80827 2.82769 2.81800
# Velocity P-wave (km/s) = 8.78473 4.22102 5.44768
#
# Compressibility (1/GPa) = -0.00578594
#
# Stress axis : x y z
#
# Youngs Moduli (GPa) = 34.10418 -37.38434 33.18590
#
# Poissons Ratio (x) = 0.42816 0.46783
# Poissons Ratio (y) = -0.39059 0.55094
# Poissons Ratio (z) = 0.48077 -0.62064
#
# Static dielectric constant tensor:
#      x y z
#    x 1.720150 0.000000 -0.021470 
#    y 0.000000 1.648430 0.000000 
#    z -0.021470 0.000000 1.735150 
# 
# From -- ./inp_files/45129.got.cif
#   From: 2010.05.17/outbox.ucp.g08.bks.cvg/sg11_23_cif.got.tgz:45129.got - 2010.06.11 11:38:39.
