data_PCOD9167762
_publ_section_title
;
Structure prediction by ZEFSAII (Michael W. Deem and Ramdas Pophale) SiO2 
 PCOD9167762
Probable space group: P 21/M
;
_chemical_formula_sum "Si O2"
_cell_formula_units_Z 28
_cell_length_a 27.000000
_cell_length_b 9.000000
_cell_length_c 9.000000
_cell_angle_alpha 90.000000
_cell_angle_beta 140.000000
_cell_angle_gamma 90.000000
_cell_volume 1405.776502
_symmetry_space_group_name_H-M "P 21/M"
_symmetry_group_IT_number 11
_symmetry_cell_setting 'monoclinic'
loop_
_space_group_symop_operation_xyz
x,y,z
-x,1/2+y,-z
-x,-y,-z
x,1/2-y,z
loop_
_atom_site_type_symbol
_atom_site_label
_atom_site_fract_x
_atom_site_fract_y
_atom_site_fract_z
Si Si1 0.171773 0.574740 0.300891
Si Si2 0.262700 0.415978 0.983986
Si Si3 0.428410 0.081702 0.906362
Si Si4 0.973645 0.076270 0.200256
Si Si5 0.691123 0.077401 0.179782
Si Si6 0.281619 0.411856 0.358737
Si Si7 0.106858 0.919455 0.659021
O O1 0.163116 0.750000 0.303780
O O2 0.229206 0.515795 0.561014
O O3 0.223873 0.539721 0.276245
O O4 0.086469 0.520802 0.063087
O O5 0.269025 0.250000 0.933122
O O6 0.299241 0.541156 0.967960
O O7 0.174625 0.461650 0.808004
O O8 0.300473 0.417105 0.230944
O O9 0.448446 0.250000 0.991352
O O10 0.359456 0.081189 0.628739
O O11 0.386540 0.998736 0.943914
O O12 0.500000 0.000000 0.000000
O O13 0.994673 0.250000 0.220675
O O14 0.930825 0.076434 0.263302
O O15 0.045471 0.969620 0.393675
O O16 0.687566 0.250000 0.208520
O O17 0.243923 0.250000 0.303204
O O18 0.132945 0.750000 0.691472
#
# Coordination Sequence:
#
# PCOD9167762 Si02
#       7
#     4   4   4   4   4   4   4
#     4   9  17  32  53  76 102 135 178 223 265 312
#     4  11  21  35  53  77 109 143 177 217 264 313
#     4  10  20  38  61  86 111 137 171 211 256 309
#     4   9  17  30  48  73 103 135 175 224 271 313
#     4  10  21  36  56  81 109 141 175 215 263 314
#     4   9  19  33  54  80 106 137 175 215 256 308
#     4  10  19  30  48  74 104 138 177 223 269 313
#
# _framework density 19.917818
#
# number of rings (size 3 to 8) (size 9 to 14) (size 15 to 20)
#    0.000    2.286    1.429    1.714    0.000    2.857 
#    0.000    1.429    0.000    0.000    0.000    0.000 
#    0.000    0.000    0.000    0.000    0.000    0.000 
#
# Total GULP energy -155947.696212 kJ/mol
# GULP energy per Si atom -5569.560579 kJ/mol
# Density = 1.987248 g / cm^3
# Si number density = 19.917818 Si / 1000 Ang^3
#
#
#
# Elastic Constant Matrix: (Units=GPa)
#
#
# Indices 1 2 3 4 5 6 
#
# 1 9.4365 -6.0376 -1.1545 0.0000 -7.4009 0.0000
# 2 -6.0376 23.4457 -8.2484 0.0000 -0.5590 0.0000
# 3 -1.1545 -8.2484 -12.1422 0.0000 0.4573 0.0000
# 4 0.0000 0.0000 0.0000 16.3142 0.0000 -0.7903
# 5 -7.4009 -0.5590 0.4573 0.0000 4.3680 0.0000
# 6 0.0000 0.0000 0.0000 -0.7903 0.0000 21.2389
#
#
#
# Elastic Compliance Matrix: (Units=1/GPa)
#
#
# Indices 1 2 3 4 5 6 
#
# 1 -0.214607 -0.050014 0.040287 0.000000 -0.374239 0.000000
# 2 -0.050014 0.022975 -0.013878 0.000000 -0.080348 0.000000
# 3 0.040287 -0.013878 -0.073965 0.000000 0.074228 0.000000
# 4 0.000000 0.000000 0.000000 0.061407 0.000000 0.002285
# 5 -0.374239 -0.080348 0.074228 0.000000 -0.423206 0.000000
# 6 0.000000 0.000000 0.000000 0.002285 0.000000 0.047169
#
#
# Mechanical properties :
#
#
# Convention : Reuss Voigt Hill
#
# Bulk Modulus (GPa) = -3.19686 -1.12679 -2.16183
# Shear Modulus (GPa) = -7.84574 10.79624 1.47525
#
# Velocity S-wave (km/s) = -1.98686 2.33070 0.86156
# Velocity P-wave (km/s) = 2.62145 2.58378 0.31309
#
# Compressibility (1/GPa) = -0.31280696
#
# Stress axis : x y z
#
# Youngs Moduli (GPa) = -4.65967 43.52612 -13.51984
#
# Poissons Ratio (x) = 2.17690 0.54467
# Poissons Ratio (y) = -0.23305 -0.18762
# Poissons Ratio (z) = 0.18772 0.60404
#
# Static dielectric constant tensor:
#      x y z
#    x 1.723840 0.000000 -0.037600 
#    y 0.000000 1.727710 0.000000 
#    z -0.037600 0.000000 1.733940 
# 
# From -- ./inp_files/28592.got.cif
#   From: 2010.05.17/outbox.ucp.g08.bks.cvg/sg11_15_cif.got.tgz:28592.got - 2010.06.11 11:38:39.
