data_PCOD9167783
_publ_section_title
;
Structure prediction by ZEFSAII (Michael W. Deem and Ramdas Pophale) SiO2 
 PCOD9167783
Probable space group: P 21/M
;
_chemical_formula_sum "Si O2"
_cell_formula_units_Z 24
_cell_length_a 21.000000
_cell_length_b 9.000000
_cell_length_c 9.000000
_cell_angle_alpha 90.000000
_cell_angle_beta 130.000000
_cell_angle_gamma 90.000000
_cell_volume 1303.041598
_symmetry_space_group_name_H-M "P 21/M"
_symmetry_group_IT_number 11
_symmetry_cell_setting 'monoclinic'
loop_
_space_group_symop_operation_xyz
x,y,z
-x,1/2+y,-z
-x,-y,-z
x,1/2-y,z
loop_
_atom_site_type_symbol
_atom_site_label
_atom_site_fract_x
_atom_site_fract_y
_atom_site_fract_z
Si Si1 0.279611 0.429450 0.442747
Si Si2 0.974895 0.430974 0.621132
Si Si3 0.262257 0.086070 0.965938
Si Si4 0.584960 0.922423 0.582555
Si Si5 0.871405 0.920002 0.971573
Si Si6 0.216321 0.577883 0.621360
O O1 0.278355 0.250000 0.424250
O O2 0.360919 0.482506 0.475641
O O3 0.273746 0.481182 0.600832
O O4 0.192592 0.489137 0.241691
O O5 0.980739 0.250000 0.618997
O O6 0.880578 0.469363 0.522165
O O7 0.000000 0.500000 0.500000
O O8 0.040873 0.484332 0.844618
O O9 0.260307 0.250000 0.889353
O O10 0.186392 0.085570 0.968481
O O11 0.248755 0.952963 0.834417
O O12 0.347597 0.072764 0.183850
O O13 0.566016 0.750000 0.523585
O O14 0.500000 0.000000 0.500000
O O15 0.888011 0.750000 0.947788
O O16 0.220532 0.750000 0.586698
#
# Coordination Sequence:
#
# PCOD9167783 Si02
#       6
#     4   4   4   4   4   4
#     4   9  19  36  55  74 101 140 177 205 251 317
#     4  10  19  31  49  74 104 137 178 219 254 297
#     4   9  17  33  56  76  99 138 178 205 249 316
#     4   9  19  36  60  85 102 127 170 213 256 314
#     4   8  15  31  53  72  95 135 182 217 243 292
#     4  11  22  32  47  79 113 137 169 218 264 295
#
# _framework density 18.418444999999998
#
# number of rings (size 3 to 8) (size 9 to 14) (size 15 to 20)
#    0.000    2.667    1.667    2.500    0.000    2.667 
#    0.000    4.167    0.000    0.000    0.000    0.000 
#    0.000    0.000    0.000    0.000    0.000    0.000 
#
# Total GULP energy -133602.108156 kJ/mol
# GULP energy per Si atom -5566.754506 kJ/mol
# Density = 1.837652 g / cm^3
# Si number density = 18.418445 Si / 1000 Ang^3
#
#
#
# Elastic Constant Matrix: (Units=GPa)
#
#
# Indices 1 2 3 4 5 6 
#
# 1 78.6821 21.4040 16.7883 0.0000 16.3292 0.0000
# 2 21.4040 13.3231 5.2529 0.0000 7.5899 0.0000
# 3 16.7883 5.2529 14.8482 0.0000 8.1317 0.0000
# 4 0.0000 0.0000 0.0000 20.2879 0.0000 1.4000
# 5 16.3292 7.5899 8.1317 0.0000 24.7131 0.0000
# 6 0.0000 0.0000 0.0000 1.4000 0.0000 19.1228
#
#
#
# Elastic Compliance Matrix: (Units=1/GPa)
#
#
# Indices 1 2 3 4 5 6 
#
# 1 0.025769 -0.034310 -0.016399 0.000000 -0.001093 0.000000
# 2 -0.034310 0.142129 0.000001 0.000000 -0.020981 0.000000
# 3 -0.016399 0.000001 0.097531 0.000000 -0.021257 0.000000
# 4 0.000000 0.000000 0.000000 0.049541 0.000000 -0.003627
# 5 -0.001093 -0.020981 -0.021257 0.000000 0.054625 0.000000
# 6 0.000000 0.000000 0.000000 -0.003627 0.000000 0.052559
#
#
# Mechanical properties :
#
#
# Convention : Reuss Voigt Hill
#
# Bulk Modulus (GPa) = 6.09703 21.52710 13.81207
# Shear Modulus (GPa) = 8.64694 17.05198 12.84946
#
# Velocity S-wave (km/s) = 2.16908 3.04601 2.64415
# Velocity P-wave (km/s) = 3.09688 4.90756 4.10334
#
# Compressibility (1/GPa) = 0.16401419
#
# Stress axis : x y z
#
# Youngs Moduli (GPa) = 38.80686 7.03584 10.25317
#
# Poissons Ratio (x) = 0.24140 0.16814
# Poissons Ratio (y) = 1.33145 -0.00001
# Poissons Ratio (z) = 0.63639 -0.00001
#
# Static dielectric constant tensor:
#      x y z
#    x 1.611050 0.000000 -0.009990 
#    y 0.000000 1.663060 0.000000 
#    z -0.009990 0.000000 1.664390 
# 
# From -- ./inp_files/23716.got.cif
#   From: 2010.05.17/outbox.ucp.g08.bks.cvg/sg11_12_cif.got.tgz:23716.got - 2010.06.11 11:38:39.
