data_PCOD9167551
_publ_section_title
;
Structure prediction by ZEFSAII (Michael W. Deem and Ramdas Pophale) SiO2 
 PCOD9167551
Probable space group: P 21/M
;
_chemical_formula_sum "Si O2"
_cell_formula_units_Z 16
_cell_length_a 5.416512
_cell_length_b 12.962227
_cell_length_c 10.383985
_cell_angle_alpha 90.000000
_cell_angle_beta 121.617007
_cell_angle_gamma 90.000000
_cell_volume 620.846780
_symmetry_space_group_name_H-M "P 21/M"
_symmetry_group_IT_number 11
_symmetry_cell_setting 'monoclinic'
loop_
_space_group_symop_operation_xyz
x,y,z
-x,1/2+y,-z
-x,-y,-z
x,1/2-y,z
loop_
_atom_site_type_symbol
_atom_site_label
_atom_site_fract_x
_atom_site_fract_y
_atom_site_fract_z
Si Si1 0.092256 0.452922 0.659999
Si Si2 0.181424 0.250000 0.554909
Si Si3 0.473403 0.250000 0.353937
Si Si4 0.874079 0.368834 0.838404
Si Si5 0.601184 0.927833 0.869354
O O1 0.261854 0.351274 0.658351
O O2 0.844955 0.408111 0.684042
O O3 0.263693 0.541980 0.783851
O O4 0.000000 0.500000 0.500000
O O5 0.326822 0.250000 0.454307
O O6 0.826848 0.250000 0.449898
O O7 0.374219 0.350844 0.245512
O O8 0.800809 0.250000 0.836267
O O9 0.735463 0.458605 0.885121
O O10 0.221175 0.376506 0.967098
#
# Coordination Sequence:
#
# PCOD9167551 Si02
#       5
#     4   2   2   4   4
#     4  12  25  44  71 108 146 198 252 315 380 456
#     4  12  28  43  77 110 156 199 250 320 381 455
#     4  12  26  51  73 116 156 201 256 316 389 451
#     4  11  25  47  72 107 150 201 260 315 384 454
#     4  11  26  46  73 106 150 202 257 317 384 450
#
# _framework density 25.771252
#
# number of rings (size 3 to 8) (size 9 to 14) (size 15 to 20)
#    0.000    0.500    5.000    2.250    5.250    2.000 
#    0.000    0.000    0.000    0.000    0.000    0.000 
#    0.000    0.000    0.000    0.000    0.000    0.000 
#
# Total GULP energy -89492.288739 kJ/mol
# GULP energy per Si atom -5593.268046 kJ/mol
# Density = 2.571260 g / cm^3
# Si number density = 25.771252 Si / 1000 Ang^3
#
#
#
# Elastic Constant Matrix: (Units=GPa)
#
#
# Indices 1 2 3 4 5 6 
#
# 1 78.2720 15.1052 10.2059 0.0000 -10.0627 0.0000
# 2 15.1052 178.8410 15.7141 0.0000 4.9808 0.0000
# 3 10.2059 15.7141 67.3343 0.0000 5.2603 0.0000
# 4 0.0000 0.0000 0.0000 57.3841 0.0000 -2.0545
# 5 -10.0627 4.9808 5.2603 0.0000 40.8881 0.0000
# 6 0.0000 0.0000 0.0000 -2.0545 0.0000 42.8451
#
#
#
# Elastic Compliance Matrix: (Units=1/GPa)
#
#
# Indices 1 2 3 4 5 6 
#
# 1 0.013749 -0.001080 -0.002128 0.000000 0.003789 0.000000
# 2 -0.001080 0.005805 -0.001126 0.000000 -0.000828 0.000000
# 3 -0.002128 -0.001126 0.015624 0.000000 -0.002397 0.000000
# 4 0.000000 0.000000 0.000000 0.017456 0.000000 0.000837
# 5 0.003789 -0.000828 -0.002397 0.000000 0.025799 0.000000
# 6 0.000000 0.000000 0.000000 0.000837 0.000000 0.023380
#
#
# Mechanical properties :
#
#
# Convention : Reuss Voigt Hill
#
# Bulk Modulus (GPa) = 37.72243 45.16642 41.44442
# Shear Modulus (GPa) = 41.90509 47.11828 44.51169
#
# Velocity S-wave (km/s) = 4.03679 4.28053 4.16045
# Velocity P-wave (km/s) = 6.03297 6.48032 6.26064
#
# Compressibility (1/GPa) = 0.02650943
#
# Stress axis : x y z
#
# Youngs Moduli (GPa) = 72.73301 172.27158 64.00460
#
# Poissons Ratio (x) = 0.18602 0.13620
# Poissons Ratio (y) = 0.07854 0.07209
# Poissons Ratio (z) = 0.15477 0.19404
#
# Static dielectric constant tensor:
#      x y z
#    x 2.212520 0.000000 0.142470 
#    y 0.000000 1.974990 0.000000 
#    z 0.142470 0.000000 2.094180 
# 
# From -- ./inp_files/1533.got.cif
#   From: 2010.05.17/outbox.cif.g08.bks.cpg/sg11_1_cif.got.tgz:1533.got - 2010.06.03 12:22:45.
