data_PCOD9167390
_publ_section_title
;
Structure prediction by ZEFSAII (Michael W. Deem and Ramdas Pophale) SiO2 
 PCOD9167390
Probable space group: P 21/M
;
_chemical_formula_sum "Si O2"
_cell_formula_units_Z 28
_cell_length_a 5.255166
_cell_length_b 29.610804
_cell_length_c 9.549885
_cell_angle_alpha 90.000000
_cell_angle_beta 105.001902
_cell_angle_gamma 90.000000
_cell_volume 1435.405795
_symmetry_space_group_name_H-M "P 21/M"
_symmetry_group_IT_number 11
_symmetry_cell_setting 'monoclinic'
loop_
_space_group_symop_operation_xyz
x,y,z
-x,1/2+y,-z
-x,-y,-z
x,1/2-y,z
loop_
_atom_site_type_symbol
_atom_site_label
_atom_site_fract_x
_atom_site_fract_y
_atom_site_fract_z
Si Si1 0.040734 0.701252 0.520097
Si Si2 0.907197 0.449763 0.946790
Si Si3 0.822021 0.896671 0.775898
Si Si4 0.028334 0.394510 0.523257
Si Si5 0.609997 0.034794 0.400373
Si Si6 0.309651 0.451427 0.760350
Si Si7 0.631867 0.799697 0.718594
O O1 0.682476 0.750000 0.793206
O O2 0.322539 0.698457 0.638241
O O3 0.021171 0.655622 0.428659
O O4 0.803444 0.700959 0.599380
O O5 0.600175 0.450857 0.865754
O O6 0.090271 0.437573 0.840979
O O7 0.000000 0.500000 0.000000
O O8 0.977401 0.416189 0.082741
O O9 0.949796 0.890868 0.641197
O O10 0.599042 0.934601 0.713520
O O11 0.709646 0.847221 0.801013
O O12 0.283289 0.416363 0.629065
O O13 0.800738 0.431139 0.507798
O O14 0.500000 0.000000 0.500000
O O15 0.748367 0.001606 0.307905
O O16 0.032687 0.750000 0.445533
#
# Coordination Sequence:
#
# PCOD9167390 Si02
#       7
#     4   4   4   4   4   4   4
#     4   9  18  33  57  87 116 141 185 245 300 342
#     4  12  26  41  56  82 120 161 194 238 287 346
#     4  11  23  37  63  85 117 154 203 240 293 348
#     4  11  23  38  62  87 118 153 201 244 295 349
#     4  12  22  37  58  90 118 157 201 245 288 344
#     4  12  26  40  57  82 124 159 193 237 289 347
#     4   9  18  34  56  87 115 142 186 249 299 339
#
# _framework density 19.506678000000001
#
# number of rings (size 3 to 8) (size 9 to 14) (size 15 to 20)
#    0.000    1.143    4.286    2.571    2.000    0.000 
#    0.000    0.000    0.000    1.714    0.000    0.000 
#    0.000    0.000    0.000    0.000    0.000    0.000 
#
# Total GULP energy -156254.020728 kJ/mol
# GULP energy per Si atom -5580.500740 kJ/mol
# Density = 1.946228 g / cm^3
# Si number density = 19.506678 Si / 1000 Ang^3
#
#
#
# Elastic Constant Matrix: (Units=GPa)
#
#
# Indices 1 2 3 4 5 6 
#
# 1 45.5611 0.0673 11.0590 0.0000 4.0596 0.0000
# 2 0.0673 182.9876 34.1200 0.0000 16.5628 0.0000
# 3 11.0590 34.1200 64.4044 0.0000 11.3010 0.0000
# 4 0.0000 0.0000 0.0000 -65.7674 0.0000 -102.8782
# 5 4.0596 16.5628 11.3010 0.0000 29.3519 0.0000
# 6 0.0000 0.0000 0.0000 -102.8782 0.0000 -137.3813
#
#
#
# Elastic Compliance Matrix: (Units=1/GPa)
#
#
# Indices 1 2 3 4 5 6 
#
# 1 0.023134 0.000951 -0.004097 0.000000 -0.002159 0.000000
# 2 0.000951 0.006257 -0.003041 0.000000 -0.002491 0.000000
# 3 -0.004097 -0.003041 0.018705 0.000000 -0.004919 0.000000
# 4 0.000000 0.000000 0.000000 0.088707 0.000000 -0.066428
# 5 -0.002159 -0.002491 -0.004919 0.000000 0.037668 0.000000
# 6 0.000000 0.000000 0.000000 -0.066428 0.000000 0.042466
#
#
# Mechanical properties :
#
#
# Convention : Reuss Voigt Hill
#
# Bulk Modulus (GPa) = 27.99487 42.60508 35.29997
# Shear Modulus (GPa) = 20.72816 -18.24557 1.24129
#
# Velocity S-wave (km/s) = 3.26332 -3.06167 0.79858
# Velocity P-wave (km/s) = 5.34618 3.06436 4.35729
#
# Compressibility (1/GPa) = 0.03572083
#
# Stress axis : x y z
#
# Youngs Moduli (GPa) = 43.22634 159.82037 53.46277
#
# Poissons Ratio (x) = -0.15197 0.21906
# Poissons Ratio (y) = -0.04110 0.16258
# Poissons Ratio (z) = 0.17711 0.48600
#
# Static dielectric constant tensor:
#      x y z
#    x 1.749760 0.000000 -0.036140 
#    y 0.000000 1.744870 0.000000 
#    z -0.036140 0.000000 1.692400 
# 
# From -- ./inp_files/3218.got.cif
#   From: 2010.05.17/outbox.cif.g08.bks.cpg/sg11_2_cif.got.tgz:3218.got - 2010.06.03 12:22:45.
