data_PCOD9167800
_publ_section_title
;
Structure prediction by ZEFSAII (Michael W. Deem and Ramdas Pophale) SiO2 
 PCOD9167800
Probable space group: P 21/M
;
_chemical_formula_sum "Si O2"
_cell_formula_units_Z 32
_cell_length_a 12.000000
_cell_length_b 9.000000
_cell_length_c 21.000000
_cell_angle_alpha 90.000000
_cell_angle_beta 130.000000
_cell_angle_gamma 90.000000
_cell_volume 1737.388797
_symmetry_space_group_name_H-M "P 21/M"
_symmetry_group_IT_number 11
_symmetry_cell_setting 'monoclinic'
loop_
_space_group_symop_operation_xyz
x,y,z
-x,1/2+y,-z
-x,-y,-z
x,1/2-y,z
loop_
_atom_site_type_symbol
_atom_site_label
_atom_site_fract_x
_atom_site_fract_y
_atom_site_fract_z
Si Si1 0.396781 0.572438 0.409960
Si Si2 0.915125 0.428413 0.527142
Si Si3 0.562318 0.427324 0.216552
Si Si4 0.040417 0.571179 0.106347
Si Si5 0.414644 0.927655 0.623742
Si Si6 0.856932 0.928277 0.278433
Si Si7 0.919002 0.069127 0.736373
Si Si8 0.762774 0.571286 0.929952
O O1 0.500000 0.500000 0.500000
O O2 0.401927 0.750000 0.417568
O O3 0.462001 0.518794 0.367007
O O4 0.228924 0.523531 0.353218
O O5 0.914648 0.250000 0.520970
O O6 0.745180 0.472069 0.461763
O O7 0.000000 0.500000 0.500000
O O8 0.015122 0.465844 0.624158
O O9 0.570487 0.250000 0.210399
O O10 0.574905 0.454633 0.297057
O O11 0.703149 0.500345 0.237002
O O12 0.404924 0.479434 0.132661
O O13 0.054899 0.750000 0.106862
O O14 0.084411 0.521794 0.192356
O O15 0.148945 0.496406 0.096590
O O16 0.871613 0.535647 0.028293
O O17 0.432678 0.750000 0.619232
O O18 0.839752 0.750000 0.273380
O O19 0.930612 0.977668 0.239991
O O20 0.918310 0.250000 0.734458
O O21 0.758986 0.750000 0.922272
#
# Coordination Sequence:
#
# PCOD9167800 Si02
#       8
#     4   4   4   4   4   4   4   4
#     4  11  22  36  54  76 104 135 171 213 258 308
#     4  10  19  32  50  71  98 133 171 214 255 298
#     4  10  20  34  51  75 107 137 165 209 265 308
#     4   9  17  33  57  80 102 134 172 207 250 308
#     4  10  20  34  52  74 104 136 168 212 262 306
#     4  10  20  34  52  72  98 135 179 219 251 297
#     4   9  19  36  55  74 101 138 175 211 253 301
#     4   9  18  32  53  81 109 132 161 209 263 308
#
# _framework density 18.418444999999998
#
# number of rings (size 3 to 8) (size 9 to 14) (size 15 to 20)
#    0.000    2.250    1.250    1.875    0.000    3.500 
#    0.000    4.375    0.000    0.000    0.000    0.000 
#    0.000    0.000    0.000    0.000    0.000    0.000 
#
# Total GULP energy -178404.015213 kJ/mol
# GULP energy per Si atom -5575.125475 kJ/mol
# Density = 1.837652 g / cm^3
# Si number density = 18.418445 Si / 1000 Ang^3
#
#
#
# Elastic Constant Matrix: (Units=GPa)
#
#
# Indices 1 2 3 4 5 6 
#
# 1 104.6290 24.6735 48.5957 0.0000 27.4874 0.0000
# 2 24.6735 4.1681 24.4229 0.0000 6.7453 0.0000
# 3 48.5957 24.4229 97.6554 0.0000 26.6934 0.0000
# 4 0.0000 0.0000 0.0000 17.6677 0.0000 4.0714
# 5 27.4874 6.7453 26.6934 0.0000 34.0744 0.0000
# 6 0.0000 0.0000 0.0000 4.0714 0.0000 25.5861
#
#
#
# Elastic Compliance Matrix: (Units=1/GPa)
#
#
# Indices 1 2 3 4 5 6 
#
# 1 0.006526 0.041991 -0.012773 0.000000 -0.003571 0.000000
# 2 0.041991 -0.245263 0.046357 0.000000 -0.021637 0.000000
# 3 -0.012773 0.046357 0.005974 0.000000 -0.003553 0.000000
# 4 0.000000 0.000000 0.000000 0.058755 0.000000 -0.009349
# 5 -0.003571 -0.021637 -0.003553 0.000000 0.039294 0.000000
# 6 0.000000 0.000000 0.000000 -0.009349 0.000000 0.040571
#
#
# Mechanical properties :
#
#
# Convention : Reuss Voigt Hill
#
# Bulk Modulus (GPa) = -12.25295 44.64852 16.19778
# Shear Modulus (GPa) = -18.34890 22.71633 2.18372
#
# Velocity S-wave (km/s) = -3.15973 3.51571 1.09004
# Velocity P-wave (km/s) = 4.46977 6.38546 3.22454
#
# Compressibility (1/GPa) = -0.08161300
#
# Stress axis : x y z
#
# Youngs Moduli (GPa) = 153.23598 -4.07726 167.39434
#
# Poissons Ratio (x) = 0.17121 2.13815
# Poissons Ratio (y) = -6.43455 -7.75987
# Poissons Ratio (z) = 1.95730 0.18901
#
# Static dielectric constant tensor:
#      x y z
#    x 1.638130 0.000000 -0.028400 
#    y 0.000000 1.615200 0.000000 
#    z -0.028400 0.000000 1.653710 
# 
# From -- ./inp_files/64456.got.cif
#   From: 2010.05.17/outbox.ucp.g08.bks.cvg/sg11_33_cif.got.tgz:64456.got - 2010.06.11 11:38:39.
