data_PCOD9167415
_publ_section_title
;
Structure prediction by ZEFSAII (Michael W. Deem and Ramdas Pophale) SiO2 
 PCOD9167415
Probable space group: P 21/M
;
_chemical_formula_sum "Si O2"
_cell_formula_units_Z 28
_cell_length_a 12.064378
_cell_length_b 8.605820
_cell_length_c 15.885649
_cell_angle_alpha 90.000000
_cell_angle_beta 60.325248
_cell_angle_gamma 90.000000
_cell_volume 1433.002149
_symmetry_space_group_name_H-M "P 21/M"
_symmetry_group_IT_number 11
_symmetry_cell_setting 'monoclinic'
loop_
_space_group_symop_operation_xyz
x,y,z
-x,1/2+y,-z
-x,-y,-z
x,1/2-y,z
loop_
_atom_site_type_symbol
_atom_site_label
_atom_site_fract_x
_atom_site_fract_y
_atom_site_fract_z
Si Si1 0.923848 0.436779 0.651699
Si Si2 0.597842 0.564875 0.033373
Si Si3 0.629043 0.436510 0.205108
Si Si4 0.535762 0.436866 0.577938
Si Si5 0.143143 0.563405 0.140505
Si Si6 0.176131 0.937166 0.491505
Si Si7 0.927102 0.063098 0.109192
O O1 0.926690 0.250000 0.649536
O O2 0.852148 0.482990 0.763367
O O3 0.857986 0.490951 0.590288
O O4 0.068090 0.497505 0.593474
O O5 0.588264 0.750000 0.037859
O O6 0.577112 0.502110 0.135904
O O7 0.500000 0.500000 0.000000
O O8 0.740187 0.512200 0.953370
O O9 0.622965 0.250000 0.204256
O O10 0.551096 0.497719 0.314363
O O11 0.778379 0.481120 0.160095
O O12 0.500000 0.500000 0.500000
O O13 0.527670 0.250000 0.581695
O O14 0.681897 0.483787 0.539427
O O15 0.152963 0.750000 0.128805
O O16 0.007390 0.508065 0.155636
O O17 0.168709 0.750000 0.495988
O O18 0.934545 0.250000 0.108985
O O19 0.000000 0.000000 0.000000
#
# Coordination Sequence:
#
# PCOD9167415 Si02
#       7
#     4   4   4   4   4   4   4
#     4   9  20  38  62  91 121 158 201 254 312 371
#     4  12  26  44  67  96 132 172 215 262 320 385
#     4  11  25  45  67  95 128 168 217 268 321 385
#     4  11  25  43  65  92 126 170 215 267 324 384
#     4  11  23  39  63  95 129 163 210 262 315 381
#     4   9  20  40  62  87 120 159 205 256 313 372
#     4  11  23  40  64  90 125 164 207 259 314 375
#
# _framework density 19.539397000000001
#
# number of rings (size 3 to 8) (size 9 to 14) (size 15 to 20)
#    0.000    1.429    1.429    3.000    4.000    4.000 
#    0.000    0.000    0.000    0.000    0.000    0.000 
#    0.000    0.000    0.000    0.000    0.000    0.000 
#
# Total GULP energy -156504.711599 kJ/mol
# GULP energy per Si atom -5589.453986 kJ/mol
# Density = 1.949492 g / cm^3
# Si number density = 19.539397 Si / 1000 Ang^3
#
#
#
# Elastic Constant Matrix: (Units=GPa)
#
#
# Indices 1 2 3 4 5 6 
#
# 1 129.7514 40.8020 59.2396 0.0000 0.7606 0.0000
# 2 40.8020 64.1517 38.9800 0.0000 3.5880 0.0000
# 3 59.2396 38.9800 147.8665 0.0000 10.4548 0.0000
# 4 0.0000 0.0000 0.0000 32.9954 0.0000 0.6480
# 5 0.7606 3.5880 10.4548 0.0000 24.6505 0.0000
# 6 0.0000 0.0000 0.0000 0.6480 0.0000 33.8458
#
#
#
# Elastic Compliance Matrix: (Units=1/GPa)
#
#
# Indices 1 2 3 4 5 6 
#
# 1 0.010680 -0.005019 -0.003076 0.000000 0.001706 0.000000
# 2 -0.005019 0.020930 -0.003404 0.000000 -0.001448 0.000000
# 3 -0.003076 -0.003404 0.009125 0.000000 -0.003279 0.000000
# 4 0.000000 0.000000 0.000000 0.030319 0.000000 -0.000581
# 5 0.001706 -0.001448 -0.003279 0.000000 0.042116 0.000000
# 6 0.000000 0.000000 0.000000 -0.000581 0.000000 0.029557
#
#
# Mechanical properties :
#
#
# Convention : Reuss Voigt Hill
#
# Bulk Modulus (GPa) = 56.38470 68.86808 62.62639
# Shear Modulus (GPa) = 29.13139 31.81487 30.47313
#
# Velocity S-wave (km/s) = 3.86541 4.03953 3.95343
# Velocity P-wave (km/s) = 6.98867 7.55508 7.27739
#
# Compressibility (1/GPa) = 0.01773531
#
# Stress axis : x y z
#
# Youngs Moduli (GPa) = 93.63526 47.77902 109.59412
#
# Poissons Ratio (x) = 0.23979 0.33713
# Poissons Ratio (y) = 0.46994 0.37310
# Poissons Ratio (z) = 0.28804 0.16266
#
# Static dielectric constant tensor:
#      x y z
#    x 1.642370 0.000000 -0.051870 
#    y 0.000000 1.661980 0.000000 
#    z -0.051870 0.000000 1.554800 
# 
# From -- ./inp_files/49136.got.cif
#   From: 2010.05.17/outbox.cif.g08.bks.cpg/sg11_25_cif.got.tgz:49136.got - 2010.06.03 12:22:45.
