data_PCOD9167016
_publ_section_title
;
Structure prediction by ZEFSAII (Michael W. Deem and Ramdas Pophale) SiO2 
 PCOD9167016
Probable space group: P 21/M
;
_chemical_formula_sum "Si O2"
_cell_formula_units_Z 24
_cell_length_a 9.460480
_cell_length_b 19.627257
_cell_length_c 8.924457
_cell_angle_alpha 90.000000
_cell_angle_beta 61.909030
_cell_angle_gamma 90.000000
_cell_volume 1461.915166
_symmetry_space_group_name_H-M "P 21/M"
_symmetry_group_IT_number 11
_symmetry_cell_setting 'monoclinic'
loop_
_space_group_symop_operation_xyz
x,y,z
-x,1/2+y,-z
-x,-y,-z
x,1/2-y,z
loop_
_atom_site_type_symbol
_atom_site_label
_atom_site_fract_x
_atom_site_fract_y
_atom_site_fract_z
Si Si1 0.797782 0.575188 0.115871
Si Si2 0.425761 0.829816 0.816778
Si Si3 0.147902 0.918816 0.813420
Si Si4 0.512388 0.076509 0.929570
Si Si5 0.682670 0.051992 0.552863
Si Si6 0.369888 0.402812 0.515637
O O1 0.796283 0.493905 0.155727
O O2 0.653153 0.590240 0.075357
O O3 0.762729 0.611844 0.292107
O O4 0.967910 0.591378 0.958332
O O5 0.408202 0.750000 0.849438
O O6 0.267224 0.863329 0.822783
O O7 0.569599 0.846012 0.628205
O O8 0.458999 0.870794 0.952292
O O9 0.171304 0.921848 0.621875
O O10 0.653515 0.077793 0.734579
O O11 0.500000 0.000000 0.000000
O O12 0.525785 0.074775 0.535626
O O13 0.681490 0.969927 0.551032
#
# Coordination Sequence:
#
# PCOD9167016 Si02
#       6
#     4   4   4   4   4   4
#     4   9  17  31  57  79 100 125 173 218 249 292
#     4  11  21  33  50  74 104 136 169 210 264 312
#     4   9  17  33  52  80 101 128 169 215 255 301
#     4  11  17  31  51  76 104 135 169 214 252 298
#     4   8  14  27  51  72  98 127 169 209 245 289
#     4   8  14  29  49  73  93 128 171 207 240 297
#
# _framework density 16.416822
#
# number of rings (size 3 to 8) (size 9 to 14) (size 15 to 20)
#    0.000    2.667    3.333    2.000    0.000    0.000 
#    0.000   11.667    0.000    0.000    0.000    0.000 
#    0.000    0.000    0.000    0.000    0.000    0.000 
#
# Total GULP energy -133658.813299 kJ/mol
# GULP energy per Si atom -5569.117221 kJ/mol
# Density = 1.637946 g / cm^3
# Si number density = 16.416822 Si / 1000 Ang^3
#
#
#
# Elastic Constant Matrix: (Units=GPa)
#
#
# Indices 1 2 3 4 5 6 
#
# 1 34.9112 29.2760 44.5341 0.0000 -2.6605 0.0000
# 2 29.2760 91.3912 58.5825 0.0000 6.7734 0.0000
# 3 44.5341 58.5825 168.5468 0.0000 -11.2750 0.0000
# 4 0.0000 0.0000 0.0000 15.7482 0.0000 2.1868
# 5 -2.6605 6.7734 -11.2750 0.0000 27.7629 0.0000
# 6 0.0000 0.0000 0.0000 2.1868 0.0000 12.9459
#
#
#
# Elastic Compliance Matrix: (Units=1/GPa)
#
#
# Indices 1 2 3 4 5 6 
#
# 1 0.049158 -0.010061 -0.009264 0.000000 0.003403 0.000000
# 2 -0.010061 0.017030 -0.003704 0.000000 -0.006623 0.000000
# 3 -0.009264 -0.003704 0.009939 0.000000 0.004052 0.000000
# 4 0.000000 0.000000 0.000000 0.065024 0.000000 -0.010984
# 5 0.003403 -0.006623 0.004052 0.000000 0.039607 0.000000
# 6 0.000000 0.000000 0.000000 -0.010984 0.000000 0.079100
#
#
# Mechanical properties :
#
#
# Convention : Reuss Voigt Hill
#
# Bulk Modulus (GPa) = 33.25643 62.18160 47.71902
# Shear Modulus (GPa) = 15.82581 22.12186 18.97384
#
# Velocity S-wave (km/s) = 3.10820 3.67483 3.40333
# Velocity P-wave (km/s) = 5.76045 7.48096 6.67636
#
# Compressibility (1/GPa) = 0.03006937
#
# Stress axis : x y z
#
# Youngs Moduli (GPa) = 20.34253 58.71994 100.61023
#
# Poissons Ratio (x) = 0.59078 0.93207
# Poissons Ratio (y) = 0.20467 0.37265
# Poissons Ratio (z) = 0.18846 0.21749
#
# Static dielectric constant tensor:
#      x y z
#    x 1.542320 0.000000 -0.012320 
#    y 0.000000 1.528590 0.000000 
#    z -0.012320 0.000000 1.605270 
# 
# From -- ./inp_files/13781.got.cif
#   From: 2010.05.17/outbox.cif.g08.bks.cpg/sg11_7_cif.got.tgz:13781.got - 2010.06.03 12:22:45.
