data_PCOD9167435
_publ_section_title
;
Structure prediction by ZEFSAII (Michael W. Deem and Ramdas Pophale) SiO2 
 PCOD9167435
Probable space group: P 21/M
;
_chemical_formula_sum "Si O2"
_cell_formula_units_Z 30
_cell_length_a 13.836619
_cell_length_b 18.308608
_cell_length_c 10.967897
_cell_angle_alpha 90.000000
_cell_angle_beta 32.612491
_cell_angle_gamma 90.000000
_cell_volume 1497.478934
_symmetry_space_group_name_H-M "P 21/M"
_symmetry_group_IT_number 11
_symmetry_cell_setting 'monoclinic'
loop_
_space_group_symop_operation_xyz
x,y,z
-x,1/2+y,-z
-x,-y,-z
x,1/2-y,z
loop_
_atom_site_type_symbol
_atom_site_label
_atom_site_fract_x
_atom_site_fract_y
_atom_site_fract_z
Si Si1 0.582385 0.385684 0.375746
Si Si2 0.282536 0.331828 0.533481
Si Si3 0.703939 0.041735 0.704479
Si Si4 0.613871 0.884507 0.840950
Si Si5 0.785854 0.750000 0.812577
Si Si6 0.027030 0.662682 0.965835
Si Si7 0.428947 0.033560 0.769477
Si Si8 0.942518 0.609226 0.785796
O O1 0.446604 0.332089 0.452839
O O2 0.776462 0.352763 0.191937
O O3 0.587919 0.456977 0.283180
O O4 0.500196 0.409475 0.592549
O O5 0.226204 0.250000 0.560535
O O6 0.344833 0.368448 0.343526
O O7 0.118238 0.366869 0.782256
O O8 0.572648 0.032834 0.726099
O O9 0.893502 0.071881 0.459766
O O10 0.713321 0.962237 0.756950
O O11 0.593561 0.097055 0.908707
O O12 0.680197 0.815627 0.847808
O O13 0.890185 0.685555 0.779523
O O14 0.998534 0.750000 0.981821
O O15 0.001146 0.624740 0.863162
O O16 0.235163 0.059727 0.019392
#
# Coordination Sequence:
#
# PCOD9167435 Si02
#       8
#     4   4   4   4   2   4   4   4
#     4  11  23  40  67 102 141 179 219 280 349 418
#     4  11  23  43  67  98 141 184 220 281 343 411
#     4  11  25  48  74  99 140 186 237 288 349 406
#     4  11  25  49  71 100 140 187 237 288 336 421
#     4  12  26  48  72 102 138 182 240 288 350 400
#     4  11  24  42  67 105 138 177 228 286 351 416
#     4  11  23  41  69 104 136 175 232 280 346 410
#     4  12  25  45  74 105 134 181 233 297 348 408
#
# _framework density 20.033670999999998
#
# number of rings (size 3 to 8) (size 9 to 14) (size 15 to 20)
#    0.000    0.800    6.667    0.400    1.867    1.600 
#    6.000    0.000    0.000    0.000    0.000    0.000 
#    0.000    0.000    0.000    0.000    0.000    0.000 
#
# Total GULP energy -167090.409377 kJ/mol
# GULP energy per Si atom -5569.680313 kJ/mol
# Density = 1.998807 g / cm^3
# Si number density = 20.033671 Si / 1000 Ang^3
#
#
#
# Elastic Constant Matrix: (Units=GPa)
#
#
# Indices 1 2 3 4 5 6 
#
# 1 51.2115 2.2901 43.0242 0.0000 -2.3010 0.0000
# 2 2.2901 63.6571 54.1732 0.0000 10.3894 0.0000
# 3 43.0242 54.1732 179.4046 0.0000 1.5287 0.0000
# 4 0.0000 0.0000 0.0000 25.9955 0.0000 2.3108
# 5 -2.3010 10.3894 1.5287 0.0000 29.0372 0.0000
# 6 0.0000 0.0000 0.0000 2.3108 0.0000 36.0991
#
#
#
# Elastic Compliance Matrix: (Units=1/GPa)
#
#
# Indices 1 2 3 4 5 6 
#
# 1 0.025997 0.005797 -0.007988 0.000000 0.000407 0.000000
# 2 0.005797 0.024070 -0.008593 0.000000 -0.007700 0.000000
# 3 -0.007988 -0.008593 0.010068 0.000000 0.001911 0.000000
# 4 0.000000 0.000000 0.000000 0.038688 0.000000 -0.002476
# 5 0.000407 -0.007700 0.001911 0.000000 0.037125 0.000000
# 6 0.000000 0.000000 0.000000 -0.002476 0.000000 0.027860
#
#
# Mechanical properties :
#
#
# Convention : Reuss Voigt Hill
#
# Bulk Modulus (GPa) = 25.92933 54.80535 40.36734
# Shear Modulus (GPa) = 25.22280 31.21207 28.21744
#
# Velocity S-wave (km/s) = 3.55212 3.95141 3.75707
# Velocity P-wave (km/s) = 5.45842 6.94508 6.24614
#
# Compressibility (1/GPa) = 0.03856636
#
# Stress axis : x y z
#
# Youngs Moduli (GPa) = 38.46565 41.54558 99.32339
#
# Poissons Ratio (x) = -0.24082 0.79343
# Poissons Ratio (y) = -0.22297 0.85346
# Poissons Ratio (z) = 0.30728 0.35699
#
# Static dielectric constant tensor:
#      x y z
#    x 1.701710 0.000000 0.025890 
#    y 0.000000 1.708680 0.000000 
#    z 0.025890 0.000000 1.701600 
# 
# From -- ./inp_files/39902.got.cif
#   From: 2010.05.17/outbox.cif.g08.bks.cpg/sg11_20_cif.got.tgz:39902.got - 2010.06.03 12:22:45.
