data_PCOD9167477
_publ_section_title
;
Structure prediction by ZEFSAII (Michael W. Deem and Ramdas Pophale) SiO2 
 PCOD9167477
Probable space group: P 21/M
;
_chemical_formula_sum "Si O2"
_cell_formula_units_Z 26
_cell_length_a 10.049356
_cell_length_b 14.490246
_cell_length_c 8.507375
_cell_angle_alpha 90.000000
_cell_angle_beta 59.078538
_cell_angle_gamma 90.000000
_cell_volume 1062.752912
_symmetry_space_group_name_H-M "P 21/M"
_symmetry_group_IT_number 11
_symmetry_cell_setting 'monoclinic'
loop_
_space_group_symop_operation_xyz
x,y,z
-x,1/2+y,-z
-x,-y,-z
x,1/2-y,z
loop_
_atom_site_type_symbol
_atom_site_label
_atom_site_fract_x
_atom_site_fract_y
_atom_site_fract_z
Si Si1 0.237004 0.649870 0.527118
Si Si2 0.420492 0.250000 0.474739
Si Si3 0.406858 0.115187 0.725077
Si Si4 0.741947 0.855578 0.852214
Si Si5 0.163481 0.856449 0.205661
Si Si6 0.980174 0.483452 0.197511
Si Si7 0.540387 0.087111 0.184242
O O1 0.180449 0.750000 0.621553
O O2 0.420966 0.654197 0.403887
O O3 0.184522 0.637825 0.379643
O O4 0.180197 0.565437 0.665511
O O5 0.325951 0.166496 0.629599
O O6 0.515166 0.170687 0.316730
O O7 0.426805 0.006652 0.741565
O O8 0.338903 0.150379 0.929625
O O9 0.764379 0.750000 0.776370
O O10 0.897072 0.912292 0.796046
O O11 0.621155 0.911803 0.816603
O O12 0.144432 0.750000 0.173300
O O13 0.018434 0.919289 0.250752
O O14 0.315793 0.894268 0.021364
O O15 0.000000 0.500000 0.000000
#
# Coordination Sequence:
#
# PCOD9167477 Si02
#       7
#     4   2   4   4   4   4   4
#     4  11  24  47  74 105 141 192 243 295 365 448
#     4  12  26  40  68 116 154 184 244 312 382 438
#     4  12  24  43  76 110 150 188 244 318 373 435
#     4  12  23  48  77 106 147 194 250 303 374 447
#     4  11  23  45  78 102 141 194 251 300 362 450
#     4  12  29  45  72 107 147 196 240 304 376 439
#     4  12  24  44  77 111 145 196 251 310 377 445
#
# _framework density 24.464765
#
# number of rings (size 3 to 8) (size 9 to 14) (size 15 to 20)
#    0.000    0.308    6.154    2.769    2.154    2.462 
#    0.000    0.000    5.077    0.000    0.000    0.000 
#    0.000    0.000    0.000    0.000    0.000    0.000 
#
# Total GULP energy -145085.802466 kJ/mol
# GULP energy per Si atom -5580.223172 kJ/mol
# Density = 2.440908 g / cm^3
# Si number density = 24.464765 Si / 1000 Ang^3
#
#
#
# Elastic Constant Matrix: (Units=GPa)
#
#
# Indices 1 2 3 4 5 6 
#
# 1 78.1022 37.8348 0.8314 0.0000 -12.0380 0.0000
# 2 37.8348 214.0882 39.5730 0.0000 3.2360 0.0000
# 3 0.8314 39.5730 77.7256 0.0000 3.2974 0.0000
# 4 0.0000 0.0000 0.0000 -66.0055 0.0000 -89.9765
# 5 -12.0380 3.2360 3.2974 0.0000 20.3608 0.0000
# 6 0.0000 0.0000 0.0000 -89.9765 0.0000 -18.1112
#
#
#
# Elastic Compliance Matrix: (Units=1/GPa)
#
#
# Indices 1 2 3 4 5 6 
#
# 1 0.015798 -0.003125 0.001012 0.000000 0.009673 0.000000
# 2 -0.003125 0.005778 -0.002810 0.000000 -0.002311 0.000000
# 3 0.001012 -0.002810 0.014340 0.000000 -0.001278 0.000000
# 4 0.000000 0.000000 0.000000 0.002625 0.000000 -0.013039
# 5 0.009673 -0.002311 -0.001278 0.000000 0.055407 0.000000
# 6 0.000000 0.000000 0.000000 -0.013039 0.000000 0.009566
#
#
# Mechanical properties :
#
#
# Convention : Reuss Voigt Hill
#
# Bulk Modulus (GPa) = 38.36073 58.48825 48.42449
# Shear Modulus (GPa) = 40.96719 6.69396 23.83058
#
# Velocity S-wave (km/s) = 4.09655 1.65593 3.12441
# Velocity P-wave (km/s) = 6.17168 5.25501 5.73170
#
# Compressibility (1/GPa) = 0.02606833
#
# Stress axis : x y z
#
# Youngs Moduli (GPa) = 63.30015 173.08156 69.73553
#
# Poissons Ratio (x) = 0.54090 -0.07056
# Poissons Ratio (y) = 0.19782 0.19597
# Poissons Ratio (z) = -0.06404 0.48638
#
# Static dielectric constant tensor:
#      x y z
#    x 2.076410 0.000000 0.069670 
#    y 0.000000 1.870010 0.000000 
#    z 0.069670 0.000000 1.943360 
# 
# From -- ./inp_files/17614.got.cif
#   From: 2010.05.17/outbox.cif.g08.bks.cpg/sg11_9_cif.got.tgz:17614.got - 2010.06.03 12:22:45.
