data_PCOD9167471
_publ_section_title
;
Structure prediction by ZEFSAII (Michael W. Deem and Ramdas Pophale) SiO2 
 PCOD9167471
Probable space group: P 21/M
;
_chemical_formula_sum "Si O2"
_cell_formula_units_Z 18
_cell_length_a 11.388836
_cell_length_b 9.940386
_cell_length_c 7.362597
_cell_angle_alpha 90.000000
_cell_angle_beta 108.372261
_cell_angle_gamma 90.000000
_cell_volume 791.030032
_symmetry_space_group_name_H-M "P 21/M"
_symmetry_group_IT_number 11
_symmetry_cell_setting 'monoclinic'
loop_
_space_group_symop_operation_xyz
x,y,z
-x,1/2+y,-z
-x,-y,-z
x,1/2-y,z
loop_
_atom_site_type_symbol
_atom_site_label
_atom_site_fract_x
_atom_site_fract_y
_atom_site_fract_z
Si Si1 0.570011 0.750000 0.431542
Si Si2 0.498411 0.475090 0.209320
Si Si3 0.145284 0.250000 0.351276
Si Si4 0.793546 0.546326 0.927258
Si Si5 0.904767 0.750000 0.256900
Si Si6 0.163116 0.750000 0.171636
Si Si7 0.638932 0.250000 0.411327
O O1 0.520433 0.614904 0.319380
O O2 0.714815 0.750000 0.508996
O O3 0.503026 0.750000 0.589974
O O4 0.353965 0.436919 0.177151
O O5 0.625401 0.388154 0.299850
O O6 0.500000 0.500000 0.000000
O O7 0.137131 0.377484 0.208456
O O8 0.077082 0.250000 0.514522
O O9 0.823999 0.387982 0.934922
O O10 0.832777 0.621861 0.132299
O O11 0.036714 0.750000 0.222203
O O12 0.269604 0.750000 0.377744
#
# Coordination Sequence:
#
# PCOD9167471 Si02
#       7
#     2   4   2   4   2   2   2
#     4  12  20  38  64  94 130 164 210 267 335 403
#     4  12  23  39  65 101 133 166 216 271 337 405
#     4  11  23  43  70  93 133 180 221 278 336 405
#     4  11  23  45  68  97 135 176 225 282 339 393
#     4  11  26  46  67  97 129 187 241 267 326 402
#     4  12  25  43  69  97 137 178 224 282 333 392
#     4  12  22  40  66  97 129 173 212 262 344 402
#
# _framework density 22.755144000000001
#
# number of rings (size 3 to 8) (size 9 to 14) (size 15 to 20)
#    0.000    0.444    4.444    5.333    0.000    0.889 
#    0.000    5.556    0.000    0.000    0.000    0.000 
#    0.000    0.000    0.000    0.000    0.000    0.000 
#
# Total GULP energy -100385.882871 kJ/mol
# GULP energy per Si atom -5576.993493 kJ/mol
# Density = 2.270335 g / cm^3
# Si number density = 22.755144 Si / 1000 Ang^3
#
#
#
# Elastic Constant Matrix: (Units=GPa)
#
#
# Indices 1 2 3 4 5 6 
#
# 1 56.0497 -1.1960 -1.1929 0.0000 10.9230 0.0000
# 2 -1.1960 137.0311 30.7007 0.0000 2.1576 0.0000
# 3 -1.1929 30.7007 42.7818 0.0000 -20.0520 0.0000
# 4 0.0000 0.0000 0.0000 -21.3960 0.0000 4.3792
# 5 10.9230 2.1576 -20.0520 0.0000 31.6930 0.0000
# 6 0.0000 0.0000 0.0000 4.3792 0.0000 -1.6583
#
#
#
# Elastic Compliance Matrix: (Units=1/GPa)
#
#
# Indices 1 2 3 4 5 6 
#
# 1 0.019774 0.001546 -0.005405 0.000000 -0.010340 0.000000
# 2 0.001546 0.009856 -0.010795 0.000000 -0.008034 0.000000
# 3 -0.005405 -0.010795 0.045757 0.000000 0.031548 0.000000
# 4 0.000000 0.000000 0.000000 -0.101715 0.000000 -0.268611
# 5 -0.010340 -0.008034 0.031548 0.000000 0.055624 0.000000
# 6 0.000000 0.000000 0.000000 -0.268611 0.000000 -1.312392
#
#
# Mechanical properties :
#
#
# Convention : Reuss Voigt Hill
#
# Bulk Modulus (GPa) = 21.70122 32.49846 27.09984
# Shear Modulus (GPa) = -4.03738 15.56448 5.76355
#
# Velocity S-wave (km/s) = -1.33346 2.61817 1.59322
# Velocity P-wave (km/s) = 2.68081 4.84279 3.91403
#
# Compressibility (1/GPa) = 0.04608035
#
# Stress axis : x y z
#
# Youngs Moduli (GPa) = 50.57065 101.45853 21.85440
#
# Poissons Ratio (x) = -0.15688 0.11811
# Poissons Ratio (y) = -0.07819 0.23593
# Poissons Ratio (z) = 0.27331 1.09529
#
# Static dielectric constant tensor:
#      x y z
#    x 1.876500 0.000000 -0.001870 
#    y 0.000000 1.005410 0.000000 
#    z -0.001870 0.000000 1.805700 
# 
# From -- ./inp_files/16143.got.cif
#   From: 2010.05.17/outbox.cif.g08.bks.cpg/sg11_9_cif.got.tgz:16143.got - 2010.06.03 12:22:45.
