data_PCOD9167767
_publ_section_title
;
Structure prediction by ZEFSAII (Michael W. Deem and Ramdas Pophale) SiO2 
 PCOD9167767
Probable space group: P 21/M
;
_chemical_formula_sum "Si O2"
_cell_formula_units_Z 32
_cell_length_a 21.000000
_cell_length_b 9.000000
_cell_length_c 12.000000
_cell_angle_alpha 90.000000
_cell_angle_beta 130.000000
_cell_angle_gamma 90.000000
_cell_volume 1737.388797
_symmetry_space_group_name_H-M "P 21/M"
_symmetry_group_IT_number 11
_symmetry_cell_setting 'monoclinic'
loop_
_space_group_symop_operation_xyz
x,y,z
-x,1/2+y,-z
-x,-y,-z
x,1/2-y,z
loop_
_atom_site_type_symbol
_atom_site_label
_atom_site_fract_x
_atom_site_fract_y
_atom_site_fract_z
Si Si1 0.553833 0.072125 0.882293
Si Si2 0.831616 0.426245 0.149213
Si Si3 0.379858 0.571601 0.684400
Si Si4 0.950744 0.572701 0.112376
Si Si5 0.331813 0.924410 0.191505
Si Si6 0.700997 0.573573 0.612161
Si Si7 0.715954 0.070274 0.211351
Si Si8 0.877730 0.427092 0.805664
O O1 0.539505 0.250000 0.874031
O O2 0.589200 0.040291 0.797887
O O3 0.471124 0.984944 0.821067
O O4 0.631995 0.034794 0.048659
O O5 0.851000 0.250000 0.178076
O O6 0.907664 0.510791 0.175659
O O7 0.795770 0.480646 0.228937
O O8 0.751541 0.440850 0.977210
O O9 0.379271 0.750000 0.678661
O O10 0.361639 0.499043 0.545507
O O11 0.307289 0.523776 0.689747
O O12 0.936363 0.750000 0.087839
O O13 0.049281 0.547165 0.203001
O O14 0.908989 0.490177 0.959776
O O15 0.336610 0.750000 0.227986
O O16 0.322379 0.022740 0.289791
O O17 0.701083 0.750000 0.603814
O O18 0.791653 0.507779 0.685226
O O19 0.722783 0.250000 0.219063
O O20 0.864848 0.250000 0.800494
#
# Coordination Sequence:
#
# PCOD9167767 Si02
#       8
#     4   4   4   4   4   4   4   4
#     4   9  18  35  57  80 105 130 169 220 265 308
#     4   9  16  30  54  79 106 137 170 211 260 307
#     4  11  22  36  54  75 103 140 180 214 260 315
#     4  10  19  30  50  82 111 135 168 209 253 304
#     4   9  18  33  53  76 104 139 170 206 262 316
#     4  12  24  36  52  74 105 139 178 220 257 306
#     4   8  17  34  56  80 103 135 175 217 260 307
#     4  10  20  34  51  74 108 143 171 205 254 308
#
# _framework density 18.418444999999998
#
# number of rings (size 3 to 8) (size 9 to 14) (size 15 to 20)
#    0.000    2.250    1.250    4.125    0.000    2.500 
#    0.000    3.750    0.000    0.750    0.000    0.000 
#    0.000    0.000    0.000    0.000    0.000    0.000 
#
# Total GULP energy -178482.532144 kJ/mol
# GULP energy per Si atom -5577.579130 kJ/mol
# Density = 1.837652 g / cm^3
# Si number density = 18.418445 Si / 1000 Ang^3
#
#
#
# Elastic Constant Matrix: (Units=GPa)
#
#
# Indices 1 2 3 4 5 6 
#
# 1 105.7563 39.9223 -4.2805 0.0000 -8.1816 0.0000
# 2 39.9223 67.9811 7.0194 0.0000 -9.4910 0.0000
# 3 -4.2805 7.0194 13.2090 0.0000 -6.8592 0.0000
# 4 0.0000 0.0000 0.0000 13.5436 0.0000 5.5395
# 5 -8.1816 -9.4910 -6.8592 0.0000 13.4200 0.0000
# 6 0.0000 0.0000 0.0000 5.5395 0.0000 31.9877
#
#
#
# Elastic Compliance Matrix: (Units=1/GPa)
#
#
# Indices 1 2 3 4 5 6 
#
# 1 0.013882 -0.008228 0.013945 0.000000 0.009772 0.000000
# 2 -0.008228 0.021328 -0.011942 0.000000 0.003964 0.000000
# 3 0.013945 -0.011942 0.117890 0.000000 0.060312 0.000000
# 4 0.000000 0.000000 0.000000 0.079464 0.000000 -0.013761
# 5 0.009772 0.003964 0.060312 0.000000 0.114103 0.000000
# 6 0.000000 0.000000 0.000000 -0.013761 0.000000 0.033645
#
#
# Mechanical properties :
#
#
# Convention : Reuss Voigt Hill
#
# Bulk Modulus (GPa) = 7.10979 30.25209 18.68094
# Shear Modulus (GPa) = 11.37280 21.40927 16.39104
#
# Velocity S-wave (km/s) = 2.48759 3.41307 2.98640
# Velocity P-wave (km/s) = 3.48128 5.65620 4.69638
#
# Compressibility (1/GPa) = 0.14065107
#
# Stress axis : x y z
#
# Youngs Moduli (GPa) = 72.03483 46.88574 8.48251
#
# Poissons Ratio (x) = 0.38578 -0.11829
# Poissons Ratio (y) = 0.59271 0.10130
# Poissons Ratio (z) = -1.00456 0.55991
#
# Static dielectric constant tensor:
#      x y z
#    x 1.660540 0.000000 -0.008570 
#    y 0.000000 1.627450 0.000000 
#    z -0.008570 0.000000 1.653570 
# 
# From -- ./inp_files/42865.got.cif
#   From: 2010.05.17/outbox.ucp.g08.bks.cvg/sg11_22_cif.got.tgz:42865.got - 2010.06.11 11:38:39.
