data_PCOD9167854
_publ_section_title
;
Structure prediction by ZEFSAII (Michael W. Deem and Ramdas Pophale) SiO2 
 PCOD9167854
Probable space group: P 21/M
;
_chemical_formula_sum "Si O2"
_cell_formula_units_Z 32
_cell_length_a 12.000000
_cell_length_b 9.000000
_cell_length_c 21.000000
_cell_angle_alpha 90.000000
_cell_angle_beta 130.000000
_cell_angle_gamma 90.000000
_cell_volume 1737.388797
_symmetry_space_group_name_H-M "P 21/M"
_symmetry_group_IT_number 11
_symmetry_cell_setting 'monoclinic'
loop_
_space_group_symop_operation_xyz
x,y,z
-x,1/2+y,-z
-x,-y,-z
x,1/2-y,z
loop_
_atom_site_type_symbol
_atom_site_label
_atom_site_fract_x
_atom_site_fract_y
_atom_site_fract_z
Si Si1 0.149382 0.415429 0.834442
Si Si2 0.407717 0.427820 0.286029
Si Si3 0.806687 0.423905 0.689586
Si Si4 0.284939 0.420945 0.598146
Si Si5 0.116242 0.081266 0.410900
Si Si6 0.377695 0.924690 0.998976
Si Si7 0.555631 0.920115 0.844929
Si Si8 0.781616 0.002034 0.282801
O O1 0.182896 0.250000 0.871001
O O2 0.204674 0.421570 0.781091
O O3 0.976302 0.438789 0.771811
O O4 0.229519 0.532715 0.908375
O O5 0.396879 0.250000 0.284482
O O6 0.298322 0.496577 0.297939
O O7 0.573303 0.478362 0.359599
O O8 0.387869 0.472871 0.203857
O O9 0.769646 0.250000 0.674810
O O10 0.810812 0.485823 0.618661
O O11 0.328297 0.250000 0.603476
O O12 0.167894 0.462362 0.500857
O O13 0.228304 0.429269 0.650308
O O14 0.163403 0.250000 0.417012
O O15 0.940355 0.078693 0.342784
O O16 0.400183 0.750000 0.007879
O O17 0.390268 0.985933 0.075228
O O18 0.500000 0.000000 0.000000
O O19 0.601634 0.750000 0.870482
O O20 0.377923 0.922375 0.779207
#
# Coordination Sequence:
#
# PCOD9167854 Si02
#       8
#     4   4   4   4   4   4   4   4
#     4  10  21  37  58  85 116 148 189 233 282 337
#     4  10  22  40  62  85 111 148 192 240 288 340
#     4  10  22  40  62  85 111 148 192 240 288 340
#     4  10  21  36  56  84 117 153 193 238 287 341
#     4  10  21  36  56  84 117 153 193 238 287 341
#     4  12  24  36  57  86 121 154 187 227 275 333
#     4  10  21  37  58  85 116 148 189 233 282 337
#     4  10  19  33  58  84 116 150 192 229 287 340
#
# _framework density 18.418444999999998
#
# number of rings (size 3 to 8) (size 9 to 14) (size 15 to 20)
#    0.000    1.750    1.250    3.000    0.000    7.000 
#    0.000    0.625    0.000    0.000    0.000    0.000 
#    0.000    0.000    0.000    0.000    0.000    0.000 
#
# Total GULP energy -178321.919139 kJ/mol
# GULP energy per Si atom -5572.559973 kJ/mol
# Density = 1.837652 g / cm^3
# Si number density = 18.418445 Si / 1000 Ang^3
#
#
#
# Elastic Constant Matrix: (Units=GPa)
#
#
# Indices 1 2 3 4 5 6 
#
# 1 123.6721 43.9610 32.7115 0.0000 -19.2116 0.0000
# 2 43.9610 94.2476 53.7708 0.0000 -14.9362 0.0000
# 3 32.7115 53.7708 109.4370 0.0000 -26.0748 0.0000
# 4 0.0000 0.0000 0.0000 22.3216 0.0000 -2.7115
# 5 -19.2116 -14.9362 -26.0748 0.0000 23.6168 0.0000
# 6 0.0000 0.0000 0.0000 -2.7115 0.0000 26.0458
#
#
#
# Elastic Compliance Matrix: (Units=1/GPa)
#
#
# Indices 1 2 3 4 5 6 
#
# 1 0.010415 -0.004084 0.000403 0.000000 0.006334 0.000000
# 2 -0.004084 0.016401 -0.006999 0.000000 -0.000677 0.000000
# 3 0.000403 -0.006999 0.015577 0.000000 0.013100 0.000000
# 4 0.000000 0.000000 0.000000 0.045373 0.000000 0.004724
# 5 0.006334 -0.000677 0.013100 0.000000 0.061530 0.000000
# 6 0.000000 0.000000 0.000000 0.004724 0.000000 0.038886
#
#
# Mechanical properties :
#
#
# Convention : Reuss Voigt Hill
#
# Bulk Modulus (GPa) = 47.54471 65.36035 56.45253
# Shear Modulus (GPa) = 23.08884 27.52440 25.30662
#
# Velocity S-wave (km/s) = 3.54442 3.86993 3.71075
# Velocity P-wave (km/s) = 6.52842 7.45197 7.00543
#
# Compressibility (1/GPa) = 0.02103284
#
# Stress axis : x y z
#
# Youngs Moduli (GPa) = 96.01509 60.97129 64.19528
#
# Poissons Ratio (x) = 0.24900 -0.02585
# Poissons Ratio (y) = 0.39212 0.44931
# Poissons Ratio (z) = -0.03866 0.42675
#
# Static dielectric constant tensor:
#      x y z
#    x 1.597480 0.000000 0.000890 
#    y 0.000000 1.672560 0.000000 
#    z 0.000890 0.000000 1.653920 
# 
# From -- ./inp_files/64471.got.cif
#   From: 2010.05.17/outbox.ucp.g08.bks.cvg/sg11_33_cif.got.tgz:64471.got - 2010.06.11 11:38:39.
