data_PCOD9167753
_publ_section_title
;
Structure prediction by ZEFSAII (Michael W. Deem and Ramdas Pophale) SiO2 
 PCOD9167753
Probable space group: P 21/M
;
_chemical_formula_sum "Si O2"
_cell_formula_units_Z 28
_cell_length_a 18.000000
_cell_length_b 9.000000
_cell_length_c 15.000000
_cell_angle_alpha 90.000000
_cell_angle_beta 140.000000
_cell_angle_gamma 90.000000
_cell_volume 1561.973892
_symmetry_space_group_name_H-M "P 21/M"
_symmetry_group_IT_number 11
_symmetry_cell_setting 'monoclinic'
loop_
_space_group_symop_operation_xyz
x,y,z
-x,1/2+y,-z
-x,-y,-z
x,1/2-y,z
loop_
_atom_site_type_symbol
_atom_site_label
_atom_site_fract_x
_atom_site_fract_y
_atom_site_fract_z
Si Si1 0.007639 0.076455 0.601101
Si Si2 0.236080 0.576164 0.251098
Si Si3 0.623886 0.074393 0.436157
Si Si4 0.819319 0.914806 0.529123
Si Si5 0.967042 0.582312 0.847336
Si Si6 0.640445 0.927642 0.801067
Si Si7 0.153161 0.071580 0.899702
O O1 0.025585 0.250000 0.606118
O O2 0.104054 0.018660 0.759733
O O3 0.887413 0.038627 0.537845
O O4 0.000000 0.000000 0.500000
O O5 0.224548 0.750000 0.224974
O O6 0.315685 0.556824 0.412064
O O7 0.111145 0.505592 0.154843
O O8 0.298513 0.499398 0.226988
O O9 0.632870 0.250000 0.421634
O O10 0.491743 0.028339 0.317400
O O11 0.692054 0.971390 0.430754
O O12 0.825926 0.750000 0.494834
O O13 0.884310 0.907863 0.683883
O O14 0.992796 0.750000 0.899706
O O15 0.077250 0.498191 0.909288
O O16 0.644363 0.750000 0.793717
O O17 0.714984 0.964363 0.957101
O O18 0.137007 0.250000 0.887649
#
# Coordination Sequence:
#
# PCOD9167753 Si02
#       7
#     4   4   4   4   4   4   4
#     4  10  19  33  55  80 102 122 149 189 237 289
#     4  10  19  30  46  69  95 126 167 209 243 275
#     4   9  18  32  49  69  96 130 166 202 238 276
#     4   9  17  30  50  75  99 124 157 196 237 280
#     4   9  17  30  48  68  93 126 162 201 242 284
#     4  10  20  33  48  67  95 131 166 200 239 281
#     4   9  19  34  50  70  97 127 157 192 239 291
#
# _framework density 17.926036
#
# number of rings (size 3 to 8) (size 9 to 14) (size 15 to 20)
#    0.000    2.571    0.000    2.143    0.000    6.286 
#    0.000    0.000    0.000    0.857    0.000    0.000 
#    0.000    0.000    0.000    0.000    0.000    0.000 
#
# Total GULP energy -156045.821953 kJ/mol
# GULP energy per Si atom -5573.065070 kJ/mol
# Density = 1.788524 g / cm^3
# Si number density = 17.926036 Si / 1000 Ang^3
#
#
#
# Elastic Constant Matrix: (Units=GPa)
#
#
# Indices 1 2 3 4 5 6 
#
# 1 23.2314 -21.5322 14.9030 0.0000 29.0042 0.0000
# 2 -21.5322 -91.3296 -53.0526 0.0000 60.2434 0.0000
# 3 14.9030 -53.0526 15.2317 0.0000 78.6799 0.0000
# 4 0.0000 0.0000 0.0000 12.0702 0.0000 -1.5882
# 5 29.0042 60.2434 78.6799 0.0000 -16.4570 0.0000
# 6 0.0000 0.0000 0.0000 -1.5882 0.0000 27.4902
#
#
#
# Elastic Compliance Matrix: (Units=1/GPa)
#
#
# Indices 1 2 3 4 5 6 
#
# 1 0.052905 -0.033690 -0.000533 0.000000 -0.032635 0.000000
# 2 -0.033690 -0.062879 0.050967 0.000000 -0.045884 0.000000
# 3 -0.000533 0.050967 -0.027833 0.000000 0.052565 0.000000
# 4 0.000000 0.000000 0.000000 0.083483 0.000000 0.004823
# 5 -0.032635 -0.045884 0.052565 0.000000 -0.034933 0.000000
# 6 0.000000 0.000000 0.000000 0.004823 0.000000 0.036655
#
#
# Mechanical properties :
#
#
# Convention : Reuss Voigt Hill
#
# Bulk Modulus (GPa) = -231.54086 -19.13669 -125.33877
# Shear Modulus (GPa) = 400.96701 5.07503 203.02102
#
# Velocity S-wave (km/s) = 14.97211 1.68441 10.65367
# Velocity P-wave (km/s) = 13.01693 2.62974 9.01457
#
# Compressibility (1/GPa) = -0.00431889
#
# Stress axis : x y z
#
# Youngs Moduli (GPa) = 18.90181 -15.90357 -35.92813
#
# Poissons Ratio (x) = -0.53580 -0.01914
# Poissons Ratio (y) = 0.63681 1.83116
# Poissons Ratio (z) = 0.01007 0.81056
#
# Static dielectric constant tensor:
#      x y z
#    x 1.721760 0.000000 0.108860 
#    y 0.000000 1.614590 0.000000 
#    z 0.108860 0.000000 1.753890 
# 
# From -- ./inp_files/37151.got.cif
#   From: 2010.05.17/outbox.ucp.g08.bks.cvg/sg11_19_cif.got.tgz:37151.got - 2010.06.11 11:38:39.
