data_PCOD9167224
_publ_section_title
;
Structure prediction by ZEFSAII (Michael W. Deem and Ramdas Pophale) SiO2 
 PCOD9167224
Probable space group: P 21/M
;
_chemical_formula_sum "Si O2"
_cell_formula_units_Z 24
_cell_length_a 15.573364
_cell_length_b 11.485187
_cell_length_c 15.573346
_cell_angle_alpha 90.000000
_cell_angle_beta 152.218825
_cell_angle_gamma 90.000000
_cell_volume 1298.308182
_symmetry_space_group_name_H-M "P 21/M"
_symmetry_group_IT_number 11
_symmetry_cell_setting 'monoclinic'
loop_
_space_group_symop_operation_xyz
x,y,z
-x,1/2+y,-z
-x,-y,-z
x,1/2-y,z
loop_
_atom_site_type_symbol
_atom_site_label
_atom_site_fract_x
_atom_site_fract_y
_atom_site_fract_z
Si Si1 0.374146 0.250000 0.554675
Si Si2 0.506313 0.000046 0.402603
Si Si3 0.054675 0.750000 0.874146
Si Si4 0.237832 0.750000 0.857740
Si Si5 0.864717 0.111491 0.635281
Si Si6 0.642258 0.750000 0.262166
Si Si7 0.951926 0.555955 0.548072
Si Si8 0.097397 0.000046 0.993687
O O1 0.452885 0.366438 0.584241
O O2 0.152884 0.250000 0.347116
O O3 0.419324 0.250000 0.693994
O O4 0.500000 0.000000 0.500000
O O5 0.666011 0.075172 0.498695
O O6 0.307899 0.036497 0.192101
O O7 0.193995 0.750000 0.919325
O O8 0.084241 0.866438 0.952885
O O9 0.126461 0.637733 0.725565
O O10 0.458503 0.750000 0.041494
O O11 0.874147 0.250000 0.625852
O O12 0.909844 0.033062 0.590153
O O13 0.001304 0.075172 0.833987
O O14 0.774433 0.637732 0.373536
O O15 0.000000 0.500000 0.500000
O O16 0.000000 0.000000 0.000000
#
# Coordination Sequence:
#
# PCOD9167224 Si02
#       8
#     2   4   2   2   4   2   4   4
#     4  12  20  41  69  96 128 171 221 278 326 384
#     4  12  24  41  64  96 132 176 221 270 326 393
#     4  12  20  41  69  96 128 171 221 278 326 384
#     4  11  21  42  73 103 127 165 230 283 328 395
#     4  12  27  45  62  97 139 177 221 274 338 397
#     4  11  21  42  73 103 127 165 230 283 328 395
#     4  11  25  46  72  99 133 178 222 279 341 397
#     4  12  24  41  64  96 132 176 221 270 326 393
#
# _framework density 18.485596000000001
#
# number of rings (size 3 to 8) (size 9 to 14) (size 15 to 20)
#    0.000    0.333    8.333    1.500    4.667    1.333 
#    0.000    0.000    0.000    0.000    0.000    0.000 
#    0.000    0.000    0.000    0.000    0.000    0.000 
#
# Total GULP energy -134037.684412 kJ/mol
# GULP energy per Si atom -5584.903517 kJ/mol
# Density = 1.844352 g / cm^3
# Si number density = 18.485596 Si / 1000 Ang^3
#
#
#
# Elastic Constant Matrix: (Units=GPa)
#
#
# Indices 1 2 3 4 5 6 
#
# 1 141.8210 74.9200 74.2662 0.0000 -11.7083 0.0000
# 2 74.9200 145.5445 58.6365 0.0000 -4.7001 0.0000
# 3 74.2662 58.6365 183.7170 0.0000 23.8049 0.0000
# 4 0.0000 0.0000 0.0000 21.3794 0.0000 -5.6500
# 5 -11.7083 -4.7001 23.8049 0.0000 23.7485 0.0000
# 6 0.0000 0.0000 0.0000 -5.6500 0.0000 40.9527
#
#
#
# Elastic Compliance Matrix: (Units=1/GPa)
#
#
# Indices 1 2 3 4 5 6 
#
# 1 0.012926 -0.004166 -0.005303 0.000000 0.010864 0.000000
# 2 -0.004166 0.009710 -0.001607 0.000000 0.001478 0.000000
# 3 -0.005303 -0.001607 0.009745 0.000000 -0.012701 0.000000
# 4 0.000000 0.000000 0.000000 0.048544 0.000000 0.006697
# 5 0.010864 0.001478 -0.012701 0.000000 0.060488 0.000000
# 6 0.000000 0.000000 0.000000 0.006697 0.000000 0.025342
#
#
# Mechanical properties :
#
#
# Convention : Reuss Voigt Hill
#
# Bulk Modulus (GPa) = 97.75489 98.52531 98.14010
# Shear Modulus (GPa) = 25.99859 34.76677 30.38268
#
# Velocity S-wave (km/s) = 3.75430 4.34147 4.05852
# Velocity P-wave (km/s) = 8.47287 8.86257 8.66991
#
# Compressibility (1/GPa) = 0.01022967
#
# Stress axis : x y z
#
# Youngs Moduli (GPa) = 77.36279 102.98225 102.61262
#
# Poissons Ratio (x) = 0.42907 0.54417
# Poissons Ratio (y) = 0.32233 0.16485
# Poissons Ratio (z) = 0.41027 0.16544
#
# Static dielectric constant tensor:
#      x y z
#    x 1.630200 0.000000 0.050840 
#    y 0.000000 1.617250 0.000000 
#    z 0.050840 0.000000 1.806330 
# 
# From -- ./inp_files/52382.got.cif
#   From: 2010.05.17/outbox.cif.g08.bks.cpg/sg11_27_cif.got.tgz:52382.got - 2010.06.03 12:22:45.
