data_PCOD9167636
_publ_section_title
;
Structure prediction by ZEFSAII (Michael W. Deem and Ramdas Pophale) SiO2 
 PCOD9167636
Probable space group: P 21/M
;
_chemical_formula_sum "Si O2"
_cell_formula_units_Z 32
_cell_length_a 16.796072
_cell_length_b 7.415221
_cell_length_c 15.266562
_cell_angle_alpha 90.000000
_cell_angle_beta 52.584042
_cell_angle_gamma 90.000000
_cell_volume 1510.176798
_symmetry_space_group_name_H-M "P 21/M"
_symmetry_group_IT_number 11
_symmetry_cell_setting 'monoclinic'
loop_
_space_group_symop_operation_xyz
x,y,z
-x,1/2+y,-z
-x,-y,-z
x,1/2-y,z
loop_
_atom_site_type_symbol
_atom_site_label
_atom_site_fract_x
_atom_site_fract_y
_atom_site_fract_z
Si Si1 0.352298 0.458954 0.028746
Si Si2 0.434411 0.963709 0.631462
Si Si3 0.563985 0.470693 0.835607
Si Si4 0.081580 0.529483 0.646798
Si Si5 0.144941 0.460112 0.218993
Si Si6 0.737730 0.470476 0.367652
Si Si7 0.616224 0.044203 0.616927
Si Si8 0.118670 0.537293 0.431610
O O1 0.343263 0.250000 0.008778
O O2 0.388407 0.466914 0.105700
O O3 0.240755 0.539604 0.104745
O O4 0.447805 0.532933 0.912732
O O5 0.431223 0.750000 0.648971
O O6 0.323583 0.028582 0.677370
O O7 0.500000 0.000000 0.500000
O O8 0.499335 0.045927 0.665959
O O9 0.564975 0.250000 0.835725
O O10 0.621099 0.533553 0.710588
O O11 0.078773 0.750000 0.644575
O O12 0.148877 0.478445 0.685015
O O13 0.136109 0.472184 0.519261
O O14 0.966580 0.464833 0.723363
O O15 0.139434 0.250000 0.198815
O O16 0.164510 0.466251 0.310849
O O17 0.733163 0.250000 0.369095
O O18 0.675240 0.534101 0.494998
O O19 0.652274 0.250000 0.599720
O O20 0.138156 0.750000 0.417196
O O21 0.000000 0.500000 0.500000
#
# Coordination Sequence:
#
# PCOD9167636 Si02
#       8
#     4   4   4   4   4   4   4   4
#     4   9  18  31  44  61  87 112 140 183 224 253
#     4   9  16  27  43  62  86 111 136 168 208 252
#     4   9  18  31  46  63  82 110 147 181 216 260
#     4   8  14  24  38  57  79 106 138 167 197 240
#     4   9  17  28  41  57  82 112 139 173 214 249
#     4   8  14  24  39  60  83 105 133 168 200 240
#     4   9  17  28  44  62  82 108 141 176 210 253
#     4   9  16  25  39  56  79 109 142 175 203 239
#
# _framework density 21.189571999999998
#
# number of rings (size 3 to 8) (size 9 to 14) (size 15 to 20)
#    0.000    3.250    0.000    2.250    1.750    1.000 
#    0.000    0.000    0.000   10.500    0.000    0.875 
#    0.000    0.000    0.000    0.000    0.000    0.000 
#
# Total GULP energy -178215.515551 kJ/mol
# GULP energy per Si atom -5569.234861 kJ/mol
# Density = 2.114134 g / cm^3
# Si number density = 21.189572 Si / 1000 Ang^3
#
#
#
# Elastic Constant Matrix: (Units=GPa)
#
#
# Indices 1 2 3 4 5 6 
#
# 1 91.2424 -5.5846 -6.0286 0.0000 -21.6695 0.0000
# 2 -5.5846 73.6753 -1.1937 0.0000 -3.2465 0.0000
# 3 -6.0286 -1.1937 40.7409 0.0000 -20.9158 0.0000
# 4 0.0000 0.0000 0.0000 3.5866 0.0000 1.8576
# 5 -21.6695 -3.2465 -20.9158 0.0000 32.4700 0.0000
# 6 0.0000 0.0000 0.0000 1.8576 0.0000 10.2575
#
#
#
# Elastic Compliance Matrix: (Units=1/GPa)
#
#
# Indices 1 2 3 4 5 6 
#
# 1 0.016470 0.002293 0.012349 0.000000 0.019176 0.000000
# 2 0.002293 0.014026 0.003371 0.000000 0.005104 0.000000
# 3 0.012349 0.003371 0.046131 0.000000 0.038294 0.000000
# 4 0.000000 0.000000 0.000000 0.307676 0.000000 -0.055718
# 5 0.019176 0.005104 0.038294 0.000000 0.068772 0.000000
# 6 0.000000 0.000000 0.000000 -0.055718 0.000000 0.107580
#
#
# Mechanical properties :
#
#
# Convention : Reuss Voigt Hill
#
# Bulk Modulus (GPa) = 8.87675 20.00500 14.44087
# Shear Modulus (GPa) = 8.89395 23.82719 16.36057
#
# Velocity S-wave (km/s) = 2.05096 3.35696 2.78169
# Velocity P-wave (km/s) = 3.13159 4.94844 4.14089
#
# Compressibility (1/GPa) = 0.11265382
#
# Stress axis : x y z
#
# Youngs Moduli (GPa) = 60.71577 71.29388 21.67747
#
# Poissons Ratio (x) = -0.16351 -0.26769
# Poissons Ratio (y) = -0.13925 -0.07307
# Poissons Ratio (z) = -0.74977 -0.24032
#
# Static dielectric constant tensor:
#      x y z
#    x 1.830170 0.000000 -0.051650 
#    y 0.000000 1.854690 0.000000 
#    z -0.051650 0.000000 1.761570 
# 
# From -- ./inp_files/60685.got.cif
#   From: 2010.05.17/outbox.cif.g08.bks.cpg/sg11_31_cif.got.tgz:60685.got - 2010.06.03 12:22:45.
