data_PCOD9167943
_publ_section_title
;
Structure prediction by ZEFSAII (Michael W. Deem and Ramdas Pophale) SiO2 
 PCOD9167943
Probable space group: P 21/M
;
_chemical_formula_sum "Si O2"
_cell_formula_units_Z 28
_cell_length_a 18.000000
_cell_length_b 9.000000
_cell_length_c 21.000000
_cell_angle_alpha 90.000000
_cell_angle_beta 30.000000
_cell_angle_gamma 90.000000
_cell_volume 1701.000000
_symmetry_space_group_name_H-M "P 21/M"
_symmetry_group_IT_number 11
_symmetry_cell_setting 'monoclinic'
loop_
_space_group_symop_operation_xyz
x,y,z
-x,1/2+y,-z
-x,-y,-z
x,1/2-y,z
loop_
_atom_site_type_symbol
_atom_site_label
_atom_site_fract_x
_atom_site_fract_y
_atom_site_fract_z
Si Si1 0.550670 0.570875 0.361260
Si Si2 0.724625 0.929152 0.361004
Si Si3 0.857017 0.569221 0.647427
Si Si4 0.649719 0.929687 0.142487
Si Si5 0.774407 0.071094 0.847208
Si Si6 0.931514 0.070946 0.865562
Si Si7 0.516669 0.570921 0.854464
O O1 0.535452 0.750000 0.372744
O O2 0.394965 0.500208 0.501224
O O3 0.669071 0.532479 0.330066
O O4 0.601468 0.528906 0.251275
O O5 0.715609 0.750000 0.373579
O O6 0.896578 0.971145 0.247750
O O7 0.875312 0.750000 0.635091
O O8 0.834392 0.507097 0.737512
O O9 0.690882 0.537462 0.740589
O O10 0.000000 0.500000 0.500000
O O11 0.651169 0.750000 0.137902
O O12 0.539235 0.994268 0.169633
O O13 0.811633 0.993115 0.001292
O O14 0.775302 0.250000 0.835715
O O15 0.879353 0.039038 0.831169
O O16 0.606178 0.031140 0.998524
O O17 0.918755 0.250000 0.883068
O O18 0.504351 0.750000 0.856389
#
# Coordination Sequence:
#
# PCOD9167943 Si02
#       7
#     4   4   4   4   4   4   4
#     4   9  19  34  50  74 106 135 170 216 258 298
#     4   9  18  34  54  73  99 139 178 209 250 305
#     4  11  23  37  54  78 106 136 170 208 252 302
#     4  10  20  33  52  79 107 133 166 212 260 301
#     4   9  18  35  56  77 102 131 168 214 256 298
#     4   9  19  35  54  77 104 135 172 210 250 303
#     4   9  20  38  57  76 101 135 173 209 249 304
#
# _framework density 16.460905
#
# number of rings (size 3 to 8) (size 9 to 14) (size 15 to 20)
#    0.000    2.571    0.000    2.143    0.000    6.857 
#    0.000    4.286    0.000    0.000    0.000    0.000 
#    0.000    0.000    0.000    0.000    0.000    0.000 
#
# Total GULP energy -155943.484953 kJ/mol
# GULP energy per Si atom -5569.410177 kJ/mol
# Density = 1.642344 g / cm^3
# Si number density = 16.460905 Si / 1000 Ang^3
#
#
#
# Elastic Constant Matrix: (Units=GPa)
#
#
# Indices 1 2 3 4 5 6 
#
# 1 136.8061 41.7437 105.2430 0.0000 4.3992 0.0000
# 2 41.7437 53.1246 51.9075 0.0000 5.1412 0.0000
# 3 105.2430 51.9075 185.2236 0.0000 4.7861 0.0000
# 4 0.0000 0.0000 0.0000 39.9650 0.0000 4.1143
# 5 4.3992 5.1412 4.7861 0.0000 45.6524 0.0000
# 6 0.0000 0.0000 0.0000 4.1143 0.0000 29.5128
#
#
#
# Elastic Compliance Matrix: (Units=1/GPa)
#
#
# Indices 1 2 3 4 5 6 
#
# 1 0.013677 -0.004329 -0.006555 0.000000 -0.000143 0.000000
# 2 -0.004329 0.027507 -0.005194 0.000000 -0.002136 0.000000
# 3 -0.006555 -0.005194 0.010576 0.000000 0.000108 0.000000
# 4 0.000000 0.000000 0.000000 0.025386 0.000000 -0.003539
# 5 -0.000143 -0.002136 0.000108 0.000000 0.022148 0.000000
# 6 0.000000 0.000000 0.000000 -0.003539 0.000000 0.034377
#
#
# Mechanical properties :
#
#
# Convention : Reuss Voigt Hill
#
# Bulk Modulus (GPa) = 51.00608 85.88252 68.44430
# Shear Modulus (GPa) = 29.00896 34.77672 31.89284
#
# Velocity S-wave (km/s) = 4.20252 4.60138 4.40647
# Velocity P-wave (km/s) = 7.38930 8.97314 8.21946
#
# Compressibility (1/GPa) = 0.01960551
#
# Stress axis : x y z
#
# Youngs Moduli (GPa) = 73.11278 36.35485 94.55526
#
# Poissons Ratio (x) = 0.15738 0.61977
# Poissons Ratio (y) = 0.31651 0.49108
# Poissons Ratio (z) = 0.47922 0.18881
#
# Static dielectric constant tensor:
#      x y z
#    x 1.571190 0.000000 -0.010750 
#    y 0.000000 1.559610 0.000000 
#    z -0.010750 0.000000 1.549450 
# 
# From -- ./inp_files/65987.got.cif
#   From: 2010.05.17/outbox.ucp.g08.bks.cvg/sg11_33_cif.got.tgz:65987.got - 2010.06.11 11:38:39.
