data_PCOD9167040
_publ_section_title
;
Structure prediction by ZEFSAII (Michael W. Deem and Ramdas Pophale) SiO2 
 PCOD9167040
Probable space group: P 21/M
;
_chemical_formula_sum "Si O2"
_cell_formula_units_Z 28
_cell_length_a 8.080186
_cell_length_b 13.742774
_cell_length_c 11.741601
_cell_angle_alpha 90.000000
_cell_angle_beta 108.384441
_cell_angle_gamma 90.000000
_cell_volume 1237.290739
_symmetry_space_group_name_H-M "P 21/M"
_symmetry_group_IT_number 11
_symmetry_cell_setting 'monoclinic'
loop_
_space_group_symop_operation_xyz
x,y,z
-x,1/2+y,-z
-x,-y,-z
x,1/2-y,z
loop_
_atom_site_type_symbol
_atom_site_label
_atom_site_fract_x
_atom_site_fract_y
_atom_site_fract_z
Si Si1 0.739576 0.505744 0.190351
Si Si2 0.121981 0.636127 0.971124
Si Si3 0.557372 0.360065 0.822563
Si Si4 0.973210 0.364617 0.641513
Si Si5 0.205776 0.138803 0.224364
Si Si6 0.927718 0.360633 0.373437
Si Si7 0.387059 0.964945 0.371548
O O1 0.785387 0.437431 0.094759
O O2 0.557662 0.560288 0.138732
O O3 0.774195 0.434463 0.306126
O O4 0.881694 0.589418 0.245760
O O5 0.139703 0.750000 0.938133
O O6 0.916107 0.616918 0.912449
O O7 0.234817 0.628650 0.109955
O O8 0.510683 0.250000 0.844229
O O9 0.520824 0.382074 0.683139
O O10 0.956145 0.250000 0.658057
O O11 0.010796 0.379898 0.514888
O O12 0.793547 0.419831 0.625161
O O13 0.270715 0.250000 0.231061
O O14 0.072395 0.133701 0.304236
O O15 0.344956 0.056221 0.279861
O O16 0.861145 0.250000 0.361492
O O17 0.500000 0.000000 0.500000
#
# Coordination Sequence:
#
# PCOD9167040 Si02
#       7
#     4   4   4   4   4   4   4
#     4  11  19  37  62  89 114 154 203 248 294 354
#     4   9  19  40  67  90 116 154 201 251 299 353
#     4  11  25  40  59  90 126 160 195 243 307 358
#     4  11  22  36  56  85 122 160 201 244 292 355
#     4   9  19  38  62  87 113 153 203 248 296 355
#     4   9  18  33  59  87 113 153 201 248 291 346
#     4  12  25  40  58  86 122 162 196 247 303 359
#
# _framework density 22.630089999999999
#
# number of rings (size 3 to 8) (size 9 to 14) (size 15 to 20)
#    0.000    1.714    2.857    3.857    2.000    1.714 
#    0.000    1.429    0.000    0.857    0.000    0.000 
#    0.000    0.000    0.000    0.000    0.000    0.000 
#
# Total GULP energy -156403.580866 kJ/mol
# GULP energy per Si atom -5585.842174 kJ/mol
# Density = 2.257858 g / cm^3
# Si number density = 22.630090 Si / 1000 Ang^3
#
#
#
# Elastic Constant Matrix: (Units=GPa)
#
#
# Indices 1 2 3 4 5 6 
#
# 1 27.8254 17.5208 4.8321 0.0000 16.1450 0.0000
# 2 17.5208 132.2445 32.5933 0.0000 25.1295 0.0000
# 3 4.8321 32.5933 86.0971 0.0000 21.5203 0.0000
# 4 0.0000 0.0000 0.0000 31.4217 0.0000 5.9253
# 5 16.1450 25.1295 21.5203 0.0000 28.5450 0.0000
# 6 0.0000 0.0000 0.0000 5.9253 0.0000 19.6141
#
#
#
# Elastic Compliance Matrix: (Units=1/GPa)
#
#
# Indices 1 2 3 4 5 6 
#
# 1 0.056454 -0.002491 0.006417 0.000000 -0.034575 0.000000
# 2 -0.002491 0.009416 -0.002101 0.000000 -0.005297 0.000000
# 3 0.006417 -0.002101 0.015396 0.000000 -0.013387 0.000000
# 4 0.000000 0.000000 0.000000 0.033748 0.000000 -0.010195
# 5 -0.034575 -0.005297 -0.013387 0.000000 0.069343 0.000000
# 6 0.000000 0.000000 0.000000 -0.010195 0.000000 0.054064
#
#
# Mechanical properties :
#
#
# Convention : Reuss Voigt Hill
#
# Bulk Modulus (GPa) = 11.77636 39.56215 25.66925
# Shear Modulus (GPa) = 19.00592 28.66422 23.83507
#
# Velocity S-wave (km/s) = 2.90116 3.56285 3.24890
# Velocity P-wave (km/s) = 4.05432 5.86901 5.04394
#
# Compressibility (1/GPa) = 0.08491590
#
# Stress axis : x y z
#
# Youngs Moduli (GPa) = 17.71359 106.20184 64.95148
#
# Poissons Ratio (x) = 0.26454 -0.41677
# Poissons Ratio (y) = 0.04412 0.13645
# Poissons Ratio (z) = -0.11366 0.22311
#
# Static dielectric constant tensor:
#      x y z
#    x 1.873790 0.000000 -0.015280 
#    y 0.000000 1.835480 0.000000 
#    z -0.015280 0.000000 1.864220 
# 
# From -- ./inp_files/31972.got.cif
#   From: 2010.05.17/outbox.cif.g08.bks.cpg/sg11_16_cif.got.tgz:31972.got - 2010.06.03 12:22:45.
