data_PCOD9167183
_publ_section_title
;
Structure prediction by ZEFSAII (Michael W. Deem and Ramdas Pophale) SiO2 
 PCOD9167183
Probable space group: P 21/M
;
_chemical_formula_sum "Si O2"
_cell_formula_units_Z 28
_cell_length_a 8.068419
_cell_length_b 18.094008
_cell_length_c 8.959943
_cell_angle_alpha 90.000000
_cell_angle_beta 73.058602
_cell_angle_gamma 90.000000
_cell_volume 1251.296817
_symmetry_space_group_name_H-M "P 21/M"
_symmetry_group_IT_number 11
_symmetry_cell_setting 'monoclinic'
loop_
_space_group_symop_operation_xyz
x,y,z
-x,1/2+y,-z
-x,-y,-z
x,1/2-y,z
loop_
_atom_site_type_symbol
_atom_site_label
_atom_site_fract_x
_atom_site_fract_y
_atom_site_fract_z
Si Si1 0.998630 0.017006 0.645410
Si Si2 0.670378 0.505646 0.968737
Si Si3 0.828458 0.671474 0.342802
Si Si4 0.651763 0.480988 0.676328
Si Si5 0.829400 0.398293 0.176515
Si Si6 0.811517 0.832063 0.993988
Si Si7 0.522012 0.382504 0.455824
O O1 0.142465 0.994348 0.464537
O O2 0.089588 0.961724 0.739451
O O3 0.054358 0.102253 0.648269
O O4 0.797657 0.016600 0.782617
O O5 0.481623 0.515686 0.125766
O O6 0.757088 0.444766 0.055938
O O7 0.720340 0.593892 0.956819
O O8 0.914892 0.750000 0.352085
O O9 0.788706 0.666636 0.177746
O O10 0.645711 0.667041 0.475407
O O11 0.591472 0.408225 0.600370
O O12 0.554647 0.547759 0.615574
O O13 0.680472 0.357649 0.310454
O O14 0.985034 0.344711 0.090774
O O15 0.757422 0.750000 0.952956
#
# Coordination Sequence:
#
# PCOD9167183 Si02
#       7
#     4   4   4   4   4   4   4
#     4  12  20  38  68  98 125 169 227 277 321 390
#     4  12  22  39  69 102 127 176 227 272 330 400
#     4  11  24  43  64  93 138 182 214 269 347 403
#     4  11  21  36  66  98 131 162 220 279 325 383
#     4  12  23  41  70 100 129 171 232 274 324 396
#     4  11  25  44  65  98 141 179 217 278 346 400
#     4  11  22  40  64 102 130 167 218 278 327 387
#
# _framework density 22.376784000000001
#
# number of rings (size 3 to 8) (size 9 to 14) (size 15 to 20)
#    0.000    0.571    7.143    3.000    0.000    0.571 
#    0.000    4.286    0.000    5.143    0.000    0.000 
#    0.000    0.000    0.000    0.000    0.000    0.000 
#
# Total GULP energy -156154.114276 kJ/mol
# GULP energy per Si atom -5576.932653 kJ/mol
# Density = 2.232585 g / cm^3
# Si number density = 22.376784 Si / 1000 Ang^3
#
#
#
# Elastic Constant Matrix: (Units=GPa)
#
#
# Indices 1 2 3 4 5 6 
#
# 1 86.2276 25.0730 54.6915 0.0000 -24.5253 0.0000
# 2 25.0730 142.0963 40.7988 0.0000 -8.0349 0.0000
# 3 54.6915 40.7988 197.7192 0.0000 -9.9608 0.0000
# 4 0.0000 0.0000 0.0000 -2.0778 0.0000 3.5860
# 5 -24.5253 -8.0349 -9.9608 0.0000 63.5090 0.0000
# 6 0.0000 0.0000 0.0000 3.5860 0.0000 13.1030
#
#
#
# Elastic Compliance Matrix: (Units=1/GPa)
#
#
# Indices 1 2 3 4 5 6 
#
# 1 0.015988 -0.001408 -0.003861 0.000000 0.005391 0.000000
# 2 -0.001408 0.007637 -0.001174 0.000000 0.000238 0.000000
# 3 -0.003861 -0.001174 0.006335 0.000000 -0.000646 0.000000
# 4 0.000000 0.000000 0.000000 -0.326882 0.000000 0.089459
# 5 0.005391 0.000238 -0.000646 0.000000 0.017756 0.000000
# 6 0.000000 0.000000 0.000000 0.089459 0.000000 0.051836
#
#
# Mechanical properties :
#
#
# Convention : Reuss Voigt Hill
#
# Bulk Modulus (GPa) = 58.56579 74.12998 66.34788
# Shear Modulus (GPa) = -23.95182 35.27214 5.66016
#
# Velocity S-wave (km/s) = -3.27523 3.97455 1.59216
# Velocity P-wave (km/s) = 3.45349 7.36632 5.75279
#
# Compressibility (1/GPa) = 0.01707482
#
# Stress axis : x y z
#
# Youngs Moduli (GPa) = 62.54520 130.94906 157.84499
#
# Poissons Ratio (x) = 0.18437 0.60936
# Poissons Ratio (y) = 0.08806 0.18536
# Poissons Ratio (z) = 0.24146 0.15378
#
# Static dielectric constant tensor:
#      x y z
#    x 1.833070 0.000000 -0.090860 
#    y 0.000000 1.570620 0.000000 
#    z -0.090860 0.000000 2.009400 
# 
# From -- ./inp_files/35853.got.cif
#   From: 2010.05.17/outbox.cif.g08.bks.cpg/sg11_18_cif.got.tgz:35853.got - 2010.06.03 12:22:45.
