data_PCOD9167412
_publ_section_title
;
Structure prediction by ZEFSAII (Michael W. Deem and Ramdas Pophale) SiO2 
 PCOD9167412
Probable space group: P 21/M
;
_chemical_formula_sum "Si O2"
_cell_formula_units_Z 24
_cell_length_a 12.558319
_cell_length_b 8.731301
_cell_length_c 12.757337
_cell_angle_alpha 90.000000
_cell_angle_beta 70.660401
_cell_angle_gamma 90.000000
_cell_volume 1319.914137
_symmetry_space_group_name_H-M "P 21/M"
_symmetry_group_IT_number 11
_symmetry_cell_setting 'monoclinic'
loop_
_space_group_symop_operation_xyz
x,y,z
-x,1/2+y,-z
-x,-y,-z
x,1/2-y,z
loop_
_atom_site_type_symbol
_atom_site_label
_atom_site_fract_x
_atom_site_fract_y
_atom_site_fract_z
Si Si1 0.239863 0.566582 0.387019
Si Si2 0.509249 0.433275 0.614010
Si Si3 0.280082 0.567455 0.752925
Si Si4 0.877778 0.567098 0.772468
Si Si5 0.880196 0.932957 0.373450
Si Si6 0.118747 0.932778 0.001197
O O1 0.225573 0.750000 0.391353
O O2 0.368052 0.531096 0.378876
O O3 0.208176 0.498824 0.285039
O O4 0.157787 0.494637 0.501164
O O5 0.500000 0.500000 0.500000
O O6 0.497164 0.250000 0.613662
O O7 0.406853 0.505416 0.712572
O O8 0.279829 0.750000 0.733553
O O9 0.213514 0.486387 0.679837
O O10 0.212125 0.537390 0.881856
O O11 0.878826 0.750000 0.770168
O O12 0.852527 0.507545 0.897159
O O13 0.001392 0.504927 0.700291
O O14 0.888792 0.750000 0.372042
O O15 0.107330 0.750000 0.017398
O O16 0.000000 0.000000 0.000000
#
# Coordination Sequence:
#
# PCOD9167412 Si02
#       6
#     4   4   4   4   4   4
#     4  11  24  42  62  89 126 164 206 253 307 369
#     4  11  23  39  64  91 123 162 205 254 305 363
#     4  11  23  39  62  93 126 158 204 255 304 361
#     4  12  25  41  62  90 126 164 206 255 310 368
#     4  12  23  37  62  92 126 163 202 251 310 370
#     4  11  23  40  64  91 123 163 205 253 304 365
#
# _framework density 18.183001000000001
#
# number of rings (size 3 to 8) (size 9 to 14) (size 15 to 20)
#    0.000    0.667    3.333    5.500    0.000    4.000 
#    0.000    0.833    0.000    0.000    0.000    0.000 
#    0.000    0.000    0.000    0.000    0.000    0.000 
#
# Total GULP energy -134315.005569 kJ/mol
# GULP energy per Si atom -5596.458565 kJ/mol
# Density = 1.814162 g / cm^3
# Si number density = 18.183001 Si / 1000 Ang^3
#
#
#
# Elastic Constant Matrix: (Units=GPa)
#
#
# Indices 1 2 3 4 5 6 
#
# 1 54.0040 33.1549 37.3547 0.0000 3.9356 0.0000
# 2 33.1549 98.9342 56.2702 0.0000 1.9243 0.0000
# 3 37.3547 56.2702 113.8763 0.0000 12.8363 0.0000
# 4 0.0000 0.0000 0.0000 34.2580 0.0000 -0.6255
# 5 3.9356 1.9243 12.8363 0.0000 38.8191 0.0000
# 6 0.0000 0.0000 0.0000 -0.6255 0.0000 33.8524
#
#
#
# Elastic Compliance Matrix: (Units=1/GPa)
#
#
# Indices 1 2 3 4 5 6 
#
# 1 0.025838 -0.005366 -0.005774 0.000000 -0.000444 0.000000
# 2 -0.005366 0.015277 -0.005988 0.000000 0.001767 0.000000
# 3 -0.005774 -0.005988 0.014059 0.000000 -0.003767 0.000000
# 4 0.000000 0.000000 0.000000 0.029200 0.000000 0.000539
# 5 -0.000444 0.001767 -0.003767 0.000000 0.026963 0.000000
# 6 0.000000 0.000000 0.000000 0.000539 0.000000 0.029550
#
#
# Mechanical properties :
#
#
# Convention : Reuss Voigt Hill
#
# Bulk Modulus (GPa) = 47.80552 57.81935 52.81244
# Shear Modulus (GPa) = 27.45497 30.72157 29.08827
#
# Velocity S-wave (km/s) = 3.88999 4.11490 4.00403
# Velocity P-wave (km/s) = 6.82088 7.37863 7.10523
#
# Compressibility (1/GPa) = 0.02091808
#
# Stress axis : x y z
#
# Youngs Moduli (GPa) = 38.70300 65.45601 71.12919
#
# Poissons Ratio (x) = 0.35125 0.41069
# Poissons Ratio (y) = 0.20769 0.42592
# Poissons Ratio (z) = 0.22347 0.39195
#
# Static dielectric constant tensor:
#      x y z
#    x 1.607810 0.000000 -0.002220 
#    y 0.000000 1.606530 0.000000 
#    z -0.002220 0.000000 1.602580 
# 
# From -- ./inp_files/33681.got.cif
#   From: 2010.05.17/outbox.cif.g08.bks.cpg/sg11_17_cif.got.tgz:33681.got - 2010.06.03 12:22:45.
