data_PCOD9167790
_publ_section_title
;
Structure prediction by ZEFSAII (Michael W. Deem and Ramdas Pophale) SiO2 
 PCOD9167790
Probable space group: P 21/M
;
_chemical_formula_sum "Si O2"
_cell_formula_units_Z 24
_cell_length_a 9.000000
_cell_length_b 12.000000
_cell_length_c 12.000000
_cell_angle_alpha 90.000000
_cell_angle_beta 90.000000
_cell_angle_gamma 90.000000
_cell_volume 1296.000000
_symmetry_space_group_name_H-M "P 21/M"
_symmetry_group_IT_number 11
_symmetry_cell_setting 'monoclinic'
loop_
_space_group_symop_operation_xyz
x,y,z
-x,1/2+y,-z
-x,-y,-z
x,1/2-y,z
loop_
_atom_site_type_symbol
_atom_site_label
_atom_site_fract_x
_atom_site_fract_y
_atom_site_fract_z
Si Si1 0.660459 0.625079 0.827279
Si Si2 0.660627 0.378500 0.249011
Si Si3 0.758974 0.018196 0.015175
Si Si4 0.826426 0.119799 0.464728
Si Si5 0.998750 0.122974 0.867328
Si Si6 0.904067 0.527633 0.667184
O O1 0.672619 0.750000 0.871930
O O2 0.515834 0.618542 0.751537
O O3 0.647091 0.540430 0.930106
O O4 0.798850 0.596633 0.749003
O O5 0.713270 0.250000 0.244507
O O6 0.721147 0.424246 0.365428
O O7 0.707251 0.432675 0.132121
O O8 0.847866 0.105776 0.938301
O O9 0.875284 0.922560 0.050609
O O10 0.798082 0.250000 0.486205
O O11 0.988316 0.102440 0.408420
O O12 0.819542 0.050774 0.578689
O O13 0.021635 0.250000 0.838041
O O14 0.992651 0.049883 0.755114
#
# Coordination Sequence:
#
# PCOD9167790 Si02
#       6
#     4   4   4   4   4   4
#     4  10  21  35  54  77 106 141 174 213 257 308
#     4  10  20  35  54  78 107 140 174 209 258 311
#     4  10  19  33  51  78 105 141 172 210 260 305
#     4  10  20  35  56  77 103 136 174 218 260 308
#     4  10  19  31  51  78 106 132 172 219 259 304
#     4  10  20  35  54  79 102 135 175 217 262 303
#
# _framework density 18.518519000000001
#
# number of rings (size 3 to 8) (size 9 to 14) (size 15 to 20)
#    0.000    2.000    1.667    2.500    0.000    0.667 
#    0.000    0.000    0.000    3.000    0.000    0.000 
#    0.000    0.000    0.000    0.000    0.000    0.000 
#
# Total GULP energy -133671.200351 kJ/mol
# GULP energy per Si atom -5569.633348 kJ/mol
# Density = 1.847637 g / cm^3
# Si number density = 18.518519 Si / 1000 Ang^3
#
#
#
# Elastic Constant Matrix: (Units=GPa)
#
#
# Indices 1 2 3 4 5 6 
#
# 1 24.9372 11.6558 1.8240 0.0000 12.6293 0.0000
# 2 11.6558 23.1850 -11.8037 0.0000 8.9745 0.0000
# 3 1.8240 -11.8037 66.3847 0.0000 27.5123 0.0000
# 4 0.0000 0.0000 0.0000 18.6934 0.0000 6.8055
# 5 12.6293 8.9745 27.5123 0.0000 23.5001 0.0000
# 6 0.0000 0.0000 0.0000 6.8055 0.0000 6.4381
#
#
#
# Elastic Compliance Matrix: (Units=1/GPa)
#
#
# Indices 1 2 3 4 5 6 
#
# 1 0.078596 0.024653 0.045903 0.000000 -0.105394 0.000000
# 2 0.024653 0.200308 0.140116 0.000000 -0.253784 0.000000
# 3 0.045903 0.140116 0.138142 0.000000 -0.239906 0.000000
# 4 0.000000 0.000000 0.000000 0.086960 0.000000 -0.091921
# 5 -0.105394 -0.253784 -0.239906 0.000000 0.476977 0.000000
# 6 0.000000 0.000000 0.000000 -0.091921 0.000000 0.252491
#
#
# Mechanical properties :
#
#
# Convention : Reuss Voigt Hill
#
# Bulk Modulus (GPa) = 1.19276 13.09545 7.14410
# Shear Modulus (GPa) = 4.58047 17.24839 10.91443
#
# Velocity S-wave (km/s) = 1.57443 3.05522 2.43035
# Velocity P-wave (km/s) = 1.98761 4.41958 3.42661
#
# Compressibility (1/GPa) = 0.83839305
#
# Stress axis : x y z
#
# Youngs Moduli (GPa) = 12.72323 4.99231 7.23891
#
# Poissons Ratio (x) = -0.12308 -0.33229
# Poissons Ratio (y) = -0.31367 -1.01429
# Poissons Ratio (z) = -0.58404 -0.69951
#
# Static dielectric constant tensor:
#      x y z
#    x 1.683100 0.000000 0.013990 
#    y 0.000000 1.639040 0.000000 
#    z 0.013990 0.000000 1.591180 
# 
# From -- ./inp_files/16897.got.cif
#   From: 2010.05.17/outbox.ucp.g08.bks.cvg/sg11_9_cif.got.tgz:16897.got - 2010.06.11 11:38:39.
