data_PCOD9167846
_publ_section_title
;
Structure prediction by ZEFSAII (Michael W. Deem and Ramdas Pophale) SiO2 
 PCOD9167846
Probable space group: P 21/M
;
_chemical_formula_sum "Si O2"
_cell_formula_units_Z 28
_cell_length_a 15.000000
_cell_length_b 9.000000
_cell_length_c 12.000000
_cell_angle_alpha 90.000000
_cell_angle_beta 110.000000
_cell_angle_gamma 90.000000
_cell_volume 1522.302046
_symmetry_space_group_name_H-M "P 21/M"
_symmetry_group_IT_number 11
_symmetry_cell_setting 'monoclinic'
loop_
_space_group_symop_operation_xyz
x,y,z
-x,1/2+y,-z
-x,-y,-z
x,1/2-y,z
loop_
_atom_site_type_symbol
_atom_site_label
_atom_site_fract_x
_atom_site_fract_y
_atom_site_fract_z
Si Si1 0.319769 0.573294 0.699846
Si Si2 0.000702 0.574900 0.382033
Si Si3 0.505832 0.570234 0.628623
Si Si4 0.192138 0.428694 0.834115
Si Si5 0.792406 0.074029 0.572480
Si Si6 0.109540 0.568604 0.028375
Si Si7 0.278189 0.426402 0.248604
O O1 0.327344 0.750000 0.727785
O O2 0.418720 0.529069 0.677024
O O3 0.279474 0.491395 0.794488
O O4 0.240178 0.554128 0.569020
O O5 0.009967 0.750000 0.402473
O O6 0.097901 0.530668 0.362944
O O7 0.000000 0.500000 0.500000
O O8 0.903374 0.547403 0.278140
O O9 0.500000 0.500000 0.500000
O O10 0.499833 0.750000 0.612200
O O11 0.610209 0.536436 0.727273
O O12 0.204990 0.250000 0.858266
O O13 0.160787 0.510421 0.935768
O O14 0.778788 0.250000 0.593029
O O15 0.731470 0.971131 0.626255
O O16 0.101440 0.750000 0.026996
O O17 0.190240 0.513155 0.151855
O O18 0.000000 0.500000 0.000000
O O19 0.265571 0.250000 0.224376
#
# Coordination Sequence:
#
# PCOD9167846 Si02
#       7
#     4   4   4   4   4   4   4
#     4  10  20  36  58  87 124 165 206 253 311 369
#     4  10  20  32  50  79 115 152 190 236 293 360
#     4  10  21  37  60  91 128 167 211 263 315 371
#     4  11  23  39  60  89 125 164 208 258 311 371
#     4  10  19  33  55  84 121 162 202 249 306 370
#     4  12  26  46  70  93 122 163 209 257 310 374
#     4  11  23  39  62  92 124 162 210 262 314 370
#
# _framework density 18.393196
#
# number of rings (size 3 to 8) (size 9 to 14) (size 15 to 20)
#    0.000    1.429    2.857    3.000    0.000    4.000 
#    0.000    0.714    0.000    0.000    0.000    0.000 
#    0.000    0.000    0.000    0.000    0.000    0.000 
#
# Total GULP energy -156000.306779 kJ/mol
# GULP energy per Si atom -5571.439528 kJ/mol
# Density = 1.835133 g / cm^3
# Si number density = 18.393196 Si / 1000 Ang^3
#
#
#
# Elastic Constant Matrix: (Units=GPa)
#
#
# Indices 1 2 3 4 5 6 
#
# 1 162.9529 41.5644 38.5785 0.0000 -7.1134 0.0000
# 2 41.5644 57.5690 46.7936 0.0000 -3.6316 0.0000
# 3 38.5785 46.7936 64.3405 0.0000 -9.9623 0.0000
# 4 0.0000 0.0000 0.0000 31.8246 0.0000 -5.4421
# 5 -7.1134 -3.6316 -9.9623 0.0000 37.9531 0.0000
# 6 0.0000 0.0000 0.0000 -5.4421 0.0000 34.6848
#
#
#
# Elastic Compliance Matrix: (Units=1/GPa)
#
#
# Indices 1 2 3 4 5 6 
#
# 1 0.007588 -0.004459 -0.001202 0.000000 0.000680 0.000000
# 2 -0.004459 0.045764 -0.031335 0.000000 -0.004682 0.000000
# 3 -0.001202 -0.031335 0.040186 0.000000 0.007325 0.000000
# 4 0.000000 0.000000 0.000000 0.032289 0.000000 0.005066
# 5 0.000680 -0.004682 0.007325 0.000000 0.027951 0.000000
# 6 0.000000 0.000000 0.000000 0.005066 0.000000 0.029626
#
#
# Mechanical properties :
#
#
# Convention : Reuss Voigt Hill
#
# Bulk Modulus (GPa) = 51.15658 59.85948 55.50803
# Shear Modulus (GPa) = 18.94588 31.42090 25.18339
#
# Velocity S-wave (km/s) = 3.21292 4.13763 3.70424
# Velocity P-wave (km/s) = 6.45267 7.44591 6.96702
#
# Compressibility (1/GPa) = 0.01954783
#
# Stress axis : x y z
#
# Youngs Moduli (GPa) = 131.78207 21.85124 24.88433
#
# Poissons Ratio (x) = 0.09744 0.02990
# Poissons Ratio (y) = 0.58762 0.77974
# Poissons Ratio (z) = 0.15835 0.68470
#
# Static dielectric constant tensor:
#      x y z
#    x 1.690080 0.000000 0.012340 
#    y 0.000000 1.631900 0.000000 
#    z 0.012340 0.000000 1.660460 
# 
# From -- ./inp_files/37677.got.cif
#   From: 2010.05.17/outbox.ucp.g08.bks.cvg/sg11_19_cif.got.tgz:37677.got - 2010.06.11 11:38:39.
