data_PCOD9167942
_publ_section_title
;
Structure prediction by ZEFSAII (Michael W. Deem and Ramdas Pophale) SiO2 
 PCOD9167942
Probable space group: P 21/M
;
_chemical_formula_sum "Si O2"
_cell_formula_units_Z 32
_cell_length_a 24.000000
_cell_length_b 9.000000
_cell_length_c 15.000000
_cell_angle_alpha 90.000000
_cell_angle_beta 30.000000
_cell_angle_gamma 90.000000
_cell_volume 1620.000000
_symmetry_space_group_name_H-M "P 21/M"
_symmetry_group_IT_number 11
_symmetry_cell_setting 'monoclinic'
loop_
_space_group_symop_operation_xyz
x,y,z
-x,1/2+y,-z
-x,-y,-z
x,1/2-y,z
loop_
_atom_site_type_symbol
_atom_site_label
_atom_site_fract_x
_atom_site_fract_y
_atom_site_fract_z
Si Si1 0.619379 0.576292 0.355964
Si Si2 0.672286 0.079403 0.838209
Si Si3 0.275118 0.922251 0.439394
Si Si4 0.498434 0.071874 0.801242
Si Si5 0.936651 0.573883 0.208884
Si Si6 0.161192 0.071701 0.853267
Si Si7 0.701386 0.923985 0.045159
Si Si8 0.878114 0.427159 0.676575
O O1 0.500000 0.500000 0.500000
O O2 0.596050 0.750000 0.408198
O O3 0.712724 0.519133 0.297770
O O4 0.688710 0.567118 0.167913
O O5 0.650236 0.250000 0.897729
O O6 0.675131 0.075599 0.728575
O O7 0.793353 0.038982 0.711699
O O8 0.576473 0.977088 0.011295
O O9 0.251051 0.750000 0.497300
O O10 0.374744 0.984033 0.364310
O O11 0.159805 0.010159 0.595180
O O12 0.508263 0.250000 0.784749
O O13 0.417941 0.024860 0.831283
O O14 0.949296 0.750000 0.199026
O O15 0.879867 0.540704 0.190686
O O16 0.057869 0.499238 0.051010
O O17 0.161158 0.250000 0.866505
O O18 0.715108 0.750000 0.000985
O O19 0.804604 0.013216 0.861474
O O20 0.891650 0.250000 0.662941
O O21 0.000000 0.500000 0.500000
#
# Coordination Sequence:
#
# PCOD9167942 Si02
#       8
#     4   4   4   4   4   4   4   4
#     4  10  22  38  59  85 114 147 184 228 278 331
#     4   9  19  34  50  73 104 138 174 212 261 314
#     4  10  20  33  52  78 107 139 174 214 265 322
#     4   9  18  32  52  76 105 139 174 212 259 314
#     4  10  21  36  56  81 105 139 184 226 270 320
#     4   9  20  40  58  76 108 144 178 222 275 324
#     4   9  19  36  54  78 109 141 178 220 269 323
#     4  10  20  35  55  77 104 141 180 220 267 321
#
# _framework density 19.753086
#
# number of rings (size 3 to 8) (size 9 to 14) (size 15 to 20)
#    0.000    2.500    0.000    1.125    1.750    4.000 
#    0.000    5.000    0.000    0.000    0.000    0.000 
#    0.000    0.000    0.000    0.000    0.000    0.000 
#
# Total GULP energy -178350.706915 kJ/mol
# GULP energy per Si atom -5573.459591 kJ/mol
# Density = 1.970813 g / cm^3
# Si number density = 19.753086 Si / 1000 Ang^3
#
#
#
# Elastic Constant Matrix: (Units=GPa)
#
#
# Indices 1 2 3 4 5 6 
#
# 1 57.0361 20.2390 27.1238 0.0000 -24.2231 0.0000
# 2 20.2390 10.6634 13.4467 0.0000 -9.9214 0.0000
# 3 27.1238 13.4467 65.0584 0.0000 -29.8242 0.0000
# 4 0.0000 0.0000 0.0000 31.4131 0.0000 -6.5076
# 5 -24.2231 -9.9214 -29.8242 0.0000 40.6540 0.0000
# 6 0.0000 0.0000 0.0000 -6.5076 0.0000 21.7892
#
#
#
# Elastic Compliance Matrix: (Units=1/GPa)
#
#
# Indices 1 2 3 4 5 6 
#
# 1 0.056662 -0.100002 0.002011 0.000000 0.010831 0.000000
# 2 -0.100002 0.312347 -0.022957 0.000000 -0.000199 0.000000
# 3 0.002011 -0.022957 0.026003 0.000000 0.014672 0.000000
# 4 0.000000 0.000000 0.000000 0.033933 0.000000 0.010135
# 5 0.010831 -0.000199 0.014672 0.000000 0.041767 0.000000
# 6 0.000000 0.000000 0.000000 0.010135 0.000000 0.048921
#
#
# Mechanical properties :
#
#
# Convention : Reuss Voigt Hill
#
# Bulk Modulus (GPa) = 6.53100 28.26411 17.39755
# Shear Modulus (GPa) = 6.15334 23.56782 14.86058
#
# Velocity S-wave (km/s) = 1.76689 3.45791 2.74581
# Velocity P-wave (km/s) = 2.73423 5.50296 4.34503
#
# Compressibility (1/GPa) = 0.15311601
#
# Stress axis : x y z
#
# Youngs Moduli (GPa) = 17.64859 3.20157 38.45689
#
# Poissons Ratio (x) = 0.32016 -0.07735
# Poissons Ratio (y) = 1.76490 0.88285
# Poissons Ratio (z) = -0.03550 0.07350
#
# Static dielectric constant tensor:
#      x y z
#    x 1.755770 0.000000 0.020210 
#    y 0.000000 1.679870 0.000000 
#    z 0.020210 0.000000 1.696070 
# 
# From -- ./inp_files/55555.got.cif
#   From: 2010.05.17/outbox.ucp.g08.bks.cvg/sg11_28_cif.got.tgz:55555.got - 2010.06.11 11:38:39.
