data_PCOD9167262
_publ_section_title
;
Structure prediction by ZEFSAII (Michael W. Deem and Ramdas Pophale) SiO2 
 PCOD9167262
Probable space group: P 21/M
;
_chemical_formula_sum "Si O2"
_cell_formula_units_Z 32
_cell_length_a 15.454424
_cell_length_b 8.865037
_cell_length_c 26.412385
_cell_angle_alpha 90.000000
_cell_angle_beta 151.295679
_cell_angle_gamma 90.000000
_cell_volume 1737.977780
_symmetry_space_group_name_H-M "P 21/M"
_symmetry_group_IT_number 11
_symmetry_cell_setting 'monoclinic'
loop_
_space_group_symop_operation_xyz
x,y,z
-x,1/2+y,-z
-x,-y,-z
x,1/2-y,z
loop_
_atom_site_type_symbol
_atom_site_label
_atom_site_fract_x
_atom_site_fract_y
_atom_site_fract_z
Si Si1 0.821247 0.572308 0.644789
Si Si2 0.773299 0.927556 0.507299
Si Si3 0.434550 0.071081 0.288593
Si Si4 0.776294 0.427152 0.726239
Si Si5 0.187912 0.569955 0.077254
Si Si6 0.805334 0.572004 0.029162
Si Si7 0.492232 0.930041 0.051652
Si Si8 0.900773 0.570656 0.280214
O O1 0.838494 0.750000 0.663967
O O2 0.714842 0.554159 0.536878
O O3 0.742309 0.487917 0.652371
O O4 0.015191 0.502116 0.727997
O O5 0.774983 0.750000 0.497350
O O6 0.637477 0.015379 0.402102
O O7 0.974242 0.995855 0.612633
O O8 0.424336 0.250000 0.277876
O O9 0.326241 0.018072 0.282949
O O10 0.342375 0.990904 0.193631
O O11 0.730898 0.250000 0.707050
O O12 0.989875 0.445593 0.846299
O O13 0.178233 0.750000 0.075043
O O14 0.215886 0.514769 0.034545
O O15 0.000000 0.500000 0.000000
O O16 0.774677 0.750000 0.005633
O O17 0.664469 0.506443 0.996714
O O18 0.465309 0.750000 0.035159
O O19 0.690075 0.958122 0.177033
O O20 0.500000 0.000000 0.000000
O O21 0.931393 0.750000 0.294051
#
# Coordination Sequence:
#
# PCOD9167262 Si02
#       8
#     4   4   4   4   4   4   4   4
#     4   9  19  33  53  79 113 152 194 240 294 353
#     4   9  20  37  57  83 114 153 199 247 298 356
#     4  12  24  38  61  86 114 155 199 245 300 360
#     4  11  22  35  54  80 117 156 197 247 296 354
#     4  12  24  42  65  89 121 158 201 253 305 359
#     4  11  24  40  60  89 123 161 205 250 302 362
#     4  11  23  37  59  90 125 163 204 249 303 364
#     4   9  18  35  55  79 113 152 193 239 292 350
#
# _framework density 18.412203999999999
#
# number of rings (size 3 to 8) (size 9 to 14) (size 15 to 20)
#    0.750    0.750    1.250    4.875    0.000    7.000 
#    0.000    0.000    0.000    0.750    0.000    0.000 
#    0.000    0.000    0.000    0.000    0.000    0.000 
#
# Total GULP energy -178672.641091 kJ/mol
# GULP energy per Si atom -5583.520034 kJ/mol
# Density = 1.837030 g / cm^3
# Si number density = 18.412204 Si / 1000 Ang^3
#
#
#
# Elastic Constant Matrix: (Units=GPa)
#
#
# Indices 1 2 3 4 5 6 
#
# 1 51.9060 30.4512 17.1934 0.0000 0.2730 0.0000
# 2 30.4512 138.2015 62.3251 0.0000 -3.0596 0.0000
# 3 17.1934 62.3251 94.4004 0.0000 -2.3124 0.0000
# 4 0.0000 0.0000 0.0000 28.5389 0.0000 -2.6062
# 5 0.2730 -3.0596 -2.3124 0.0000 23.0632 0.0000
# 6 0.0000 0.0000 0.0000 -2.6062 0.0000 28.4496
#
#
#
# Elastic Compliance Matrix: (Units=1/GPa)
#
#
# Indices 1 2 3 4 5 6 
#
# 1 0.022236 -0.004391 -0.001174 0.000000 -0.000964 0.000000
# 2 -0.004391 0.011182 -0.006561 0.000000 0.000878 0.000000
# 3 -0.001174 -0.006561 0.015155 0.000000 0.000663 0.000000
# 4 0.000000 0.000000 0.000000 0.035335 0.000000 0.003237
# 5 -0.000964 0.000878 0.000663 0.000000 0.043553 0.000000
# 6 0.000000 0.000000 0.000000 0.003237 0.000000 0.035446
#
#
# Mechanical properties :
#
#
# Convention : Reuss Voigt Hill
#
# Bulk Modulus (GPa) = 41.11954 56.04968 48.58461
# Shear Modulus (GPa) = 25.60590 27.64621 26.62606
#
# Velocity S-wave (km/s) = 3.73326 3.87914 3.80690
# Velocity P-wave (km/s) = 6.40033 7.11135 6.76519
#
# Compressibility (1/GPa) = 0.02431934
#
# Stress axis : x y z
#
# Youngs Moduli (GPa) = 44.97257 89.43221 65.98448
#
# Poissons Ratio (x) = 0.39271 0.07749
# Poissons Ratio (y) = 0.19748 0.43293
# Poissons Ratio (z) = 0.05281 0.58677
#
# Static dielectric constant tensor:
#      x y z
#    x 1.673890 0.000000 -0.005160 
#    y 0.000000 1.607600 0.000000 
#    z -0.005160 0.000000 1.657740 
# 
# From -- ./inp_files/71649.got.cif
#   From: 2010.05.17/outbox.cif.g08.bks.cpg/sg11_36_cif.got.tgz:71649.got - 2010.06.03 12:22:45.
