data_PCOD9167858
_publ_section_title
;
Structure prediction by ZEFSAII (Michael W. Deem and Ramdas Pophale) SiO2 
 PCOD9167858
Probable space group: P 21/M
;
_chemical_formula_sum "Si O2"
_cell_formula_units_Z 32
_cell_length_a 15.000000
_cell_length_b 21.000000
_cell_length_c 15.000000
_cell_angle_alpha 90.000000
_cell_angle_beta 20.000000
_cell_angle_gamma 90.000000
_cell_volume 1616.045177
_symmetry_space_group_name_H-M "P 21/M"
_symmetry_group_IT_number 11
_symmetry_cell_setting 'monoclinic'
loop_
_space_group_symop_operation_xyz
x,y,z
-x,1/2+y,-z
-x,-y,-z
x,1/2-y,z
loop_
_atom_site_type_symbol
_atom_site_label
_atom_site_fract_x
_atom_site_fract_y
_atom_site_fract_z
Si Si1 0.100310 0.623297 0.355987
Si Si2 0.173522 0.320779 0.115141
Si Si3 0.666984 0.020223 0.214187
Si Si4 0.363910 0.177184 0.120244
Si Si5 0.183546 0.969710 0.441855
Si Si6 0.306003 0.541938 0.017463
Si Si7 0.364488 0.866774 0.414357
Si Si8 0.814119 0.058020 0.260282
O O1 0.134112 0.565384 0.394822
O O2 0.193862 0.604166 0.170361
O O3 0.807318 0.646608 0.641003
O O4 0.326771 0.671556 0.172393
O O5 0.278829 0.250000 0.020486
O O6 0.258619 0.353293 0.127301
O O7 0.864300 0.319952 0.401482
O O8 0.336813 0.349755 0.880858
O O9 0.760183 0.065558 0.206532
O O10 0.383771 0.995499 0.512579
O O11 0.670139 0.045682 0.111249
O O12 0.889266 0.964925 0.006501
O O13 0.285511 0.250000 0.195652
O O14 0.314033 0.925167 0.394433
O O15 0.917935 0.993047 0.738359
O O16 0.409608 0.021890 0.214047
O O17 0.276930 0.882981 0.595852
#
# Coordination Sequence:
#
# PCOD9167858 Si02
#       8
#     4   4   4   4   4   4   4   4
#     4  12  23  35  52  77 103 143 172 207 260 305
#     4  11  22  35  53  75 102 134 172 219 259 306
#     4  10  19  34  48  76 102 134 170 204 238 293
#     4  11  22  38  54  74 100 132 177 224 258 295
#     4  12  21  34  49  78 109 143 172 199 242 316
#     4  12  22  35  51  74 112 143 172 207 244 300
#     4  12  19  34  55  75 104 138 172 203 260 309
#     4  10  20  31  53  73 102 133 168 203 247 294
#
# _framework density 19.801427
#
# number of rings (size 3 to 8) (size 9 to 14) (size 15 to 20)
#    0.000    0.750    5.000    4.500    0.000    2.000 
#    0.000    0.000    0.000    0.000    0.000    5.250 
#    0.000    0.000    0.000    0.000    0.000    0.000 
#
# Total GULP energy -178280.089895 kJ/mol
# GULP energy per Si atom -5571.252809 kJ/mol
# Density = 1.975636 g / cm^3
# Si number density = 19.801427 Si / 1000 Ang^3
#
#
#
# Elastic Constant Matrix: (Units=GPa)
#
#
# Indices 1 2 3 4 5 6 
#
# 1 65.0577 22.1148 5.7515 0.0000 24.9056 0.0000
# 2 22.1148 44.7280 31.0781 0.0000 1.4769 0.0000
# 3 5.7515 31.0781 105.3186 0.0000 13.3146 0.0000
# 4 0.0000 0.0000 0.0000 7.3846 0.0000 7.6523
# 5 24.9056 1.4769 13.3146 0.0000 28.8543 0.0000
# 6 0.0000 0.0000 0.0000 7.6523 0.0000 -8.8558
#
#
#
# Elastic Compliance Matrix: (Units=1/GPa)
#
#
# Indices 1 2 3 4 5 6 
#
# 1 0.034753 -0.022227 0.008824 0.000000 -0.032932 0.000000
# 2 -0.022227 0.042515 -0.014317 0.000000 0.023616 0.000000
# 3 0.008824 -0.014317 0.014982 0.000000 -0.013797 0.000000
# 4 0.000000 0.000000 0.000000 0.071444 0.000000 0.061735
# 5 -0.032932 0.023616 -0.013797 0.000000 0.068240 0.000000
# 6 0.000000 0.000000 0.000000 0.061735 0.000000 -0.059575
#
#
# Mechanical properties :
#
#
# Convention : Reuss Voigt Hill
#
# Bulk Modulus (GPa) = 27.16600 36.99921 32.08261
# Shear Modulus (GPa) = 20.82725 15.88728 18.35727
#
# Velocity S-wave (km/s) = 3.24667 2.83562 3.04808
# Velocity P-wave (km/s) = 5.27290 5.42648 5.35024
#
# Compressibility (1/GPa) = 0.03681072
#
# Stress axis : x y z
#
# Youngs Moduli (GPa) = 28.77419 23.52096 66.74556
#
# Poissons Ratio (x) = 0.52280 -0.58898
# Poissons Ratio (y) = 0.63956 0.95562
# Poissons Ratio (z) = -0.25391 0.33676
#
# Static dielectric constant tensor:
#      x y z
#    x 1.751730 0.000000 -0.011020 
#    y 0.000000 1.839220 0.000000 
#    z -0.011020 0.000000 1.711580 
# 
# From -- ./inp_files/52696.got.cif
#   From: 2010.05.17/outbox.ucp.g08.bks.cvg/sg11_27_cif.got.tgz:52696.got - 2010.06.11 11:38:39.
