data_PCOD9167088
_publ_section_title
;
Structure prediction by ZEFSAII (Michael W. Deem and Ramdas Pophale) SiO2 
 PCOD9167088
Probable space group: P 21/M
;
_chemical_formula_sum "Si O2"
_cell_formula_units_Z 20
_cell_length_a 11.387598
_cell_length_b 10.299323
_cell_length_c 12.224403
_cell_angle_alpha 90.000000
_cell_angle_beta 125.930980
_cell_angle_gamma 90.000000
_cell_volume 1160.929182
_symmetry_space_group_name_H-M "P 21/M"
_symmetry_group_IT_number 11
_symmetry_cell_setting 'monoclinic'
loop_
_space_group_symop_operation_xyz
x,y,z
-x,1/2+y,-z
-x,-y,-z
x,1/2-y,z
loop_
_atom_site_type_symbol
_atom_site_label
_atom_site_fract_x
_atom_site_fract_y
_atom_site_fract_z
Si Si1 0.729846 0.750000 0.714129
Si Si2 0.759143 0.007864 0.388372
Si Si3 0.616510 0.750000 0.405681
Si Si4 0.915084 0.490692 0.840261
Si Si5 0.960654 0.592125 0.315119
Si Si6 0.701406 0.250000 0.686679
Si Si7 0.586634 0.250000 0.370199
O O1 0.670395 0.750000 0.559172
O O2 0.827398 0.623561 0.780611
O O3 0.586641 0.750000 0.711402
O O4 0.681593 0.877704 0.386374
O O5 0.830035 0.974611 0.310255
O O6 0.646365 0.124774 0.339369
O O7 0.893211 0.048965 0.540537
O O8 0.443321 0.750000 0.319921
O O9 0.798394 0.374784 0.766774
O O10 0.022885 0.461658 0.798145
O O11 0.000000 0.500000 0.000000
O O12 0.950704 0.750000 0.311192
O O13 0.654196 0.250000 0.531807
#
# Coordination Sequence:
#
# PCOD9167088 Si02
#       7
#     2   4   2   4   4   2   2
#     4  11  23  35  57  94 114 149 198 235 289 336
#     4  11  20  34  58  88 117 150 185 240 294 340
#     4  11  20  34  60  87 119 146 190 243 286 356
#     4  12  23  39  59  82 118 155 195 234 277 346
#     4  11  21  36  57  85 122 151 190 232 295 339
#     4  11  21  39  57  84 120 157 188 231 305 332
#     4  11  20  38  60  85 127 146 180 253 292 342
#
# _framework density 17.22758
#
# number of rings (size 3 to 8) (size 9 to 14) (size 15 to 20)
#    0.000    0.800    7.000    1.800    0.000    4.000 
#    0.000    0.000    0.000    7.200    0.000    0.000 
#    0.000    0.000    0.000    0.000    0.000    0.000 
#
# Total GULP energy -111673.825476 kJ/mol
# GULP energy per Si atom -5583.691274 kJ/mol
# Density = 1.718837 g / cm^3
# Si number density = 17.227580 Si / 1000 Ang^3
#
#
#
# Elastic Constant Matrix: (Units=GPa)
#
#
# Indices 1 2 3 4 5 6 
#
# 1 178.3546 87.3606 47.2125 0.0000 -21.1633 0.0000
# 2 87.3606 183.9271 35.8077 0.0000 -4.5163 0.0000
# 3 47.2125 35.8077 72.1387 0.0000 -17.2875 0.0000
# 4 0.0000 0.0000 0.0000 -10.5867 0.0000 -20.4425
# 5 -21.1633 -4.5163 -17.2875 0.0000 20.8004 0.0000
# 6 0.0000 0.0000 0.0000 -20.4425 0.0000 28.8777
#
#
#
# Elastic Compliance Matrix: (Units=1/GPa)
#
#
# Indices 1 2 3 4 5 6 
#
# 1 0.008696 -0.003492 -0.002521 0.000000 0.005994 0.000000
# 2 -0.003492 0.007457 -0.002347 0.000000 -0.003885 0.000000
# 3 -0.002521 -0.002347 0.019905 0.000000 0.013468 0.000000
# 4 0.000000 0.000000 0.000000 -0.039908 0.000000 -0.028250
# 5 0.005994 -0.003885 0.013468 0.000000 0.064525 0.000000
# 6 0.000000 0.000000 0.000000 -0.028250 0.000000 0.014630
#
#
# Mechanical properties :
#
#
# Convention : Reuss Voigt Hill
#
# Bulk Modulus (GPa) = 51.71457 86.13133 68.92295
# Shear Modulus (GPa) = 50.77573 25.42092 38.09832
#
# Velocity S-wave (km/s) = 5.43484 3.84551 4.70773
# Velocity P-wave (km/s) = 8.33468 8.35596 8.34533
#
# Compressibility (1/GPa) = 0.01933691
#
# Stress axis : x y z
#
# Youngs Moduli (GPa) = 114.99421 134.09810 50.23915
#
# Poissons Ratio (x) = 0.46832 0.12667
# Poissons Ratio (y) = 0.40160 0.11790
# Poissons Ratio (z) = 0.28995 0.31471
#
# Static dielectric constant tensor:
#      x y z
#    x 1.605640 0.000000 -0.001140 
#    y 0.000000 1.550380 0.000000 
#    z -0.001140 0.000000 1.554660 
# 
# From -- ./inp_files/33543.got.cif
#   From: 2010.05.17/outbox.cif.g08.bks.cpg/sg11_17_cif.got.tgz:33543.got - 2010.06.03 12:22:45.
