data_PCOD9167022
_publ_section_title
;
Structure prediction by ZEFSAII (Michael W. Deem and Ramdas Pophale) SiO2 
 PCOD9167022
Probable space group: P 21/M
;
_chemical_formula_sum "Si O2"
_cell_formula_units_Z 28
_cell_length_a 6.587458
_cell_length_b 19.185489
_cell_length_c 12.059393
_cell_angle_alpha 90.000000
_cell_angle_beta 120.879489
_cell_angle_gamma 90.000000
_cell_volume 1308.065015
_symmetry_space_group_name_H-M "P 21/M"
_symmetry_group_IT_number 11
_symmetry_cell_setting 'monoclinic'
loop_
_space_group_symop_operation_xyz
x,y,z
-x,1/2+y,-z
-x,-y,-z
x,1/2-y,z
loop_
_atom_site_type_symbol
_atom_site_label
_atom_site_fract_x
_atom_site_fract_y
_atom_site_fract_z
Si Si1 0.102147 0.330554 0.359560
Si Si2 0.528257 0.067230 0.430516
Si Si3 0.115317 0.574229 0.060121
Si Si4 0.594101 0.998882 0.215359
Si Si5 0.798985 0.631068 0.159781
Si Si6 0.939149 0.327038 0.558888
Si Si7 0.329073 0.630342 0.907430
O O1 0.182913 0.250000 0.368431
O O2 0.284983 0.387201 0.359681
O O3 0.074427 0.346342 0.483023
O O4 0.837750 0.335533 0.232189
O O5 0.621648 0.038555 0.338464
O O6 0.731510 0.119360 0.527898
O O7 0.500000 0.000000 0.500000
O O8 0.373844 0.552114 0.172643
O O9 0.981678 0.620095 0.111705
O O10 0.145683 0.613490 0.953372
O O11 0.000000 0.500000 0.000000
O O12 0.563592 0.059840 0.116542
O O13 0.777596 0.946341 0.210180
O O14 0.888974 0.674749 0.288118
O O15 0.558146 0.659562 0.035747
O O16 0.837974 0.250000 0.510295
#
# Coordination Sequence:
#
# PCOD9167022 Si02
#       7
#     4   4   4   4   4   4   4
#     4  11  26  47  69  94 135 181 223 277 336 401
#     4  12  25  41  70 103 131 171 227 283 335 395
#     4  11  18  34  59  95 139 170 206 271 336 381
#     4  11  21  35  62 100 132 166 218 279 324 389
#     4  11  23  39  65 100 137 177 215 274 338 395
#     4  11  26  47  67  93 135 180 221 270 333 405
#     4  11  22  38  64  99 130 171 221 269 331 393
#
# _framework density 21.405664000000002
#
# number of rings (size 3 to 8) (size 9 to 14) (size 15 to 20)
#    0.000    0.857    4.286    3.857    2.000    2.857 
#    0.000    0.714    0.000    0.000    0.000    0.000 
#    0.000    0.000    0.000    0.000    0.000    0.000 
#
# Total GULP energy -156235.439933 kJ/mol
# GULP energy per Si atom -5579.837140 kJ/mol
# Density = 2.135694 g / cm^3
# Si number density = 21.405664 Si / 1000 Ang^3
#
#
#
# Elastic Constant Matrix: (Units=GPa)
#
#
# Indices 1 2 3 4 5 6 
#
# 1 72.0773 13.6107 38.6931 0.0000 -14.6398 0.0000
# 2 13.6107 71.5436 16.7513 0.0000 -0.3730 0.0000
# 3 38.6931 16.7513 121.1238 0.0000 -9.2207 0.0000
# 4 0.0000 0.0000 0.0000 11.8499 0.0000 0.1018
# 5 -14.6398 -0.3730 -9.2207 0.0000 36.7350 0.0000
# 6 0.0000 0.0000 0.0000 0.1018 0.0000 15.1692
#
#
#
# Elastic Compliance Matrix: (Units=1/GPa)
#
#
# Indices 1 2 3 4 5 6 
#
# 1 0.018227 -0.002252 -0.005056 0.000000 0.005972 0.000000
# 2 -0.002252 0.014728 -0.001401 0.000000 -0.001100 0.000000
# 3 -0.005056 -0.001401 0.010104 0.000000 0.000507 0.000000
# 4 0.000000 0.000000 0.000000 0.084394 0.000000 -0.000567
# 5 0.005972 -0.001100 0.000507 0.000000 0.029718 0.000000
# 6 0.000000 0.000000 0.000000 -0.000567 0.000000 0.065927
#
#
# Mechanical properties :
#
#
# Convention : Reuss Voigt Hill
#
# Bulk Modulus (GPa) = 39.00348 44.76166 41.88257
# Shear Modulus (GPa) = 20.07522 25.79680 22.93601
#
# Velocity S-wave (km/s) = 3.06575 3.47528 3.27692
# Velocity P-wave (km/s) = 5.54909 6.08769 5.82462
#
# Compressibility (1/GPa) = 0.02563874
#
# Stress axis : x y z
#
# Youngs Moduli (GPa) = 54.86465 67.89635 98.97428
#
# Poissons Ratio (x) = 0.15293 0.50045
# Poissons Ratio (y) = 0.12358 0.13867
# Poissons Ratio (z) = 0.27742 0.09513
#
# Static dielectric constant tensor:
#      x y z
#    x 1.874560 0.000000 0.015970 
#    y 0.000000 1.791090 0.000000 
#    z 0.015970 0.000000 1.831670 
# 
# From -- ./inp_files/30016.got.cif
#   From: 2010.05.17/outbox.cif.g08.bks.cpg/sg11_16_cif.got.tgz:30016.got - 2010.06.03 12:22:45.
