data_PCOD9167689
_publ_section_title
;
Structure prediction by ZEFSAII (Michael W. Deem and Ramdas Pophale) SiO2 
 PCOD9167689
Probable space group: P 21/M
;
_chemical_formula_sum "Si O2"
_cell_formula_units_Z 32
_cell_length_a 12.000000
_cell_length_b 15.000000
_cell_length_c 18.000000
_cell_angle_alpha 90.000000
_cell_angle_beta 30.000000
_cell_angle_gamma 90.000000
_cell_volume 1620.000000
_symmetry_space_group_name_H-M "P 21/M"
_symmetry_group_IT_number 11
_symmetry_cell_setting 'monoclinic'
loop_
_space_group_symop_operation_xyz
x,y,z
-x,1/2+y,-z
-x,-y,-z
x,1/2-y,z
loop_
_atom_site_type_symbol
_atom_site_label
_atom_site_fract_x
_atom_site_fract_y
_atom_site_fract_z
Si Si1 0.289319 0.565714 0.364444
Si Si2 0.961151 0.353080 0.755812
Si Si3 0.079470 0.038621 0.828575
Si Si4 0.544487 0.847725 0.896372
Si Si5 0.297905 0.154698 0.821935
Si Si6 0.118365 0.499831 0.312748
Si Si7 0.865009 0.153331 0.170945
Si Si8 0.383884 0.593881 0.831195
O O1 0.456334 0.643684 0.288571
O O2 0.236230 0.558585 0.308341
O O3 0.428395 0.475781 0.300152
O O4 0.063598 0.561270 0.540893
O O5 0.023919 0.250000 0.704090
O O6 0.076431 0.393305 0.762375
O O7 0.996242 0.428752 0.674203
O O8 0.694424 0.354262 0.925565
O O9 0.241364 0.076760 0.797811
O O10 0.832113 0.044719 0.007982
O O11 0.146405 0.936634 0.774351
O O12 0.641905 0.750000 0.856805
O O13 0.486999 0.852682 0.841196
O O14 0.701690 0.931253 0.825026
O O15 0.267185 0.250000 0.801125
O O16 0.114508 0.152476 0.992733
O O17 0.823839 0.250000 0.230003
O O18 0.708508 0.143671 0.187978
#
# Coordination Sequence:
#
# PCOD9167689 Si02
#       8
#     4   4   4   4   4   4   4   4
#     4  10  19  35  53  78 108 144 175 221 271 317
#     4  10  21  38  58  78 102 142 185 223 269 325
#     4  10  17  32  55  80 112 138 177 229 269 319
#     4   9  18  33  55  80 104 138 183 223 270 319
#     4  10  18  30  53  83 111 143 178 219 274 325
#     4  10  22  36  55  76 109 141 184 223 266 314
#     4  10  17  27  50  85 115 140 176 223 275 321
#     4   9  15  30  52  78 110 142 174 222 270 320
#
# _framework density 19.753086
#
# number of rings (size 3 to 8) (size 9 to 14) (size 15 to 20)
#    0.000    2.250    2.500    1.875    0.000    4.000 
#    0.000    6.875    0.000    0.000    0.000    0.000 
#    0.000    0.000    0.000    0.000    0.000    0.000 
#
# Total GULP energy -178276.764803 kJ/mol
# GULP energy per Si atom -5571.148900 kJ/mol
# Density = 1.970813 g / cm^3
# Si number density = 19.753086 Si / 1000 Ang^3
#
#
#
# Elastic Constant Matrix: (Units=GPa)
#
#
# Indices 1 2 3 4 5 6 
#
# 1 31.3390 -3.9535 -0.0849 0.0000 -6.5947 0.0000
# 2 -3.9535 84.1048 -18.1066 0.0000 10.1638 0.0000
# 3 -0.0849 -18.1066 -6.8013 0.0000 -0.9474 0.0000
# 4 0.0000 0.0000 0.0000 0.4766 0.0000 1.8909
# 5 -6.5947 10.1638 -0.9474 0.0000 13.5858 0.0000
# 6 0.0000 0.0000 0.0000 1.8909 0.0000 15.1176
#
#
#
# Elastic Compliance Matrix: (Units=1/GPa)
#
#
# Indices 1 2 3 4 5 6 
#
# 1 0.035543 -0.000696 -0.001057 0.000000 0.017700 0.000000
# 2 -0.000696 0.008307 -0.020990 0.000000 -0.008016 0.000000
# 3 -0.001057 -0.020990 -0.092356 0.000000 0.008749 0.000000
# 4 0.000000 0.000000 0.000000 4.165746 0.000000 -0.521050
# 5 0.017700 -0.008016 0.008749 0.000000 0.088805 0.000000
# 6 0.000000 0.000000 0.000000 -0.521050 0.000000 0.131321
#
#
# Mechanical properties :
#
#
# Convention : Reuss Voigt Hill
#
# Bulk Modulus (GPa) = -10.63925 7.15027 -1.74449
# Shear Modulus (GPa) = 1.14902 14.55517 7.85210
#
# Velocity S-wave (km/s) = 0.76352 2.71745 1.99593
# Velocity P-wave (km/s) = 2.14954 3.67066 2.10395
#
# Compressibility (1/GPa) = -0.09399163
#
# Stress axis : x y z
#
# Youngs Moduli (GPa) = 28.13491 120.37911 -10.82767
#
# Poissons Ratio (x) = 0.08376 -0.01145
# Poissons Ratio (y) = 0.01958 -0.22727
# Poissons Ratio (z) = 0.02974 2.52676
#
# Static dielectric constant tensor:
#      x y z
#    x 1.709180 0.000000 0.002420 
#    y 0.000000 1.741720 0.000000 
#    z 0.002420 0.000000 1.683470 
# 
# From -- ./inp_files/59438.got.cif
#   From: 2010.05.17/outbox.ucp.g08.bks.cvg/sg11_30_cif.got.tgz:59438.got - 2010.06.11 11:38:39.
