data_PCOD9167167
_publ_section_title
;
Structure prediction by ZEFSAII (Michael W. Deem and Ramdas Pophale) SiO2 
 PCOD9167167
Probable space group: P 21/M
;
_chemical_formula_sum "Si O2"
_cell_formula_units_Z 16
_cell_length_a 9.558732
_cell_length_b 13.182765
_cell_length_c 6.350892
_cell_angle_alpha 90.000000
_cell_angle_beta 51.820343
_cell_angle_gamma 90.000000
_cell_volume 629.080592
_symmetry_space_group_name_H-M "P 21/M"
_symmetry_group_IT_number 11
_symmetry_cell_setting 'monoclinic'
loop_
_space_group_symop_operation_xyz
x,y,z
-x,1/2+y,-z
-x,-y,-z
x,1/2-y,z
loop_
_atom_site_type_symbol
_atom_site_label
_atom_site_fract_x
_atom_site_fract_y
_atom_site_fract_z
Si Si1 0.586199 0.922317 0.186617
Si Si2 0.352641 0.640624 0.045027
Si Si3 0.105237 0.140019 0.795970
Si Si4 0.819724 0.423717 0.398457
O O1 0.536277 0.868230 0.011182
O O2 0.722998 0.867929 0.210846
O O3 0.388991 0.928184 0.467558
O O4 0.655338 0.034125 0.065011
O O5 0.348610 0.750000 0.940362
O O6 0.195711 0.633747 0.365759
O O7 0.100957 0.250000 0.697172
O O8 0.115731 0.039986 0.643089
O O9 0.939405 0.126916 0.109614
#
# Coordination Sequence:
#
# PCOD9167167 Si02
#       4
#     4   4   4   4
#     4   9  20  37  56  80 109 138 184 220 258 328
#     4   9  18  37  58  78 111 143 172 224 272 307
#     4  11  21  35  58  80 108 147 177 217 271 315
#     4   9  21  38  52  81 114 132 185 225 256 323
#
# _framework density 25.433944
#
# number of rings (size 3 to 8) (size 9 to 14) (size 15 to 20)
#    1.500    1.000    0.000    2.250    0.000    2.000 
#    0.000    6.250    0.000    0.000    0.000    0.000 
#    0.000    0.000    0.000    0.000    0.000    0.000 
#
# Total GULP energy -89398.175291 kJ/mol
# GULP energy per Si atom -5587.385956 kJ/mol
# Density = 2.537605 g / cm^3
# Si number density = 25.433944 Si / 1000 Ang^3
#
#
#
# Elastic Constant Matrix: (Units=GPa)
#
#
# Indices 1 2 3 4 5 6 
#
# 1 78.0975 15.3456 5.1696 0.0000 -24.4247 0.0000
# 2 15.3456 209.5496 15.9506 0.0000 -4.0642 0.0000
# 3 5.1696 15.9506 101.5074 0.0000 -37.5470 0.0000
# 4 0.0000 0.0000 0.0000 0.8113 0.0000 1.5087
# 5 -24.4247 -4.0642 -37.5470 0.0000 34.8884 0.0000
# 6 0.0000 0.0000 0.0000 1.5087 0.0000 22.0592
#
#
#
# Elastic Compliance Matrix: (Units=1/GPa)
#
#
# Indices 1 2 3 4 5 6 
#
# 1 0.019090 -0.001523 0.006886 0.000000 0.020598 0.000000
# 2 -0.001523 0.004955 -0.001465 0.000000 -0.002065 0.000000
# 3 0.006886 -0.001465 0.019024 0.000000 0.025124 0.000000
# 4 0.000000 0.000000 0.000000 1.412250 0.000000 -0.096587
# 5 0.020598 -0.002065 0.025124 0.000000 0.069881 0.000000
# 6 0.000000 0.000000 0.000000 -0.096587 0.000000 0.051938
#
#
# Mechanical properties :
#
#
# Convention : Reuss Voigt Hill
#
# Bulk Modulus (GPa) = 19.65958 51.34290 35.50124
# Shear Modulus (GPa) = 3.15200 35.06437 19.10818
#
# Velocity S-wave (km/s) = 1.11444 3.71704 2.74393
# Velocity P-wave (km/s) = 3.06634 6.21711 4.90178
#
# Compressibility (1/GPa) = 0.05086578
#
# Stress axis : x y z
#
# Youngs Moduli (GPa) = 52.38419 201.81200 52.56434
#
# Poissons Ratio (x) = 0.30729 -0.36196
# Poissons Ratio (y) = 0.07976 0.07701
# Poissons Ratio (z) = -0.36072 0.29567
#
# Static dielectric constant tensor:
#      x y z
#    x 2.094780 0.000000 0.039750 
#    y 0.000000 1.936090 0.000000 
#    z 0.039750 0.000000 1.994660 
# 
# From -- ./inp_files/11157.got.cif
#   From: 2010.05.17/outbox.cif.g08.bks.cpg/sg11_6_cif.got.tgz:11157.got - 2010.06.03 12:22:45.
