data_PCOD9167328
_publ_section_title
;
Structure prediction by ZEFSAII (Michael W. Deem and Ramdas Pophale) SiO2 
 PCOD9167328
Probable space group: P 21/M
;
_chemical_formula_sum "Si O2"
_cell_formula_units_Z 24
_cell_length_a 8.319469
_cell_length_b 13.629105
_cell_length_c 19.354370
_cell_angle_alpha 90.000000
_cell_angle_beta 28.951971
_cell_angle_gamma 90.000000
_cell_volume 1062.321066
_symmetry_space_group_name_H-M "P 21/M"
_symmetry_group_IT_number 11
_symmetry_cell_setting 'monoclinic'
loop_
_space_group_symop_operation_xyz
x,y,z
-x,1/2+y,-z
-x,-y,-z
x,1/2-y,z
loop_
_atom_site_type_symbol
_atom_site_label
_atom_site_fract_x
_atom_site_fract_y
_atom_site_fract_z
Si Si1 0.175995 0.539190 0.582576
Si Si2 0.743896 0.750000 0.033242
Si Si3 0.333290 0.750000 0.044605
Si Si4 0.990734 0.250000 0.293147
Si Si5 0.523020 0.535430 0.664043
Si Si6 0.487489 0.456577 0.831655
Si Si7 0.821954 0.463141 0.920430
Si Si8 0.416374 0.750000 0.696782
O O1 0.500000 0.500000 0.500000
O O2 0.085345 0.650185 0.636943
O O3 0.255394 0.526157 0.471660
O O4 0.863192 0.469988 0.717775
O O5 0.649146 0.847342 0.109866
O O6 0.522046 0.750000 0.046913
O O7 0.124376 0.750000 0.864367
O O8 0.628588 0.750000 0.876596
O O9 0.127110 0.849280 0.114452
O O10 0.760197 0.250000 0.311576
O O11 0.502700 0.493774 0.748245
O O12 0.617107 0.649505 0.628155
O O13 0.139774 0.527881 0.782058
O O14 0.262629 0.521603 0.967252
O O15 0.500000 0.500000 0.000000
#
# Coordination Sequence:
#
# PCOD9167328 Si02
#       8
#     4   2   2   2   4   4   4   2
#     4  12  26  46  73 100 138 184 236 287 338 416
#     4  11  24  40  75 100 145 183 226 289 352 402
#     4  11  22  39  75 105 134 183 239 284 338 406
#     4  11  22  44  73 104 133 183 240 283 342 410
#     4  12  27  45  70 106 146 180 227 291 352 414
#     4  12  26  46  68 105 143 181 228 290 351 409
#     4  12  22  43  71 103 131 180 239 281 329 410
#     4  11  22  43  73 103 136 189 227 280 360 408
#
# _framework density 22.592040000000001
#
# number of rings (size 3 to 8) (size 9 to 14) (size 15 to 20)
#    0.000    0.333    6.667    3.000    0.000    4.667 
#    0.000    0.000    0.000    0.000    0.000    0.000 
#    0.000    0.000    0.000    0.000    0.000    0.000 
#
# Total GULP energy -134492.868919 kJ/mol
# GULP energy per Si atom -5603.869538 kJ/mol
# Density = 2.254062 g / cm^3
# Si number density = 22.592040 Si / 1000 Ang^3
#
#
#
# Elastic Constant Matrix: (Units=GPa)
#
#
# Indices 1 2 3 4 5 6 
#
# 1 53.3450 29.2255 20.9708 0.0000 11.6484 0.0000
# 2 29.2255 164.0516 20.3589 0.0000 26.2418 0.0000
# 3 20.9708 20.3589 93.3075 0.0000 19.5164 0.0000
# 4 0.0000 0.0000 0.0000 35.1596 0.0000 9.7206
# 5 11.6484 26.2418 19.5164 0.0000 48.8550 0.0000
# 6 0.0000 0.0000 0.0000 9.7206 0.0000 25.4304
#
#
#
# Elastic Compliance Matrix: (Units=1/GPa)
#
#
# Indices 1 2 3 4 5 6 
#
# 1 0.022489 -0.003186 -0.003923 0.000000 -0.002083 0.000000
# 2 -0.003186 0.007171 -0.000220 0.000000 -0.003004 0.000000
# 3 -0.003923 -0.000220 0.012468 0.000000 -0.003927 0.000000
# 4 0.000000 0.000000 0.000000 0.031803 0.000000 -0.012156
# 5 -0.002083 -0.003004 -0.003927 0.000000 0.024148 0.000000
# 6 0.000000 0.000000 0.000000 -0.012156 0.000000 0.043970
#
#
# Mechanical properties :
#
#
# Convention : Reuss Voigt Hill
#
# Bulk Modulus (GPa) = 36.40500 50.20162 43.30331
# Shear Modulus (GPa) = 30.14510 37.89892 34.02201
#
# Velocity S-wave (km/s) = 3.65680 4.10021 3.88484
# Velocity P-wave (km/s) = 5.82912 6.68467 6.27150
#
# Compressibility (1/GPa) = 0.02746876
#
# Stress axis : x y z
#
# Youngs Moduli (GPa) = 44.46674 139.44777 80.20215
#
# Poissons Ratio (x) = 0.44431 0.31466
# Poissons Ratio (y) = 0.14168 0.01766
# Poissons Ratio (z) = 0.17446 0.03071
#
# Static dielectric constant tensor:
#      x y z
#    x 1.929770 0.000000 -0.023200 
#    y 0.000000 1.794590 0.000000 
#    z -0.023200 0.000000 1.818640 
# 
# From -- ./inp_files/58087.got.cif
#   From: 2010.05.17/outbox.cif.g08.bks.cpg/sg11_30_cif.got.tgz:58087.got - 2010.06.03 12:22:45.
