data_PCOD9167163
_publ_section_title
;
Structure prediction by ZEFSAII (Michael W. Deem and Ramdas Pophale) SiO2 
 PCOD9167163
Probable space group: P 21/M
;
_chemical_formula_sum "Si O2"
_cell_formula_units_Z 20
_cell_length_a 22.134712
_cell_length_b 8.540000
_cell_length_c 10.492081
_cell_angle_alpha 90.000000
_cell_angle_beta 144.383818
_cell_angle_gamma 90.000000
_cell_volume 1154.993108
_symmetry_space_group_name_H-M "P 21/M"
_symmetry_group_IT_number 11
_symmetry_cell_setting 'monoclinic'
loop_
_space_group_symop_operation_xyz
x,y,z
-x,1/2+y,-z
-x,-y,-z
x,1/2-y,z
loop_
_atom_site_type_symbol
_atom_site_label
_atom_site_fract_x
_atom_site_fract_y
_atom_site_fract_z
Si Si1 0.048794 0.438069 0.453908
Si Si2 0.497348 0.437496 0.140547
Si Si3 0.285675 0.438421 0.471304
Si Si4 0.065402 0.061523 0.991862
Si Si5 0.271223 0.059628 0.743525
O O1 0.049060 0.250000 0.455832
O O2 0.167780 0.493360 0.637077
O O3 0.000000 0.500000 0.500000
O O4 0.983311 0.495550 0.220426
O O5 0.500738 0.250000 0.144724
O O6 0.602969 0.499594 0.383375
O O7 0.500000 0.500000 0.000000
O O8 0.383066 0.487351 0.992527
O O9 0.290612 0.250000 0.481073
O O10 0.268019 0.489069 0.588812
O O11 0.185301 0.486070 0.218815
O O12 0.060932 0.250000 0.983125
O O13 0.000000 0.000000 0.000000
O O14 0.269474 0.250000 0.739893
#
# Coordination Sequence:
#
# PCOD9167163 Si02
#       5
#     4   4   4   4   4
#     4  11  22  38  55  77 108 144 181 220 266 322
#     4   9  16  27  45  72 102 134 169 210 261 312
#     4   9  17  31  49  74 106 136 167 212 266 312
#     4  11  21  35  55  80 109 142 178 221 270 317
#     4   8  15  30  49  70 103 138 167 210 264 308
#
# _framework density 17.316120999999999
#
# number of rings (size 3 to 8) (size 9 to 14) (size 15 to 20)
#    0.000    2.400    2.000    3.000    0.000    1.600 
#    0.000    3.000    0.000    1.200    0.000    0.000 
#    0.000    0.000    0.000    0.000    0.000    0.000 
#
# Total GULP energy -111447.632772 kJ/mol
# GULP energy per Si atom -5572.381639 kJ/mol
# Density = 1.727671 g / cm^3
# Si number density = 17.316121 Si / 1000 Ang^3
#
#
#
# Elastic Constant Matrix: (Units=GPa)
#
#
# Indices 1 2 3 4 5 6 
#
# 1 126.5313 27.3871 95.7553 0.0000 28.3301 0.0000
# 2 27.3871 35.8912 34.3394 0.0000 8.9455 0.0000
# 3 95.7553 34.3394 141.1528 0.0000 39.7850 0.0000
# 4 0.0000 0.0000 0.0000 28.9674 0.0000 3.7627
# 5 28.3301 8.9455 39.7850 0.0000 40.6457 0.0000
# 6 0.0000 0.0000 0.0000 3.7627 0.0000 23.9758
#
#
#
# Elastic Compliance Matrix: (Units=1/GPa)
#
#
# Indices 1 2 3 4 5 6 
#
# 1 0.016422 -0.002462 -0.010313 0.000000 -0.000809 0.000000
# 2 -0.002462 0.036708 -0.007550 0.000000 0.001027 0.000000
# 3 -0.010313 -0.007550 0.018537 0.000000 -0.009295 0.000000
# 4 0.000000 0.000000 0.000000 0.035240 0.000000 -0.005530
# 5 -0.000809 0.001027 -0.009295 0.000000 0.034039 0.000000
# 6 0.000000 0.000000 0.000000 -0.005530 0.000000 0.042577
#
#
# Mechanical properties :
#
#
# Convention : Reuss Voigt Hill
#
# Bulk Modulus (GPa) = 32.23964 68.72654 50.48309
# Shear Modulus (GPa) = 21.32089 28.45735 24.88912
#
# Velocity S-wave (km/s) = 3.51276 4.05829 3.79534
# Velocity P-wave (km/s) = 5.92548 7.85717 6.95868
#
# Compressibility (1/GPa) = 0.03101772
#
# Stress axis : x y z
#
# Youngs Moduli (GPa) = 60.89323 27.24222 53.94492
#
# Poissons Ratio (x) = 0.06707 0.55636
# Poissons Ratio (y) = 0.14991 0.40726
# Poissons Ratio (z) = 0.62802 0.20567
#
# Static dielectric constant tensor:
#      x y z
#    x 1.583720 0.000000 0.048420 
#    y 0.000000 1.593250 0.000000 
#    z 0.048420 0.000000 1.607040 
# 
# From -- ./inp_files/23901.got.cif
#   From: 2010.05.17/outbox.cif.g08.bks.cpg/sg11_12_cif.got.tgz:23901.got - 2010.06.03 12:22:45.
