data_PCOD9167392
_publ_section_title
;
Structure prediction by ZEFSAII (Michael W. Deem and Ramdas Pophale) SiO2 
 PCOD9167392
Probable space group: P 21/M
;
_chemical_formula_sum "Si O2"
_cell_formula_units_Z 32
_cell_length_a 22.552689
_cell_length_b 7.425943
_cell_length_c 24.293003
_cell_angle_alpha 90.000000
_cell_angle_beta 161.660852
_cell_angle_gamma 90.000000
_cell_volume 1280.107913
_symmetry_space_group_name_H-M "P 21/M"
_symmetry_group_IT_number 11
_symmetry_cell_setting 'monoclinic'
loop_
_space_group_symop_operation_xyz
x,y,z
-x,1/2+y,-z
-x,-y,-z
x,1/2-y,z
loop_
_atom_site_type_symbol
_atom_site_label
_atom_site_fract_x
_atom_site_fract_y
_atom_site_fract_z
Si Si1 0.137290 0.969058 0.452198
Si Si2 0.605110 0.457759 0.407818
Si Si3 0.240866 0.951851 0.937997
Si Si4 0.452429 0.556462 0.020721
Si Si5 0.183899 0.458974 0.236004
Si Si6 0.000164 0.470198 0.180205
Si Si7 0.842078 0.037648 0.405045
Si Si8 0.425089 0.470314 0.354090
O O1 0.125870 0.750000 0.436741
O O2 0.335505 0.028134 0.599858
O O3 0.106052 0.012529 0.487748
O O4 0.969724 0.056700 0.271350
O O5 0.554590 0.250000 0.355760
O O6 0.806838 0.467433 0.618685
O O7 0.453740 0.535962 0.316798
O O8 0.320666 0.750000 0.015266
O O9 0.187302 0.029303 0.951237
O O10 0.346132 0.041564 0.978185
O O11 0.354381 0.750000 0.928636
O O12 0.658670 0.566400 0.226785
O O13 0.500000 0.500000 0.000000
O O14 0.137678 0.250000 0.187379
O O15 0.030269 0.532983 0.143637
O O16 0.243783 0.533413 0.229074
O O17 0.384364 0.470955 0.445789
O O18 0.000535 0.250000 0.181182
O O19 0.798063 0.250000 0.365612
O O20 0.000000 0.000000 0.500000
O O21 0.426042 0.250000 0.355225
#
# Coordination Sequence:
#
# PCOD9167392 Si02
#       8
#     4   4   4   4   4   4   4   4
#     4   9  18  31  48  69  93 122 154 188 227 272
#     4   8  13  22  35  53  79 110 143 178 216 259
#     4   9  18  31  48  69  93 122 154 188 227 272
#     4  11  23  38  55  75  98 124 155 191 233 279
#     4   8  12  17  27  45  71 104 139 173 210 253
#     4   8  13  22  35  53  79 110 143 178 216 259
#     4  11  23  38  55  75  98 124 155 191 233 279
#     4   8  12  17  27  45  71 104 139 173 210 253
#
# _framework density 24.997893000000001
#
# number of rings (size 3 to 8) (size 9 to 14) (size 15 to 20)
#    0.000    3.000    0.000    1.500    0.000    4.000 
#    0.000    0.000    0.000    0.000    0.000    0.000 
#    0.000    1.000    0.000    0.750    0.000   15.000 
#
# Total GULP energy -178208.159046 kJ/mol
# GULP energy per Si atom -5569.004970 kJ/mol
# Density = 2.494100 g / cm^3
# Si number density = 24.997893 Si / 1000 Ang^3
#
#
#
# Elastic Constant Matrix: (Units=GPa)
#
#
# Indices 1 2 3 4 5 6 
#
# 1 264.7598 11.1484 23.8711 0.0000 75.3700 0.0000
# 2 11.1484 92.0502 3.7814 0.0000 -0.0449 0.0000
# 3 23.8711 3.7814 30.3676 0.0000 22.4987 0.0000
# 4 0.0000 0.0000 0.0000 4.8222 0.0000 2.5722
# 5 75.3700 -0.0449 22.4987 0.0000 36.3326 0.0000
# 6 0.0000 0.0000 0.0000 2.5722 0.0000 -3.7837
#
#
#
# Elastic Compliance Matrix: (Units=1/GPa)
#
#
# Indices 1 2 3 4 5 6 
#
# 1 0.013554 -0.002457 0.019373 0.000000 -0.040116 0.000000
# 2 -0.002457 0.011414 -0.006054 0.000000 0.008860 0.000000
# 3 0.019373 -0.006054 0.089124 0.000000 -0.095385 0.000000
# 4 0.000000 0.000000 0.000000 0.152187 0.000000 0.103460
# 5 -0.040116 0.008860 -0.095385 0.000000 0.169820 0.000000
# 6 0.000000 0.000000 0.000000 0.103460 0.000000 -0.193957
#
#
# Mechanical properties :
#
#
# Convention : Reuss Voigt Hill
#
# Bulk Modulus (GPa) = 7.36291 51.64218 29.50254
# Shear Modulus (GPa) = 18.81894 30.69931 24.75913
#
# Velocity S-wave (km/s) = 2.74674 3.50819 3.15055
# Velocity P-wave (km/s) = 3.60711 6.09207 5.00622
#
# Compressibility (1/GPa) = 0.13581588
#
# Stress axis : x y z
#
# Youngs Moduli (GPa) = 73.78027 87.60997 11.22033
#
# Poissons Ratio (x) = 0.21525 -0.21737
# Poissons Ratio (y) = 0.18127 0.06793
# Poissons Ratio (z) = -1.42934 0.53039
#
# Static dielectric constant tensor:
#      x y z
#    x 1.093560 0.000000 0.291240 
#    y 0.000000 1.915910 0.000000 
#    z 0.291240 0.000000 1.877800 
# 
# From -- ./inp_files/72286.got.cif
#   From: 2010.05.17/outbox.cif.g08.bks.cpg/sg11_37_cif.got.tgz:72286.got - 2010.06.03 12:22:45.
