data_PCOD9167833
_publ_section_title
;
Structure prediction by ZEFSAII (Michael W. Deem and Ramdas Pophale) SiO2 
 PCOD9167833
Probable space group: P 21/M
;
_chemical_formula_sum "Si O2"
_cell_formula_units_Z 24
_cell_length_a 24.000000
_cell_length_b 9.000000
_cell_length_c 18.000000
_cell_angle_alpha 90.000000
_cell_angle_beta 160.000000
_cell_angle_gamma 90.000000
_cell_volume 1329.774317
_symmetry_space_group_name_H-M "P 21/M"
_symmetry_group_IT_number 11
_symmetry_cell_setting 'monoclinic'
loop_
_space_group_symop_operation_xyz
x,y,z
-x,1/2+y,-z
-x,-y,-z
x,1/2-y,z
loop_
_atom_site_type_symbol
_atom_site_label
_atom_site_fract_x
_atom_site_fract_y
_atom_site_fract_z
Si Si1 0.563474 0.077855 0.152081
Si Si2 0.303590 0.075274 0.455877
Si Si3 0.475816 0.921502 0.546836
Si Si4 0.866218 0.926830 0.613910
Si Si5 0.603916 0.923064 0.909794
Si Si6 0.174170 0.078780 0.933737
O O1 0.600303 0.250000 0.185213
O O2 0.419239 0.068208 0.032068
O O3 0.723503 0.002257 0.387178
O O4 0.500000 0.000000 0.000000
O O5 0.293457 0.250000 0.430082
O O6 0.162187 0.027728 0.335487
O O7 0.330817 0.991807 0.413252
O O8 0.468877 0.033299 0.707518
O O9 0.441473 0.750000 0.493091
O O10 0.500000 0.000000 0.500000
O O11 0.649863 0.936075 0.806582
O O12 0.846130 0.750000 0.585394
O O13 0.039453 0.975536 0.800080
O O14 0.561713 0.750000 0.835689
O O15 0.778450 0.953242 0.092446
O O16 0.120615 0.250000 0.873861
#
# Coordination Sequence:
#
# PCOD9167833 Si02
#       6
#     4   4   4   4   4   4
#     4  10  19  33  53  75 101 131 165 206 250 295
#     4   9  17  30  49  72  98 128 164 202 240 290
#     4  10  20  34  53  76 101 130 166 205 247 294
#     4  10  20  33  51  76 102 130 166 204 244 293
#     4   8  16  31  50  71  96 129 166 202 243 293
#     4   9  18  33  52  74  99 128 163 203 247 293
#
# _framework density 18.048175000000001
#
# number of rings (size 3 to 8) (size 9 to 14) (size 15 to 20)
#    0.000    2.667    0.000    3.000    0.000    6.000 
#    0.000    1.667    0.000    0.000    0.000    0.000 
#    0.000    0.000    0.000    0.000    0.000    0.000 
#
# Total GULP energy -133605.966244 kJ/mol
# GULP energy per Si atom -5566.915260 kJ/mol
# Density = 1.800710 g / cm^3
# Si number density = 18.048175 Si / 1000 Ang^3
#
#
#
# Elastic Constant Matrix: (Units=GPa)
#
#
# Indices 1 2 3 4 5 6 
#
# 1 92.3702 49.9479 15.6781 0.0000 10.8160 0.0000
# 2 49.9479 63.4342 14.7622 0.0000 9.3156 0.0000
# 3 15.6781 14.7622 -0.9992 0.0000 11.7656 0.0000
# 4 0.0000 0.0000 0.0000 24.7646 0.0000 1.0542
# 5 10.8160 9.3156 11.7656 0.0000 25.6117 0.0000
# 6 0.0000 0.0000 0.0000 1.0542 0.0000 30.7876
#
#
#
# Elastic Compliance Matrix: (Units=1/GPa)
#
#
# Indices 1 2 3 4 5 6 
#
# 1 0.018723 -0.015410 0.006085 0.000000 -0.005097 0.000000
# 2 -0.015410 0.025636 0.016193 0.000000 -0.010256 0.000000
# 3 0.006085 0.016193 -0.119467 0.000000 0.046422 0.000000
# 4 0.000000 0.000000 0.000000 0.040439 0.000000 -0.001385
# 5 -0.005097 -0.010256 0.046422 0.000000 0.023602 0.000000
# 6 0.000000 0.000000 0.000000 -0.001385 0.000000 0.032528
#
#
# Mechanical properties :
#
#
# Convention : Reuss Voigt Hill
#
# Bulk Modulus (GPa) = -16.29430 35.06463 9.38516
# Shear Modulus (GPa) = -392.65469 21.19392 -185.73038
#
# Velocity S-wave (km/s) = -14.76589 3.43052 -10.15537
# Velocity P-wave (km/s) = 17.31348 5.92974 11.50206
#
# Compressibility (1/GPa) = -0.06137115
#
# Stress axis : x y z
#
# Youngs Moduli (GPa) = 53.41141 39.00826 -8.37053
#
# Poissons Ratio (x) = 0.60111 0.05094
# Poissons Ratio (y) = 0.82305 0.13555
# Poissons Ratio (z) = -0.32502 -0.63167
#
# Static dielectric constant tensor:
#      x y z
#    x 1.699350 0.000000 -0.006360 
#    y 0.000000 1.564840 0.000000 
#    z -0.006360 0.000000 1.560860 
# 
# From -- ./inp_files/20502.got.cif
#   From: 2010.05.17/outbox.ucp.g08.bks.cvg/sg11_11_cif.got.tgz:20502.got - 2010.06.11 11:38:39.
