data_PCOD9167962
_publ_section_title
;
Structure prediction by ZEFSAII (Michael W. Deem and Ramdas Pophale) SiO2 
 PCOD9167962
Probable space group: P 21/M
;
_chemical_formula_sum "Si O2"
_cell_formula_units_Z 32
_cell_length_a 21.000000
_cell_length_b 9.000000
_cell_length_c 15.000000
_cell_angle_alpha 90.000000
_cell_angle_beta 40.000000
_cell_angle_gamma 90.000000
_cell_volume 1822.302873
_symmetry_space_group_name_H-M "P 21/M"
_symmetry_group_IT_number 11
_symmetry_cell_setting 'monoclinic'
loop_
_space_group_symop_operation_xyz
x,y,z
-x,1/2+y,-z
-x,-y,-z
x,1/2-y,z
loop_
_atom_site_type_symbol
_atom_site_label
_atom_site_fract_x
_atom_site_fract_y
_atom_site_fract_z
Si Si1 0.014405 0.575512 0.079586
Si Si2 0.494745 0.072053 0.907542
Si Si3 0.005653 0.072266 0.590863
Si Si4 0.520134 0.572504 0.574914
Si Si5 0.845569 0.922909 0.412232
Si Si6 0.631934 0.427281 0.102257
Si Si7 0.354406 0.924996 0.412797
Si Si8 0.144593 0.930658 0.096176
O O1 0.029830 0.750000 0.045622
O O2 0.923859 0.563135 0.247156
O O3 0.104511 0.515443 0.043847
O O4 0.000000 0.500000 0.000000
O O5 0.493594 0.250000 0.918192
O O6 0.582839 0.030477 0.743113
O O7 0.402132 0.013314 0.949321
O O8 0.500000 0.000000 0.000000
O O9 0.996396 0.250000 0.589805
O O10 0.102735 0.046610 0.547893
O O11 0.919420 0.018772 0.750513
O O12 0.000000 0.000000 0.500000
O O13 0.500000 0.500000 0.500000
O O14 0.528238 0.750000 0.555625
O O15 0.433448 0.539734 0.740001
O O16 0.612513 0.508197 0.532184
O O17 0.812406 0.750000 0.448558
O O18 0.757119 0.033281 0.488882
O O19 0.623311 0.250000 0.094684
O O20 0.742936 0.466083 0.007773
O O21 0.370306 0.750000 0.408864
O O22 0.133123 0.750000 0.106092
#
# Coordination Sequence:
#
# PCOD9167962 Si02
#       8
#     4   4   4   4   4   4   4   4
#     4   9  18  33  52  75 103 135 169 205 249 300
#     4  10  21  36  53  75 103 133 167 209 255 305
#     4   9  18  33  52  73 100 132 164 202 247 296
#     4  10  20  34  53  77 106 137 169 209 255 304
#     4   9  19  35  52  73 104 138 169 206 257 308
#     4   9  18  34  55  76  99 132 171 208 249 297
#     4  10  21  36  54  76 101 133 175 217 256 303
#     4   8  16  33  53  71  97 132 165 198 242 297
#
# _framework density 17.560198
#
# number of rings (size 3 to 8) (size 9 to 14) (size 15 to 20)
#    0.000    2.750    0.000    2.625    0.000    5.000 
#    0.000    8.125    0.000    0.000    0.000    0.000 
#    0.000    0.000    0.000    0.000    0.000    0.000 
#
# Total GULP energy -178210.175046 kJ/mol
# GULP energy per Si atom -5569.067970 kJ/mol
# Density = 1.752023 g / cm^3
# Si number density = 17.560198 Si / 1000 Ang^3
#
#
#
# Elastic Constant Matrix: (Units=GPa)
#
#
# Indices 1 2 3 4 5 6 
#
# 1 146.4385 56.2421 63.2122 0.0000 42.3533 0.0000
# 2 56.2421 41.8824 28.3028 0.0000 16.3606 0.0000
# 3 63.2122 28.3028 34.8603 0.0000 19.9341 0.0000
# 4 0.0000 0.0000 0.0000 25.5483 0.0000 9.9744
# 5 42.3533 16.3606 19.9341 0.0000 35.9713 0.0000
# 6 0.0000 0.0000 0.0000 9.9744 0.0000 35.0605
#
#
#
# Elastic Compliance Matrix: (Units=1/GPa)
#
#
# Indices 1 2 3 4 5 6 
#
# 1 0.034494 -0.008898 -0.050379 0.000000 -0.008649 0.000000
# 2 -0.008898 0.055199 -0.029739 0.000000 0.001852 0.000000
# 3 -0.050379 -0.029739 0.150091 0.000000 -0.010333 0.000000
# 4 0.000000 0.000000 0.000000 0.044032 0.000000 -0.012527
# 5 -0.008649 0.001852 -0.010333 0.000000 0.042867 0.000000
# 6 0.000000 0.000000 0.000000 -0.012527 0.000000 0.032086
#
#
# Mechanical properties :
#
#
# Convention : Reuss Voigt Hill
#
# Bulk Modulus (GPa) = 16.19372 57.63280 36.91326
# Shear Modulus (GPa) = 8.97046 24.34430 16.65738
#
# Velocity S-wave (km/s) = 2.26263 3.72739 3.08326
# Velocity P-wave (km/s) = 4.00847 7.17049 5.80878
#
# Compressibility (1/GPa) = 0.06175235
#
# Stress axis : x y z
#
# Youngs Moduli (GPa) = 28.99015 18.11629 6.66265
#
# Poissons Ratio (x) = 0.16121 0.33565
# Poissons Ratio (y) = 0.25796 0.19814
# Poissons Ratio (z) = 1.46048 0.53876
#
# Static dielectric constant tensor:
#      x y z
#    x 1.590680 0.000000 -0.044170 
#    y 0.000000 1.606990 0.000000 
#    z -0.044170 0.000000 1.606160 
# 
# From -- ./inp_files/54276.got.cif
#   From: 2010.05.17/outbox.ucp.g08.bks.cvg/sg11_28_cif.got.tgz:54276.got - 2010.06.11 11:38:39.
