data_PCOD9167177
_publ_section_title
;
Structure prediction by ZEFSAII (Michael W. Deem and Ramdas Pophale) SiO2 
 PCOD9167177
Probable space group: P 21/M
;
_chemical_formula_sum "Si O2"
_cell_formula_units_Z 28
_cell_length_a 9.517437
_cell_length_b 7.442316
_cell_length_c 24.873675
_cell_angle_alpha 90.000000
_cell_angle_beta 37.507273
_cell_angle_gamma 90.000000
_cell_volume 1072.721625
_symmetry_space_group_name_H-M "P 21/M"
_symmetry_group_IT_number 11
_symmetry_cell_setting 'monoclinic'
loop_
_space_group_symop_operation_xyz
x,y,z
-x,1/2+y,-z
-x,-y,-z
x,1/2-y,z
loop_
_atom_site_type_symbol
_atom_site_label
_atom_site_fract_x
_atom_site_fract_y
_atom_site_fract_z
Si Si1 0.006082 0.969627 0.724959
Si Si2 0.763019 0.951363 0.905482
Si Si3 0.995531 0.463457 0.565173
Si Si4 0.496563 0.469954 0.407283
Si Si5 0.484953 0.950626 0.720821
Si Si6 0.155434 0.538134 0.004528
Si Si7 0.549516 0.529980 0.811128
O O1 0.015497 0.750000 0.720570
O O2 0.911250 0.034657 0.812058
O O3 0.811998 0.027603 0.741782
O O4 0.268437 0.028059 0.635808
O O5 0.739485 0.750000 0.893286
O O6 0.500000 0.000000 0.000000
O O7 0.897608 0.959014 0.921165
O O8 0.970723 0.250000 0.581960
O O9 0.249626 0.527326 0.505991
O O10 0.000000 0.500000 0.500000
O O11 0.759072 0.559385 0.651780
O O12 0.483825 0.250000 0.409215
O O13 0.525507 0.529594 0.335654
O O14 0.386479 0.750000 0.746303
O O15 0.415485 0.037821 0.798461
O O16 0.163285 0.750000 0.011061
O O17 0.406754 0.475910 0.907271
O O18 0.000000 0.500000 0.000000
O O19 0.538405 0.750000 0.812576
#
# Coordination Sequence:
#
# PCOD9167177 Si02
#       7
#     4   4   4   4   4   4   4
#     4   9  17  31  52  77 101 135 178 217 254 309
#     4  11  21  36  59  82 109 146 185 227 272 322
#     4   9  16  29  49  74 102 131 166 210 258 310
#     4   8  15  27  48  74  97 127 172 211 248 304
#     4   9  17  30  51  75  99 133 173 214 256 306
#     4  11  23  39  57  82 111 143 185 229 276 327
#     4   9  18  33  52  75 104 137 177 216 257 319
#
# _framework density 26.101832000000002
#
# number of rings (size 3 to 8) (size 9 to 14) (size 15 to 20)
#    0.000    2.571    1.429    2.143    2.000    0.000 
#    0.000    2.143    0.000    2.571    0.000    0.000 
#    0.000    0.000    0.000    0.000    0.000    0.000 
#
# Total GULP energy -156269.233937 kJ/mol
# GULP energy per Si atom -5581.044069 kJ/mol
# Density = 2.604242 g / cm^3
# Si number density = 26.101832 Si / 1000 Ang^3
#
#
#
# Elastic Constant Matrix: (Units=GPa)
#
#
# Indices 1 2 3 4 5 6 
#
# 1 103.0070 -18.2114 13.2791 0.0000 -13.3908 0.0000
# 2 -18.2114 94.6524 2.7773 0.0000 -5.7317 0.0000
# 3 13.2791 2.7773 37.8585 0.0000 -23.2320 0.0000
# 4 0.0000 0.0000 0.0000 15.6875 0.0000 -2.3315
# 5 -13.3908 -5.7317 -23.2320 0.0000 59.0464 0.0000
# 6 0.0000 0.0000 0.0000 -2.3315 0.0000 12.6974
#
#
#
# Elastic Compliance Matrix: (Units=1/GPa)
#
#
# Indices 1 2 3 4 5 6 
#
# 1 0.010680 0.002231 -0.003020 0.000000 0.001451 0.000000
# 2 0.002231 0.011095 -0.000824 0.000000 0.001259 0.000000
# 3 -0.003020 -0.000824 0.035679 0.000000 0.013273 0.000000
# 4 0.000000 0.000000 0.000000 0.065533 0.000000 0.012033
# 5 0.001451 0.001259 0.013273 0.000000 0.022609 0.000000
# 6 0.000000 0.000000 0.000000 0.012033 0.000000 0.080966
#
#
# Mechanical properties :
#
#
# Convention : Reuss Voigt Hill
#
# Bulk Modulus (GPa) = 18.44028 25.68978 22.06503
# Shear Modulus (GPa) = 20.17233 33.33111 26.75172
#
# Velocity S-wave (km/s) = 2.78300 3.57734 3.20488
# Velocity P-wave (km/s) = 4.17215 5.18909 4.70816
#
# Compressibility (1/GPa) = 0.05422911
#
# Stress axis : x y z
#
# Youngs Moduli (GPa) = 93.62893 90.13303 28.02769
#
# Poissons Ratio (x) = -0.20112 0.08464
# Poissons Ratio (y) = -0.20892 0.02310
# Poissons Ratio (z) = 0.28274 0.07428
#
# Static dielectric constant tensor:
#      x y z
#    x 2.018560 0.000000 0.049970 
#    y 0.000000 2.063340 0.000000 
#    z 0.049970 0.000000 2.271310 
# 
# From -- ./inp_files/61229.got.cif
#   From: 2010.05.17/outbox.cif.g08.bks.cpg/sg11_31_cif.got.tgz:61229.got - 2010.06.03 12:22:45.
