data_PCOD9167431
_publ_section_title
;
Structure prediction by ZEFSAII (Michael W. Deem and Ramdas Pophale) SiO2 
 PCOD9167431
Probable space group: P 21/M
;
_chemical_formula_sum "Si O2"
_cell_formula_units_Z 20
_cell_length_a 21.401881
_cell_length_b 8.628917
_cell_length_c 13.541571
_cell_angle_alpha 90.000000
_cell_angle_beta 21.773766
_cell_angle_gamma 90.000000
_cell_volume 927.649858
_symmetry_space_group_name_H-M "P 21/M"
_symmetry_group_IT_number 11
_symmetry_cell_setting 'monoclinic'
loop_
_space_group_symop_operation_xyz
x,y,z
-x,1/2+y,-z
-x,-y,-z
x,1/2-y,z
loop_
_atom_site_type_symbol
_atom_site_label
_atom_site_fract_x
_atom_site_fract_y
_atom_site_fract_z
Si Si1 0.733392 0.433063 0.689110
Si Si2 0.432890 0.433634 0.258501
Si Si3 0.686000 0.433676 0.211568
Si Si4 0.831350 0.937316 0.195343
Si Si5 0.919744 0.569349 0.716102
O O1 0.694992 0.250000 0.728033
O O2 0.680747 0.527882 0.670405
O O3 0.927189 0.445293 0.430706
O O4 0.617439 0.487599 0.951913
O O5 0.446759 0.250000 0.252984
O O6 0.331109 0.493316 0.502195
O O7 0.500000 0.500000 0.500000
O O8 0.682646 0.250000 0.223770
O O9 0.802543 0.502913 0.127331
O O10 0.761592 0.482310 0.994850
O O11 0.837329 0.750000 0.186419
O O12 0.000000 0.000000 0.000000
O O13 0.880612 0.750000 0.759851
O O14 0.000000 0.500000 0.500000
#
# Coordination Sequence:
#
# PCOD9167431 Si02
#       5
#     4   4   4   4   4
#     4   9  19  36  58  87 123 160 206 261 316 376
#     4   9  19  35  58  88 121 161 204 258 319 379
#     4  12  27  47  69  97 135 177 226 283 343 409
#     4  11  23  40  65  95 132 174 223 275 334 401
#     4  11  24  42  66  95 128 171 220 270 328 395
#
# _framework density 21.559857999999998
#
# number of rings (size 3 to 8) (size 9 to 14) (size 15 to 20)
#    0.000    1.600    0.000    4.200    2.800    6.400 
#    0.000    0.000    0.000    0.000    0.000    0.000 
#    0.000    0.000    0.000    0.000    0.000    0.000 
#
# Total GULP energy -111803.112878 kJ/mol
# GULP energy per Si atom -5590.155644 kJ/mol
# Density = 2.151079 g / cm^3
# Si number density = 21.559858 Si / 1000 Ang^3
#
#
#
# Elastic Constant Matrix: (Units=GPa)
#
#
# Indices 1 2 3 4 5 6 
#
# 1 64.9645 21.8577 40.4680 0.0000 17.4944 0.0000
# 2 21.8577 77.1576 48.3489 0.0000 1.2998 0.0000
# 3 40.4680 48.3489 127.9452 0.0000 32.1722 0.0000
# 4 0.0000 0.0000 0.0000 32.2773 0.0000 3.1679
# 5 17.4944 1.2998 32.1722 0.0000 41.5969 0.0000
# 6 0.0000 0.0000 0.0000 3.1679 0.0000 33.3552
#
#
#
# Elastic Compliance Matrix: (Units=1/GPa)
#
#
# Indices 1 2 3 4 5 6 
#
# 1 0.020357 -0.003286 -0.003811 0.000000 -0.005511 0.000000
# 2 -0.003286 0.018591 -0.007681 0.000000 0.006742 0.000000
# 3 -0.003811 -0.007681 0.014228 0.000000 -0.009161 0.000000
# 4 0.000000 0.000000 0.000000 0.031273 0.000000 -0.002970
# 5 -0.005511 0.006742 -0.009161 0.000000 0.033233 0.000000
# 6 0.000000 0.000000 0.000000 -0.002970 0.000000 0.030262
#
#
# Mechanical properties :
#
#
# Convention : Reuss Voigt Hill
#
# Bulk Modulus (GPa) = 42.33934 54.60182 48.47058
# Shear Modulus (GPa) = 26.97265 32.07209 29.52237
#
# Velocity S-wave (km/s) = 3.54087 3.86110 3.70445
# Velocity P-wave (km/s) = 6.03305 6.72742 6.38967
#
# Compressibility (1/GPa) = 0.02361870
#
# Stress axis : x y z
#
# Youngs Moduli (GPa) = 49.12379 53.78941 70.28608
#
# Poissons Ratio (x) = 0.17674 0.26788
# Poissons Ratio (y) = 0.16141 0.53989
# Poissons Ratio (z) = 0.18722 0.41317
#
# Static dielectric constant tensor:
#      x y z
#    x 1.778340 0.000000 0.023120 
#    y 0.000000 1.735000 0.000000 
#    z 0.023120 0.000000 1.824770 
# 
# From -- ./inp_files/55347.got.cif
#   From: 2010.05.17/outbox.cif.g08.bks.cpg/sg11_28_cif.got.tgz:55347.got - 2010.06.03 12:22:45.
