data_PCOD9167887
_publ_section_title
;
Structure prediction by ZEFSAII (Michael W. Deem and Ramdas Pophale) SiO2 
 PCOD9167887
Probable space group: P 21/M
;
_chemical_formula_sum "Si O2"
_cell_formula_units_Z 32
_cell_length_a 24.000000
_cell_length_b 9.000000
_cell_length_c 15.000000
_cell_angle_alpha 90.000000
_cell_angle_beta 150.000000
_cell_angle_gamma 90.000000
_cell_volume 1620.000000
_symmetry_space_group_name_H-M "P 21/M"
_symmetry_group_IT_number 11
_symmetry_cell_setting 'monoclinic'
loop_
_space_group_symop_operation_xyz
x,y,z
-x,1/2+y,-z
-x,-y,-z
x,1/2-y,z
loop_
_atom_site_type_symbol
_atom_site_label
_atom_site_fract_x
_atom_site_fract_y
_atom_site_fract_z
Si Si1 0.724127 0.571604 0.973150
Si Si2 0.878004 0.927694 0.530956
Si Si3 0.719355 0.427788 0.452526
Si Si4 0.471785 0.428023 0.055965
Si Si5 0.764389 0.429921 0.709068
Si Si6 0.116811 0.570240 0.950211
Si Si7 0.482169 0.570900 0.571476
Si Si8 0.762083 0.071925 0.208593
O O1 0.733927 0.750000 0.994770
O O2 0.591997 0.534968 0.781936
O O3 0.788650 0.511221 0.976427
O O4 0.778854 0.489105 0.132574
O O5 0.874492 0.750000 0.514801
O O6 0.995029 0.966726 0.741643
O O7 0.776740 0.982866 0.452905
O O8 0.854006 0.007487 0.403867
O O9 0.735181 0.250000 0.459980
O O10 0.585484 0.450268 0.270463
O O11 0.777857 0.475673 0.625503
O O12 0.453325 0.250000 0.024546
O O13 0.500000 0.500000 0.000000
O O14 0.359557 0.506044 0.933826
O O15 0.762381 0.250000 0.705023
O O16 0.639307 0.478129 0.563135
O O17 0.856085 0.472555 0.909613
O O18 0.129856 0.750000 0.961090
O O19 0.500000 0.500000 0.500000
O O20 0.479530 0.750000 0.560889
O O21 0.760587 0.250000 0.210207
#
# Coordination Sequence:
#
# PCOD9167887 Si02
#       8
#     4   4   4   4   4   4   4   4
#     4  11  23  39  62  93 124 156 196 248 302 357
#     4  11  24  41  61  86 118 156 203 257 302 351
#     4  10  21  38  62  89 120 160 198 237 297 360
#     4  11  21  36  61  92 126 159 195 241 296 358
#     4   9  18  36  61  87 120 158 194 237 290 356
#     4  10  22  41  63  86 117 160 203 247 302 356
#     4  10  19  34  60  90 122 157 191 235 295 354
#     4  12  25  41  63  89 119 161 202 245 302 361
#
# _framework density 19.753086
#
# number of rings (size 3 to 8) (size 9 to 14) (size 15 to 20)
#    0.000    1.500    2.500    3.000    0.000    5.000 
#    0.000    1.250    0.000    0.000    0.000    0.000 
#    0.000    0.000    0.000    0.000    0.000    0.000 
#
# Total GULP energy -178746.239424 kJ/mol
# GULP energy per Si atom -5585.819982 kJ/mol
# Density = 1.970813 g / cm^3
# Si number density = 19.753086 Si / 1000 Ang^3
#
#
#
# Elastic Constant Matrix: (Units=GPa)
#
#
# Indices 1 2 3 4 5 6 
#
# 1 29.3374 5.0493 8.2580 0.0000 -25.7614 0.0000
# 2 5.0493 65.4233 41.7913 0.0000 -10.0459 0.0000
# 3 8.2580 41.7913 137.0805 0.0000 -25.9471 0.0000
# 4 0.0000 0.0000 0.0000 24.6993 0.0000 3.5762
# 5 -25.7614 -10.0459 -25.9471 0.0000 41.4773 0.0000
# 6 0.0000 0.0000 0.0000 3.5762 0.0000 25.6385
#
#
#
# Elastic Compliance Matrix: (Units=1/GPa)
#
#
# Indices 1 2 3 4 5 6 
#
# 1 0.078111 -0.001662 0.005567 0.000000 0.051595 0.000000
# 2 -0.001662 0.019062 -0.005709 0.000000 0.000013 0.000000
# 3 0.005567 -0.005709 0.010314 0.000000 0.008527 0.000000
# 4 0.000000 0.000000 0.000000 0.041322 0.000000 -0.005764
# 5 0.051595 0.000013 0.008527 0.000000 0.061492 0.000000
# 6 0.000000 0.000000 0.000000 -0.005764 0.000000 0.039808
#
#
# Mechanical properties :
#
#
# Convention : Reuss Voigt Hill
#
# Bulk Modulus (GPa) = 9.62656 38.00428 23.81542
# Shear Modulus (GPa) = 17.34046 30.14585 23.74315
#
# Velocity S-wave (km/s) = 2.96609 3.91081 3.47074
# Velocity P-wave (km/s) = 4.07606 6.29873 5.30511
#
# Compressibility (1/GPa) = 0.10387928
#
# Stress axis : x y z
#
# Youngs Moduli (GPa) = 12.80232 52.46026 96.95466
#
# Poissons Ratio (x) = 0.08721 -0.53977
# Poissons Ratio (y) = 0.02128 0.55349
# Poissons Ratio (z) = -0.07127 0.29948
#
# Static dielectric constant tensor:
#      x y z
#    x 1.712790 0.000000 -0.023680 
#    y 0.000000 1.642360 0.000000 
#    z -0.023680 0.000000 1.709210 
# 
# From -- ./inp_files/55671.got.cif
#   From: 2010.05.17/outbox.ucp.g08.bks.cvg/sg11_28_cif.got.tgz:55671.got - 2010.06.11 11:38:39.
