data_PCOD9167438
_publ_section_title
;
Structure prediction by ZEFSAII (Michael W. Deem and Ramdas Pophale) SiO2 
 PCOD9167438
Probable space group: P 21/M
;
_chemical_formula_sum "Si O2"
_cell_formula_units_Z 28
_cell_length_a 8.369713
_cell_length_b 15.029181
_cell_length_c 12.680057
_cell_angle_alpha 90.000000
_cell_angle_beta 117.112768
_cell_angle_gamma 90.000000
_cell_volume 1419.748391
_symmetry_space_group_name_H-M "P 21/M"
_symmetry_group_IT_number 11
_symmetry_cell_setting 'monoclinic'
loop_
_space_group_symop_operation_xyz
x,y,z
-x,1/2+y,-z
-x,-y,-z
x,1/2-y,z
loop_
_atom_site_type_symbol
_atom_site_label
_atom_site_fract_x
_atom_site_fract_y
_atom_site_fract_z
Si Si1 0.921993 0.923023 0.054164
Si Si2 0.735433 0.848936 0.810090
Si Si3 0.208443 0.646765 0.291214
Si Si4 0.341089 0.513243 0.868484
Si Si5 0.054851 0.649644 0.751063
Si Si6 0.132414 0.501465 0.440942
Si Si7 0.486412 0.485391 0.680977
O O1 0.080039 0.864689 0.150575
O O2 0.825331 0.964541 0.126385
O O3 0.772309 0.870683 0.942944
O O4 0.000000 0.000000 0.000000
O O5 0.660358 0.750000 0.770665
O O6 0.936073 0.849604 0.821533
O O7 0.614130 0.927069 0.725172
O O8 0.228295 0.750000 0.324221
O O9 0.131754 0.588073 0.365519
O O10 0.391763 0.598253 0.312481
O O11 0.255065 0.611111 0.825556
O O12 0.401145 0.478249 0.772390
O O13 0.500000 0.500000 0.000000
O O14 0.060636 0.750000 0.711319
O O15 0.937297 0.583475 0.644691
O O16 0.331128 0.494621 0.548387
O O17 0.000000 0.500000 0.500000
#
# Coordination Sequence:
#
# PCOD9167438 Si02
#       7
#     4   4   4   4   4   4   4
#     4  12  19  43  69  92 132 176 219 273 345 397
#     4  11  23  40  68  98 129 174 225 273 332 403
#     4  12  26  44  68 100 134 180 227 277 338 403
#     4  12  22  41  70  97 133 173 213 275 341 392
#     4  11  24  44  70  98 130 176 229 270 328 401
#     4  12  24  47  70  95 133 178 222 277 336 390
#     4  12  24  43  69  95 137 175 221 276 334 399
#
# _framework density 19.721806000000001
#
# number of rings (size 3 to 8) (size 9 to 14) (size 15 to 20)
#    0.000    0.286    8.571    0.857    0.000    2.286 
#    0.000    2.857    0.000    0.000    0.000    0.000 
#    0.000    0.000    0.000    0.000    0.000    0.000 
#
# Total GULP energy -156317.148120 kJ/mol
# GULP energy per Si atom -5582.755290 kJ/mol
# Density = 1.967692 g / cm^3
# Si number density = 19.721806 Si / 1000 Ang^3
#
#
#
# Elastic Constant Matrix: (Units=GPa)
#
#
# Indices 1 2 3 4 5 6 
#
# 1 96.8397 55.8036 26.0389 0.0000 -7.5494 0.0000
# 2 55.8036 176.3980 69.7495 0.0000 4.1481 0.0000
# 3 26.0389 69.7495 117.8482 0.0000 22.0913 0.0000
# 4 0.0000 0.0000 0.0000 8.8472 0.0000 1.5342
# 5 -7.5494 4.1481 22.0913 0.0000 54.2516 0.0000
# 6 0.0000 0.0000 0.0000 1.5342 0.0000 20.1484
#
#
#
# Elastic Compliance Matrix: (Units=1/GPa)
#
#
# Indices 1 2 3 4 5 6 
#
# 1 0.012972 -0.003709 -0.001150 0.000000 0.002557 0.000000
# 2 -0.003709 0.008550 -0.004354 0.000000 0.000603 0.000000
# 3 -0.001150 -0.004354 0.012217 0.000000 -0.004802 0.000000
# 4 0.000000 0.000000 0.000000 0.114543 0.000000 -0.008722
# 5 0.002557 0.000603 -0.004802 0.000000 0.020698 0.000000
# 6 0.000000 0.000000 0.000000 -0.008722 0.000000 0.050296
#
#
# Mechanical properties :
#
#
# Convention : Reuss Voigt Hill
#
# Bulk Modulus (GPa) = 65.30708 77.14111 71.22409
# Shear Modulus (GPa) = 20.59263 32.61571 26.60417
#
# Velocity S-wave (km/s) = 3.23485 4.07109 3.67682
# Velocity P-wave (km/s) = 6.86574 7.82930 7.36330
#
# Compressibility (1/GPa) = 0.01531228
#
# Stress axis : x y z
#
# Youngs Moduli (GPa) = 77.08694 116.96335 81.85590
#
# Poissons Ratio (x) = 0.43383 0.09417
# Poissons Ratio (y) = 0.28592 0.35638
# Poissons Ratio (z) = 0.08868 0.50922
#
# Static dielectric constant tensor:
#      x y z
#    x 1.752700 0.000000 -0.043710 
#    y 0.000000 1.720720 0.000000 
#    z -0.043710 0.000000 1.737720 
# 
# From -- ./inp_files/31960.got.cif
#   From: 2010.05.17/outbox.cif.g08.bks.cpg/sg11_16_cif.got.tgz:31960.got - 2010.06.03 12:22:45.
