data_PCOD9167191
_publ_section_title
;
Structure prediction by ZEFSAII (Michael W. Deem and Ramdas Pophale) SiO2 
 PCOD9167191
Probable space group: P 21/M
;
_chemical_formula_sum "Si O2"
_cell_formula_units_Z 24
_cell_length_a 21.111414
_cell_length_b 7.519028
_cell_length_c 14.520352
_cell_angle_alpha 90.000000
_cell_angle_beta 156.381058
_cell_angle_gamma 90.000000
_cell_volume 923.471382
_symmetry_space_group_name_H-M "P 21/M"
_symmetry_group_IT_number 11
_symmetry_cell_setting 'monoclinic'
loop_
_space_group_symop_operation_xyz
x,y,z
-x,1/2+y,-z
-x,-y,-z
x,1/2-y,z
loop_
_atom_site_type_symbol
_atom_site_label
_atom_site_fract_x
_atom_site_fract_y
_atom_site_fract_z
Si Si1 0.181629 0.467334 0.649142
Si Si2 0.013300 0.046462 0.125748
Si Si3 0.331766 0.460069 0.322676
Si Si4 0.833974 0.048201 0.159639
Si Si5 0.501607 0.468046 0.723600
Si Si6 0.312706 0.032268 0.639714
O O1 0.179187 0.250000 0.655300
O O2 0.193399 0.547279 0.765908
O O3 0.304591 0.523335 0.734945
O O4 0.008427 0.525161 0.380393
O O5 0.058174 0.250000 0.184122
O O6 0.153712 0.967020 0.374622
O O7 0.837755 0.029990 0.935321
O O8 0.000000 0.000000 0.000000
O O9 0.500000 0.500000 0.500000
O O10 0.312396 0.250000 0.297466
O O11 0.363814 0.521525 0.470372
O O12 0.840078 0.250000 0.133281
O O13 0.669504 0.964006 0.909159
O O14 0.509362 0.250000 0.732684
O O15 0.456260 0.525211 0.765682
O O16 0.314612 0.250000 0.644908
#
# Coordination Sequence:
#
# PCOD9167191 Si02
#       6
#     4   4   4   4   4   4
#     4   9  18  33  54  77 102 136 179 221 268 325
#     4  11  21  37  60  84 115 152 189 231 278 333
#     4  11  23  39  58  84 115 150 191 234 281 333
#     4   9  18  33  54  76 103 138 177 221 269 322
#     4   9  18  34  55  78 106 142 182 221 268 332
#     4   9  18  33  55  80 105 142 184 219 266 332
#
# _framework density 25.988893999999998
#
# number of rings (size 3 to 8) (size 9 to 14) (size 15 to 20)
#    0.000    2.333    1.667    1.000    2.333    0.667 
#    0.000    3.333    0.000    0.000    0.000    0.000 
#    0.000    0.000    0.000    0.000    0.000    0.000 
#
# Total GULP energy -134081.932028 kJ/mol
# GULP energy per Si atom -5586.747168 kJ/mol
# Density = 2.592974 g / cm^3
# Si number density = 25.988894 Si / 1000 Ang^3
#
#
#
# Elastic Constant Matrix: (Units=GPa)
#
#
# Indices 1 2 3 4 5 6 
#
# 1 106.3751 -2.7907 -12.0303 0.0000 18.8976 0.0000
# 2 -2.7907 75.1864 -14.9999 0.0000 -7.6704 0.0000
# 3 -12.0303 -14.9999 92.5810 0.0000 9.9044 0.0000
# 4 0.0000 0.0000 0.0000 11.8110 0.0000 0.2888
# 5 18.8976 -7.6704 9.9044 0.0000 34.1518 0.0000
# 6 0.0000 0.0000 0.0000 0.2888 0.0000 18.7318
#
#
#
# Elastic Compliance Matrix: (Units=1/GPa)
#
#
# Indices 1 2 3 4 5 6 
#
# 1 0.010813 0.000157 0.002133 0.000000 -0.006566 0.000000
# 2 0.000157 0.013960 0.002019 0.000000 0.002463 0.000000
# 3 0.002133 0.002019 0.011851 0.000000 -0.004164 0.000000
# 4 0.000000 0.000000 0.000000 0.084698 0.000000 -0.001306
# 5 -0.006566 0.002463 -0.004164 0.000000 0.034675 0.000000
# 6 0.000000 0.000000 0.000000 -0.001306 0.000000 0.053405
#
#
# Mechanical properties :
#
#
# Convention : Reuss Voigt Hill
#
# Bulk Modulus (GPa) = 22.10391 23.83341 22.96866
# Shear Modulus (GPa) = 23.16256 33.20317 28.18287
#
# Velocity S-wave (km/s) = 2.98862 3.57822 3.29663
# Velocity P-wave (km/s) = 4.52026 5.12465 4.83191
#
# Compressibility (1/GPa) = 0.04524087
#
# Stress axis : x y z
#
# Youngs Moduli (GPa) = 92.48517 71.63266 84.38086
#
# Poissons Ratio (x) = -0.01124 -0.17998
# Poissons Ratio (y) = -0.01452 -0.17034
# Poissons Ratio (z) = -0.19726 -0.14460
#
# Static dielectric constant tensor:
#      x y z
#    x 2.052020 0.000000 -0.041060 
#    y 0.000000 1.965500 0.000000 
#    z -0.041060 0.000000 2.119900 
# 
# From -- ./inp_files/25943.got.cif
#   From: 2010.05.17/outbox.cif.g08.bks.cpg/sg11_13_cif.got.tgz:25943.got - 2010.06.03 12:22:45.
