data_PCOD9167332
_publ_section_title
;
Structure prediction by ZEFSAII (Michael W. Deem and Ramdas Pophale) SiO2 
 PCOD9167332
Probable space group: P 21/M
;
_chemical_formula_sum "Si O2"
_cell_formula_units_Z 28
_cell_length_a 9.454644
_cell_length_b 14.484343
_cell_length_c 11.950730
_cell_angle_alpha 90.000000
_cell_angle_beta 65.374039
_cell_angle_gamma 90.000000
_cell_volume 1487.732819
_symmetry_space_group_name_H-M "P 21/M"
_symmetry_group_IT_number 11
_symmetry_cell_setting 'monoclinic'
loop_
_space_group_symop_operation_xyz
x,y,z
-x,1/2+y,-z
-x,-y,-z
x,1/2-y,z
loop_
_atom_site_type_symbol
_atom_site_label
_atom_site_fract_x
_atom_site_fract_y
_atom_site_fract_z
Si Si1 0.066245 0.507427 0.353908
Si Si2 0.490676 0.509156 0.636057
Si Si3 0.559384 0.895785 0.996596
Si Si4 0.869179 0.497168 0.202194
Si Si5 0.320764 0.145856 0.278402
Si Si6 0.655545 0.146000 0.728101
Si Si7 0.103057 0.138892 0.003182
O O1 0.172414 0.417185 0.298306
O O2 0.181524 0.594424 0.307112
O O3 0.000000 0.500000 0.500000
O O4 0.933793 0.512781 0.305012
O O5 0.500000 0.500000 0.500000
O O6 0.313493 0.521736 0.732759
O O7 0.591466 0.593863 0.650583
O O8 0.560121 0.418258 0.673556
O O9 0.439809 0.853185 0.124360
O O10 0.731120 0.886001 0.993902
O O11 0.572337 0.855218 0.867987
O O12 0.500000 0.000000 0.000000
O O13 0.896951 0.587812 0.116808
O O14 0.966150 0.412451 0.116590
O O15 0.277717 0.250000 0.320246
O O16 0.674307 0.250000 0.680842
O O17 0.087778 0.250000 0.003689
#
# Coordination Sequence:
#
# PCOD9167332 Si02
#       7
#     4   4   4   4   4   4   4
#     4  11  24  43  63  89 127 169 213 260 311 370
#     4  11  24  43  63  89 127 169 213 260 311 370
#     4  12  19  40  67  95 126 162 206 264 324 380
#     4  11  22  40  64  92 128 165 206 256 322 383
#     4  11  23  41  67  94 122 164 214 261 314 376
#     4  11  23  41  67  94 122 164 214 261 314 376
#     4  11  23  38  62  95 129 163 201 261 327 379
#
# _framework density 18.820585000000001
#
# number of rings (size 3 to 8) (size 9 to 14) (size 15 to 20)
#    0.000    0.857    5.714    3.000    0.000    3.429 
#    0.000    2.857    0.000    0.000    0.000    0.000 
#    0.000    0.000    0.000    0.000    0.000    0.000 
#
# Total GULP energy -156446.859732 kJ/mol
# GULP energy per Si atom -5587.387848 kJ/mol
# Density = 1.877775 g / cm^3
# Si number density = 18.820585 Si / 1000 Ang^3
#
#
#
# Elastic Constant Matrix: (Units=GPa)
#
#
# Indices 1 2 3 4 5 6 
#
# 1 60.6506 31.7705 -21.0985 0.0000 14.9608 0.0000
# 2 31.7705 155.2944 13.7622 0.0000 0.8046 0.0000
# 3 -21.0985 13.7622 62.0675 0.0000 22.5987 0.0000
# 4 0.0000 0.0000 0.0000 -7.1471 0.0000 3.2663
# 5 14.9608 0.8046 22.5987 0.0000 41.1257 0.0000
# 6 0.0000 0.0000 0.0000 3.2663 0.0000 -0.9330
#
#
#
# Elastic Compliance Matrix: (Units=1/GPa)
#
#
# Indices 1 2 3 4 5 6 
#
# 1 0.036114 -0.009366 0.023839 0.000000 -0.026054 0.000000
# 2 -0.009366 0.009021 -0.007951 0.000000 0.007600 0.000000
# 3 0.023839 -0.007951 0.036352 0.000000 -0.028492 0.000000
# 4 0.000000 0.000000 0.000000 0.233253 0.000000 0.816546
# 5 -0.026054 0.007600 -0.028492 0.000000 0.049302 0.000000
# 6 0.000000 0.000000 0.000000 0.816546 0.000000 1.786713
#
#
# Mechanical properties :
#
#
# Convention : Reuss Voigt Hill
#
# Bulk Modulus (GPa) = 10.57857 36.32011 23.44934
# Shear Modulus (GPa) = 2.30498 23.51432 12.90965
#
# Velocity S-wave (km/s) = 1.10787 3.53851 2.62187
# Velocity P-wave (km/s) = 2.69619 6.00289 4.65318
#
# Compressibility (1/GPa) = 0.09453074
#
# Stress axis : x y z
#
# Youngs Moduli (GPa) = 27.69038 110.85610 27.50878
#
# Poissons Ratio (x) = 1.03826 -0.65578
# Poissons Ratio (y) = 0.25934 0.21872
# Poissons Ratio (z) = -0.66011 0.88141
#
# Static dielectric constant tensor:
#      x y z
#    x 1.635150 0.000000 -0.002720 
#    y 0.000000 1.653830 0.000000 
#    z -0.002720 0.000000 1.660230 
# 
# From -- ./inp_files/24923.got.cif
#   From: 2010.05.17/outbox.cif.g08.bks.cpg/sg11_13_cif.got.tgz:24923.got - 2010.06.03 12:22:45.
