data_PCOD9167420
_publ_section_title
;
Structure prediction by ZEFSAII (Michael W. Deem and Ramdas Pophale) SiO2 
 PCOD9167420
Probable space group: P 21/M
;
_chemical_formula_sum "Si O2"
_cell_formula_units_Z 28
_cell_length_a 7.835787
_cell_length_b 25.788980
_cell_length_c 9.042694
_cell_angle_alpha 90.000000
_cell_angle_beta 130.372232
_cell_angle_gamma 90.000000
_cell_volume 1392.148037
_symmetry_space_group_name_H-M "P 21/M"
_symmetry_group_IT_number 11
_symmetry_cell_setting 'monoclinic'
loop_
_space_group_symop_operation_xyz
x,y,z
-x,1/2+y,-z
-x,-y,-z
x,1/2-y,z
loop_
_atom_site_type_symbol
_atom_site_label
_atom_site_fract_x
_atom_site_fract_y
_atom_site_fract_z
Si Si1 0.328710 0.033833 0.499607
Si Si2 0.625163 0.426071 0.938353
Si Si3 0.399296 0.310704 0.264456
Si Si4 0.941959 0.516138 0.140045
Si Si5 0.230445 0.126975 0.892177
Si Si6 0.905682 0.186760 0.488753
Si Si7 0.044699 0.135014 0.257216
O O1 0.475731 0.054693 0.717174
O O2 0.205279 0.085024 0.369073
O O3 0.500000 0.000000 0.500000
O O4 0.117101 0.995058 0.371337
O O5 0.452834 0.396637 0.945164
O O6 0.734266 0.478861 0.061266
O O7 0.837101 0.386517 0.041458
O O8 0.403431 0.250000 0.245453
O O9 0.661178 0.326308 0.421358
O O10 0.220809 0.324283 0.290527
O O11 0.300646 0.337822 0.066158
O O12 0.898637 0.576741 0.119987
O O13 0.000000 0.500000 0.000000
O O14 0.090618 0.160669 0.697433
O O15 0.926853 0.250000 0.490167
O O16 0.939996 0.159162 0.348340
#
# Coordination Sequence:
#
# PCOD9167420 Si02
#       7
#     4   4   4   4   4   4   4
#     4  11  23  39  65  99 139 176 223 276 335 399
#     4  11  23  42  65 101 129 182 223 271 339 410
#     4  11  26  45  70  99 131 177 228 287 345 401
#     4  11  24  40  64  99 137 182 228 271 331 418
#     4  12  24  44  70  96 140 178 228 282 340 406
#     4  11  25  47  71 102 134 174 234 292 345 410
#     4  11  24  46  72  99 136 181 227 278 352 411
#
# _framework density 20.112805000000002
#
# number of rings (size 3 to 8) (size 9 to 14) (size 15 to 20)
#    0.000    0.857    4.286    3.000    2.000    0.571 
#    0.000    0.000    0.000    0.000    0.000    0.000 
#    0.000    0.000    0.000    0.000    0.000    0.000 
#
# Total GULP energy -156044.893834 kJ/mol
# GULP energy per Si atom -5573.031923 kJ/mol
# Density = 2.006703 g / cm^3
# Si number density = 20.112805 Si / 1000 Ang^3
#
#
#
# Elastic Constant Matrix: (Units=GPa)
#
#
# Indices 1 2 3 4 5 6 
#
# 1 84.5339 21.5995 25.6270 0.0000 13.3655 0.0000
# 2 21.5995 92.0325 18.0772 0.0000 17.2992 0.0000
# 3 25.6270 18.0772 89.1440 0.0000 34.6735 0.0000
# 4 0.0000 0.0000 0.0000 40.8406 0.0000 15.4762
# 5 13.3655 17.2992 34.6735 0.0000 20.0324 0.0000
# 6 0.0000 0.0000 0.0000 15.4762 0.0000 27.7137
#
#
#
# Elastic Compliance Matrix: (Units=1/GPa)
#
#
# Indices 1 2 3 4 5 6 
#
# 1 0.013567 -0.002079 -0.002008 0.000000 -0.003781 0.000000
# 2 -0.002079 0.014157 0.005945 0.000000 -0.021128 0.000000
# 3 -0.002008 0.005945 0.036924 0.000000 -0.067704 0.000000
# 4 0.000000 0.000000 0.000000 0.031058 0.000000 -0.017344
# 5 -0.003781 -0.021128 -0.067704 0.000000 0.187873 0.000000
# 6 0.000000 0.000000 0.000000 -0.017344 0.000000 0.045769
#
#
# Mechanical properties :
#
#
# Convention : Reuss Voigt Hill
#
# Bulk Modulus (GPa) = 14.62761 44.03531 29.33146
# Shear Modulus (GPa) = 14.35047 31.07780 22.71414
#
# Velocity S-wave (km/s) = 2.67404 3.93514 3.36421
# Velocity P-wave (km/s) = 4.10153 6.52601 5.45029
#
# Compressibility (1/GPa) = 0.06836385
#
# Stress axis : x y z
#
# Youngs Moduli (GPa) = 73.70634 70.63422 27.08293
#
# Poissons Ratio (x) = 0.14685 0.05439
# Poissons Ratio (y) = 0.15324 -0.16100
# Poissons Ratio (z) = 0.14801 -0.41991
#
# Static dielectric constant tensor:
#      x y z
#    x 1.847810 0.000000 0.141910 
#    y 0.000000 1.650890 0.000000 
#    z 0.141910 0.000000 1.907260 
# 
# From -- ./inp_files/15297.got.cif
#   From: 2010.05.17/outbox.cif.g08.bks.cpg/sg11_8_cif.got.tgz:15297.got - 2010.06.03 12:22:45.
