data_PCOD9167150
_publ_section_title
;
Structure prediction by ZEFSAII (Michael W. Deem and Ramdas Pophale) SiO2 
 PCOD9167150
Probable space group: P 21/M
;
_chemical_formula_sum "Si O2"
_cell_formula_units_Z 28
_cell_length_a 11.100449
_cell_length_b 8.902862
_cell_length_c 15.389207
_cell_angle_alpha 90.000000
_cell_angle_beta 63.836103
_cell_angle_gamma 90.000000
_cell_volume 1365.018368
_symmetry_space_group_name_H-M "P 21/M"
_symmetry_group_IT_number 11
_symmetry_cell_setting 'monoclinic'
loop_
_space_group_symop_operation_xyz
x,y,z
-x,1/2+y,-z
-x,-y,-z
x,1/2-y,z
loop_
_atom_site_type_symbol
_atom_site_label
_atom_site_fract_x
_atom_site_fract_y
_atom_site_fract_z
Si Si1 0.343029 0.575071 0.409483
Si Si2 0.914739 0.072059 0.949892
Si Si3 0.081547 0.426369 0.231325
Si Si4 0.150797 0.070816 0.602821
Si Si5 0.347141 0.922728 0.199184
Si Si6 0.644149 0.932281 0.310981
Si Si7 0.343587 0.430346 0.894526
O O1 0.330779 0.750000 0.440233
O O2 0.228856 0.480421 0.492334
O O3 0.335923 0.571434 0.307466
O O4 0.493400 0.518500 0.383944
O O5 0.927397 0.250000 0.947345
O O6 0.962795 0.008876 0.842636
O O7 0.762400 0.019100 0.014618
O O8 0.000000 0.000000 0.000000
O O9 0.062785 0.250000 0.229571
O O10 0.236623 0.468087 0.196018
O O11 0.991723 0.492724 0.337410
O O12 0.135084 0.250000 0.610154
O O13 0.246776 0.022140 0.652961
O O14 0.318465 0.750000 0.181339
O O15 0.501882 0.957570 0.129122
O O16 0.639867 0.750000 0.311513
O O17 0.673169 0.975362 0.201906
O O18 0.319634 0.250000 0.908228
#
# Coordination Sequence:
#
# PCOD9167150 Si02
#       7
#     4   4   4   4   4   4   4
#     4   9  18  35  58  84 115 151 192 236 286 345
#     4  12  25  42  64  91 122 153 189 233 285 345
#     4  12  26  42  60  83 114 153 197 245 293 345
#     4  11  21  34  55  84 118 155 194 239 294 348
#     4   9  20  40  63  86 115 153 197 244 291 342
#     4   8  16  32  56  85 116 150 187 233 286 342
#     4   9  18  37  64  89 116 153 195 240 292 344
#
# _framework density 20.512544999999999
#
# number of rings (size 3 to 8) (size 9 to 14) (size 15 to 20)
#    0.000    2.000    0.000    6.000    0.000    3.429 
#    0.000    3.571    0.000    0.000    0.000    0.000 
#    0.000    0.000    0.000    0.000    0.000    0.000 
#
# Total GULP energy -156525.183534 kJ/mol
# GULP energy per Si atom -5590.185126 kJ/mol
# Density = 2.046586 g / cm^3
# Si number density = 20.512545 Si / 1000 Ang^3
#
#
#
# Elastic Constant Matrix: (Units=GPa)
#
#
# Indices 1 2 3 4 5 6 
#
# 1 50.1938 37.1759 9.1162 0.0000 -10.4575 0.0000
# 2 37.1759 103.7965 31.1398 0.0000 -17.2352 0.0000
# 3 9.1162 31.1398 69.9931 0.0000 -28.1875 0.0000
# 4 0.0000 0.0000 0.0000 30.7560 0.0000 -2.7492
# 5 -10.4575 -17.2352 -28.1875 0.0000 23.1373 0.0000
# 6 0.0000 0.0000 0.0000 -2.7492 0.0000 28.6982
#
#
#
# Elastic Compliance Matrix: (Units=1/GPa)
#
#
# Indices 1 2 3 4 5 6 
#
# 1 0.028907 -0.009983 0.005778 0.000000 0.012668 0.000000
# 2 -0.009983 0.014802 -0.005226 0.000000 0.000148 0.000000
# 3 0.005778 -0.005226 0.030122 0.000000 0.035416 0.000000
# 4 0.000000 0.000000 0.000000 0.032795 0.000000 0.003142
# 5 0.012668 0.000148 0.035416 0.000000 0.092202 0.000000
# 6 0.000000 0.000000 0.000000 0.003142 0.000000 0.035146
#
#
# Mechanical properties :
#
#
# Convention : Reuss Voigt Hill
#
# Bulk Modulus (GPa) = 18.19200 42.09414 30.14307
# Shear Modulus (GPa) = 18.43942 26.28839 22.36391
#
# Velocity S-wave (km/s) = 3.00148 3.58379 3.30548
# Velocity P-wave (km/s) = 4.57163 6.13926 5.41250
#
# Compressibility (1/GPa) = 0.05496920
#
# Stress axis : x y z
#
# Youngs Moduli (GPa) = 34.59411 67.55771 33.19841
#
# Poissons Ratio (x) = 0.67445 -0.19183
# Poissons Ratio (y) = 0.34536 0.17348
# Poissons Ratio (z) = -0.19989 0.35303
#
# Static dielectric constant tensor:
#      x y z
#    x 1.762180 0.000000 0.002550 
#    y 0.000000 1.673080 0.000000 
#    z 0.002550 0.000000 1.721450 
# 
# From -- ./inp_files/37654.got.cif
#   From: 2010.05.17/outbox.cif.g08.bks.cpg/sg11_19_cif.got.tgz:37654.got - 2010.06.03 12:22:45.
