data_PCOD9167204
_publ_section_title
;
Structure prediction by ZEFSAII (Michael W. Deem and Ramdas Pophale) SiO2 
 PCOD9167204
Probable space group: P 21/M
;
_chemical_formula_sum "Si O2"
_cell_formula_units_Z 28
_cell_length_a 31.113033
_cell_length_b 8.280925
_cell_length_c 9.678751
_cell_angle_alpha 90.000000
_cell_angle_beta 147.354134
_cell_angle_gamma 90.000000
_cell_volume 1345.202591
_symmetry_space_group_name_H-M "P 21/M"
_symmetry_group_IT_number 11
_symmetry_cell_setting 'monoclinic'
loop_
_space_group_symop_operation_xyz
x,y,z
-x,1/2+y,-z
-x,-y,-z
x,1/2-y,z
loop_
_atom_site_type_symbol
_atom_site_label
_atom_site_fract_x
_atom_site_fract_y
_atom_site_fract_z
Si Si1 0.580368 0.436768 0.548041
Si Si2 0.813902 0.946286 0.912222
Si Si3 0.583035 0.061978 0.976846
Si Si4 0.294877 0.439216 0.899340
Si Si5 0.981474 0.943330 0.293205
Si Si6 0.146106 0.055906 0.666377
Si Si7 0.365673 0.058658 0.598014
O O1 0.588294 0.250000 0.610167
O O2 0.488893 0.491385 0.308838
O O3 0.642510 0.539274 0.805618
O O4 0.602807 0.463770 0.448797
O O5 0.816008 0.750000 0.920284
O O6 0.726290 0.992206 0.627185
O O7 0.827080 0.000700 0.107244
O O8 0.889827 0.997650 0.026023
O O9 0.568623 0.250000 0.958981
O O10 0.665323 0.031196 0.119771
O O11 0.586538 0.975893 0.133815
O O12 0.288508 0.250000 0.846001
O O13 0.209937 0.500015 0.726116
O O14 0.984230 0.750000 0.295301
O O15 0.054045 0.008773 0.398611
O O16 0.000000 0.000000 0.500000
O O17 0.151133 0.250000 0.682302
O O18 0.367963 0.250000 0.572742
#
# Coordination Sequence:
#
# PCOD9167204 Si02
#       7
#     4   4   4   4   4   4   4
#     4  12  24  40  61  87 113 145 189 236 285 335
#     4   8  15  30  52  79 110 144 180 223 275 326
#     4  12  26  42  57  82 115 149 189 236 287 339
#     4  11  22  40  62  84 113 151 190 233 284 339
#     4   9  16  27  46  77 112 145 179 223 275 325
#     4   9  17  32  53  80 111 144 181 225 278 331
#     4  11  21  39  62  84 113 152 191 233 282 336
#
# _framework density 20.814708
#
# number of rings (size 3 to 8) (size 9 to 14) (size 15 to 20)
#    0.000    1.714    1.429    5.571    0.000    1.143 
#    0.000    2.143    0.000    0.857    0.000    0.000 
#    0.000    0.000    0.000    0.000    0.000    0.000 
#
# Total GULP energy -156385.882258 kJ/mol
# GULP energy per Si atom -5585.210081 kJ/mol
# Density = 2.076733 g / cm^3
# Si number density = 20.814708 Si / 1000 Ang^3
#
#
#
# Elastic Constant Matrix: (Units=GPa)
#
#
# Indices 1 2 3 4 5 6 
#
# 1 83.5631 -5.6364 15.9862 0.0000 30.4639 0.0000
# 2 -5.6364 34.4327 -1.9615 0.0000 8.3186 0.0000
# 3 15.9862 -1.9615 40.7798 0.0000 22.2001 0.0000
# 4 0.0000 0.0000 0.0000 20.3380 0.0000 4.2045
# 5 30.4639 8.3186 22.2001 0.0000 38.9286 0.0000
# 6 0.0000 0.0000 0.0000 4.2045 0.0000 30.3109
#
#
#
# Elastic Compliance Matrix: (Units=1/GPa)
#
#
# Indices 1 2 3 4 5 6 
#
# 1 0.018301 0.007352 0.002656 0.000000 -0.017407 0.000000
# 2 0.007352 0.035154 0.008745 0.000000 -0.018253 0.000000
# 3 0.002656 0.008745 0.037779 0.000000 -0.025491 0.000000
# 4 0.000000 0.000000 0.000000 0.050621 0.000000 -0.007022
# 5 -0.017407 -0.018253 -0.025491 0.000000 0.057747 0.000000
# 6 0.000000 0.000000 0.000000 -0.007022 0.000000 0.033965
#
#
# Mechanical properties :
#
#
# Convention : Reuss Voigt Hill
#
# Bulk Modulus (GPa) = 7.76762 19.50580 13.63671
# Shear Modulus (GPa) = 20.92286 27.94135 24.43211
#
# Velocity S-wave (km/s) = 3.17392 3.66783 3.42978
# Velocity P-wave (km/s) = 4.14386 5.22770 4.71701
#
# Compressibility (1/GPa) = 0.12873958
#
# Stress axis : x y z
#
# Youngs Moduli (GPa) = 54.64243 28.44666 26.46996
#
# Poissons Ratio (x) = -0.20915 -0.07030
# Poissons Ratio (y) = -0.40175 -0.23149
# Poissons Ratio (z) = -0.14511 -0.24877
#
# Static dielectric constant tensor:
#      x y z
#    x 1.774940 0.000000 0.044170 
#    y 0.000000 1.707530 0.000000 
#    z 0.044170 0.000000 1.734640 
# 
# From -- ./inp_files/28644.got.cif
#   From: 2010.05.17/outbox.cif.g08.bks.cpg/sg11_15_cif.got.tgz:28644.got - 2010.06.03 12:22:45.
