data_PCOD9167467
_publ_section_title
;
Structure prediction by ZEFSAII (Michael W. Deem and Ramdas Pophale) SiO2 
 PCOD9167467
Probable space group: P 21/M
;
_chemical_formula_sum "Si O2"
_cell_formula_units_Z 20
_cell_length_a 7.098393
_cell_length_b 25.729541
_cell_length_c 7.153365
_cell_angle_alpha 90.000000
_cell_angle_beta 140.512191
_cell_angle_gamma 90.000000
_cell_volume 830.808379
_symmetry_space_group_name_H-M "P 21/M"
_symmetry_group_IT_number 11
_symmetry_cell_setting 'monoclinic'
loop_
_space_group_symop_operation_xyz
x,y,z
-x,1/2+y,-z
-x,-y,-z
x,1/2-y,z
loop_
_atom_site_type_symbol
_atom_site_label
_atom_site_fract_x
_atom_site_fract_y
_atom_site_fract_z
Si Si1 0.745796 0.555322 0.847613
Si Si2 0.236458 0.143261 0.662836
Si Si3 0.726971 0.525763 0.401773
Si Si4 0.781505 0.373914 0.631231
Si Si5 0.829366 0.189384 0.045373
O O1 0.443099 0.487953 0.187095
O O2 0.535025 0.606326 0.681039
O O3 0.794842 0.536979 0.672689
O O4 0.051511 0.573754 0.170772
O O5 0.334682 0.082960 0.728972
O O6 0.982861 0.148583 0.622262
O O7 0.085097 0.159554 0.352288
O O8 0.520572 0.178568 0.914883
O O9 0.000000 0.500000 0.500000
O O10 0.777038 0.335617 0.802538
O O11 0.896818 0.250000 0.086993
#
# Coordination Sequence:
#
# PCOD9167467 Si02
#       5
#     4   4   4   4   4
#     4  11  25  41  68 103 146 184 223 272 341 409
#     4  12  26  46  73 104 140 180 235 281 350 416
#     4  11  23  43  68 108 142 189 224 274 339 425
#     4  12  24  47  70 102 138 182 230 286 338 415
#     4  12  27  49  72  98 135 181 234 299 349 400
#
# _framework density 24.072937
#
# number of rings (size 3 to 8) (size 9 to 14) (size 15 to 20)
#    0.000    0.400    6.000    1.800    0.000    7.200 
#    0.000    0.000    0.000    0.000    0.000    0.000 
#    0.000    0.000    0.000    0.000    0.000    0.000 
#
# Total GULP energy -112265.078322 kJ/mol
# GULP energy per Si atom -5613.253916 kJ/mol
# Density = 2.401815 g / cm^3
# Si number density = 24.072937 Si / 1000 Ang^3
#
#
#
# Elastic Constant Matrix: (Units=GPa)
#
#
# Indices 1 2 3 4 5 6 
#
# 1 136.3023 28.6778 -0.1441 0.0000 5.6776 0.0000
# 2 28.6778 120.9714 3.4339 0.0000 -3.1306 0.0000
# 3 -0.1441 3.4339 67.7079 0.0000 4.1840 0.0000
# 4 0.0000 0.0000 0.0000 16.3871 0.0000 7.7592
# 5 5.6776 -3.1306 4.1840 0.0000 29.2184 0.0000
# 6 0.0000 0.0000 0.0000 7.7592 0.0000 27.9196
#
#
#
# Elastic Compliance Matrix: (Units=1/GPa)
#
#
# Indices 1 2 3 4 5 6 
#
# 1 0.007810 -0.001903 0.000221 0.000000 -0.001753 0.000000
# 2 -0.001903 0.008769 -0.000534 0.000000 0.001386 0.000000
# 3 0.000221 -0.000534 0.014935 0.000000 -0.002239 0.000000
# 4 0.000000 0.000000 0.000000 0.070271 0.000000 -0.019529
# 5 -0.001753 0.001386 -0.002239 0.000000 0.035035 0.000000
# 6 0.000000 0.000000 0.000000 -0.019529 0.000000 0.041245
#
#
# Mechanical properties :
#
#
# Convention : Reuss Voigt Hill
#
# Bulk Modulus (GPa) = 36.92488 43.21297 40.06892
# Shear Modulus (GPa) = 26.10642 34.23927 30.17284
#
# Velocity S-wave (km/s) = 3.29670 3.77545 3.54417
# Velocity P-wave (km/s) = 5.46471 6.08237 5.78179
#
# Compressibility (1/GPa) = 0.02708201
#
# Stress axis : x y z
#
# Youngs Moduli (GPa) = 128.03549 114.04288 66.95560
#
# Poissons Ratio (x) = 0.21705 -0.01483
# Poissons Ratio (y) = 0.24368 0.03578
# Poissons Ratio (z) = -0.02836 0.06094
#
# Static dielectric constant tensor:
#      x y z
#    x 1.932850 0.000000 -0.032850 
#    y 0.000000 1.887400 0.000000 
#    z -0.032850 0.000000 1.901340 
# 
# From -- ./inp_files/15109.got.cif
#   From: 2010.05.17/outbox.cif.g08.bks.cpg/sg11_8_cif.got.tgz:15109.got - 2010.06.03 12:22:45.
