data_PCOD9167743
_publ_section_title
;
Structure prediction by ZEFSAII (Michael W. Deem and Ramdas Pophale) SiO2 
 PCOD9167743
Probable space group: P 21/M
;
_chemical_formula_sum "Si O2"
_cell_formula_units_Z 26
_cell_length_a 21.000000
_cell_length_b 12.000000
_cell_length_c 15.000000
_cell_angle_alpha 90.000000
_cell_angle_beta 160.000000
_cell_angle_gamma 90.000000
_cell_volume 1292.836142
_symmetry_space_group_name_H-M "P 21/M"
_symmetry_group_IT_number 11
_symmetry_cell_setting 'monoclinic'
loop_
_space_group_symop_operation_xyz
x,y,z
-x,1/2+y,-z
-x,-y,-z
x,1/2-y,z
loop_
_atom_site_type_symbol
_atom_site_label
_atom_site_fract_x
_atom_site_fract_y
_atom_site_fract_z
Si Si1 0.723506 0.750000 0.563642
Si Si2 0.210831 0.024240 0.246634
Si Si3 0.034562 0.541684 0.684605
Si Si4 0.918089 0.750000 0.639874
Si Si5 0.505336 0.250000 0.906957
Si Si6 0.358238 0.618300 0.591748
Si Si7 0.688229 0.474597 0.112682
Si Si8 0.942136 0.882304 0.127087
O O1 0.731505 0.640531 0.632587
O O2 0.893003 0.750000 0.714061
O O3 0.544684 0.750000 0.264561
O O4 0.334064 0.931171 0.459396
O O5 0.191941 0.048077 0.116401
O O6 0.000000 0.000000 0.000000
O O7 0.017178 0.641800 0.731840
O O8 0.838515 0.533453 0.374151
O O9 0.069266 0.431036 0.788630
O O10 0.194272 0.557831 0.821175
O O11 0.700758 0.750000 0.322035
O O12 0.614076 0.364073 0.065294
O O13 0.399022 0.750000 0.643801
O O14 0.156225 0.602556 0.373860
O O15 0.514721 0.549748 0.851873
O O16 0.902202 0.750000 0.069811
#
# Coordination Sequence:
#
# PCOD9167743 Si02
#       8
#     2   4   4   2   2   4   4   4
#     4  10  18  36  63  92 116 151 198 254 310 355
#     4  10  18  34  61  92 125 153 200 252 313 358
#     4  11  25  41  59  89 126 164 208 242 311 364
#     4  10  21  39  62  91 118 147 204 263 289 358
#     4  10  21  39  67  89 114 156 206 257 301 351
#     4  10  21  38  62  92 123 159 208 253 306 358
#     4  11  24  42  62  83 125 172 199 250 305 376
#     4  10  21  38  61  94 123 158 205 262 296 358
#
# _framework density 20.110824000000001
#
# number of rings (size 3 to 8) (size 9 to 14) (size 15 to 20)
#    0.462    1.231    2.308    3.231    3.231    3.077 
#    1.385    0.769    0.000    0.000    0.000    0.000 
#    0.000    0.000    0.000    0.000    0.000    0.000 
#
# Total GULP energy -145161.927333 kJ/mol
# GULP energy per Si atom -5583.151051 kJ/mol
# Density = 2.006505 g / cm^3
# Si number density = 20.110824 Si / 1000 Ang^3
#
#
#
# Elastic Constant Matrix: (Units=GPa)
#
#
# Indices 1 2 3 4 5 6 
#
# 1 45.7175 -2.9285 -19.5270 0.0000 -9.5871 0.0000
# 2 -2.9285 89.0123 6.7932 0.0000 4.4641 0.0000
# 3 -19.5270 6.7932 23.8949 0.0000 -16.5828 0.0000
# 4 0.0000 0.0000 0.0000 22.4849 0.0000 -3.4361
# 5 -9.5871 4.4641 -16.5828 0.0000 24.1529 0.0000
# 6 0.0000 0.0000 0.0000 -3.4361 0.0000 14.0792
#
#
#
# Elastic Compliance Matrix: (Units=1/GPa)
#
#
# Indices 1 2 3 4 5 6 
#
# 1 -0.057901 0.013981 -0.131866 0.000000 -0.116103 0.000000
# 2 0.013981 0.009059 0.022043 0.000000 0.019009 0.000000
# 3 -0.131866 0.022043 -0.212655 0.000000 -0.202419 0.000000
# 4 0.000000 0.000000 0.000000 0.046197 0.000000 0.011275
# 5 -0.116103 0.019009 -0.202419 0.000000 -0.147172 0.000000
# 6 0.000000 0.000000 0.000000 0.011275 0.000000 0.073779
#
#
# Mechanical properties :
#
#
# Convention : Reuss Voigt Hill
#
# Bulk Modulus (GPa) = -2.20662 14.14446 5.96892
# Shear Modulus (GPa) = -20.15564 23.76252 1.80344
#
# Velocity S-wave (km/s) = -3.16923 3.44114 0.94800
# Velocity P-wave (km/s) = 3.80679 4.77882 2.04272
#
# Compressibility (1/GPa) = -0.45318126
#
# Stress axis : x y z
#
# Youngs Moduli (GPa) = -17.27080 110.38969 -4.70245
#
# Poissons Ratio (x) = -1.54341 -0.62009
# Poissons Ratio (y) = 0.24147 0.10365
# Poissons Ratio (z) = -2.27743 -2.43327
#
# Static dielectric constant tensor:
#      x y z
#    x 1.712050 0.000000 -0.028420 
#    y 0.000000 1.779390 0.000000 
#    z -0.028420 0.000000 1.753810 
# 
# From -- ./inp_files/54851.got.cif
#   From: 2010.05.17/outbox.ucp.g08.bks.cvg/sg11_28_cif.got.tgz:54851.got - 2010.06.11 11:38:39.
