data_PCOD9167283
_publ_section_title
;
Structure prediction by ZEFSAII (Michael W. Deem and Ramdas Pophale) SiO2 
 PCOD9167283
Probable space group: P 21/M
;
_chemical_formula_sum "Si O2"
_cell_formula_units_Z 28
_cell_length_a 17.569395
_cell_length_b 8.780709
_cell_length_c 14.591283
_cell_angle_alpha 90.000000
_cell_angle_beta 40.682181
_cell_angle_gamma 90.000000
_cell_volume 1467.357484
_symmetry_space_group_name_H-M "P 21/M"
_symmetry_group_IT_number 11
_symmetry_cell_setting 'monoclinic'
loop_
_space_group_symop_operation_xyz
x,y,z
-x,1/2+y,-z
-x,-y,-z
x,1/2-y,z
loop_
_atom_site_type_symbol
_atom_site_label
_atom_site_fract_x
_atom_site_fract_y
_atom_site_fract_z
Si Si1 0.309153 0.929690 0.389159
Si Si2 0.826108 0.932193 0.328673
Si Si3 0.089138 0.564863 0.066148
Si Si4 0.740622 0.072028 0.933488
Si Si5 0.714402 0.066033 0.258326
Si Si6 0.533033 0.072286 0.273488
Si Si7 0.372404 0.430404 0.136992
O O1 0.294909 0.750000 0.394974
O O2 0.206350 0.003201 0.542638
O O3 0.426887 0.970449 0.337647
O O4 0.324254 0.001898 0.275435
O O5 0.824174 0.750000 0.332300
O O6 0.955790 0.984924 0.180718
O O7 0.733510 0.992105 0.338938
O O8 0.091289 0.750000 0.062962
O O9 0.148240 0.520149 0.108580
O O10 0.175641 0.516469 0.905765
O O11 0.754865 0.250000 0.894790
O O12 0.709332 0.975786 0.873399
O O13 0.632586 0.065899 0.103817
O O14 0.716755 0.250000 0.263509
O O15 0.597769 0.026406 0.308240
O O16 0.495732 0.250000 0.314478
O O17 0.384190 0.250000 0.134626
O O18 0.500000 0.500000 0.000000
#
# Coordination Sequence:
#
# PCOD9167283 Si02
#       7
#     4   4   4   4   4   4   4
#     4  12  25  39  56  80 113 151 191 234 281 335
#     4  11  22  37  56  81 115 154 192 232 280 333
#     4   8  17  35  60  86 113 148 189 233 279 327
#     4   9  17  34  60  87 113 143 183 233 282 326
#     4   9  18  35  59  86 113 146 188 232 283 335
#     4   9  18  34  57  83 113 146 183 231 284 335
#     4  12  23  37  59  88 116 145 182 226 278 337
#
# _framework density 19.081921000000001
#
# number of rings (size 3 to 8) (size 9 to 14) (size 15 to 20)
#    0.000    2.000    1.429    5.143    0.000    1.143 
#    0.000    5.000    0.000    0.000    0.000    0.000 
#    0.000    0.000    0.000    0.000    0.000    0.000 
#
# Total GULP energy -156400.882496 kJ/mol
# GULP energy per Si atom -5585.745803 kJ/mol
# Density = 1.903849 g / cm^3
# Si number density = 19.081921 Si / 1000 Ang^3
#
#
#
# Elastic Constant Matrix: (Units=GPa)
#
#
# Indices 1 2 3 4 5 6 
#
# 1 80.4752 19.5710 12.4285 0.0000 20.5682 0.0000
# 2 19.5710 60.8182 5.3805 0.0000 10.7164 0.0000
# 3 12.4285 5.3805 32.1118 0.0000 22.2809 0.0000
# 4 0.0000 0.0000 0.0000 22.6740 0.0000 4.9772
# 5 20.5682 10.7164 22.2809 0.0000 28.2610 0.0000
# 6 0.0000 0.0000 0.0000 4.9772 0.0000 30.0440
#
#
#
# Elastic Compliance Matrix: (Units=1/GPa)
#
#
# Indices 1 2 3 4 5 6 
#
# 1 0.016032 -0.003135 0.003513 0.000000 -0.013249 0.000000
# 2 -0.003135 0.018436 0.003072 0.000000 -0.007131 0.000000
# 3 0.003513 0.003072 0.070312 0.000000 -0.059155 0.000000
# 4 0.000000 0.000000 0.000000 0.045768 0.000000 -0.007582
# 5 -0.013249 -0.007131 -0.059155 0.000000 0.094369 0.000000
# 6 0.000000 0.000000 0.000000 -0.007582 0.000000 0.034541
#
#
# Mechanical properties :
#
#
# Convention : Reuss Voigt Hill
#
# Bulk Modulus (GPa) = 8.95410 27.57392 18.26401
# Shear Modulus (GPa) = 16.14026 25.26413 20.70220
#
# Velocity S-wave (km/s) = 2.91149 3.64260 3.29737
# Velocity P-wave (km/s) = 4.00062 5.67213 4.90806
#
# Compressibility (1/GPa) = 0.11168066
#
# Stress axis : x y z
#
# Youngs Moduli (GPa) = 62.37361 54.24132 14.22237
#
# Poissons Ratio (x) = 0.17007 -0.04997
# Poissons Ratio (y) = 0.19557 -0.04370
# Poissons Ratio (z) = -0.21913 -0.16665
#
# Static dielectric constant tensor:
#      x y z
#    x 1.662640 0.000000 -0.011760 
#    y 0.000000 1.635070 0.000000 
#    z -0.011760 0.000000 1.671530 
# 
# From -- ./inp_files/53207.got.cif
#   From: 2010.05.17/outbox.cif.g08.bks.cpg/sg11_27_cif.got.tgz:53207.got - 2010.06.03 12:22:45.
