data_PCOD9167188
_publ_section_title
;
Structure prediction by ZEFSAII (Michael W. Deem and Ramdas Pophale) SiO2 
 PCOD9167188
Probable space group: P 21/M
;
_chemical_formula_sum "Si O2"
_cell_formula_units_Z 28
_cell_length_a 24.949704
_cell_length_b 8.429782
_cell_length_c 9.536920
_cell_angle_alpha 90.000000
_cell_angle_beta 138.432047
_cell_angle_gamma 90.000000
_cell_volume 1330.870944
_symmetry_space_group_name_H-M "P 21/M"
_symmetry_group_IT_number 11
_symmetry_cell_setting 'monoclinic'
loop_
_space_group_symop_operation_xyz
x,y,z
-x,1/2+y,-z
-x,-y,-z
x,1/2-y,z
loop_
_atom_site_type_symbol
_atom_site_label
_atom_site_fract_x
_atom_site_fract_y
_atom_site_fract_z
Si Si1 0.176841 0.939012 0.538628
Si Si2 0.502618 0.934701 0.348085
Si Si3 0.752380 0.562701 0.593349
Si Si4 0.579208 0.064629 0.233110
Si Si5 0.333874 0.064694 0.007466
Si Si6 0.914752 0.939880 0.389520
Si Si7 0.757882 0.062528 0.918965
O O1 0.180439 0.750000 0.558339
O O2 0.183952 0.990265 0.391544
O O3 0.102726 0.004358 0.485364
O O4 0.255467 0.015616 0.766565
O O5 0.524252 0.750000 0.385805
O O6 0.500000 0.000000 0.500000
O O7 0.560614 0.033589 0.360722
O O8 0.410848 0.961390 0.116164
O O9 0.763512 0.750000 0.625440
O O10 0.661869 0.525418 0.360748
O O11 0.758012 0.485581 0.757487
O O12 0.589458 0.250000 0.225165
O O13 0.500000 0.000000 0.000000
O O14 0.352505 0.250000 0.025751
O O15 0.309009 0.029445 0.119874
O O16 0.908991 0.750000 0.370519
O O17 0.000000 0.000000 0.500000
O O18 0.843412 0.015644 0.156062
O O19 0.744091 0.250000 0.908056
#
# Coordination Sequence:
#
# PCOD9167188 Si02
#       7
#     4   4   4   4   4   4   4
#     4  11  22  39  62  90 119 155 196 240 288 346
#     4  12  24  39  56  80 111 149 195 249 303 355
#     4  12  24  41  61  87 121 160 201 248 300 358
#     4  12  25  42  60  84 116 157 203 253 306 360
#     4  11  21  37  58  83 113 152 197 245 295 353
#     4  11  22  41  67  97 127 160 196 239 289 349
#     4  11  22  39  62  91 122 159 200 246 297 353
#
# _framework density 21.038855000000002
#
# number of rings (size 3 to 8) (size 9 to 14) (size 15 to 20)
#    0.000    0.571    0.000   12.429    0.000    0.000 
#    0.000    0.714    0.000    0.000    0.000    0.000 
#    0.000    0.000    0.000    0.000    0.000    0.000 
#
# Total GULP energy -156839.090198 kJ/mol
# GULP energy per Si atom -5601.396079 kJ/mol
# Density = 2.099097 g / cm^3
# Si number density = 21.038855 Si / 1000 Ang^3
#
#
#
# Elastic Constant Matrix: (Units=GPa)
#
#
# Indices 1 2 3 4 5 6 
#
# 1 129.6113 -0.0553 13.3708 0.0000 -6.4779 0.0000
# 2 -0.0553 123.5814 -0.1745 0.0000 -7.3041 0.0000
# 3 13.3708 -0.1745 32.4877 0.0000 -8.2994 0.0000
# 4 0.0000 0.0000 0.0000 32.1091 0.0000 -2.7735
# 5 -6.4779 -7.3041 -8.2994 0.0000 36.6719 0.0000
# 6 0.0000 0.0000 0.0000 -2.7735 0.0000 37.4659
#
#
#
# Elastic Compliance Matrix: (Units=1/GPa)
#
#
# Indices 1 2 3 4 5 6 
#
# 1 0.008075 0.000042 -0.003138 0.000000 0.000725 0.000000
# 2 0.000042 0.008196 0.000473 0.000000 0.001747 0.000000
# 3 -0.003138 0.000473 0.033918 0.000000 0.007216 0.000000
# 4 0.000000 0.000000 0.000000 0.031344 0.000000 0.002320
# 5 0.000725 0.001747 0.007216 0.000000 0.029378 0.000000
# 6 0.000000 0.000000 0.000000 0.002320 0.000000 0.026863
#
#
# Mechanical properties :
#
#
# Convention : Reuss Voigt Hill
#
# Bulk Modulus (GPa) = 22.25033 34.66249 28.45641
# Shear Modulus (GPa) = 31.64521 39.41867 35.53194
#
# Velocity S-wave (km/s) = 3.88252 4.33322 4.11405
# Velocity P-wave (km/s) = 5.54052 6.44569 6.01017
#
# Compressibility (1/GPa) = 0.04494314
#
# Stress axis : x y z
#
# Youngs Moduli (GPa) = 123.83367 122.01423 29.48251
#
# Poissons Ratio (x) = -0.00513 0.09252
# Poissons Ratio (y) = -0.00520 -0.01394
# Poissons Ratio (z) = 0.38861 -0.05771
#
# Static dielectric constant tensor:
#      x y z
#    x 1.767010 0.000000 -0.034650 
#    y 0.000000 1.812880 0.000000 
#    z -0.034650 0.000000 1.809060 
# 
# From -- ./inp_files/28590.got.cif
#   From: 2010.05.17/outbox.cif.g08.bks.cpg/sg11_15_cif.got.tgz:28590.got - 2010.06.03 12:22:45.
