data_PCOD9167538
_publ_section_title
;
Structure prediction by ZEFSAII (Michael W. Deem and Ramdas Pophale) SiO2 
 PCOD9167538
Probable space group: P 21/M
;
_chemical_formula_sum "Si O2"
_cell_formula_units_Z 18
_cell_length_a 10.774746
_cell_length_b 19.222268
_cell_length_c 7.778225
_cell_angle_alpha 90.000000
_cell_angle_beta 154.082565
_cell_angle_gamma 90.000000
_cell_volume 704.123170
_symmetry_space_group_name_H-M "P 21/M"
_symmetry_group_IT_number 11
_symmetry_cell_setting 'monoclinic'
loop_
_space_group_symop_operation_xyz
x,y,z
-x,1/2+y,-z
-x,-y,-z
x,1/2-y,z
loop_
_atom_site_type_symbol
_atom_site_label
_atom_site_fract_x
_atom_site_fract_y
_atom_site_fract_z
Si Si1 0.822508 0.100349 0.602607
Si Si2 0.871330 0.750000 0.463299
Si Si3 0.089255 0.750000 0.371194
Si Si4 0.336911 0.250000 0.440339
Si Si5 0.266679 0.015847 0.952764
Si Si6 0.742829 0.130151 0.894219
O O1 0.852631 0.108705 0.844561
O O2 0.763409 0.174972 0.439697
O O3 0.113883 0.067107 0.897767
O O4 0.546389 0.052319 0.227268
O O5 0.860210 0.750000 0.242900
O O6 0.633746 0.750000 0.316822
O O7 0.039652 0.679019 0.727279
O O8 0.969901 0.750000 0.026926
O O9 0.482612 0.182055 0.548304
O O10 0.000000 0.000000 0.500000
O O11 0.345223 0.940710 0.124515
#
# Coordination Sequence:
#
# PCOD9167538 Si02
#       6
#     4   2   2   2   4   4
#     4  12  26  49  79 112 153 210 249 323 387 458
#     4  11  25  47  78 109 155 202 256 321 376 460
#     4  12  25  52  77 117 150 203 265 315 389 459
#     4  11  24  51  77 112 161 203 257 324 387 455
#     4  12  28  49  77 115 157 202 261 319 386 460
#     4  11  25  48  74 114 152 205 257 316 388 461
#
# _framework density 25.56371
#
# number of rings (size 3 to 8) (size 9 to 14) (size 15 to 20)
#    0.000    0.444    2.222    5.333    3.111    0.889 
#   28.000    1.111    0.000    0.000    0.000    0.000 
#    0.000    0.000    0.000    0.000    0.000    0.000 
#
# Total GULP energy -100798.480909 kJ/mol
# GULP energy per Si atom -5599.915606 kJ/mol
# Density = 2.550553 g / cm^3
# Si number density = 25.563710 Si / 1000 Ang^3
#
#
#
# Elastic Constant Matrix: (Units=GPa)
#
#
# Indices 1 2 3 4 5 6 
#
# 1 74.4877 25.6377 0.0735 0.0000 -8.1074 0.0000
# 2 25.6377 192.6449 30.5044 0.0000 7.1713 0.0000
# 3 0.0735 30.5044 57.2638 0.0000 0.9877 0.0000
# 4 0.0000 0.0000 0.0000 17.3491 0.0000 6.7371
# 5 -8.1074 7.1713 0.9877 0.0000 45.5174 0.0000
# 6 0.0000 0.0000 0.0000 6.7371 0.0000 48.3233
#
#
#
# Elastic Compliance Matrix: (Units=1/GPa)
#
#
# Indices 1 2 3 4 5 6 
#
# 1 0.014503 -0.002214 0.001111 0.000000 0.002908 0.000000
# 2 -0.002214 0.006038 -0.003192 0.000000 -0.001276 0.000000
# 3 0.001111 -0.003192 0.019157 0.000000 0.000285 0.000000
# 4 0.000000 0.000000 0.000000 0.060939 0.000000 -0.008496
# 5 0.002908 -0.001276 0.000285 0.000000 0.022683 0.000000
# 6 0.000000 0.000000 0.000000 -0.008496 0.000000 0.021878
#
#
# Mechanical properties :
#
#
# Convention : Reuss Voigt Hill
#
# Bulk Modulus (GPa) = 32.14664 48.53638 40.34151
# Shear Modulus (GPa) = 30.45850 40.11667 35.28759
#
# Velocity S-wave (km/s) = 3.45552 3.96571 3.71937
# Velocity P-wave (km/s) = 5.34071 6.32431 5.85321
#
# Compressibility (1/GPa) = 0.03110745
#
# Stress axis : x y z
#
# Youngs Moduli (GPa) = 68.95352 165.60416 52.20023
#
# Poissons Ratio (x) = 0.36667 -0.05798
# Poissons Ratio (y) = 0.15267 0.16662
# Poissons Ratio (z) = -0.07659 0.52858
#
# Static dielectric constant tensor:
#      x y z
#    x 1.991490 0.000000 -0.006230 
#    y 0.000000 2.006810 0.000000 
#    z -0.006230 0.000000 2.070880 
# 
# From -- ./inp_files/1861.got.cif
#   From: 2010.05.17/outbox.cif.g08.bks.cpg/sg11_1_cif.got.tgz:1861.got - 2010.06.03 12:22:45.
