data_PCOD9167084
_publ_section_title
;
Structure prediction by ZEFSAII (Michael W. Deem and Ramdas Pophale) SiO2 
 PCOD9167084
Probable space group: P 21/M
;
_chemical_formula_sum "Si O2"
_cell_formula_units_Z 28
_cell_length_a 17.839326
_cell_length_b 7.637016
_cell_length_c 12.542210
_cell_angle_alpha 90.000000
_cell_angle_beta 43.122742
_cell_angle_gamma 90.000000
_cell_volume 1168.032964
_symmetry_space_group_name_H-M "P 21/M"
_symmetry_group_IT_number 11
_symmetry_cell_setting 'monoclinic'
loop_
_space_group_symop_operation_xyz
x,y,z
-x,1/2+y,-z
-x,-y,-z
x,1/2-y,z
loop_
_atom_site_type_symbol
_atom_site_label
_atom_site_fract_x
_atom_site_fract_y
_atom_site_fract_z
Si Si1 0.346262 0.449204 0.315255
Si Si2 0.891624 0.540258 0.179912
Si Si3 0.471807 0.456954 0.743256
Si Si4 0.349571 0.464175 0.084588
Si Si5 0.732005 0.536310 0.165610
Si Si6 0.898007 0.448976 0.414619
Si Si7 0.862548 0.536779 0.814945
O O1 0.380555 0.250000 0.277573
O O2 0.399616 0.516594 0.369405
O O3 0.383061 0.535514 0.165218
O O4 0.215537 0.456780 0.444978
O O5 0.882850 0.750000 0.206462
O O6 0.788500 0.479102 0.215932
O O7 0.904091 0.449940 0.280044
O O8 0.000000 0.500000 0.000000
O O9 0.455990 0.250000 0.756494
O O10 0.392135 0.524813 0.732596
O O11 0.419417 0.520367 0.909750
O O12 0.353309 0.250000 0.083804
O O13 0.224717 0.512774 0.184346
O O14 0.733605 0.750000 0.167269
O O15 0.808941 0.485484 0.984664
O O16 0.111776 0.750000 0.536155
O O17 0.014096 0.527061 0.330875
O O18 0.868300 0.750000 0.811886
#
# Coordination Sequence:
#
# PCOD9167084 Si02
#       7
#     4   4   4   4   4   4   4
#     4  11  22  35  50  76 112 144 175 221 272 313
#     4  11  20  34  57  85 111 138 172 215 265 317
#     4   9  17  34  59  80 100 137 183 218 256 315
#     4   8  16  31  55  80 104 137 177 220 266 313
#     4   8  15  30  55  82 104 131 172 217 260 309
#     4  11  22  36  54  77 107 145 184 218 259 318
#     4   8  14  29  52  78 104 135 174 215 260 313
#
# _framework density 23.971926
#
# number of rings (size 3 to 8) (size 9 to 14) (size 15 to 20)
#    0.000    2.571    1.429    3.429    0.000    0.571 
#    0.000    2.857    0.000    2.571    0.000    0.000 
#    0.000    0.000    0.000    0.000    0.000    0.000 
#
# Total GULP energy -156269.105105 kJ/mol
# GULP energy per Si atom -5581.039468 kJ/mol
# Density = 2.391736 g / cm^3
# Si number density = 23.971926 Si / 1000 Ang^3
#
#
#
# Elastic Constant Matrix: (Units=GPa)
#
#
# Indices 1 2 3 4 5 6 
#
# 1 119.3703 2.5736 5.1050 0.0000 -37.3248 0.0000
# 2 2.5736 59.5673 -1.6044 0.0000 -6.9382 0.0000
# 3 5.1050 -1.6044 32.9914 0.0000 -15.8343 0.0000
# 4 0.0000 0.0000 0.0000 15.9479 0.0000 -2.8974
# 5 -37.3248 -6.9382 -15.8343 0.0000 39.8786 0.0000
# 6 0.0000 0.0000 0.0000 -2.8974 0.0000 12.0403
#
#
#
# Elastic Compliance Matrix: (Units=1/GPa)
#
#
# Indices 1 2 3 4 5 6 
#
# 1 0.012442 0.001188 0.004720 0.000000 0.013726 0.000000
# 2 0.001188 0.017460 0.003283 0.000000 0.005453 0.000000
# 3 0.004720 0.003283 0.039701 0.000000 0.020753 0.000000
# 4 0.000000 0.000000 0.000000 0.065571 0.000000 0.015779
# 5 0.013726 0.005453 0.020753 0.000000 0.047112 0.000000
# 6 0.000000 0.000000 0.000000 0.015779 0.000000 0.086851
#
#
# Mechanical properties :
#
#
# Convention : Reuss Voigt Hill
#
# Bulk Modulus (GPa) = 11.36561 24.89750 18.13156
# Shear Modulus (GPa) = 17.85191 27.29702 22.57446
#
# Velocity S-wave (km/s) = 2.73188 3.37814 3.07205
# Velocity P-wave (km/s) = 3.83437 5.06205 4.49037
#
# Compressibility (1/GPa) = 0.08798468
#
# Stress axis : x y z
#
# Youngs Moduli (GPa) = 80.37527 57.27383 25.18859
#
# Poissons Ratio (x) = -0.06806 -0.11890
# Poissons Ratio (y) = -0.09551 -0.08268
# Poissons Ratio (z) = -0.37940 -0.18800
#
# Static dielectric constant tensor:
#      x y z
#    x 1.956980 0.000000 -0.059160 
#    y 0.000000 1.894880 0.000000 
#    z -0.059160 0.000000 1.976100 
# 
# From -- ./inp_files/26442.got.cif
#   From: 2010.05.17/outbox.cif.g08.bks.cpg/sg11_14_cif.got.tgz:26442.got - 2010.06.03 12:22:45.
