data_PCOD9167952
_publ_section_title
;
Structure prediction by ZEFSAII (Michael W. Deem and Ramdas Pophale) SiO2 
 PCOD9167952
Probable space group: P 21/M
;
_chemical_formula_sum "Si O2"
_cell_formula_units_Z 32
_cell_length_a 27.000000
_cell_length_b 9.000000
_cell_length_c 21.000000
_cell_angle_alpha 90.000000
_cell_angle_beta 20.000000
_cell_angle_gamma 90.000000
_cell_volume 1745.328791
_symmetry_space_group_name_H-M "P 21/M"
_symmetry_group_IT_number 11
_symmetry_cell_setting 'monoclinic'
loop_
_space_group_symop_operation_xyz
x,y,z
-x,1/2+y,-z
-x,-y,-z
x,1/2-y,z
loop_
_atom_site_type_symbol
_atom_site_label
_atom_site_fract_x
_atom_site_fract_y
_atom_site_fract_z
Si Si1 0.975131 0.572876 0.346436
Si Si2 0.290465 0.927404 0.926744
Si Si3 0.733595 0.571531 0.539155
Si Si4 0.936246 0.926648 0.170466
Si Si5 0.415117 0.428495 0.903764
Si Si6 0.210016 0.920025 0.767507
Si Si7 0.904313 0.571900 0.670769
Si Si8 0.497080 0.424215 0.436560
O O1 0.964528 0.750000 0.373012
O O2 0.021316 0.486556 0.354080
O O3 0.829373 0.527836 0.485508
O O4 0.118374 0.551818 0.129928
O O5 0.314459 0.750000 0.907497
O O6 0.375045 0.978320 0.762739
O O7 0.363204 0.012030 0.897798
O O8 0.711851 0.750000 0.567469
O O9 0.842723 0.544098 0.347198
O O10 0.573988 0.496994 0.727588
O O11 0.910113 0.750000 0.186195
O O12 0.884939 0.044454 0.179779
O O13 0.111362 0.939919 0.950337
O O14 0.428341 0.250000 0.888074
O O15 0.268822 0.467673 0.121674
O O16 0.261612 0.750000 0.705168
O O17 0.340856 0.032370 0.599483
O O18 0.911969 0.750000 0.659123
O O19 0.000000 0.500000 0.500000
O O20 0.500000 0.500000 0.500000
O O21 0.512544 0.250000 0.424287
#
# Coordination Sequence:
#
# PCOD9167952 Si02
#       8
#     4   4   4   4   4   4   4   4
#     4   9  19  36  59  85 112 145 186 229 274 326
#     4   9  19  36  57  76 103 144 189 231 277 335
#     4  10  20  34  56  82 110 146 188 228 272 328
#     4   9  19  34  53  73 101 140 182 227 274 330
#     4  10  21  36  57  86 117 144 178 224 273 321
#     4  10  20  34  51  71 100 136 181 233 284 333
#     4  10  21  39  63  89 117 149 182 218 262 320
#     4  11  23  35  50  72 101 137 182 232 284 335
#
# _framework density 18.334654
#
# number of rings (size 3 to 8) (size 9 to 14) (size 15 to 20)
#    0.000    2.250    0.000    2.250    1.750    7.000 
#    0.000    0.625    0.000    0.000    0.000    0.000 
#    0.000    0.000    0.000    0.000    0.000    0.000 
#
# Total GULP energy -178201.512124 kJ/mol
# GULP energy per Si atom -5568.797254 kJ/mol
# Density = 1.829292 g / cm^3
# Si number density = 18.334654 Si / 1000 Ang^3
#
#
#
# Elastic Constant Matrix: (Units=GPa)
#
#
# Indices 1 2 3 4 5 6 
#
# 1 60.2239 26.3419 61.5973 0.0000 -3.5934 0.0000
# 2 26.3419 36.0770 47.5215 0.0000 3.0320 0.0000
# 3 61.5973 47.5215 134.1600 0.0000 8.8513 0.0000
# 4 0.0000 0.0000 0.0000 32.3228 0.0000 -2.7848
# 5 -3.5934 3.0320 8.8513 0.0000 34.9539 0.0000
# 6 0.0000 0.0000 0.0000 -2.7848 0.0000 25.8692
#
#
#
# Elastic Compliance Matrix: (Units=1/GPa)
#
#
# Indices 1 2 3 4 5 6 
#
# 1 0.034265 -0.008013 -0.013396 0.000000 0.007610 0.000000
# 2 -0.008013 0.053838 -0.015284 0.000000 -0.001623 0.000000
# 3 -0.013396 -0.015284 0.019345 0.000000 -0.004950 0.000000
# 4 0.000000 0.000000 0.000000 0.031228 0.000000 0.003362
# 5 0.007610 -0.001623 -0.004950 0.000000 0.030786 0.000000
# 6 0.000000 0.000000 0.000000 0.003362 0.000000 0.039018
#
#
# Mechanical properties :
#
#
# Convention : Reuss Voigt Hill
#
# Bulk Modulus (GPa) = 29.35827 55.70914 42.53371
# Shear Modulus (GPa) = 17.05204 24.96252 21.00728
#
# Velocity S-wave (km/s) = 3.05297 3.69385 3.38859
# Velocity P-wave (km/s) = 5.33617 6.97447 6.20959
#
# Compressibility (1/GPa) = 0.03406195
#
# Stress axis : x y z
#
# Youngs Moduli (GPa) = 29.18421 18.57411 51.69328
#
# Poissons Ratio (x) = 0.14883 0.69249
# Poissons Ratio (y) = 0.23385 0.79010
# Poissons Ratio (z) = 0.39095 0.28389
#
# Static dielectric constant tensor:
#      x y z
#    x 1.624080 0.000000 -0.017920 
#    y 0.000000 1.608560 0.000000 
#    z -0.017920 0.000000 1.750210 
# 
# From -- ./inp_files/67085.got.cif
#   From: 2010.05.17/outbox.ucp.g08.bks.cvg/sg11_34_cif.got.tgz:67085.got - 2010.06.11 11:38:39.
