data_PCOD9167080
_publ_section_title
;
Structure prediction by ZEFSAII (Michael W. Deem and Ramdas Pophale) SiO2 
 PCOD9167080
Probable space group: P 21/M
;
_chemical_formula_sum "Si O2"
_cell_formula_units_Z 32
_cell_length_a 18.159544
_cell_length_b 8.718054
_cell_length_c 24.507914
_cell_angle_alpha 90.000000
_cell_angle_beta 149.122810
_cell_angle_gamma 90.000000
_cell_volume 1991.210423
_symmetry_space_group_name_H-M "P 21/M"
_symmetry_group_IT_number 11
_symmetry_cell_setting 'monoclinic'
loop_
_space_group_symop_operation_xyz
x,y,z
-x,1/2+y,-z
-x,-y,-z
x,1/2-y,z
loop_
_atom_site_type_symbol
_atom_site_label
_atom_site_fract_x
_atom_site_fract_y
_atom_site_fract_z
Si Si1 0.265632 0.936621 0.089786
Si Si2 0.156614 0.565733 0.817259
Si Si3 0.608657 0.433485 0.114334
Si Si4 0.442115 0.933558 0.520305
Si Si5 0.671016 0.065726 0.748211
Si Si6 0.400088 0.565344 0.062333
Si Si7 0.888225 0.432724 0.702142
Si Si8 0.941923 0.934088 0.856001
O O1 0.266355 0.750000 0.089186
O O2 0.324878 0.984781 0.186086
O O3 0.356319 0.987198 0.094837
O O4 0.099660 0.982710 0.976628
O O5 0.137539 0.750000 0.807013
O O6 0.235083 0.525161 0.810222
O O7 0.007742 0.484479 0.735072
O O8 0.269313 0.525908 0.937649
O O9 0.598887 0.250000 0.107949
O O10 0.546741 0.497328 0.131359
O O11 0.500000 0.500000 0.000000
O O12 0.456930 0.750000 0.528414
O O13 0.273925 0.971997 0.418179
O O14 0.500000 0.000000 0.500000
O O15 0.538048 0.000130 0.629786
O O16 0.667339 0.250000 0.743781
O O17 0.816155 0.008741 0.811373
O O18 0.411044 0.750000 0.068596
O O19 0.895293 0.250000 0.715187
O O20 0.922597 0.515567 0.781123
O O21 0.931872 0.750000 0.853191
#
# Coordination Sequence:
#
# PCOD9167080 Si02
#       8
#     4   4   4   4   4   4   4   4
#     4   9  19  34  51  73 103 136 168 205 247 297
#     4   9  17  30  48  69 100 133 162 195 245 300
#     4   9  17  28  43  68  99 132 164 197 238 291
#     4  11  23  38  54  72  97 129 167 214 259 297
#     4  11  22  36  53  74  99 130 173 213 247 297
#     4   9  16  30  48  69  99 135 165 194 240 295
#     4  11  22  33  50  75  99 126 168 212 250 294
#     4  11  20  34  53  71 100 136 167 203 252 298
#
# _framework density 16.070627999999999
#
# number of rings (size 3 to 8) (size 9 to 14) (size 15 to 20)
#    0.000    2.000    2.500    3.000    0.000    4.000 
#    0.000    3.125    0.000    0.000    0.000    0.875 
#    0.000    0.000    0.000    0.000    0.000    0.000 
#
# Total GULP energy -178500.651867 kJ/mol
# GULP energy per Si atom -5578.145371 kJ/mol
# Density = 1.603405 g / cm^3
# Si number density = 16.070628 Si / 1000 Ang^3
#
#
#
# Elastic Constant Matrix: (Units=GPa)
#
#
# Indices 1 2 3 4 5 6 
#
# 1 125.5833 37.0652 81.9943 0.0000 21.6355 0.0000
# 2 37.0652 38.1279 37.7313 0.0000 6.6226 0.0000
# 3 81.9943 37.7313 108.1319 0.0000 -2.9684 0.0000
# 4 0.0000 0.0000 0.0000 20.8399 0.0000 3.8204
# 5 21.6355 6.6226 -2.9684 0.0000 21.1505 0.0000
# 6 0.0000 0.0000 0.0000 3.8204 0.0000 24.9743
#
#
#
# Elastic Compliance Matrix: (Units=1/GPa)
#
#
# Indices 1 2 3 4 5 6 
#
# 1 0.027529 0.000283 -0.021833 0.000000 -0.031313 0.000000
# 2 0.000283 0.045092 -0.016408 0.000000 -0.016712 0.000000
# 3 -0.021833 -0.016408 0.032408 0.000000 0.032019 0.000000
# 4 0.000000 0.000000 0.000000 0.049369 0.000000 -0.007552
# 5 -0.031313 -0.016712 0.032019 0.000000 0.089037 0.000000
# 6 0.000000 0.000000 0.000000 -0.007552 0.000000 0.041196
#
#
# Mechanical properties :
#
#
# Convention : Reuss Voigt Hill
#
# Bulk Modulus (GPa) = 34.34836 65.04722 49.69779
# Shear Modulus (GPa) = 13.50433 21.06309 17.28371
#
# Velocity S-wave (km/s) = 2.90196 3.62423 3.28302
# Velocity P-wave (km/s) = 5.71387 7.62083 6.73518
#
# Compressibility (1/GPa) = 0.02911347
#
# Stress axis : x y z
#
# Youngs Moduli (GPa) = 36.32574 22.17682 30.85683
#
# Poissons Ratio (x) = -0.00628 0.67369
# Poissons Ratio (y) = -0.01029 0.50629
# Poissons Ratio (z) = 0.79310 0.36387
#
# Static dielectric constant tensor:
#      x y z
#    x 1.559060 0.000000 0.007900 
#    y 0.000000 1.541520 0.000000 
#    z 0.007900 0.000000 1.514570 
# 
# From -- ./inp_files/69462.got.cif
#   From: 2010.05.17/outbox.cif.g08.bks.cpg/sg11_35_cif.got.tgz:69462.got - 2010.06.03 12:22:45.
