data_PCOD9167801
_publ_section_title
;
Structure prediction by ZEFSAII (Michael W. Deem and Ramdas Pophale) SiO2 
 PCOD9167801
Probable space group: P 21/M
;
_chemical_formula_sum "Si O2"
_cell_formula_units_Z 28
_cell_length_a 9.000000
_cell_length_b 9.000000
_cell_length_c 27.000000
_cell_angle_alpha 90.000000
_cell_angle_beta 140.000000
_cell_angle_gamma 90.000000
_cell_volume 1405.776502
_symmetry_space_group_name_H-M "P 21/M"
_symmetry_group_IT_number 11
_symmetry_cell_setting 'monoclinic'
loop_
_space_group_symop_operation_xyz
x,y,z
-x,1/2+y,-z
-x,-y,-z
x,1/2-y,z
loop_
_atom_site_type_symbol
_atom_site_label
_atom_site_fract_x
_atom_site_fract_y
_atom_site_fract_z
Si Si1 0.586178 0.427810 0.970424
Si Si2 0.014118 0.571415 0.676247
Si Si3 0.886063 0.571621 0.195542
Si Si4 0.668171 0.419843 0.389749
Si Si5 0.806995 0.579088 0.520991
Si Si6 0.019304 0.926712 0.116124
Si Si7 0.541191 0.925764 0.259850
O O1 0.588863 0.250000 0.975521
O O2 0.845424 0.490010 0.034794
O O3 0.500000 0.500000 0.000000
O O4 0.390273 0.464056 0.879467
O O5 0.009776 0.750000 0.677138
O O6 0.994967 0.505334 0.726753
O O7 0.260978 0.514297 0.718515
O O8 0.837247 0.527854 0.585998
O O9 0.910083 0.750000 0.207193
O O10 0.978968 0.531260 0.164113
O O11 0.585021 0.250000 0.366992
O O12 0.667399 0.481143 0.445635
O O13 0.540711 0.522345 0.317168
O O14 0.932925 0.419396 0.436279
O O15 0.724577 0.750000 0.499691
O O16 0.971720 0.750000 0.101396
O O17 0.287353 0.952481 0.173407
O O18 0.592209 0.750000 0.270757
#
# Coordination Sequence:
#
# PCOD9167801 Si02
#       7
#     4   4   4   4   4   4   4
#     4   9  17  30  50  73  96 124 160 200 238 280
#     4  10  20  32  48  73 100 126 160 199 238 284
#     4   9  18  33  51  72  97 124 157 196 239 286
#     4   9  16  26  43  68  94 121 158 198 234 279
#     4   8  15  27  42  63  92 123 156 194 235 278
#     4   9  19  34  52  74  97 125 163 200 237 285
#     4  10  19  32  50  71  99 131 158 194 244 287
#
# _framework density 19.917818
#
# number of rings (size 3 to 8) (size 9 to 14) (size 15 to 20)
#    0.000    2.857    0.000    3.429    0.000    8.000 
#    0.000    0.714    0.000    0.857    0.000    0.000 
#    0.000    0.000    0.000    0.000    0.000    0.000 
#
# Total GULP energy -156131.108902 kJ/mol
# GULP energy per Si atom -5576.111032 kJ/mol
# Density = 1.987248 g / cm^3
# Si number density = 19.917818 Si / 1000 Ang^3
#
#
#
# Elastic Constant Matrix: (Units=GPa)
#
#
# Indices 1 2 3 4 5 6 
#
# 1 5.9945 -9.1288 -16.6416 0.0000 -8.6366 0.0000
# 2 -9.1288 34.8343 -0.3152 0.0000 -1.0975 0.0000
# 3 -16.6416 -0.3152 22.9612 0.0000 -8.3402 0.0000
# 4 0.0000 0.0000 0.0000 36.3133 0.0000 -9.6110
# 5 -8.6366 -1.0975 -8.3402 0.0000 27.7519 0.0000
# 6 0.0000 0.0000 0.0000 -9.6110 0.0000 19.8295
#
#
#
# Elastic Compliance Matrix: (Units=1/GPa)
#
#
# Indices 1 2 3 4 5 6 
#
# 1 -0.056479 -0.016368 -0.053633 0.000000 -0.034342 0.000000
# 2 -0.016368 0.024016 -0.014637 0.000000 -0.008543 0.000000
# 3 -0.053633 -0.014637 -0.002013 0.000000 -0.017875 0.000000
# 4 0.000000 0.000000 0.000000 0.031591 0.000000 0.015311
# 5 -0.034342 -0.008543 -0.017875 0.000000 0.019636 0.000000
# 6 0.000000 0.000000 0.000000 0.015311 0.000000 0.057851
#
#
# Mechanical properties :
#
#
# Convention : Reuss Voigt Hill
#
# Bulk Modulus (GPa) = -4.90793 1.29099 -1.80847
# Shear Modulus (GPa) = 28.41550 22.77063 25.59307
#
# Velocity S-wave (km/s) = 3.78118 3.38484 3.58849
# Velocity P-wave (km/s) = 4.07353 3.99070 4.03233
#
# Compressibility (1/GPa) = -0.20375181
#
# Stress axis : x y z
#
# Youngs Moduli (GPa) = -17.70577 41.63850 -496.66979
#
# Poissons Ratio (x) = 0.68155 -26.63786
# Poissons Ratio (y) = -0.28981 -7.26958
# Poissons Ratio (z) = -0.94961 0.60945
#
# Static dielectric constant tensor:
#      x y z
#    x 1.742280 0.000000 0.037220 
#    y 0.000000 1.676820 0.000000 
#    z 0.037220 0.000000 1.734670 
# 
# From -- ./inp_files/61233.got.cif
#   From: 2010.05.17/outbox.ucp.g08.bks.cvg/sg11_31_cif.got.tgz:61233.got - 2010.06.11 11:38:39.
