data_PCOD9167078
_publ_section_title
;
Structure prediction by ZEFSAII (Michael W. Deem and Ramdas Pophale) SiO2 
 PCOD9167078
Probable space group: P 21/M
;
_chemical_formula_sum "Si O2"
_cell_formula_units_Z 24
_cell_length_a 13.602620
_cell_length_b 19.500850
_cell_length_c 15.528400
_cell_angle_alpha 90.000000
_cell_angle_beta 19.531821
_cell_angle_gamma 90.000000
_cell_volume 1377.141603
_symmetry_space_group_name_H-M "P 21/M"
_symmetry_group_IT_number 11
_symmetry_cell_setting 'monoclinic'
loop_
_space_group_symop_operation_xyz
x,y,z
-x,1/2+y,-z
-x,-y,-z
x,1/2-y,z
loop_
_atom_site_type_symbol
_atom_site_label
_atom_site_fract_x
_atom_site_fract_y
_atom_site_fract_z
Si Si1 0.848054 0.112046 0.882639
Si Si2 0.865629 0.076425 0.211408
Si Si3 0.791037 0.551875 0.901704
Si Si4 0.191308 0.411402 0.769631
Si Si5 0.812556 0.668656 0.563641
Si Si6 0.903128 0.070647 0.533347
O O1 0.026036 0.120665 0.824569
O O2 0.028580 0.143957 0.654793
O O3 0.812438 0.030678 0.894383
O O4 0.525182 0.144009 0.156947
O O5 0.535947 0.104825 0.488056
O O6 0.044604 0.084266 0.151864
O O7 0.835882 0.994009 0.221257
O O8 0.035985 0.104865 0.988001
O O9 0.951109 0.571421 0.681046
O O10 0.448916 0.571240 0.182093
O O11 0.827302 0.750000 0.558550
O O12 0.975977 0.631679 0.507716
O O13 0.000000 0.000000 0.500000
#
# Coordination Sequence:
#
# PCOD9167078 Si02
#       6
#     4   4   4   4   4   4
#     4  11  20  36  56  80 111 148 179 223 281 337
#     4   9  17  29  46  80 113 133 170 213 267 321
#     4  11  20  33  57  84 110 145 184 228 287 329
#     4   9  17  29  49  75 110 142 162 211 267 320
#     4  12  25  38  54  80 112 148 189 230 272 336
#     4  12  21  36  56  80 111 149 189 232 280 334
#
# _framework density 17.427403000000002
#
# number of rings (size 3 to 8) (size 9 to 14) (size 15 to 20)
#    0.000    1.333    3.333    4.000    0.000    5.333 
#    0.000    0.000    0.000    0.000    0.000   23.333 
#    0.000    0.000    0.000    0.000    0.000    0.000 
#
# Total GULP energy -134077.061902 kJ/mol
# GULP energy per Si atom -5586.544246 kJ/mol
# Density = 1.738774 g / cm^3
# Si number density = 17.427403 Si / 1000 Ang^3
#
#
#
# Elastic Constant Matrix: (Units=GPa)
#
#
# Indices 1 2 3 4 5 6 
#
# 1 210.9393 57.0864 136.2024 0.0000 2.6198 0.0000
# 2 57.0864 72.6182 42.8856 0.0000 -2.1619 0.0000
# 3 136.2024 42.8856 201.9073 0.0000 16.2153 0.0000
# 4 0.0000 0.0000 0.0000 15.6627 0.0000 2.6524
# 5 2.6198 -2.1619 16.2153 0.0000 31.4693 0.0000
# 6 0.0000 0.0000 0.0000 2.6524 0.0000 14.0902
#
#
#
# Elastic Compliance Matrix: (Units=1/GPa)
#
#
# Indices 1 2 3 4 5 6 
#
# 1 0.009485 -0.004041 -0.005690 0.000000 0.001865 0.000000
# 2 -0.004041 0.017730 -0.001215 0.000000 0.002181 0.000000
# 3 -0.005690 -0.001215 0.009407 0.000000 -0.004457 0.000000
# 4 0.000000 0.000000 0.000000 0.065948 0.000000 -0.012414
# 5 0.001865 0.002181 -0.004457 0.000000 0.034068 0.000000
# 6 0.000000 0.000000 0.000000 -0.012414 0.000000 0.073308
#
#
# Mechanical properties :
#
#
# Convention : Reuss Voigt Hill
#
# Bulk Modulus (GPa) = 67.88735 106.42375 87.15555
# Shear Modulus (GPa) = 21.11950 28.86380 24.99165
#
# Velocity S-wave (km/s) = 3.48495 4.07410 3.79098
# Velocity P-wave (km/s) = 7.43183 9.12855 8.32354
#
# Compressibility (1/GPa) = 0.01473029
#
# Stress axis : x y z
#
# Youngs Moduli (GPa) = 105.43004 56.40286 106.30245
#
# Poissons Ratio (x) = 0.22790 0.60485
# Poissons Ratio (y) = 0.42599 0.12919
# Poissons Ratio (z) = 0.59989 0.06854
#
# Static dielectric constant tensor:
#      x y z
#    x 1.578190 0.000000 -0.002130 
#    y 0.000000 1.560740 0.000000 
#    z -0.002130 0.000000 1.571430 
# 
# From -- ./inp_files/40143.got.cif
#   From: 2010.05.17/outbox.cif.g08.bks.cpg/sg11_21_cif.got.tgz:40143.got - 2010.06.03 12:22:45.
