data_PCOD9167200
_publ_section_title
;
Structure prediction by ZEFSAII (Michael W. Deem and Ramdas Pophale) SiO2 
 PCOD9167200
Probable space group: P 21/M
;
_chemical_formula_sum "Si O2"
_cell_formula_units_Z 28
_cell_length_a 15.766553
_cell_length_b 8.817306
_cell_length_c 17.918657
_cell_angle_alpha 90.000000
_cell_angle_beta 35.657624
_cell_angle_gamma 90.000000
_cell_volume 1452.119323
_symmetry_space_group_name_H-M "P 21/M"
_symmetry_group_IT_number 11
_symmetry_cell_setting 'monoclinic'
loop_
_space_group_symop_operation_xyz
x,y,z
-x,1/2+y,-z
-x,-y,-z
x,1/2-y,z
loop_
_atom_site_type_symbol
_atom_site_label
_atom_site_fract_x
_atom_site_fract_y
_atom_site_fract_z
Si Si1 0.692304 0.930224 0.549362
Si Si2 0.661290 0.580245 0.975130
Si Si3 0.680859 0.420251 0.814823
Si Si4 0.841359 0.067188 0.132787
Si Si5 0.132639 0.932495 0.451769
Si Si6 0.661526 0.568536 0.396400
Si Si7 0.386131 0.065660 0.823518
O O1 0.679631 0.750000 0.570446
O O2 0.701742 0.957116 0.454079
O O3 0.830066 0.995253 0.495620
O O4 0.546379 0.010362 0.685080
O O5 0.719932 0.750000 0.938616
O O6 0.492426 0.586533 0.070447
O O7 0.657453 0.515007 0.061229
O O8 0.731859 0.499910 0.853756
O O9 0.737419 0.250000 0.779379
O O10 0.735781 0.481442 0.697146
O O11 0.845276 0.250000 0.129234
O O12 0.775637 0.008248 0.258355
O O13 0.728263 0.003902 0.152324
O O14 0.000000 0.000000 0.000000
O O15 0.123815 0.750000 0.465353
O O16 0.000000 0.000000 0.500000
O O17 0.500000 0.500000 0.500000
O O18 0.657135 0.750000 0.385636
O O19 0.384910 0.250000 0.823152
#
# Coordination Sequence:
#
# PCOD9167200 Si02
#       7
#     4   4   4   4   4   4   4
#     4  11  23  39  64  96 125 162 214 266 319 384
#     4   9  18  33  55  85 114 147 192 242 296 355
#     4   9  18  34  54  80 113 151 192 242 297 353
#     4  12  26  45  67  95 130 171 214 264 329 393
#     4  11  23  41  61  85 121 164 209 262 322 380
#     4  11  23  41  68 101 134 170 217 271 325 392
#     4  11  21  38  64  92 125 162 206 260 316 381
#
# _framework density 19.282160999999999
#
# number of rings (size 3 to 8) (size 9 to 14) (size 15 to 20)
#    0.000    1.429    2.857    3.000    0.000    4.000 
#    2.571    0.000    0.000    0.000    0.000    0.000 
#    0.000    0.000    0.000    0.000    0.000    0.000 
#
# Total GULP energy -156183.634157 kJ/mol
# GULP energy per Si atom -5577.986934 kJ/mol
# Density = 1.923827 g / cm^3
# Si number density = 19.282161 Si / 1000 Ang^3
#
#
#
# Elastic Constant Matrix: (Units=GPa)
#
#
# Indices 1 2 3 4 5 6 
#
# 1 148.5359 71.3820 47.3840 0.0000 18.9971 0.0000
# 2 71.3820 99.2587 46.0413 0.0000 15.6100 0.0000
# 3 47.3840 46.0413 73.4596 0.0000 11.7596 0.0000
# 4 0.0000 0.0000 0.0000 29.7960 0.0000 3.4992
# 5 18.9971 15.6100 11.7596 0.0000 38.5162 0.0000
# 6 0.0000 0.0000 0.0000 3.4992 0.0000 33.7549
#
#
#
# Elastic Compliance Matrix: (Units=1/GPa)
#
#
# Indices 1 2 3 4 5 6 
#
# 1 0.010858 -0.006196 -0.002802 0.000000 -0.001989 0.000000
# 2 -0.006196 0.018124 -0.007019 0.000000 -0.002146 0.000000
# 3 -0.002802 -0.007019 0.020127 0.000000 -0.001918 0.000000
# 4 0.000000 0.000000 0.000000 0.033975 0.000000 -0.003522
# 5 -0.001989 -0.002146 -0.001918 0.000000 0.028400 0.000000
# 6 0.000000 0.000000 0.000000 -0.003522 0.000000 0.029990
#
#
# Mechanical properties :
#
#
# Convention : Reuss Voigt Hill
#
# Bulk Modulus (GPa) = 58.56733 72.31874 65.44304
# Shear Modulus (GPa) = 27.90172 30.84321 29.37246
#
# Velocity S-wave (km/s) = 3.80810 4.00380 3.90718
# Velocity P-wave (km/s) = 7.05516 7.67860 7.37347
#
# Compressibility (1/GPa) = 0.01707437
#
# Stress axis : x y z
#
# Youngs Moduli (GPa) = 92.09468 55.17530 49.68545
#
# Poissons Ratio (x) = 0.34188 0.13922
# Poissons Ratio (y) = 0.57065 0.34874
# Poissons Ratio (z) = 0.25806 0.38727
#
# Static dielectric constant tensor:
#      x y z
#    x 1.681100 0.000000 0.001980 
#    y 0.000000 1.675180 0.000000 
#    z 0.001980 0.000000 1.754400 
# 
# From -- ./inp_files/60065.got.cif
#   From: 2010.05.17/outbox.cif.g08.bks.cpg/sg11_31_cif.got.tgz:60065.got - 2010.06.03 12:22:45.
