data_PCOD9167373
_publ_section_title
;
Structure prediction by ZEFSAII (Michael W. Deem and Ramdas Pophale) SiO2 
 PCOD9167373
Probable space group: P 21/M
;
_chemical_formula_sum "Si O2"
_cell_formula_units_Z 24
_cell_length_a 11.459548
_cell_length_b 17.534639
_cell_length_c 10.859599
_cell_angle_alpha 90.000000
_cell_angle_beta 151.915057
_cell_angle_gamma 90.000000
_cell_volume 1027.297317
_symmetry_space_group_name_H-M "P 21/M"
_symmetry_group_IT_number 11
_symmetry_cell_setting 'monoclinic'
loop_
_space_group_symop_operation_xyz
x,y,z
-x,1/2+y,-z
-x,-y,-z
x,1/2-y,z
loop_
_atom_site_type_symbol
_atom_site_label
_atom_site_fract_x
_atom_site_fract_y
_atom_site_fract_z
Si Si1 0.935108 0.839092 0.707827
Si Si2 0.399609 0.601763 0.291653
Si Si3 0.951955 0.439134 0.845126
Si Si4 0.151362 0.077427 0.620312
Si Si5 0.607072 0.480621 0.328951
Si Si6 0.700777 0.658796 0.992878
O O1 0.907321 0.750000 0.669340
O O2 0.677063 0.867057 0.531279
O O3 0.957546 0.873736 0.592621
O O4 0.181781 0.856414 0.014832
O O5 0.300472 0.600037 0.337786
O O6 0.416060 0.516967 0.247988
O O7 0.868483 0.482623 0.643752
O O8 0.137429 0.373526 0.971629
O O9 0.000000 0.500000 0.000000
O O10 0.181032 0.128891 0.768249
O O11 0.398695 0.040122 0.789100
O O12 0.000000 0.000000 0.500000
O O13 0.544939 0.394235 0.238605
O O14 0.670625 0.750000 0.961785
#
# Coordination Sequence:
#
# PCOD9167373 Si02
#       6
#     4   4   4   4   4   4
#     4  11  25  45  71 106 147 188 241 307 373 433
#     4  11  24  43  75 107 139 194 249 295 356 448
#     4  12  24  46  74 104 143 191 248 300 359 448
#     4  11  22  47  73  99 134 192 251 301 359 450
#     4  11  24  45  76 100 137 192 250 301 362 445
#     4  12  27  44  69 110 150 183 238 315 384 432
#
# _framework density 23.362272000000001
#
# number of rings (size 3 to 8) (size 9 to 14) (size 15 to 20)
#    0.000    0.667    3.333    5.000    2.333    3.333 
#    0.000    3.333    0.000    0.000    0.000    0.000 
#    0.000    0.000    0.000    0.000    0.000    0.000 
#
# Total GULP energy -133996.929251 kJ/mol
# GULP energy per Si atom -5583.205385 kJ/mol
# Density = 2.330910 g / cm^3
# Si number density = 23.362272 Si / 1000 Ang^3
#
#
#
# Elastic Constant Matrix: (Units=GPa)
#
#
# Indices 1 2 3 4 5 6 
#
# 1 93.7429 33.5020 15.9170 0.0000 -6.6291 0.0000
# 2 33.5020 192.3093 24.4997 0.0000 -2.1187 0.0000
# 3 15.9170 24.4997 70.8870 0.0000 -1.1574 0.0000
# 4 0.0000 0.0000 0.0000 19.9562 0.0000 6.3425
# 5 -6.6291 -2.1187 -1.1574 0.0000 33.2223 0.0000
# 6 0.0000 0.0000 0.0000 6.3425 0.0000 25.6831
#
#
#
# Elastic Compliance Matrix: (Units=1/GPa)
#
#
# Indices 1 2 3 4 5 6 
#
# 1 0.011795 -0.001776 -0.001999 0.000000 0.002171 0.000000
# 2 -0.001776 0.005710 -0.001575 0.000000 -0.000045 0.000000
# 3 -0.001999 -0.001575 0.015101 0.000000 0.000027 0.000000
# 4 0.000000 0.000000 0.000000 0.054378 0.000000 -0.013429
# 5 0.002171 -0.000045 0.000027 0.000000 0.030531 0.000000
# 6 0.000000 0.000000 0.000000 -0.013429 0.000000 0.042252
#
#
# Mechanical properties :
#
#
# Convention : Reuss Voigt Hill
#
# Bulk Modulus (GPa) = 45.65322 56.08629 50.86976
# Shear Modulus (GPa) = 28.12631 34.64035 31.38333
#
# Velocity S-wave (km/s) = 3.47352 3.85482 3.66913
# Velocity P-wave (km/s) = 5.97252 6.62361 6.30647
#
# Compressibility (1/GPa) = 0.02190426
#
# Stress axis : x y z
#
# Youngs Moduli (GPa) = 84.78013 175.14447 66.22200
#
# Poissons Ratio (x) = 0.31110 0.13239
# Poissons Ratio (y) = 0.15059 0.10431
# Poissons Ratio (z) = 0.16949 0.27589
#
# Static dielectric constant tensor:
#      x y z
#    x 2.076400 0.000000 0.045840 
#    y 0.000000 1.871370 0.000000 
#    z 0.045840 0.000000 2.011220 
# 
# From -- ./inp_files/36183.got.cif
#   From: 2010.05.17/outbox.cif.g08.bks.cpg/sg11_19_cif.got.tgz:36183.got - 2010.06.03 12:22:45.
