data_PCOD9167108
_publ_section_title
;
Structure prediction by ZEFSAII (Michael W. Deem and Ramdas Pophale) SiO2 
 PCOD9167108
Probable space group: P 21/M
;
_chemical_formula_sum "Si O2"
_cell_formula_units_Z 24
_cell_length_a 7.128224
_cell_length_b 21.894010
_cell_length_c 11.240765
_cell_angle_alpha 90.000000
_cell_angle_beta 43.242065
_cell_angle_gamma 90.000000
_cell_volume 1201.835827
_symmetry_space_group_name_H-M "P 21/M"
_symmetry_group_IT_number 11
_symmetry_cell_setting 'monoclinic'
loop_
_space_group_symop_operation_xyz
x,y,z
-x,1/2+y,-z
-x,-y,-z
x,1/2-y,z
loop_
_atom_site_type_symbol
_atom_site_label
_atom_site_fract_x
_atom_site_fract_y
_atom_site_fract_z
Si Si1 0.836007 0.320187 0.663644
Si Si2 0.908736 0.535070 0.856052
Si Si3 0.672674 0.616249 0.161981
Si Si4 0.786348 0.902839 0.672993
Si Si5 0.784437 0.107288 0.935485
Si Si6 0.494078 0.503670 0.643475
O O1 0.909802 0.250000 0.649324
O O2 0.832204 0.357833 0.789179
O O3 0.037509 0.351494 0.474471
O O4 0.524559 0.326584 0.759938
O O5 0.938589 0.561097 0.709421
O O6 0.731766 0.584504 0.008291
O O7 0.501242 0.620518 0.864615
O O8 0.499502 0.563811 0.308251
O O9 0.954721 0.623967 0.102512
O O10 0.187301 0.529730 0.803538
O O11 0.702919 0.951999 0.611038
O O12 0.209908 0.966375 0.090170
O O13 0.500000 0.500000 0.500000
#
# Coordination Sequence:
#
# PCOD9167108 Si02
#       6
#     4   4   4   4   4   4
#     4  12  29  45  60  90 128 178 231 264 306 372
#     4  11  20  38  68 106 131 160 202 263 345 408
#     4  11  21  42  67  96 134 163 206 268 327 394
#     4  12  22  40  67  95 133 169 209 264 325 386
#     4  11  22  43  72  96 130 165 207 269 331 392
#     4  11  21  35  63 104 136 161 199 259 338 402
#
# _framework density 19.969449999999998
#
# number of rings (size 3 to 8) (size 9 to 14) (size 15 to 20)
#    0.000    0.667    5.000    5.500    0.000    3.333 
#    0.000    0.000    0.000    0.000    0.000    0.000 
#    0.000    0.000    0.000    0.000    0.000    0.000 
#
# Total GULP energy -134132.158226 kJ/mol
# GULP energy per Si atom -5588.839926 kJ/mol
# Density = 1.992400 g / cm^3
# Si number density = 19.969450 Si / 1000 Ang^3
#
#
#
# Elastic Constant Matrix: (Units=GPa)
#
#
# Indices 1 2 3 4 5 6 
#
# 1 99.1357 39.8019 32.7168 0.0000 6.2975 0.0000
# 2 39.8019 87.2189 49.3174 0.0000 1.0785 0.0000
# 3 32.7168 49.3174 127.6309 0.0000 11.5173 0.0000
# 4 0.0000 0.0000 0.0000 12.9377 0.0000 -1.2437
# 5 6.2975 1.0785 11.5173 0.0000 39.5793 0.0000
# 6 0.0000 0.0000 0.0000 -1.2437 0.0000 16.5981
#
#
#
# Elastic Compliance Matrix: (Units=1/GPa)
#
#
# Indices 1 2 3 4 5 6 
#
# 1 0.012602 -0.005097 -0.001122 0.000000 -0.001540 0.000000
# 2 -0.005097 0.016797 -0.005356 0.000000 0.001912 0.000000
# 3 -0.001122 -0.005356 0.010437 0.000000 -0.002713 0.000000
# 4 0.000000 0.000000 0.000000 0.077855 0.000000 0.005834
# 5 -0.001540 0.001912 -0.002713 0.000000 0.026248 0.000000
# 6 0.000000 0.000000 0.000000 0.005834 0.000000 0.060685
#
#
# Mechanical properties :
#
#
# Convention : Reuss Voigt Hill
#
# Bulk Modulus (GPa) = 59.93485 61.96198 60.94842
# Shear Modulus (GPa) = 21.42840 26.63296 24.03068
#
# Velocity S-wave (km/s) = 3.27931 3.65593 3.47273
# Velocity P-wave (km/s) = 6.66460 6.99406 6.83132
#
# Compressibility (1/GPa) = 0.01668478
#
# Stress axis : x y z
#
# Youngs Moduli (GPa) = 79.35408 59.53599 95.81231
#
# Poissons Ratio (x) = 0.30348 0.10747
# Poissons Ratio (y) = 0.40450 0.51319
# Poissons Ratio (z) = 0.08901 0.31888
#
# Static dielectric constant tensor:
#      x y z
#    x 1.745330 0.000000 -0.042080 
#    y 0.000000 1.661920 0.000000 
#    z -0.042080 0.000000 1.825870 
# 
# From -- ./inp_files/32594.got.cif
#   From: 2010.05.17/outbox.cif.g08.bks.cpg/sg11_17_cif.got.tgz:32594.got - 2010.06.03 12:22:45.
