data_PCOD9167608
_publ_section_title
;
Structure prediction by ZEFSAII (Michael W. Deem and Ramdas Pophale) SiO2 
 PCOD9167608
Probable space group: P 21/M
;
_chemical_formula_sum "Si O2"
_cell_formula_units_Z 18
_cell_length_a 4.845950
_cell_length_b 18.412496
_cell_length_c 9.830736
_cell_angle_alpha 90.000000
_cell_angle_beta 115.852679
_cell_angle_gamma 90.000000
_cell_volume 789.370110
_symmetry_space_group_name_H-M "P 21/M"
_symmetry_group_IT_number 11
_symmetry_cell_setting 'monoclinic'
loop_
_space_group_symop_operation_xyz
x,y,z
-x,1/2+y,-z
-x,-y,-z
x,1/2-y,z
loop_
_atom_site_type_symbol
_atom_site_label
_atom_site_fract_x
_atom_site_fract_y
_atom_site_fract_z
Si Si1 0.301982 0.976410 0.145531
Si Si2 0.849120 0.619591 0.195888
Si Si3 0.541792 0.629533 0.706027
Si Si4 0.196456 0.250000 0.035975
Si Si5 0.852377 0.667448 0.508826
O O1 0.544019 0.929316 0.112563
O O2 0.155074 0.926060 0.231166
O O3 0.459089 0.049429 0.231647
O O4 0.000000 0.000000 0.000000
O O5 0.837066 0.686616 0.090023
O O6 0.840149 0.642741 0.350941
O O7 0.661096 0.623427 0.577956
O O8 0.203293 0.662500 0.632420
O O9 0.752934 0.685340 0.836855
O O10 0.738207 0.750000 0.491465
#
# Coordination Sequence:
#
# PCOD9167608 Si02
#       5
#     4   4   4   2   4
#     4  12  27  47  72 109 145 185 236 301 349 420
#     4  12  28  47  76 104 146 186 240 290 359 418
#     4  12  27  45  76 101 144 187 241 285 361 420
#     4  12  26  46  76 110 132 198 234 292 354 426
#     4  12  25  48  70 109 142 185 237 301 347 420
#
# _framework density 22.802992
#
# number of rings (size 3 to 8) (size 9 to 14) (size 15 to 20)
#    0.000    0.000    5.556    3.333    3.111    8.000 
#    0.000    0.000    0.000    0.000    0.000    0.000 
#    0.000    0.000    0.000    0.000    0.000    0.000 
#
# Total GULP energy -100290.348076 kJ/mol
# GULP energy per Si atom -5571.686004 kJ/mol
# Density = 2.275109 g / cm^3
# Si number density = 22.802992 Si / 1000 Ang^3
#
#
#
# Elastic Constant Matrix: (Units=GPa)
#
#
# Indices 1 2 3 4 5 6 
#
# 1 64.4643 5.6220 2.2339 0.0000 -5.7062 0.0000
# 2 5.6220 102.7596 58.9207 0.0000 -8.2944 0.0000
# 3 2.2339 58.9207 105.7165 0.0000 -17.6200 0.0000
# 4 0.0000 0.0000 0.0000 19.2862 0.0000 7.1842
# 5 -5.7062 -8.2944 -17.6200 0.0000 22.1664 0.0000
# 6 0.0000 0.0000 0.0000 7.1842 0.0000 -20.7163
#
#
#
# Elastic Compliance Matrix: (Units=1/GPa)
#
#
# Indices 1 2 3 4 5 6 
#
# 1 0.015973 -0.001098 0.001028 0.000000 0.004518 0.000000
# 2 -0.001098 0.014402 -0.008245 0.000000 -0.001448 0.000000
# 3 0.001028 -0.008245 0.015634 0.000000 0.009607 0.000000
# 4 0.000000 0.000000 0.000000 0.045919 0.000000 0.015924
# 5 0.004518 -0.001448 0.009607 0.000000 0.053371 0.000000
# 6 0.000000 0.000000 0.000000 0.015924 0.000000 -0.042749
#
#
# Mechanical properties :
#
#
# Convention : Reuss Voigt Hill
#
# Bulk Modulus (GPa) = 34.04013 45.16596 39.60305
# Shear Modulus (GPa) = 38.76742 17.89150 28.32946
#
# Velocity S-wave (km/s) = 4.12770 2.80413 3.52853
# Velocity P-wave (km/s) = 6.13821 5.50765 5.83146
#
# Compressibility (1/GPa) = 0.02937709
#
# Stress axis : x y z
#
# Youngs Moduli (GPa) = 62.60750 69.43310 63.96260
#
# Poissons Ratio (x) = 0.07627 -0.06573
# Poissons Ratio (y) = 0.06877 0.52738
# Poissons Ratio (z) = -0.06434 0.57249
#
# Static dielectric constant tensor:
#      x y z
#    x 1.855360 0.000000 0.010440 
#    y 0.000000 1.882830 0.000000 
#    z 0.010440 0.000000 1.863840 
# 
# From -- ./inp_files/1748.got.cif
#   From: 2010.05.17/outbox.cif.g08.bks.cpg/sg11_1_cif.got.tgz:1748.got - 2010.06.03 12:22:45.
