data_PCOD9167277
_publ_section_title
;
Structure prediction by ZEFSAII (Michael W. Deem and Ramdas Pophale) SiO2 
 PCOD9167277
Probable space group: P 21/M
;
_chemical_formula_sum "Si O2"
_cell_formula_units_Z 32
_cell_length_a 26.100999
_cell_length_b 8.393511
_cell_length_c 19.832315
_cell_angle_alpha 90.000000
_cell_angle_beta 162.083106
_cell_angle_gamma 90.000000
_cell_volume 1336.635644
_symmetry_space_group_name_H-M "P 21/M"
_symmetry_group_IT_number 11
_symmetry_cell_setting 'monoclinic'
loop_
_space_group_symop_operation_xyz
x,y,z
-x,1/2+y,-z
-x,-y,-z
x,1/2-y,z
loop_
_atom_site_type_symbol
_atom_site_label
_atom_site_fract_x
_atom_site_fract_y
_atom_site_fract_z
Si Si1 0.987722 0.937240 0.908537
Si Si2 0.146246 0.568274 0.902051
Si Si3 0.333881 0.066410 0.325295
Si Si4 0.228822 0.560154 0.578242
Si Si5 0.814916 0.560321 0.334185
Si Si6 0.506834 0.933561 0.662057
Si Si7 0.344338 0.058443 0.584187
Si Si8 0.824351 0.931929 0.200044
O O1 0.969647 0.750000 0.890085
O O2 0.831821 0.996341 0.670003
O O3 0.163864 0.978115 0.095290
O O4 0.000000 0.000000 0.000000
O O5 0.141869 0.750000 0.920538
O O6 0.306947 0.473938 0.129795
O O7 0.187729 0.560051 0.874017
O O8 0.964068 0.490831 0.679236
O O9 0.312844 0.250000 0.283981
O O10 0.500000 0.000000 0.500000
O O11 0.376627 0.041405 0.458039
O O12 0.239418 0.750000 0.594888
O O13 0.274147 0.485040 0.707685
O O14 0.336440 0.493490 0.651510
O O15 0.857314 0.750000 0.390670
O O16 0.736878 0.538429 0.162184
O O17 0.976958 0.446269 0.536694
O O18 0.468784 0.750000 0.600904
O O19 0.479638 0.972583 0.706590
O O20 0.360943 0.250000 0.600144
O O21 0.790074 0.750000 0.133440
#
# Coordination Sequence:
#
# PCOD9167277 Si02
#       8
#     4   4   4   4   4   4   4   4
#     4  11  23  41  66  91 119 153 195 243 288 346
#     4  11  22  37  58  85 120 157 196 242 295 350
#     4  12  26  44  65  91 123 156 194 241 294 347
#     4  11  22  36  57  87 120 155 198 245 292 343
#     4   9  16  28  49  78 114 151 190 239 291 342
#     4  12  25  43  64  87 118 155 197 241 291 352
#     4  11  24  42  63  87 118 156 196 239 292 350
#     4   9  16  28  49  79 113 150 192 238 289 344
#
# _framework density 23.940705999999999
#
# number of rings (size 3 to 8) (size 9 to 14) (size 15 to 20)
#    0.000    1.250    1.250    7.500    1.750    3.000 
#    0.000    0.000    0.000    0.750    0.000    0.000 
#    0.000    0.000    0.000    0.000    0.000    0.000 
#
# Total GULP energy -178971.525260 kJ/mol
# GULP energy per Si atom -5592.860164 kJ/mol
# Density = 2.388622 g / cm^3
# Si number density = 23.940706 Si / 1000 Ang^3
#
#
#
# Elastic Constant Matrix: (Units=GPa)
#
#
# Indices 1 2 3 4 5 6 
#
# 1 131.2911 11.2489 -1.9461 0.0000 9.5488 0.0000
# 2 11.2489 110.3663 -1.7781 0.0000 4.6549 0.0000
# 3 -1.9461 -1.7781 48.0373 0.0000 20.0827 0.0000
# 4 0.0000 0.0000 0.0000 22.5692 0.0000 0.2437
# 5 9.5488 4.6549 20.0827 0.0000 26.5298 0.0000
# 6 0.0000 0.0000 0.0000 0.2437 0.0000 39.0351
#
#
#
# Elastic Compliance Matrix: (Units=1/GPa)
#
#
# Indices 1 2 3 4 5 6 
#
# 1 0.008020 -0.000597 0.002144 0.000000 -0.004405 0.000000
# 2 -0.000597 0.009245 0.001326 0.000000 -0.002411 0.000000
# 3 0.002144 0.001326 0.031269 0.000000 -0.024674 0.000000
# 4 0.000000 0.000000 0.000000 0.044311 0.000000 -0.000277
# 5 -0.004405 -0.002411 -0.024674 0.000000 0.058380 0.000000
# 6 0.000000 0.000000 0.000000 -0.000277 0.000000 0.025620
#
#
# Mechanical properties :
#
#
# Convention : Reuss Voigt Hill
#
# Bulk Modulus (GPa) = 18.42309 33.86048 26.14179
# Shear Modulus (GPa) = 26.42832 36.43815 31.43324
#
# Velocity S-wave (km/s) = 3.32611 3.90554 3.62741
# Velocity P-wave (km/s) = 4.73949 5.87467 5.33735
#
# Compressibility (1/GPa) = 0.05427971
#
# Stress axis : x y z
#
# Youngs Moduli (GPa) = 124.68837 108.17087 31.98098
#
# Poissons Ratio (x) = 0.06459 -0.06858
# Poissons Ratio (y) = 0.07445 -0.04240
# Poissons Ratio (z) = -0.26739 -0.14342
#
# Static dielectric constant tensor:
#      x y z
#    x 2.020930 0.000000 -0.062400 
#    y 0.000000 1.808890 0.000000 
#    z -0.062400 0.000000 2.031850 
# 
# From -- ./inp_files/67235.got.cif
#   From: 2010.05.17/outbox.cif.g08.bks.cpg/sg11_34_cif.got.tgz:67235.got - 2010.06.03 12:22:45.
