data_PCOD9167241
_publ_section_title
;
Structure prediction by ZEFSAII (Michael W. Deem and Ramdas Pophale) SiO2 
 PCOD9167241
Probable space group: P 21/M
;
_chemical_formula_sum "Si O2"
_cell_formula_units_Z 24
_cell_length_a 7.424589
_cell_length_b 17.024105
_cell_length_c 14.575803
_cell_angle_alpha 90.000000
_cell_angle_beta 149.860952
_cell_angle_gamma 90.000000
_cell_volume 925.038102
_symmetry_space_group_name_H-M "P 21/M"
_symmetry_group_IT_number 11
_symmetry_cell_setting 'monoclinic'
loop_
_space_group_symop_operation_xyz
x,y,z
-x,1/2+y,-z
-x,-y,-z
x,1/2-y,z
loop_
_atom_site_type_symbol
_atom_site_label
_atom_site_fract_x
_atom_site_fract_y
_atom_site_fract_z
Si Si1 0.271480 0.667392 0.164705
Si Si2 0.765119 0.665709 0.202724
Si Si3 0.928195 0.502566 0.684279
Si Si4 0.768543 0.000067 0.806155
Si Si5 0.881500 0.334677 0.219363
Si Si6 0.608047 0.664891 0.737082
O O1 0.307835 0.750000 0.231868
O O2 0.525106 0.668738 0.187933
O O3 0.361943 0.589364 0.259945
O O4 0.879352 0.665747 0.943837
O O5 0.963826 0.750000 0.284886
O O6 0.958290 0.583095 0.295753
O O7 0.505403 0.662810 0.000134
O O8 0.500000 0.500000 0.500000
O O9 0.038905 0.511508 0.840312
O O10 0.060300 0.584575 0.699916
O O11 0.490709 0.927141 0.686401
O O12 0.000000 0.000000 0.000000
O O13 0.914196 0.250000 0.282051
O O14 0.165515 0.332501 0.258979
O O15 0.411431 0.750000 0.654560
#
# Coordination Sequence:
#
# PCOD9167241 Si02
#       6
#     4   4   4   4   4   4
#     4   8  14  27  48  70  93 126 169 214 254 294
#     4   9  18  34  56  78 101 139 186 221 255 313
#     4  11  22  33  50  82 115 139 167 218 278 318
#     4   9  17  30  49  73 100 136 176 212 254 307
#     4   8  15  30  51  71  97 138 181 214 249 304
#     4   7  11  22  42  68  93 120 161 209 251 290
#
# _framework density 25.944877999999999
#
# number of rings (size 3 to 8) (size 9 to 14) (size 15 to 20)
#    0.000    3.333    0.000    3.500    0.000    1.333 
#    0.000    0.833    0.000    1.000    0.000    2.333 
#    0.000    0.000    0.000    0.000    0.000    0.000 
#
# Total GULP energy -133797.417884 kJ/mol
# GULP energy per Si atom -5574.892412 kJ/mol
# Density = 2.588583 g / cm^3
# Si number density = 25.944878 Si / 1000 Ang^3
#
#
#
# Elastic Constant Matrix: (Units=GPa)
#
#
# Indices 1 2 3 4 5 6 
#
# 1 43.1229 -1.3609 -0.5827 0.0000 -10.7613 0.0000
# 2 -1.3609 376.0397 34.3879 0.0000 16.1736 0.0000
# 3 -0.5827 34.3879 73.5837 0.0000 -6.5879 0.0000
# 4 0.0000 0.0000 0.0000 -28.0573 0.0000 15.2521
# 5 -10.7613 16.1736 -6.5879 0.0000 15.0979 0.0000
# 6 0.0000 0.0000 0.0000 15.2521 0.0000 23.9970
#
#
#
# Elastic Compliance Matrix: (Units=1/GPa)
#
#
# Indices 1 2 3 4 5 6 
#
# 1 0.028958 -0.001148 0.002835 0.000000 0.023107 0.000000
# 2 -0.001148 0.003036 -0.001865 0.000000 -0.004884 0.000000
# 3 0.002835 -0.001865 0.015447 0.000000 0.010759 0.000000
# 4 0.000000 0.000000 0.000000 -0.026489 0.000000 0.016836
# 5 0.023107 -0.004884 0.010759 0.000000 0.092632 0.000000
# 6 0.000000 0.000000 0.000000 0.016836 0.000000 0.030971
#
#
# Mechanical properties :
#
#
# Convention : Reuss Voigt Hill
#
# Bulk Modulus (GPa) = 21.23872 61.95943 41.59907
# Shear Modulus (GPa) = 31.13195 32.89432 32.01313
#
# Velocity S-wave (km/s) = 3.46775 3.56456 3.51649
# Velocity P-wave (km/s) = 4.92317 6.39331 5.70579
#
# Compressibility (1/GPa) = 0.04708382
#
# Stress axis : x y z
#
# Youngs Moduli (GPa) = 34.53266 329.40522 64.73648
#
# Poissons Ratio (x) = 0.37825 -0.18351
# Poissons Ratio (y) = 0.03965 0.12074
# Poissons Ratio (z) = -0.09789 0.61437
#
# Static dielectric constant tensor:
#      x y z
#    x 2.054400 0.000000 -0.010510 
#    y 0.000000 2.187580 0.000000 
#    z -0.010510 0.000000 2.040750 
# 
# From -- ./inp_files/58281.got.cif
#   From: 2010.05.17/outbox.cif.g08.bks.cpg/sg11_30_cif.got.tgz:58281.got - 2010.06.03 12:22:45.
