data_PCOD9167317
_publ_section_title
;
Structure prediction by ZEFSAII (Michael W. Deem and Ramdas Pophale) SiO2 
 PCOD9167317
Probable space group: P 21/M
;
_chemical_formula_sum "Si O2"
_cell_formula_units_Z 32
_cell_length_a 21.831043
_cell_length_b 15.356508
_cell_length_c 15.900500
_cell_angle_alpha 90.000000
_cell_angle_beta 17.855019
_cell_angle_gamma 90.000000
_cell_volume 1634.418556
_symmetry_space_group_name_H-M "P 21/M"
_symmetry_group_IT_number 11
_symmetry_cell_setting 'monoclinic'
loop_
_space_group_symop_operation_xyz
x,y,z
-x,1/2+y,-z
-x,-y,-z
x,1/2-y,z
loop_
_atom_site_type_symbol
_atom_site_label
_atom_site_fract_x
_atom_site_fract_y
_atom_site_fract_z
Si Si1 0.305053 0.942504 0.766030
Si Si2 0.298833 0.648400 0.948789
Si Si3 0.633557 0.651447 0.816809
Si Si4 0.075775 0.562458 0.752253
Si Si5 0.046473 0.021413 0.535025
Si Si6 0.836077 0.347166 0.527674
Si Si7 0.933101 0.150641 0.058736
Si Si8 0.311713 0.393547 0.450532
O O1 0.334923 0.877682 0.804860
O O2 0.249248 0.890375 0.754782
O O3 0.500000 0.000000 0.500000
O O4 0.113611 0.005346 0.030737
O O5 0.246107 0.750000 0.024249
O O6 0.491939 0.629798 0.753811
O O7 0.124029 0.585141 0.207703
O O8 0.699624 0.750000 0.753225
O O9 0.751401 0.575958 0.711711
O O10 0.671634 0.638674 0.667124
O O11 0.398419 0.645691 0.143558
O O12 0.125400 0.637468 0.621397
O O13 0.028922 0.596897 0.906317
O O14 0.262686 0.496293 0.511412
O O15 0.059100 0.928666 0.564829
O O16 0.000000 0.000000 0.500000
O O17 0.902540 0.250000 0.466151
O O18 0.894759 0.250000 0.130796
O O19 0.122590 0.145094 0.748280
#
# Coordination Sequence:
#
# PCOD9167317 Si02
#       8
#     4   4   4   4   4   4   4   4
#     4  11  22  41  64  94 134 167 212 264 330 386
#     4  12  24  40  64  99 134 170 213 270 332 388
#     4  11  23  42  68  96 126 167 221 272 321 386
#     4  11  22  41  65  91 126 178 216 263 311 393
#     4  12  25  41  65  94 133 168 209 272 333 389
#     4  11  24  44  66  93 129 175 224 265 316 390
#     4  11  22  39  63  95 127 167 218 266 314 379
#     4  11  22  40  69  95 128 163 223 266 323 376
#
# _framework density 19.578828000000001
#
# number of rings (size 3 to 8) (size 9 to 14) (size 15 to 20)
#    0.000    0.750    2.500    7.125    1.750    2.000 
#    0.000    1.875    0.000    0.000    0.000    0.000 
#    0.000    0.000    0.000    0.000    0.000    0.000 
#
# Total GULP energy -178904.429110 kJ/mol
# GULP energy per Si atom -5590.763410 kJ/mol
# Density = 1.953427 g / cm^3
# Si number density = 19.578828 Si / 1000 Ang^3
#
#
#
# Elastic Constant Matrix: (Units=GPa)
#
#
# Indices 1 2 3 4 5 6 
#
# 1 118.2072 51.5356 29.3726 0.0000 3.1837 0.0000
# 2 51.5356 164.1424 41.9425 0.0000 -10.8322 0.0000
# 3 29.3726 41.9425 62.1125 0.0000 1.0574 0.0000
# 4 0.0000 0.0000 0.0000 25.8047 0.0000 6.6645
# 5 3.1837 -10.8322 1.0574 0.0000 30.5861 0.0000
# 6 0.0000 0.0000 0.0000 6.6645 0.0000 16.5960
#
#
#
# Elastic Compliance Matrix: (Units=1/GPa)
#
#
# Indices 1 2 3 4 5 6 
#
# 1 0.010423 -0.002594 -0.003145 0.000000 -0.001895 0.000000
# 2 -0.002594 0.008252 -0.004403 0.000000 0.003345 0.000000
# 3 -0.003145 -0.004403 0.020593 0.000000 -0.001944 0.000000
# 4 0.000000 0.000000 0.000000 0.043237 0.000000 -0.017363
# 5 -0.001895 0.003345 -0.001944 0.000000 0.034144 0.000000
# 6 0.000000 0.000000 0.000000 -0.017363 0.000000 0.067228
#
#
# Mechanical properties :
#
#
# Convention : Reuss Voigt Hill
#
# Bulk Modulus (GPa) = 52.67328 65.57373 59.12350
# Shear Modulus (GPa) = 23.75412 29.37145 26.56278
#
# Velocity S-wave (km/s) = 3.48696 3.87740 3.68735
# Velocity P-wave (km/s) = 6.57065 7.32192 6.95643
#
# Compressibility (1/GPa) = 0.01898496
#
# Stress axis : x y z
#
# Youngs Moduli (GPa) = 95.93996 121.17585 48.55926
#
# Poissons Ratio (x) = 0.31432 0.15273
# Poissons Ratio (y) = 0.24886 0.21380
# Poissons Ratio (z) = 0.30175 0.53353
#
# Static dielectric constant tensor:
#      x y z
#    x 1.664840 0.000000 0.010470 
#    y 0.000000 1.698110 0.000000 
#    z 0.010470 0.000000 1.677790 
# 
# From -- ./inp_files/54973.got.cif
#   From: 2010.05.17/outbox.cif.g08.bks.cpg/sg11_28_cif.got.tgz:54973.got - 2010.06.03 12:22:45.
