data_PCOD9167977
_publ_section_title
;
Structure prediction by ZEFSAII (Michael W. Deem and Ramdas Pophale) SiO2 
 PCOD9167977
Probable space group: P 21/M
;
_chemical_formula_sum "Si O2"
_cell_formula_units_Z 28
_cell_length_a 9.000000
_cell_length_b 9.000000
_cell_length_c 27.000000
_cell_angle_alpha 90.000000
_cell_angle_beta 40.000000
_cell_angle_gamma 90.000000
_cell_volume 1405.776502
_symmetry_space_group_name_H-M "P 21/M"
_symmetry_group_IT_number 11
_symmetry_cell_setting 'monoclinic'
loop_
_space_group_symop_operation_xyz
x,y,z
-x,1/2+y,-z
-x,-y,-z
x,1/2-y,z
loop_
_atom_site_type_symbol
_atom_site_label
_atom_site_fract_x
_atom_site_fract_y
_atom_site_fract_z
Si Si1 0.910519 0.570261 0.119847
Si Si2 0.096828 0.426404 0.558135
Si Si3 0.704234 0.921106 0.595219
Si Si4 0.983384 0.424426 0.317222
Si Si5 0.168097 0.576580 0.753994
Si Si6 0.490882 0.926957 0.845140
Si Si7 0.601000 0.930666 0.025646
O O1 0.924767 0.750000 0.113362
O O2 0.899200 0.517662 0.180417
O O3 0.696379 0.509173 0.141796
O O4 0.136079 0.489287 0.040386
O O5 0.099007 0.250000 0.564822
O O6 0.862884 0.479030 0.589930
O O7 0.114041 0.500663 0.607883
O O8 0.280486 0.463519 0.467139
O O9 0.790963 0.750000 0.576196
O O10 0.444758 0.923375 0.680358
O O11 0.919029 0.250000 0.335369
O O12 0.261339 0.437435 0.245220
O O13 0.910242 0.477872 0.280662
O O14 0.087928 0.750000 0.780368
O O15 0.436614 0.750000 0.864457
O O16 0.506323 0.002265 0.895953
O O17 0.584613 0.750000 0.028958
O O18 0.500000 0.000000 0.000000
#
# Coordination Sequence:
#
# PCOD9167977 Si02
#       7
#     4   4   4   4   4   4   4
#     4  12  25  41  62  90 121 155 197 244 294 347
#     4  10  20  34  55  83 114 149 192 240 289 347
#     4   9  19  36  57  81 112 151 193 239 292 347
#     4  10  22  38  58  83 114 152 191 236 293 351
#     4  10  21  39  60  83 114 153 197 243 294 352
#     4  11  23  41  63  88 119 157 200 244 293 349
#     4  12  25  43  66  93 124 157 194 239 292 347
#
# _framework density 19.917818
#
# number of rings (size 3 to 8) (size 9 to 14) (size 15 to 20)
#    0.000    1.429    0.000    5.571    0.000    8.000 
#    0.000    0.000    0.000    0.000    0.000    0.000 
#    0.000    0.000    0.000    0.000    0.000    0.000 
#
# Total GULP energy -156419.916134 kJ/mol
# GULP energy per Si atom -5586.425576 kJ/mol
# Density = 1.987248 g / cm^3
# Si number density = 19.917818 Si / 1000 Ang^3
#
#
#
# Elastic Constant Matrix: (Units=GPa)
#
#
# Indices 1 2 3 4 5 6 
#
# 1 56.8229 16.3005 -15.5575 0.0000 28.4925 0.0000
# 2 16.3005 114.8747 18.1576 0.0000 20.3216 0.0000
# 3 -15.5575 18.1576 57.5805 0.0000 26.3385 0.0000
# 4 0.0000 0.0000 0.0000 28.1611 0.0000 11.8375
# 5 28.4925 20.3216 26.3385 0.0000 45.0806 0.0000
# 6 0.0000 0.0000 0.0000 11.8375 0.0000 38.2134
#
#
#
# Elastic Compliance Matrix: (Units=1/GPa)
#
#
# Indices 1 2 3 4 5 6 
#
# 1 0.073618 -0.005799 0.057055 0.000000 -0.077249 0.000000
# 2 -0.005799 0.010001 -0.005916 0.000000 0.002613 0.000000
# 3 0.057055 -0.005916 0.068131 0.000000 -0.073199 0.000000
# 4 0.000000 0.000000 0.000000 0.040826 0.000000 -0.012647
# 5 -0.077249 0.002613 -0.073199 0.000000 0.112596 0.000000
# 6 0.000000 0.000000 0.000000 -0.012647 0.000000 0.030087
#
#
# Mechanical properties :
#
#
# Convention : Reuss Voigt Hill
#
# Bulk Modulus (GPa) = 4.12492 29.67550 16.90021
# Shear Modulus (GPa) = 15.36627 36.31618 25.84122
#
# Velocity S-wave (km/s) = 2.78057 4.27465 3.60584
# Velocity P-wave (km/s) = 3.51912 6.26855 5.08326
#
# Compressibility (1/GPa) = 0.24242913
#
# Stress axis : x y z
#
# Youngs Moduli (GPa) = 13.58365 99.99212 14.67765
#
# Poissons Ratio (x) = 0.57985 -0.83743
# Poissons Ratio (y) = 0.07877 0.08683
# Poissons Ratio (z) = -0.77501 0.59154
#
# Static dielectric constant tensor:
#      x y z
#    x 1.707590 0.000000 -0.017460 
#    y 0.000000 1.689450 0.000000 
#    z -0.017460 0.000000 1.718400 
# 
# From -- ./inp_files/70849.got.cif
#   From: 2010.05.17/outbox.ucp.g08.bks.cvg/sg11_36_cif.got.tgz:70849.got - 2010.06.11 11:38:39.
