data_PCOD9167591
_publ_section_title
;
Structure prediction by ZEFSAII (Michael W. Deem and Ramdas Pophale) SiO2 
 PCOD9167591
Probable space group: P 21/M
;
_chemical_formula_sum "Si O2"
_cell_formula_units_Z 20
_cell_length_a 8.959327
_cell_length_b 20.685212
_cell_length_c 9.292057
_cell_angle_alpha 90.000000
_cell_angle_beta 149.167300
_cell_angle_gamma 90.000000
_cell_volume 882.610461
_symmetry_space_group_name_H-M "P 21/M"
_symmetry_group_IT_number 11
_symmetry_cell_setting 'monoclinic'
loop_
_space_group_symop_operation_xyz
x,y,z
-x,1/2+y,-z
-x,-y,-z
x,1/2-y,z
loop_
_atom_site_type_symbol
_atom_site_label
_atom_site_fract_x
_atom_site_fract_y
_atom_site_fract_z
Si Si1 0.415487 0.447281 0.810918
Si Si2 0.248988 0.035858 0.116838
Si Si3 0.218259 0.625323 0.405044
Si Si4 0.925747 0.750000 0.682073
Si Si5 0.867095 0.367143 0.332801
Si Si6 0.713036 0.250000 0.732591
O O1 0.082107 0.428935 0.513334
O O2 0.500000 0.500000 0.000000
O O3 0.554450 0.478897 0.785646
O O4 0.584001 0.384056 0.005196
O O5 0.060843 0.078922 0.849261
O O6 0.484607 0.085118 0.380002
O O7 0.000000 0.000000 0.000000
O O8 0.196754 0.686367 0.282030
O O9 0.219132 0.646104 0.573476
O O10 0.965009 0.811079 0.610757
O O11 0.630522 0.750000 0.527420
O O12 0.163067 0.750000 0.004366
#
# Coordination Sequence:
#
# PCOD9167591 Si02
#       6
#     4   4   4   2   4   2
#     4  12  23  44  72 106 140 177 228 289 340 418
#     4  12  27  42  71 107 145 180 228 282 356 415
#     4  12  25  49  70 102 141 190 228 283 348 422
#     4  12  29  48  71 106 132 187 239 298 343 401
#     4  12  25  46  75 100 140 183 238 283 346 412
#     4  12  29  48  71 100 144 181 237 292 351 407
#
# _framework density 22.660052
#
# number of rings (size 3 to 8) (size 9 to 14) (size 15 to 20)
#    0.000    0.000    4.000    5.400    8.400    0.000 
#    0.000    6.000    0.000    0.000    0.000    0.000 
#    0.000    0.000    0.000    0.000    0.000    0.000 
#
# Total GULP energy -111955.113197 kJ/mol
# GULP energy per Si atom -5597.755660 kJ/mol
# Density = 2.260848 g / cm^3
# Si number density = 22.660052 Si / 1000 Ang^3
#
#
#
# Elastic Constant Matrix: (Units=GPa)
#
#
# Indices 1 2 3 4 5 6 
#
# 1 93.9373 44.7412 -13.8895 0.0000 -6.5454 0.0000
# 2 44.7412 78.7817 13.6471 0.0000 -22.7115 0.0000
# 3 -13.8895 13.6471 88.8996 0.0000 0.1359 0.0000
# 4 0.0000 0.0000 0.0000 27.9283 0.0000 -1.8119
# 5 -6.5454 -22.7115 0.1359 0.0000 31.6843 0.0000
# 6 0.0000 0.0000 0.0000 -1.8119 0.0000 40.4069
#
#
#
# Elastic Compliance Matrix: (Units=1/GPa)
#
#
# Indices 1 2 3 4 5 6 
#
# 1 0.016410 -0.011468 0.004332 0.000000 -0.004849 0.000000
# 2 -0.011468 0.024576 -0.005588 0.000000 0.015272 0.000000
# 3 0.004332 -0.005588 0.012788 0.000000 -0.003165 0.000000
# 4 0.000000 0.000000 0.000000 0.035910 0.000000 0.001610
# 5 -0.004849 0.015272 -0.003165 0.000000 0.041520 0.000000
# 6 0.000000 0.000000 0.000000 0.001610 0.000000 0.024820
#
#
# Mechanical properties :
#
#
# Convention : Reuss Voigt Hill
#
# Bulk Modulus (GPa) = 35.30202 38.95737 37.12969
# Shear Modulus (GPa) = 26.18968 34.47855 30.33412
#
# Velocity S-wave (km/s) = 3.40334 3.90495 3.66274
# Velocity P-wave (km/s) = 5.57283 6.12869 5.85736
#
# Compressibility (1/GPa) = 0.02832699
#
# Stress axis : x y z
#
# Youngs Moduli (GPa) = 60.93886 40.68949 78.19810
#
# Poissons Ratio (x) = 0.46661 -0.33873
# Poissons Ratio (y) = 0.69882 0.43695
# Poissons Ratio (z) = -0.26397 0.22736
#
# Static dielectric constant tensor:
#      x y z
#    x 1.845940 0.000000 -0.025180 
#    y 0.000000 1.556480 0.000000 
#    z -0.025180 0.000000 1.807040 
# 
# From -- ./inp_files/10292.got.cif
#   From: 2010.05.17/outbox.cif.g08.bks.cpg/sg11_6_cif.got.tgz:10292.got - 2010.06.03 12:22:45.
