data_PCOD9167348
_publ_section_title
;
Structure prediction by ZEFSAII (Michael W. Deem and Ramdas Pophale) SiO2 
 PCOD9167348
Probable space group: P 21/M
;
_chemical_formula_sum "Si O2"
_cell_formula_units_Z 28
_cell_length_a 12.114700
_cell_length_b 20.123243
_cell_length_c 6.573039
_cell_angle_alpha 90.000000
_cell_angle_beta 57.579387
_cell_angle_gamma 90.000000
_cell_volume 1352.660486
_symmetry_space_group_name_H-M "P 21/M"
_symmetry_group_IT_number 11
_symmetry_cell_setting 'monoclinic'
loop_
_space_group_symop_operation_xyz
x,y,z
-x,1/2+y,-z
-x,-y,-z
x,1/2-y,z
loop_
_atom_site_type_symbol
_atom_site_label
_atom_site_fract_x
_atom_site_fract_y
_atom_site_fract_z
Si Si1 0.673360 0.631401 0.989931
Si Si2 0.012775 0.568434 0.116892
Si Si3 0.226469 0.472860 0.403814
Si Si4 0.960914 0.825942 0.813695
Si Si5 0.817343 0.382897 0.700410
Si Si6 0.552552 0.175547 0.088834
Si Si7 0.444071 0.428450 0.497790
O O1 0.599041 0.615617 0.270010
O O2 0.715192 0.560156 0.854970
O O3 0.810825 0.668172 0.886571
O O4 0.571609 0.666234 0.938593
O O5 0.141035 0.590930 0.115036
O O6 0.914398 0.555769 0.401808
O O7 0.000000 0.500000 0.000000
O O8 0.976367 0.625743 0.992927
O O9 0.221065 0.551386 0.388151
O O10 0.316341 0.446683 0.495199
O O11 0.987981 0.750000 0.844227
O O12 0.063246 0.848188 0.537550
O O13 0.690485 0.336653 0.842189
O O14 0.548510 0.250000 0.179331
O O15 0.537032 0.116756 0.267584
O O16 0.500000 0.500000 0.500000
#
# Coordination Sequence:
#
# PCOD9167348 Si02
#       7
#     4   4   4   4   4   4   4
#     4  11  23  46  69  97 133 179 225 286 338 403
#     4  12  24  42  69 102 136 176 227 279 339 402
#     4  11  22  41  69 103 131 172 232 282 336 399
#     4  12  26  43  68 101 135 180 231 283 344 410
#     4  12  25  44  70  99 142 181 223 285 343 410
#     4  11  27  46  66  98 139 183 224 274 346 416
#     4  11  24  42  71 102 132 175 232 286 336 402
#
# _framework density 20.699946000000001
#
# number of rings (size 3 to 8) (size 9 to 14) (size 15 to 20)
#    0.000    0.571    4.286    3.857    2.000    5.714 
#    0.000    0.000    0.000    0.000    0.000    0.000 
#    0.000    0.000    0.000    0.000    0.000    0.000 
#
# Total GULP energy -156461.147647 kJ/mol
# GULP energy per Si atom -5587.898130 kJ/mol
# Density = 2.065283 g / cm^3
# Si number density = 20.699946 Si / 1000 Ang^3
#
#
#
# Elastic Constant Matrix: (Units=GPa)
#
#
# Indices 1 2 3 4 5 6 
#
# 1 32.3046 13.3746 14.8945 0.0000 -14.5570 0.0000
# 2 13.3746 142.6268 19.6332 0.0000 -2.3843 0.0000
# 3 14.8945 19.6332 78.9074 0.0000 -8.8048 0.0000
# 4 0.0000 0.0000 0.0000 23.4579 0.0000 -2.9671
# 5 -14.5570 -2.3843 -8.8048 0.0000 30.7286 0.0000
# 6 0.0000 0.0000 0.0000 -2.9671 0.0000 -24.7224
#
#
#
# Elastic Compliance Matrix: (Units=1/GPa)
#
#
# Indices 1 2 3 4 5 6 
#
# 1 0.043036 -0.002995 -0.005299 0.000000 0.018637 0.000000
# 2 -0.002995 0.007468 -0.001432 0.000000 -0.001250 0.000000
# 3 -0.005299 -0.001432 0.014191 0.000000 0.001445 0.000000
# 4 0.000000 0.000000 0.000000 0.041992 0.000000 -0.005040
# 5 0.018637 -0.001250 0.001445 0.000000 0.041689 0.000000
# 6 0.000000 0.000000 0.000000 -0.005040 0.000000 -0.039844
#
#
# Mechanical properties :
#
#
# Convention : Reuss Voigt Hill
#
# Bulk Modulus (GPa) = 22.10242 38.84927 30.47585
# Shear Modulus (GPa) = 34.94895 19.62190 27.28543
#
# Velocity S-wave (km/s) = 4.11342 3.08217 3.63456
# Velocity P-wave (km/s) = 5.76724 5.61025 5.68929
#
# Compressibility (1/GPa) = 0.04524391
#
# Stress axis : x y z
#
# Youngs Moduli (GPa) = 23.23609 133.89727 70.46769
#
# Poissons Ratio (x) = 0.40098 0.37340
# Poissons Ratio (y) = 0.06959 0.10094
# Poissons Ratio (z) = 0.12312 0.19179
#
# Static dielectric constant tensor:
#      x y z
#    x -7.562740 0.000000 7.332610 
#    y 0.000000 1.650640 0.000000 
#    z 7.332610 0.000000 -4.018560 
# 
# From -- ./inp_files/4988.got.cif
#   From: 2010.05.17/outbox.cif.g08.bks.cpg/sg11_3_cif.got.tgz:4988.got - 2010.06.03 12:22:45.
