data_PCOD9167032
_publ_section_title
;
Structure prediction by ZEFSAII (Michael W. Deem and Ramdas Pophale) SiO2 
 PCOD9167032
Probable space group: P 21/M
;
_chemical_formula_sum "Si O2"
_cell_formula_units_Z 32
_cell_length_a 16.806636
_cell_length_b 18.029093
_cell_length_c 12.872348
_cell_angle_alpha 90.000000
_cell_angle_beta 26.739701
_cell_angle_gamma 90.000000
_cell_volume 1754.951187
_symmetry_space_group_name_H-M "P 21/M"
_symmetry_group_IT_number 11
_symmetry_cell_setting 'monoclinic'
loop_
_space_group_symop_operation_xyz
x,y,z
-x,1/2+y,-z
-x,-y,-z
x,1/2-y,z
loop_
_atom_site_type_symbol
_atom_site_label
_atom_site_fract_x
_atom_site_fract_y
_atom_site_fract_z
Si Si1 0.196417 0.477921 0.990537
Si Si2 0.265188 0.831876 0.410308
Si Si3 0.049653 0.333251 0.055645
Si Si4 0.431353 0.959329 0.337537
Si Si5 0.146810 0.562806 0.850131
Si Si6 0.987237 0.949992 0.412156
Si Si7 0.741947 0.162722 0.814652
Si Si8 0.593457 0.936879 0.818016
O O1 0.169559 0.400836 0.958512
O O2 0.370193 0.469379 0.856444
O O3 0.212374 0.544720 0.888809
O O4 0.037207 0.499948 0.253584
O O5 0.345870 0.750000 0.310276
O O6 0.404427 0.889792 0.292308
O O7 0.192536 0.848967 0.380703
O O8 0.105076 0.830589 0.677890
O O9 0.125562 0.250000 0.958247
O O10 0.953343 0.361101 0.062473
O O11 0.304235 0.948107 0.584233
O O12 0.377641 0.028405 0.329537
O O13 0.000000 0.500000 0.000000
O O14 0.787306 0.920276 0.636361
O O15 0.134173 0.885822 0.254974
O O16 0.000000 0.000000 0.500000
O O17 0.745092 0.250000 0.835125
O O18 0.544075 0.129774 0.037042
O O19 0.500000 0.000000 0.000000
#
# Coordination Sequence:
#
# PCOD9167032 Si02
#       8
#     4   4   4   4   4   4   4   4
#     4  11  21  34  57  88 113 147 198 241 284 352
#     4   9  18  33  52  78 113 149 183 237 297 342
#     4   9  18  34  55  79 112 145 185 238 293 343
#     4  11  19  34  57  84 114 147 190 242 285 348
#     4   9  19  35  55  82 109 144 190 231 288 341
#     4  12  22  38  62  88 120 160 202 243 297 355
#     4  11  23  39  57  85 122 155 201 251 297 353
#     4  12  21  36  60  86 117 155 201 240 292 353
#
# _framework density 18.234126
#
# number of rings (size 3 to 8) (size 9 to 14) (size 15 to 20)
#    0.000    1.500    3.750    3.375    0.000    1.000 
#    0.000    0.625    0.000    6.000    0.000    0.000 
#    0.000    0.000    0.000    0.000    0.000    0.000 
#
# Total GULP energy -178390.880585 kJ/mol
# GULP energy per Si atom -5574.715018 kJ/mol
# Density = 1.819262 g / cm^3
# Si number density = 18.234126 Si / 1000 Ang^3
#
#
#
# Elastic Constant Matrix: (Units=GPa)
#
#
# Indices 1 2 3 4 5 6 
#
# 1 61.1638 35.6632 4.9435 0.0000 -11.9412 0.0000
# 2 35.6632 94.5278 15.9135 0.0000 -7.4770 0.0000
# 3 4.9435 15.9135 50.4468 0.0000 -15.4808 0.0000
# 4 0.0000 0.0000 0.0000 20.1018 0.0000 -1.7166
# 5 -11.9412 -7.4770 -15.4808 0.0000 42.7506 0.0000
# 6 0.0000 0.0000 0.0000 -1.7166 0.0000 28.8947
#
#
#
# Elastic Compliance Matrix: (Units=1/GPa)
#
#
# Indices 1 2 3 4 5 6 
#
# 1 0.022057 -0.008245 0.002124 0.000000 0.005488 0.000000
# 2 -0.008245 0.014276 -0.004091 0.000000 -0.001287 0.000000
# 3 0.002124 -0.004091 0.023476 0.000000 0.008379 0.000000
# 4 0.000000 0.000000 0.000000 0.050000 0.000000 0.002971
# 5 0.005488 -0.001287 0.008379 0.000000 0.027733 0.000000
# 6 0.000000 0.000000 0.000000 0.002971 0.000000 0.034785
#
#
# Mechanical properties :
#
#
# Convention : Reuss Voigt Hill
#
# Bulk Modulus (GPa) = 25.39000 35.46429 30.42715
# Shear Modulus (GPa) = 24.28591 28.32397 26.30494
#
# Velocity S-wave (km/s) = 3.65347 3.94553 3.80231
# Velocity P-wave (km/s) = 5.63487 6.34412 5.99999
#
# Compressibility (1/GPa) = 0.03938559
#
# Stress axis : x y z
#
# Youngs Moduli (GPa) = 45.33762 70.04606 42.59588
#
# Poissons Ratio (x) = 0.57752 -0.09045
# Poissons Ratio (y) = 0.37380 0.17424
# Poissons Ratio (z) = -0.09628 0.28653
#
# Static dielectric constant tensor:
#      x y z
#    x 1.679470 0.000000 0.020230 
#    y 0.000000 1.671890 0.000000 
#    z 0.020230 0.000000 1.637110 
# 
# From -- ./inp_files/39996.got.cif
#   From: 2010.05.17/outbox.cif.g08.bks.cpg/sg11_20_cif.got.tgz:39996.got - 2010.06.03 12:22:45.
