data_PCOD9167520
_publ_section_title
;
Structure prediction by ZEFSAII (Michael W. Deem and Ramdas Pophale) SiO2 
 PCOD9167520
Probable space group: P 21/M
;
_chemical_formula_sum "Si O2"
_cell_formula_units_Z 26
_cell_length_a 8.948355
_cell_length_b 20.602343
_cell_length_c 7.284455
_cell_angle_alpha 90.000000
_cell_angle_beta 129.858288
_cell_angle_gamma 90.000000
_cell_volume 1030.884275
_symmetry_space_group_name_H-M "P 21/M"
_symmetry_group_IT_number 11
_symmetry_cell_setting 'monoclinic'
loop_
_space_group_symop_operation_xyz
x,y,z
-x,1/2+y,-z
-x,-y,-z
x,1/2-y,z
loop_
_atom_site_type_symbol
_atom_site_label
_atom_site_fract_x
_atom_site_fract_y
_atom_site_fract_z
Si Si1 0.155127 0.387921 0.253672
Si Si2 0.424996 0.038696 0.207114
Si Si3 0.774943 0.387858 0.360576
Si Si4 0.368116 0.750000 0.279989
Si Si5 0.263520 0.599015 0.102552
Si Si6 0.839504 0.750000 0.578675
Si Si7 0.849383 0.558907 0.350409
Si Si8 0.816906 0.250000 0.464414
O O1 0.324580 0.406386 0.250939
O O2 0.108593 0.313721 0.264628
O O3 0.209230 0.416873 0.495482
O O4 0.957397 0.415125 0.008606
O O5 0.646672 0.060115 0.364262
O O6 0.384946 0.965876 0.244646
O O7 0.677818 0.953902 0.074373
O O8 0.703223 0.314810 0.318738
O O9 0.997511 0.387611 0.604051
O O10 0.761585 0.403140 0.136790
O O11 0.328449 0.672753 0.195713
O O12 0.601657 0.750000 0.402572
O O13 0.223429 0.750000 0.348048
O O14 0.979401 0.750000 0.502329
O O15 0.000000 0.500000 0.500000
#
# Coordination Sequence:
#
# PCOD9167520 Si02
#       8
#     4   4   4   2   4   2   4   2
#     4  11  25  47  74 108 153 200 261 321 385 473
#     4  12  26  47  79 112 156 204 255 322 412 456
#     4  11  25  47  74 108 153 200 261 321 385 473
#     4  12  30  44  82 114 146 212 274 306 410 482
#     4  11  24  48  72 107 155 197 256 329 381 474
#     4  12  25  52  75 111 159 206 261 338 385 468
#     4  11  24  44  71 105 146 194 249 311 384 463
#     4  12  25  52  75 111 159 206 261 338 385 468
#
# _framework density 25.221064999999999
#
# number of rings (size 3 to 8) (size 9 to 14) (size 15 to 20)
#    0.000    0.615    6.154    2.769    4.308    0.000 
#    0.000    3.846    0.000    0.000    0.000    0.000 
#    0.000    0.000    0.000    0.000    0.000    0.000 
#
# Total GULP energy -145056.371336 kJ/mol
# GULP energy per Si atom -5579.091205 kJ/mol
# Density = 2.516366 g / cm^3
# Si number density = 25.221065 Si / 1000 Ang^3
#
#
#
# Elastic Constant Matrix: (Units=GPa)
#
#
# Indices 1 2 3 4 5 6 
#
# 1 158.3267 28.1940 43.7956 0.0000 16.8231 0.0000
# 2 28.1940 153.1618 21.7506 0.0000 -1.8939 0.0000
# 3 43.7956 21.7506 59.2236 0.0000 11.4304 0.0000
# 4 0.0000 0.0000 0.0000 36.3091 0.0000 3.8157
# 5 16.8231 -1.8939 11.4304 0.0000 42.5046 0.0000
# 6 0.0000 0.0000 0.0000 3.8157 0.0000 38.9317
#
#
#
# Elastic Compliance Matrix: (Units=1/GPa)
#
#
# Indices 1 2 3 4 5 6 
#
# 1 0.008133 -0.000754 -0.005389 0.000000 -0.001803 0.000000
# 2 -0.000754 0.007002 -0.002249 0.000000 0.001215 0.000000
# 3 -0.005389 -0.002249 0.022470 0.000000 -0.004010 0.000000
# 4 0.000000 0.000000 0.000000 0.027828 0.000000 -0.002727
# 5 -0.001803 0.001215 -0.004010 0.000000 0.025373 0.000000
# 6 0.000000 0.000000 0.000000 -0.002727 0.000000 0.025953
#
#
# Mechanical properties :
#
#
# Convention : Reuss Voigt Hill
#
# Bulk Modulus (GPa) = 48.02713 62.02138 55.02426
# Shear Modulus (GPa) = 35.59144 42.01386 38.80265
#
# Velocity S-wave (km/s) = 3.76064 4.08588 3.92663
# Velocity P-wave (km/s) = 6.15958 6.84863 6.51322
#
# Compressibility (1/GPa) = 0.02082157
#
# Stress axis : x y z
#
# Youngs Moduli (GPa) = 122.96131 142.81239 44.50353
#
# Poissons Ratio (x) = 0.10769 0.23983
# Poissons Ratio (y) = 0.09272 0.10007
# Poissons Ratio (z) = 0.66265 0.32112
#
# Static dielectric constant tensor:
#      x y z
#    x 2.090000 0.000000 0.060010 
#    y 0.000000 2.109550 0.000000 
#    z 0.060010 0.000000 2.041760 
# 
# From -- ./inp_files/14588.got.cif
#   From: 2010.05.17/outbox.cif.g08.bks.cpg/sg11_8_cif.got.tgz:14588.got - 2010.06.03 12:22:45.
