data_PCOD9167100
_publ_section_title
;
Structure prediction by ZEFSAII (Michael W. Deem and Ramdas Pophale) SiO2 
 PCOD9167100
Probable space group: P 21/M
;
_chemical_formula_sum "Si O2"
_cell_formula_units_Z 24
_cell_length_a 15.014923
_cell_length_b 12.018929
_cell_length_c 14.705756
_cell_angle_alpha 90.000000
_cell_angle_beta 153.504533
_cell_angle_gamma 90.000000
_cell_volume 1183.953787
_symmetry_space_group_name_H-M "P 21/M"
_symmetry_group_IT_number 11
_symmetry_cell_setting 'monoclinic'
loop_
_space_group_symop_operation_xyz
x,y,z
-x,1/2+y,-z
-x,-y,-z
x,1/2-y,z
loop_
_atom_site_type_symbol
_atom_site_label
_atom_site_fract_x
_atom_site_fract_y
_atom_site_fract_z
Si Si1 0.062504 0.455202 0.340496
Si Si2 0.592968 0.125159 0.358785
Si Si3 0.037955 0.632469 0.940805
Si Si4 0.329081 0.444769 0.282108
Si Si5 0.110753 0.379239 0.580996
Si Si6 0.292529 0.378252 0.928730
O O1 0.237759 0.536117 0.467506
O O2 0.997926 0.378718 0.198866
O O3 0.137528 0.389739 0.497851
O O4 0.877611 0.535814 0.196776
O O5 0.675616 0.250000 0.429407
O O6 0.431666 0.118646 0.292044
O O7 0.489832 0.098924 0.167363
O O8 0.130955 0.750000 0.050340
O O9 0.825024 0.622171 0.796104
O O10 0.187465 0.537673 0.108564
O O11 0.500000 0.500000 0.500000
O O12 0.025484 0.250000 0.518973
O O13 0.294221 0.383247 0.820325
O O14 0.000000 0.500000 0.500000
O O15 0.238611 0.250000 0.903365
#
# Coordination Sequence:
#
# PCOD9167100 Si02
#       6
#     4   4   4   4   4   4
#     4  11  20  37  60  88 123 153 202 241 303 359
#     4  11  22  37  61  88 120 160 202 250 300 358
#     4  11  24  40  62  87 119 155 195 248 305 363
#     4  11  23  44  59  85 118 154 202 249 300 364
#     4   9  19  36  62  89 122 162 202 249 304 363
#     4   9  19  37  58  85 120 156 198 249 293 348
#
# _framework density 20.271062000000001
#
# number of rings (size 3 to 8) (size 9 to 14) (size 15 to 20)
#    0.000    1.667    3.333    1.500    0.000    2.667 
#    0.000    0.000    0.000    0.000    0.000    0.000 
#    0.000    0.000    0.000    0.000    0.000    0.000 
#
# Total GULP energy -133695.192619 kJ/mol
# GULP energy per Si atom -5570.633026 kJ/mol
# Density = 2.022492 g / cm^3
# Si number density = 20.271062 Si / 1000 Ang^3
#
#
#
# Elastic Constant Matrix: (Units=GPa)
#
#
# Indices 1 2 3 4 5 6 
#
# 1 51.8722 6.4334 8.7530 0.0000 -21.3107 0.0000
# 2 6.4334 98.3180 9.6851 0.0000 0.5490 0.0000
# 3 8.7530 9.6851 49.5526 0.0000 -15.0959 0.0000
# 4 0.0000 0.0000 0.0000 15.5691 0.0000 -4.1995
# 5 -21.3107 0.5490 -15.0959 0.0000 32.4452 0.0000
# 6 0.0000 0.0000 0.0000 -4.1995 0.0000 41.2671
#
#
#
# Elastic Compliance Matrix: (Units=1/GPa)
#
#
# Indices 1 2 3 4 5 6 
#
# 1 0.026793 -0.001972 0.001193 0.000000 0.018187 0.000000
# 2 -0.001972 0.010563 -0.002523 0.000000 -0.002648 0.000000
# 3 0.001193 -0.002523 0.024136 0.000000 0.012056 0.000000
# 4 0.000000 0.000000 0.000000 0.066042 0.000000 0.006721
# 5 0.018187 -0.002648 0.012056 0.000000 0.048421 0.000000
# 6 0.000000 0.000000 0.000000 0.006721 0.000000 0.024916
#
#
# Mechanical properties :
#
#
# Convention : Reuss Voigt Hill
#
# Bulk Modulus (GPa) = 18.21878 27.72063 22.96971
# Shear Modulus (GPa) = 22.14622 29.51438 25.83030
#
# Velocity S-wave (km/s) = 3.30889 3.81988 3.57353
# Velocity P-wave (km/s) = 4.85854 5.75847 5.32754
#
# Compressibility (1/GPa) = 0.05488841
#
# Stress axis : x y z
#
# Youngs Moduli (GPa) = 37.32299 94.66600 41.43226
#
# Poissons Ratio (x) = 0.18671 -0.04944
# Poissons Ratio (y) = 0.07361 0.10453
# Poissons Ratio (z) = -0.04454 0.23884
#
# Static dielectric constant tensor:
#      x y z
#    x 1.734000 0.000000 -0.013360 
#    y 0.000000 1.783550 0.000000 
#    z -0.013360 0.000000 1.683770 
# 
# From -- ./inp_files/52346.got.cif
#   From: 2010.05.17/outbox.cif.g08.bks.cpg/sg11_27_cif.got.tgz:52346.got - 2010.06.03 12:22:45.
