data_PCOD9167364
_publ_section_title
;
Structure prediction by ZEFSAII (Michael W. Deem and Ramdas Pophale) SiO2 
 PCOD9167364
Probable space group: P 21/M
;
_chemical_formula_sum "Si O2"
_cell_formula_units_Z 28
_cell_length_a 8.487759
_cell_length_b 20.925412
_cell_length_c 12.969941
_cell_angle_alpha 90.000000
_cell_angle_beta 35.896192
_cell_angle_gamma 90.000000
_cell_volume 1350.637082
_symmetry_space_group_name_H-M "P 21/M"
_symmetry_group_IT_number 11
_symmetry_cell_setting 'monoclinic'
loop_
_space_group_symop_operation_xyz
x,y,z
-x,1/2+y,-z
-x,-y,-z
x,1/2-y,z
loop_
_atom_site_type_symbol
_atom_site_label
_atom_site_fract_x
_atom_site_fract_y
_atom_site_fract_z
Si Si1 0.698978 0.617443 0.975940
Si Si2 0.379056 0.936807 0.838217
Si Si3 0.658530 0.676727 0.368594
Si Si4 0.846978 0.100360 0.825615
Si Si5 0.081847 0.032608 0.323475
Si Si6 0.218801 0.679402 0.779366
Si Si7 0.481450 0.064002 0.712080
O O1 0.853534 0.571204 0.815140
O O2 0.914568 0.667255 0.903721
O O3 0.428387 0.636203 0.059390
O O4 0.586175 0.580891 0.134854
O O5 0.681506 0.947912 0.722141
O O6 0.318061 0.873087 0.807509
O O7 0.334583 0.995282 0.781814
O O8 0.204263 0.931822 0.035122
O O9 0.693153 0.750000 0.313822
O O10 0.406264 0.675199 0.579282
O O11 0.615057 0.623718 0.303914
O O12 0.915418 0.650889 0.294239
O O13 0.908456 0.041854 0.715007
O O14 0.792999 0.052664 0.519608
O O15 0.245179 0.750000 0.810511
#
# Coordination Sequence:
#
# PCOD9167364 Si02
#       7
#     4   4   4   4   4   4   4
#     4  11  23  42  68 102 132 174 220 276 334 399
#     4  11  23  40  70 103 133 174 226 274 344 400
#     4  11  27  46  65  96 137 183 232 278 338 410
#     4  11  23  43  69 102 142 168 225 285 336 405
#     4  11  22  43  65 109 138 168 215 288 331 404
#     4  11  26  47  66  95 140 183 229 282 337 403
#     4  12  23  40  74  99 137 178 221 277 345 400
#
# _framework density 20.730958000000001
#
# number of rings (size 3 to 8) (size 9 to 14) (size 15 to 20)
#    0.000    0.857    4.286    3.000    4.000    5.143 
#    0.000    2.857    0.000    0.000    0.000    0.000 
#    0.000    0.000    0.000    0.000    0.000    0.000 
#
# Total GULP energy -156419.704044 kJ/mol
# GULP energy per Si atom -5586.418002 kJ/mol
# Density = 2.068377 g / cm^3
# Si number density = 20.730958 Si / 1000 Ang^3
#
#
#
# Elastic Constant Matrix: (Units=GPa)
#
#
# Indices 1 2 3 4 5 6 
#
# 1 87.8729 74.1088 39.7502 0.0000 -2.6769 0.0000
# 2 74.1088 157.4442 41.2356 0.0000 -12.6487 0.0000
# 3 39.7502 41.2356 131.1673 0.0000 -9.0562 0.0000
# 4 0.0000 0.0000 0.0000 13.1113 0.0000 -6.1111
# 5 -2.6769 -12.6487 -9.0562 0.0000 35.5286 0.0000
# 6 0.0000 0.0000 0.0000 -6.1111 0.0000 -1.7261
#
#
#
# Elastic Compliance Matrix: (Units=1/GPa)
#
#
# Indices 1 2 3 4 5 6 
#
# 1 0.020397 -0.008870 -0.003568 0.000000 -0.002530 0.000000
# 2 -0.008870 0.010913 -0.000530 0.000000 0.003082 0.000000
# 3 -0.003568 -0.000530 0.008998 0.000000 0.001836 0.000000
# 4 0.000000 0.000000 0.000000 0.028779 0.000000 -0.101891
# 5 -0.002530 0.003082 0.001836 0.000000 0.029521 0.000000
# 6 0.000000 0.000000 0.000000 -0.101891 0.000000 -0.218606
#
#
# Mechanical properties :
#
#
# Convention : Reuss Voigt Hill
#
# Bulk Modulus (GPa) = 69.57157 76.29704 72.93430
# Shear Modulus (GPa) = -56.00898 24.14209 -15.93344
#
# Velocity S-wave (km/s) = -5.20343 3.41624 -2.77534
# Velocity P-wave (km/s) = 1.57126 7.24184 4.99877
#
# Compressibility (1/GPa) = 0.01437369
#
# Stress axis : x y z
#
# Youngs Moduli (GPa) = 49.02581 91.63470 111.13080
#
# Poissons Ratio (x) = 0.81279 0.39648
# Poissons Ratio (y) = 0.43486 0.05889
# Poissons Ratio (z) = 0.17491 0.04856
#
# Static dielectric constant tensor:
#      x y z
#    x 1.776600 0.000000 -0.017550 
#    y 0.000000 1.742190 0.000000 
#    z -0.017550 0.000000 1.743430 
# 
# From -- ./inp_files/48319.got.cif
#   From: 2010.05.17/outbox.cif.g08.bks.cpg/sg11_25_cif.got.tgz:48319.got - 2010.06.03 12:22:45.
