data_PCOD9167004
_publ_section_title
;
Structure prediction by ZEFSAII (Michael W. Deem and Ramdas Pophale) SiO2 
 PCOD9167004
Probable space group: P 21/M
;
_chemical_formula_sum "Si O2"
_cell_formula_units_Z 28
_cell_length_a 5.369398
_cell_length_b 14.696685
_cell_length_c 16.333145
_cell_angle_alpha 90.000000
_cell_angle_beta 114.941773
_cell_angle_gamma 90.000000
_cell_volume 1168.681166
_symmetry_space_group_name_H-M "P 21/M"
_symmetry_group_IT_number 11
_symmetry_cell_setting 'monoclinic'
loop_
_space_group_symop_operation_xyz
x,y,z
-x,1/2+y,-z
-x,-y,-z
x,1/2-y,z
loop_
_atom_site_type_symbol
_atom_site_label
_atom_site_fract_x
_atom_site_fract_y
_atom_site_fract_z
Si Si1 0.960101 0.847093 0.601537
Si Si2 0.787644 0.054232 0.031973
Si Si3 0.073460 0.349692 0.702098
Si Si4 0.852205 0.857136 0.782242
Si Si5 0.382547 0.512166 0.692603
Si Si6 0.054537 0.750000 0.165003
Si Si7 0.589477 0.250000 0.941121
Si Si8 0.449155 0.589463 0.441326
O O1 0.106361 0.750000 0.611309
O O2 0.889572 0.857379 0.688683
O O3 0.691391 0.848050 0.508200
O O4 0.148942 0.933060 0.610725
O O5 0.932561 0.080545 0.138438
O O6 0.711825 0.155357 0.990089
O O7 0.500000 0.000000 0.000000
O O8 0.000000 0.000000 0.000000
O O9 0.202038 0.250000 0.702002
O O10 0.257244 0.438173 0.735514
O O11 0.935042 0.333752 0.770958
O O12 0.850563 0.366774 0.600090
O O13 0.855594 0.750000 0.807703
O O14 0.565691 0.909283 0.757368
O O15 0.527447 0.448722 0.646727
O O16 0.739203 0.750000 0.088977
O O17 0.296853 0.750000 0.135368
O O18 0.500000 0.500000 0.500000
#
# Coordination Sequence:
#
# PCOD9167004 Si02
#       8
#     4   4   4   4   4   2   2   4
#     4  11  25  44  70 103 145 201 255 315 381 460
#     4  12  30  52  86 121 157 211 259 331 406 484
#     4  10  26  43  68 108 146 200 249 319 393 469
#     4  11  26  51  76 108 154 198 255 321 389 471
#     4  12  24  43  73 104 145 196 261 320 384 466
#     4  10  28  48  80 111 154 203 250 322 402 472
#     4  12  26  56  80 119 162 197 266 330 396 480
#     4  12  23  44  65  99 150 196 256 320 379 462
#
# _framework density 23.958629999999999
#
# number of rings (size 3 to 8) (size 9 to 14) (size 15 to 20)
#    0.429    0.286    3.571    2.143    6.000    3.429 
#    0.000    0.000    0.000    0.000    0.000    0.000 
#    0.000    0.000    0.000    0.000    0.000    0.000 
#
# Total GULP energy -156396.943440 kJ/mol
# GULP energy per Si atom -5585.605123 kJ/mol
# Density = 2.390410 g / cm^3
# Si number density = 23.958630 Si / 1000 Ang^3
#
#
#
# Elastic Constant Matrix: (Units=GPa)
#
#
# Indices 1 2 3 4 5 6 
#
# 1 82.5070 57.1788 22.7032 0.0000 18.7392 0.0000
# 2 57.1788 186.9753 35.9761 0.0000 13.1697 0.0000
# 3 22.7032 35.9761 51.1587 0.0000 19.6625 0.0000
# 4 0.0000 0.0000 0.0000 41.7585 0.0000 7.0483
# 5 18.7392 13.1697 19.6625 0.0000 36.1640 0.0000
# 6 0.0000 0.0000 0.0000 7.0483 0.0000 26.8764
#
#
#
# Elastic Compliance Matrix: (Units=1/GPa)
#
#
# Indices 1 2 3 4 5 6 
#
# 1 0.017152 -0.004397 -0.002173 0.000000 -0.006105 0.000000
# 2 -0.004397 0.007313 -0.003848 0.000000 0.001707 0.000000
# 3 -0.002173 -0.003848 0.028123 0.000000 -0.012763 0.000000
# 4 0.000000 0.000000 0.000000 0.025056 0.000000 -0.006571
# 5 -0.006105 0.001707 -0.012763 0.000000 0.037133 0.000000
# 6 0.000000 0.000000 0.000000 -0.006571 0.000000 0.038931
#
#
# Mechanical properties :
#
#
# Convention : Reuss Voigt Hill
#
# Bulk Modulus (GPa) = 31.49422 61.37303 46.43363
# Shear Modulus (GPa) = 27.00850 34.61197 30.81024
#
# Velocity S-wave (km/s) = 3.36117 3.80499 3.58994
# Velocity P-wave (km/s) = 5.31385 6.70640 6.05032
#
# Compressibility (1/GPa) = 0.03175185
#
# Stress axis : x y z
#
# Youngs Moduli (GPa) = 58.30225 136.74227 35.55871
#
# Poissons Ratio (x) = 0.60127 0.07728
# Poissons Ratio (y) = 0.25636 0.13681
# Poissons Ratio (z) = 0.12670 0.52612
#
# Static dielectric constant tensor:
#      x y z
#    x 1.996570 0.000000 0.040680 
#    y 0.000000 1.922550 0.000000 
#    z 0.040680 0.000000 1.643410 
# 
# From -- ./inp_files/56964.got.cif
#   From: 2010.05.17/outbox.cif.g08.bks.cpg/sg11_29_cif.got.tgz:56964.got - 2010.06.03 12:22:45.
