data_PCOD9167987
_publ_section_title
;
Structure prediction by ZEFSAII (Michael W. Deem and Ramdas Pophale) SiO2 
 PCOD9167987
Probable space group: P 21/M
;
_chemical_formula_sum "Si O2"
_cell_formula_units_Z 32
_cell_length_a 27.000000
_cell_length_b 9.000000
_cell_length_c 21.000000
_cell_angle_alpha 90.000000
_cell_angle_beta 20.000000
_cell_angle_gamma 90.000000
_cell_volume 1745.328791
_symmetry_space_group_name_H-M "P 21/M"
_symmetry_group_IT_number 11
_symmetry_cell_setting 'monoclinic'
loop_
_space_group_symop_operation_xyz
x,y,z
-x,1/2+y,-z
-x,-y,-z
x,1/2-y,z
loop_
_atom_site_type_symbol
_atom_site_label
_atom_site_fract_x
_atom_site_fract_y
_atom_site_fract_z
Si Si1 0.088498 0.070371 0.835265
Si Si2 0.854091 0.574099 0.751974
Si Si3 0.385573 0.924885 0.184311
Si Si4 0.840241 0.922520 0.624936
Si Si5 0.275715 0.428163 0.952588
Si Si6 0.977313 0.427424 0.827669
Si Si7 0.691604 0.927662 0.595027
Si Si8 0.392251 0.929370 0.436384
O O1 0.095851 0.250000 0.829762
O O2 0.007251 0.032990 0.866127
O O3 0.251727 0.003853 0.639134
O O4 0.000000 0.000000 0.000000
O O5 0.896756 0.750000 0.704533
O O6 0.784824 0.560030 0.764978
O O7 0.991119 0.464788 0.582386
O O8 0.765004 0.539685 0.923870
O O9 0.407521 0.750000 0.165503
O O10 0.235758 0.963872 0.330505
O O11 0.387532 0.010222 0.248171
O O12 0.500000 0.000000 0.000000
O O13 0.816742 0.750000 0.634643
O O14 0.267973 0.250000 0.954611
O O15 0.444927 0.471421 0.737291
O O16 0.155483 0.497749 0.050121
O O17 0.954832 0.250000 0.852053
O O18 0.135858 0.460140 0.606083
O O19 0.677648 0.750000 0.603702
O O20 0.628401 0.012308 0.610557
O O21 0.380833 0.750000 0.452928
#
# Coordination Sequence:
#
# PCOD9167987 Si02
#       8
#     4   4   4   4   4   4   4   4
#     4  10  21  40  65  92 121 155 195 237 282 342
#     4   9  19  35  54  75 106 146 186 235 287 342
#     4  12  25  38  53  75 105 143 189 243 300 354
#     4  10  20  35  53  75 104 140 188 241 292 349
#     4  10  21  35  55  84 116 151 194 237 282 338
#     4   9  20  37  59  87 118 149 187 234 283 337
#     4  10  21  39  59  83 112 149 196 246 294 351
#     4  10  21  37  59  89 122 157 194 237 287 343
#
# _framework density 18.334654
#
# number of rings (size 3 to 8) (size 9 to 14) (size 15 to 20)
#    0.000    2.000    0.000    4.125    1.750    7.000 
#    0.000    0.625    0.000    0.000    0.000    0.000 
#    0.000    0.000    0.000    0.000    0.000    0.000 
#
# Total GULP energy -178516.753640 kJ/mol
# GULP energy per Si atom -5578.648551 kJ/mol
# Density = 1.829292 g / cm^3
# Si number density = 18.334654 Si / 1000 Ang^3
#
#
#
# Elastic Constant Matrix: (Units=GPa)
#
#
# Indices 1 2 3 4 5 6 
#
# 1 58.2108 25.2480 49.5099 0.0000 5.8662 0.0000
# 2 25.2480 65.1154 33.6556 0.0000 1.5055 0.0000
# 3 49.5099 33.6556 104.7110 0.0000 8.7095 0.0000
# 4 0.0000 0.0000 0.0000 31.3971 0.0000 -3.9466
# 5 5.8662 1.5055 8.7095 0.0000 38.1194 0.0000
# 6 0.0000 0.0000 0.0000 -3.9466 0.0000 35.2401
#
#
#
# Elastic Compliance Matrix: (Units=1/GPa)
#
#
# Indices 1 2 3 4 5 6 
#
# 1 0.030218 -0.005233 -0.012473 0.000000 -0.001594 0.000000
# 2 -0.005233 0.019338 -0.003817 0.000000 0.000914 0.000000
# 3 -0.012473 -0.003817 0.016822 0.000000 -0.001773 0.000000
# 4 0.000000 0.000000 0.000000 0.032305 0.000000 0.003618
# 5 -0.001594 0.000914 -0.001773 0.000000 0.026848 0.000000
# 6 0.000000 0.000000 0.000000 0.003618 0.000000 0.028782
#
#
# Mechanical properties :
#
#
# Convention : Reuss Voigt Hill
#
# Bulk Modulus (GPa) = 42.86083 49.42937 46.14510
# Shear Modulus (GPa) = 24.37384 28.92622 26.65003
#
# Velocity S-wave (km/s) = 3.65003 3.97631 3.81666
# Velocity P-wave (km/s) = 6.41805 6.93538 6.68172
#
# Compressibility (1/GPa) = 0.02333133
#
# Stress axis : x y z
#
# Youngs Moduli (GPa) = 33.09257 51.71080 59.44505
#
# Poissons Ratio (x) = 0.27061 0.74148
# Poissons Ratio (y) = 0.17318 0.22692
# Poissons Ratio (z) = 0.41278 0.19740
#
# Static dielectric constant tensor:
#      x y z
#    x 1.657440 0.000000 -0.028750 
#    y 0.000000 1.609610 0.000000 
#    z -0.028750 0.000000 1.631830 
# 
# From -- ./inp_files/67121.got.cif
#   From: 2010.05.17/outbox.ucp.g08.bks.cvg/sg11_34_cif.got.tgz:67121.got - 2010.06.11 11:38:39.
