data_PCOD9167938
_publ_section_title
;
Structure prediction by ZEFSAII (Michael W. Deem and Ramdas Pophale) SiO2 
 PCOD9167938
Probable space group: P 21/M
;
_chemical_formula_sum "Si O2"
_cell_formula_units_Z 24
_cell_length_a 18.000000
_cell_length_b 9.000000
_cell_length_c 24.000000
_cell_angle_alpha 90.000000
_cell_angle_beta 20.000000
_cell_angle_gamma 90.000000
_cell_volume 1329.774317
_symmetry_space_group_name_H-M "P 21/M"
_symmetry_group_IT_number 11
_symmetry_cell_setting 'monoclinic'
loop_
_space_group_symop_operation_xyz
x,y,z
-x,1/2+y,-z
-x,-y,-z
x,1/2-y,z
loop_
_atom_site_type_symbol
_atom_site_label
_atom_site_fract_x
_atom_site_fract_y
_atom_site_fract_z
Si Si1 0.903706 0.917629 0.837697
Si Si2 0.943642 0.072587 0.981362
Si Si3 0.264830 0.571477 0.665065
Si Si4 0.438907 0.923527 0.986350
Si Si5 0.767796 0.927700 0.653474
Si Si6 0.579229 0.578960 0.173616
O O1 0.903039 0.750000 0.816039
O O2 0.139666 0.955014 0.694963
O O3 0.743893 0.919517 0.004334
O O4 0.795196 0.025354 0.870456
O O5 0.952987 0.250000 0.975910
O O6 0.117432 0.007213 0.815290
O O7 0.707058 0.016442 0.128829
O O8 0.000000 0.000000 0.000000
O O9 0.500000 0.500000 0.500000
O O10 0.268440 0.750000 0.671297
O O11 0.440318 0.750000 0.993377
O O12 0.615832 0.959274 0.814128
O O13 0.500000 0.000000 0.000000
O O14 0.782171 0.750000 0.636256
O O15 0.641469 0.003303 0.691223
O O16 0.000000 0.000000 0.500000
O O17 0.548408 0.750000 0.212383
#
# Coordination Sequence:
#
# PCOD9167938 Si02
#       6
#     4   4   4   4   4   4
#     4   8  16  31  51  73 100 133 169 206 249 302
#     4  11  21  35  55  79 107 139 175 217 261 311
#     4  10  20  35  55  80 107 138 175 216 261 310
#     4  10  20  33  52  76 102 132 169 209 252 301
#     4  10  20  34  53  78 104 135 173 213 257 307
#     4   9  17  32  53  76 102 135 172 211 256 311
#
# _framework density 18.048175000000001
#
# number of rings (size 3 to 8) (size 9 to 14) (size 15 to 20)
#    0.000    2.333    0.000    4.500    0.000    6.667 
#    0.000    1.667    0.000    6.000    0.000    0.000 
#    0.000    0.000    0.000    0.000    0.000    0.000 
#
# Total GULP energy -133826.602524 kJ/mol
# GULP energy per Si atom -5576.108439 kJ/mol
# Density = 1.800710 g / cm^3
# Si number density = 18.048175 Si / 1000 Ang^3
#
#
#
# Elastic Constant Matrix: (Units=GPa)
#
#
# Indices 1 2 3 4 5 6 
#
# 1 123.9960 95.4113 54.3920 0.0000 -31.8020 0.0000
# 2 95.4113 113.6538 67.7703 0.0000 -21.3094 0.0000
# 3 54.3920 67.7703 79.8376 0.0000 -44.7536 0.0000
# 4 0.0000 0.0000 0.0000 28.0147 0.0000 -6.9313
# 5 -31.8020 -21.3094 -44.7536 0.0000 30.0311 0.0000
# 6 0.0000 0.0000 0.0000 -6.9313 0.0000 33.0681
#
#
#
# Elastic Compliance Matrix: (Units=1/GPa)
#
#
# Indices 1 2 3 4 5 6 
#
# 1 0.000050 0.018553 -0.050861 0.000000 -0.062577 0.000000
# 2 0.018553 -0.029935 0.072141 0.000000 0.105913 0.000000
# 3 -0.050861 0.072141 -0.094498 0.000000 -0.143496 0.000000
# 4 0.000000 0.000000 0.000000 0.037648 0.000000 0.007891
# 5 -0.062577 0.105913 -0.143496 0.000000 -0.171659 0.000000
# 6 0.000000 0.000000 0.000000 0.007891 0.000000 0.031895
#
#
# Mechanical properties :
#
#
# Convention : Reuss Voigt Hill
#
# Bulk Modulus (GPa) = -22.36244 83.62609 30.63183
# Shear Modulus (GPa) = -15.57291 24.88371 4.65540
#
# Velocity S-wave (km/s) = -2.94062 3.71716 1.60780
# Velocity P-wave (km/s) = 4.89357 8.05348 4.52281
#
# Compressibility (1/GPa) = -0.04471785
#
# Stress axis : x y z
#
# Youngs Moduli (GPa) = 20007.20877 -33.40610 -10.58219
#
# Poissons Ratio (x) = 0.61977 -0.53822
# Poissons Ratio (y) = -371.18840 0.76340
# Poissons Ratio (z) = 1017.58015 2.40993
#
# Static dielectric constant tensor:
#      x y z
#    x 1.592620 0.000000 -0.037470 
#    y 0.000000 1.595760 0.000000 
#    z -0.037470 0.000000 1.577810 
# 
# From -- ./inp_files/28956.got.cif
#   From: 2010.05.17/outbox.ucp.g08.bks.cvg/sg11_15_cif.got.tgz:28956.got - 2010.06.11 11:38:39.
