data_PCOD9167558
_publ_section_title
;
Structure prediction by ZEFSAII (Michael W. Deem and Ramdas Pophale) SiO2 
 PCOD9167558
Probable space group: P 21/M
;
_chemical_formula_sum "Si O2"
_cell_formula_units_Z 28
_cell_length_a 21.679373
_cell_length_b 13.892312
_cell_length_c 9.256368
_cell_angle_alpha 90.000000
_cell_angle_beta 29.083205
_cell_angle_gamma 90.000000
_cell_volume 1355.092447
_symmetry_space_group_name_H-M "P 21/M"
_symmetry_group_IT_number 11
_symmetry_cell_setting 'monoclinic'
loop_
_space_group_symop_operation_xyz
x,y,z
-x,1/2+y,-z
-x,-y,-z
x,1/2-y,z
loop_
_atom_site_type_symbol
_atom_site_label
_atom_site_fract_x
_atom_site_fract_y
_atom_site_fract_z
Si Si1 0.726325 0.135707 0.157264
Si Si2 0.161713 0.364928 0.836007
Si Si3 0.206051 0.447722 0.430022
Si Si4 0.027423 0.521443 0.277924
Si Si5 0.438988 0.366464 0.780554
Si Si6 0.590757 0.633947 0.484409
Si Si7 0.303393 0.636959 0.126316
O O1 0.735004 0.250000 0.164452
O O2 0.586193 0.103517 0.496758
O O3 0.843458 0.082833 0.990920
O O4 0.731238 0.122566 0.972537
O O5 0.144483 0.250000 0.871111
O O6 0.172134 0.406170 0.654270
O O7 0.291878 0.389009 0.654752
O O8 0.053062 0.421361 0.143596
O O9 0.228164 0.562706 0.379162
O O10 0.091316 0.427104 0.554211
O O11 0.336707 0.402621 0.103528
O O12 0.000000 0.500000 0.500000
O O13 0.438910 0.250000 0.782454
O O14 0.397020 0.400569 0.705929
O O15 0.588284 0.750000 0.477870
O O16 0.452546 0.609771 0.828554
O O17 0.287115 0.750000 0.193419
#
# Coordination Sequence:
#
# PCOD9167558 Si02
#       7
#     4   4   4   4   4   4   4
#     4   9  20  40  66  97 132 165 214 278 330 377
#     4  11  26  45  63  91 137 176 209 266 329 391
#     4  12  24  39  66  98 131 173 215 262 326 397
#     4  12  25  43  67  99 124 169 231 271 319 390
#     4   9  19  38  66  98 128 166 214 269 326 386
#     4   8  17  36  61  89 121 166 216 259 315 375
#     4   9  19  37  62  94 129 166 211 268 326 377
#
# _framework density 20.662797000000001
#
# number of rings (size 3 to 8) (size 9 to 14) (size 15 to 20)
#    0.000    2.000    1.429    3.429    2.000    4.000 
#    0.000    0.714    0.000    0.000    0.000    0.000 
#    0.000    0.000    0.000    0.000    0.000    0.000 
#
# Total GULP energy -156513.910197 kJ/mol
# GULP energy per Si atom -5589.782507 kJ/mol
# Density = 2.061577 g / cm^3
# Si number density = 20.662797 Si / 1000 Ang^3
#
#
#
# Elastic Constant Matrix: (Units=GPa)
#
#
# Indices 1 2 3 4 5 6 
#
# 1 5.3546 3.8261 47.4242 0.0000 17.7792 0.0000
# 2 3.8261 94.3040 47.0483 0.0000 7.4408 0.0000
# 3 47.4242 47.0483 103.7908 0.0000 7.3697 0.0000
# 4 0.0000 0.0000 0.0000 29.5810 0.0000 2.5348
# 5 17.7792 7.4408 7.3697 0.0000 28.3260 0.0000
# 6 0.0000 0.0000 0.0000 2.5348 0.0000 29.3670
#
#
#
# Elastic Compliance Matrix: (Units=1/GPa)
#
#
# Indices 1 2 3 4 5 6 
#
# 1 -0.034246 -0.009368 0.018536 0.000000 0.019133 0.000000
# 2 -0.009368 0.011255 -0.001049 0.000000 0.003196 0.000000
# 3 0.018536 -0.001049 0.002493 0.000000 -0.012007 0.000000
# 4 0.000000 0.000000 0.000000 0.034057 0.000000 -0.002940
# 5 0.019133 0.003196 -0.012007 0.000000 0.025578 0.000000
# 6 0.000000 0.000000 0.000000 -0.002940 0.000000 0.034306
#
#
# Mechanical properties :
#
#
# Convention : Reuss Voigt Hill
#
# Bulk Modulus (GPa) = -234.78689 44.44960 -95.16864
# Shear Modulus (GPa) = 89.63060 24.46486 57.04773
#
# Velocity S-wave (km/s) = 6.59333 3.44467 5.26012
# Velocity P-wave (km/s) = 7.47743 6.11389 3.04404
#
# Compressibility (1/GPa) = -0.00425918
#
# Stress axis : x y z
#
# Youngs Moduli (GPa) = -29.20015 88.84939 401.07375
#
# Poissons Ratio (x) = 0.83232 -7.43418
# Poissons Ratio (y) = -0.27354 0.42053
# Poissons Ratio (z) = 0.54124 0.09316
#
# Static dielectric constant tensor:
#      x y z
#    x 1.709500 0.000000 -0.029590 
#    y 0.000000 1.778670 0.000000 
#    z -0.029590 0.000000 1.730170 
# 
# From -- ./inp_files/26903.got.cif
#   From: 2010.05.17/outbox.cif.g08.bks.cpg/sg11_14_cif.got.tgz:26903.got - 2010.06.03 12:22:45.
