data_PCOD9167082
_publ_section_title
;
Structure prediction by ZEFSAII (Michael W. Deem and Ramdas Pophale) SiO2 
 PCOD9167082
Probable space group: P 21/M
;
_chemical_formula_sum "Si O2"
_cell_formula_units_Z 32
_cell_length_a 24.578895
_cell_length_b 8.590869
_cell_length_c 18.333980
_cell_angle_alpha 90.000000
_cell_angle_beta 149.903938
_cell_angle_gamma 90.000000
_cell_volume 1941.265528
_symmetry_space_group_name_H-M "P 21/M"
_symmetry_group_IT_number 11
_symmetry_cell_setting 'monoclinic'
loop_
_space_group_symop_operation_xyz
x,y,z
-x,1/2+y,-z
-x,-y,-z
x,1/2-y,z
loop_
_atom_site_type_symbol
_atom_site_label
_atom_site_fract_x
_atom_site_fract_y
_atom_site_fract_z
Si Si1 0.227258 0.936032 0.796537
Si Si2 0.096190 0.436744 0.777913
Si Si3 0.826245 0.438990 0.663434
Si Si4 0.311936 0.562575 0.633736
Si Si5 0.135361 0.064580 0.542104
Si Si6 0.475459 0.563467 0.052253
Si Si7 0.119544 0.563457 0.118698
Si Si8 0.925865 0.937505 0.083331
O O1 0.217826 0.750000 0.777376
O O2 0.179454 0.987835 0.818218
O O3 0.159911 0.015683 0.653445
O O4 0.353411 0.979637 0.933400
O O5 0.103383 0.250000 0.782161
O O6 0.112882 0.484693 0.881483
O O7 0.975451 0.487707 0.614384
O O8 0.826718 0.250000 0.662558
O O9 0.739163 0.489552 0.502706
O O10 0.809755 0.485286 0.728774
O O11 0.947773 0.488080 0.779885
O O12 0.309173 0.750000 0.634425
O O13 0.234029 0.496750 0.606723
O O14 0.432776 0.503990 0.788374
O O15 0.127304 0.250000 0.527163
O O16 0.483104 0.750000 0.059737
O O17 0.500000 0.500000 0.000000
O O18 0.116662 0.750000 0.113018
O O19 0.141581 0.500475 0.063587
O O20 0.000000 0.500000 0.000000
O O21 0.925742 0.750000 0.079497
#
# Coordination Sequence:
#
# PCOD9167082 Si02
#       8
#     4   4   4   4   4   4   4   4
#     4  11  24  40  55  73 101 136 175 217 263 306
#     4  11  22  37  55  75 105 139 175 214 258 309
#     4   8  15  29  47  70 102 135 164 201 252 302
#     4  11  20  34  55  77 104 138 174 214 260 305
#     4  12  23  35  53  77 105 136 176 213 256 311
#     4  11  23  38  56  76 101 133 172 219 264 310
#     4   9  16  27  44  69 100 135 170 202 244 301
#     4   9  17  31  48  70 102 137 167 202 252 305
#
# _framework density 16.484093000000001
#
# number of rings (size 3 to 8) (size 9 to 14) (size 15 to 20)
#    0.000    1.750    2.500    4.125    0.000    2.500 
#    0.000    1.875    0.000    0.000    0.000    0.875 
#    0.000    0.000    0.000    0.000    0.000    0.000 
#
# Total GULP energy -178568.106003 kJ/mol
# GULP energy per Si atom -5580.253313 kJ/mol
# Density = 1.644657 g / cm^3
# Si number density = 16.484093 Si / 1000 Ang^3
#
#
#
# Elastic Constant Matrix: (Units=GPa)
#
#
# Indices 1 2 3 4 5 6 
#
# 1 90.3886 3.8313 35.6464 0.0000 -24.4506 0.0000
# 2 3.8313 18.3341 0.8212 0.0000 -2.8566 0.0000
# 3 35.6464 0.8212 51.9113 0.0000 -26.9526 0.0000
# 4 0.0000 0.0000 0.0000 25.2221 0.0000 -1.9897
# 5 -24.4506 -2.8566 -26.9526 0.0000 34.5882 0.0000
# 6 0.0000 0.0000 0.0000 -1.9897 0.0000 25.0432
#
#
#
# Elastic Compliance Matrix: (Units=1/GPa)
#
#
# Indices 1 2 3 4 5 6 
#
# 1 0.015666 -0.002229 -0.008512 0.000000 0.004258 0.000000
# 2 -0.002229 0.055767 0.003731 0.000000 0.005937 0.000000
# 3 -0.008512 0.003731 0.037092 0.000000 0.023195 0.000000
# 4 0.000000 0.000000 0.000000 0.039898 0.000000 0.003170
# 5 0.004258 0.005937 0.023195 0.000000 0.050486 0.000000
# 6 0.000000 0.000000 0.000000 0.003170 0.000000 0.040183
#
#
# Mechanical properties :
#
#
# Convention : Reuss Voigt Hill
#
# Bulk Modulus (GPa) = 10.58131 26.80353 18.69242
# Shear Modulus (GPa) = 17.56762 24.99306 21.28034
#
# Velocity S-wave (km/s) = 3.26810 3.89806 3.59689
# Velocity P-wave (km/s) = 4.54683 6.04610 5.34925
#
# Compressibility (1/GPa) = 0.09450628
#
# Stress axis : x y z
#
# Youngs Moduli (GPa) = 63.83088 17.93173 26.95963
#
# Poissons Ratio (x) = 0.03997 0.22948
# Poissons Ratio (y) = 0.14229 -0.10059
# Poissons Ratio (z) = 0.54332 -0.06691
#
# Static dielectric constant tensor:
#      x y z
#    x 1.559050 0.000000 -0.028400 
#    y 0.000000 1.559270 0.000000 
#    z -0.028400 0.000000 1.550660 
# 
# From -- ./inp_files/42450.got.cif
#   From: 2010.05.17/outbox.cif.g08.bks.cpg/sg11_22_cif.got.tgz:42450.got - 2010.06.03 12:22:45.
