data_PCOD9167757
_publ_section_title
;
Structure prediction by ZEFSAII (Michael W. Deem and Ramdas Pophale) SiO2 
 PCOD9167757
Probable space group: P 21/M
;
_chemical_formula_sum "Si O2"
_cell_formula_units_Z 32
_cell_length_a 18.000000
_cell_length_b 9.000000
_cell_length_c 24.000000
_cell_angle_alpha 90.000000
_cell_angle_beta 30.000000
_cell_angle_gamma 90.000000
_cell_volume 1944.000000
_symmetry_space_group_name_H-M "P 21/M"
_symmetry_group_IT_number 11
_symmetry_cell_setting 'monoclinic'
loop_
_space_group_symop_operation_xyz
x,y,z
-x,1/2+y,-z
-x,-y,-z
x,1/2-y,z
loop_
_atom_site_type_symbol
_atom_site_label
_atom_site_fract_x
_atom_site_fract_y
_atom_site_fract_z
Si Si1 0.706792 0.571439 0.942109
Si Si2 0.821044 0.928496 0.745646
Si Si3 0.429018 0.430483 0.315279
Si Si4 0.981669 0.570574 0.225133
Si Si5 0.420984 0.430007 0.189038
Si Si6 0.943461 0.928858 0.121804
Si Si7 0.762281 0.070599 0.138948
Si Si8 0.866705 0.929479 0.421864
O O1 0.701550 0.750000 0.951232
O O2 0.724495 0.536561 0.864299
O O3 0.858677 0.506464 0.869621
O O4 0.564492 0.500032 0.064986
O O5 0.842821 0.750000 0.730831
O O6 0.724773 0.969556 0.753432
O O7 0.983030 0.004103 0.647613
O O8 0.429087 0.250000 0.316187
O O9 0.412254 0.473461 0.260454
O O10 0.593942 0.476406 0.230900
O O11 0.286582 0.476306 0.446577
O O12 0.000638 0.750000 0.213321
O O13 0.926303 0.530644 0.198504
O O14 0.882427 0.533105 0.344918
O O15 0.435261 0.250000 0.178022
O O16 0.928757 0.750000 0.127246
O O17 0.825755 0.002541 0.155531
O O18 0.110085 0.966620 0.990305
O O19 0.760391 0.250000 0.145028
O O20 0.873430 0.750000 0.421309
#
# Coordination Sequence:
#
# PCOD9167757 Si02
#       8
#     4   4   4   4   4   4   4   4
#     4  10  19  30  46  72 102 124 152 198 242 280
#     4   9  19  33  48  69  97 127 157 195 242 283
#     4   9  18  33  51  70  93 125 164 198 231 277
#     4   9  17  31  51  71  93 126 162 192 230 282
#     4  10  19  32  50  69  94 129 162 192 235 289
#     4   9  17  30  49  72  95 120 153 189 229 282
#     4   9  17  30  48  69  95 123 150 188 236 280
#     4   9  18  33  52  70  91 124 164 201 232 271
#
# _framework density 16.460905
#
# number of rings (size 3 to 8) (size 9 to 14) (size 15 to 20)
#    0.000    2.750    0.000    1.500    0.000    4.000 
#    0.000    5.000    0.000    0.000    0.000    0.000 
#    0.000    0.000    0.000    0.000    0.000    0.000 
#
# Total GULP energy -178263.078295 kJ/mol
# GULP energy per Si atom -5570.721197 kJ/mol
# Density = 1.642344 g / cm^3
# Si number density = 16.460905 Si / 1000 Ang^3
#
#
#
# Elastic Constant Matrix: (Units=GPa)
#
#
# Indices 1 2 3 4 5 6 
#
# 1 169.9400 27.1171 88.9330 0.0000 8.1305 0.0000
# 2 27.1171 19.1541 25.0334 0.0000 1.2359 0.0000
# 3 88.9330 25.0334 152.4859 0.0000 1.5283 0.0000
# 4 0.0000 0.0000 0.0000 23.6741 0.0000 -4.0810
# 5 8.1305 1.2359 1.5283 0.0000 25.6211 0.0000
# 6 0.0000 0.0000 0.0000 -4.0810 0.0000 28.6488
#
#
#
# Elastic Compliance Matrix: (Units=1/GPa)
#
#
# Indices 1 2 3 4 5 6 
#
# 1 0.009430 -0.007691 -0.004213 0.000000 -0.002370 0.000000
# 2 -0.007691 0.072910 -0.007478 0.000000 -0.000630 0.000000
# 3 -0.004213 -0.007478 0.010232 0.000000 0.001087 0.000000
# 4 0.000000 0.000000 0.000000 0.043304 0.000000 0.006169
# 5 -0.002370 -0.000630 0.001087 0.000000 0.039748 0.000000
# 6 0.000000 0.000000 0.000000 0.006169 0.000000 0.035784
#
#
# Mechanical properties :
#
#
# Convention : Reuss Voigt Hill
#
# Bulk Modulus (GPa) = 18.58456 69.30523 43.94490
# Shear Modulus (GPa) = 18.64920 28.95521 23.80220
#
# Velocity S-wave (km/s) = 3.36957 4.19863 3.80673
# Velocity P-wave (km/s) = 5.14327 8.10549 6.78794
#
# Compressibility (1/GPa) = 0.05380810
#
# Stress axis : x y z
#
# Youngs Moduli (GPa) = 106.04447 13.71554 97.73173
#
# Poissons Ratio (x) = 0.10548 0.41179
# Poissons Ratio (y) = 0.81555 0.73082
# Poissons Ratio (z) = 0.44681 0.10256
#
# Static dielectric constant tensor:
#      x y z
#    x 1.565060 0.000000 0.015150 
#    y 0.000000 1.552080 0.000000 
#    z 0.015150 0.000000 1.549940 
# 
# From -- ./inp_files/68319.got.cif
#   From: 2010.05.17/outbox.ucp.g08.bks.cvg/sg11_35_cif.got.tgz:68319.got - 2010.06.11 11:38:39.
