data_PCOD9167848
_publ_section_title
;
Structure prediction by ZEFSAII (Michael W. Deem and Ramdas Pophale) SiO2 
 PCOD9167848
Probable space group: P 21/M
;
_chemical_formula_sum "Si O2"
_cell_formula_units_Z 32
_cell_length_a 12.000000
_cell_length_b 9.000000
_cell_length_c 30.000000
_cell_angle_alpha 90.000000
_cell_angle_beta 150.000000
_cell_angle_gamma 90.000000
_cell_volume 1620.000000
_symmetry_space_group_name_H-M "P 21/M"
_symmetry_group_IT_number 11
_symmetry_cell_setting 'monoclinic'
loop_
_space_group_symop_operation_xyz
x,y,z
-x,1/2+y,-z
-x,-y,-z
x,1/2-y,z
loop_
_atom_site_type_symbol
_atom_site_label
_atom_site_fract_x
_atom_site_fract_y
_atom_site_fract_z
Si Si1 0.086796 0.078112 0.130119
Si Si2 0.179976 0.073091 0.812119
Si Si3 0.353778 0.082332 0.032448
Si Si4 0.382444 0.082133 0.148075
Si Si5 0.653408 0.077989 0.397800
Si Si6 0.225782 0.925183 0.265995
Si Si7 0.828139 0.580100 0.295211
Si Si8 0.063097 0.922968 0.582642
O O1 0.124603 0.250000 0.154064
O O2 0.186094 0.053084 0.115125
O O3 0.199024 0.976449 0.205896
O O4 0.829603 0.035249 0.045405
O O5 0.223610 0.250000 0.834841
O O6 0.121398 0.058197 0.739383
O O7 0.978676 0.022545 0.774091
O O8 0.402514 0.976951 0.895465
O O9 0.315966 0.250000 0.001872
O O10 0.323476 0.089082 0.075547
O O11 0.471560 0.250000 0.189998
O O12 0.567480 0.954618 0.213175
O O13 0.600659 0.250000 0.383458
O O14 0.702194 0.048446 0.361921
O O15 0.467726 0.988486 0.360003
O O16 0.886656 0.034559 0.500366
O O17 0.227286 0.750000 0.270075
O O18 0.880823 0.750000 0.325518
O O19 0.937052 0.461647 0.365642
O O20 0.008888 0.750000 0.555487
#
# Coordination Sequence:
#
# PCOD9167848 Si02
#       8
#     4   4   4   4   4   4   4   4
#     4  11  22  35  53  78 109 142 176 218 269 322
#     4   9  21  40  57  75 104 142 181 223 267 311
#     4  10  20  35  56  80 105 137 179 223 267 316
#     4   9  19  34  52  78 111 142 173 215 267 321
#     4  10  21  37  57  83 114 143 173 213 261 312
#     4  11  23  39  57  77 105 141 182 223 264 313
#     4  10  19  33  56  82 107 139 179 220 264 314
#     4  10  20  35  57  85 115 143 172 210 259 315
#
# _framework density 19.753086
#
# number of rings (size 3 to 8) (size 9 to 14) (size 15 to 20)
#    0.000    2.000    0.000    3.375    0.000    8.000 
#    0.000    0.625    0.000    0.000    0.000    0.000 
#    0.000    0.000    0.000    0.000    0.000    0.000 
#
# Total GULP energy -178337.519340 kJ/mol
# GULP energy per Si atom -5573.047479 kJ/mol
# Density = 1.970813 g / cm^3
# Si number density = 19.753086 Si / 1000 Ang^3
#
#
#
# Elastic Constant Matrix: (Units=GPa)
#
#
# Indices 1 2 3 4 5 6 
#
# 1 72.7952 38.2362 23.8088 0.0000 44.2102 0.0000
# 2 38.2362 42.7418 7.8510 0.0000 8.5950 0.0000
# 3 23.8088 7.8510 26.6938 0.0000 13.5287 0.0000
# 4 0.0000 0.0000 0.0000 27.3758 0.0000 1.0885
# 5 44.2102 8.5950 13.5287 0.0000 17.2616 0.0000
# 6 0.0000 0.0000 0.0000 1.0885 0.0000 23.5274
#
#
#
# Elastic Compliance Matrix: (Units=1/GPa)
#
#
# Indices 1 2 3 4 5 6 
#
# 1 -0.018101 0.008004 -0.012750 0.000000 0.052367 0.000000
# 2 0.008004 0.022512 0.003833 0.000000 -0.034714 0.000000
# 3 -0.012750 0.003833 0.053292 0.000000 -0.011021 0.000000
# 4 0.000000 0.000000 0.000000 0.036596 0.000000 -0.001693
# 5 0.052367 -0.034714 -0.011021 0.000000 -0.050268 0.000000
# 6 0.000000 0.000000 0.000000 -0.001693 0.000000 0.042582
#
#
# Mechanical properties :
#
#
# Convention : Reuss Voigt Hill
#
# Bulk Modulus (GPa) = 17.89585 31.33586 24.61586
# Shear Modulus (GPa) = 46.70084 18.45528 32.57806
#
# Velocity S-wave (km/s) = 4.86761 3.05995 4.06552
# Velocity P-wave (km/s) = 6.37738 5.32753 5.87595
#
# Compressibility (1/GPa) = 0.05587888
#
# Stress axis : x y z
#
# Youngs Moduli (GPa) = -55.24531 44.42005 18.76449
#
# Poissons Ratio (x) = -0.35555 0.23925
# Poissons Ratio (y) = 0.44220 -0.07193
# Poissons Ratio (z) = -0.70437 -0.17027
#
# Static dielectric constant tensor:
#      x y z
#    x 1.678830 0.000000 -0.029880 
#    y 0.000000 1.663380 0.000000 
#    z -0.029880 0.000000 1.825660 
# 
# From -- ./inp_files/73134.got.cif
#   From: 2010.05.17/outbox.ucp.g08.bks.cvg/sg11_37_cif.got.tgz:73134.got - 2010.06.11 11:38:39.
