data_PCOD9167318
_publ_section_title
;
Structure prediction by ZEFSAII (Michael W. Deem and Ramdas Pophale) SiO2 
 PCOD9167318
Probable space group: P 21/M
;
_chemical_formula_sum "Si O2"
_cell_formula_units_Z 20
_cell_length_a 9.959606
_cell_length_b 19.134819
_cell_length_c 6.980591
_cell_angle_alpha 90.000000
_cell_angle_beta 51.596219
_cell_angle_gamma 90.000000
_cell_volume 1042.514764
_symmetry_space_group_name_H-M "P 21/M"
_symmetry_group_IT_number 11
_symmetry_cell_setting 'monoclinic'
loop_
_space_group_symop_operation_xyz
x,y,z
-x,1/2+y,-z
-x,-y,-z
x,1/2-y,z
loop_
_atom_site_type_symbol
_atom_site_label
_atom_site_fract_x
_atom_site_fract_y
_atom_site_fract_z
Si Si1 0.584586 0.329752 0.304024
Si Si2 0.084376 0.479021 0.624936
Si Si3 0.690837 0.667760 0.113611
Si Si4 0.059347 0.611614 0.919779
Si Si5 0.425830 0.073193 0.139967
O O1 0.558414 0.250000 0.262667
O O2 0.445194 0.344000 0.594163
O O3 0.775768 0.339438 0.215027
O O4 0.555791 0.382741 0.154817
O O5 0.100448 0.548292 0.738679
O O6 0.265719 0.445171 0.416562
O O7 0.000000 0.500000 0.500000
O O8 0.974342 0.424219 0.844749
O O9 0.685395 0.750000 0.068698
O O10 0.637734 0.619654 0.982038
O O11 0.882375 0.647491 0.011299
O O12 0.500000 0.000000 0.000000
#
# Coordination Sequence:
#
# PCOD9167318 Si02
#       5
#     4   4   4   4   4
#     4  11  25  44  64  95 131 170 217 266 321 386
#     4  11  22  39  64 100 128 160 216 267 318 381
#     4  11  24  44  66  93 130 174 216 263 323 387
#     4  11  23  41  68  94 128 169 215 264 320 380
#     4  12  24  41  69  96 133 171 213 270 327 376
#
# _framework density 19.184381999999999
#
# number of rings (size 3 to 8) (size 9 to 14) (size 15 to 20)
#    0.000    0.800    4.000    3.600    2.800    1.600 
#    0.000    0.000    0.000    0.000    0.000    0.000 
#    0.000    0.000    0.000    0.000    0.000    0.000 
#
# Total GULP energy -111824.840731 kJ/mol
# GULP energy per Si atom -5591.242037 kJ/mol
# Density = 1.914072 g / cm^3
# Si number density = 19.184382 Si / 1000 Ang^3
#
#
#
# Elastic Constant Matrix: (Units=GPa)
#
#
# Indices 1 2 3 4 5 6 
#
# 1 126.8434 53.1621 58.8649 0.0000 -12.9333 0.0000
# 2 53.1621 126.4677 71.6477 0.0000 -0.5564 0.0000
# 3 58.8649 71.6477 101.5266 0.0000 6.6084 0.0000
# 4 0.0000 0.0000 0.0000 30.9957 0.0000 -2.5499
# 5 -12.9333 -0.5564 6.6084 0.0000 19.8639 0.0000
# 6 0.0000 0.0000 0.0000 -2.5499 0.0000 27.9158
#
#
#
# Elastic Compliance Matrix: (Units=1/GPa)
#
#
# Indices 1 2 3 4 5 6 
#
# 1 0.012891 -0.001232 -0.007308 0.000000 0.010790 0.000000
# 2 -0.001232 0.013540 -0.009009 0.000000 0.002574 0.000000
# 3 -0.007308 -0.009009 0.021230 0.000000 -0.012073 0.000000
# 4 0.000000 0.000000 0.000000 0.032507 0.000000 0.002969
# 5 0.010790 0.002574 -0.012073 0.000000 0.061457 0.000000
# 6 0.000000 0.000000 0.000000 0.002969 0.000000 0.036093
#
#
# Mechanical properties :
#
#
# Convention : Reuss Voigt Hill
#
# Bulk Modulus (GPa) = 79.58331 80.24301 79.91316
# Shear Modulus (GPa) = 23.04132 27.16595 25.10363
#
# Velocity S-wave (km/s) = 3.46937 3.76712 3.62131
# Velocity P-wave (km/s) = 7.59093 7.79998 7.69616
#
# Compressibility (1/GPa) = 0.01256545
#
# Stress axis : x y z
#
# Youngs Moduli (GPa) = 77.57136 73.85618 47.10373
#
# Poissons Ratio (x) = 0.09096 0.34421
# Poissons Ratio (y) = 0.09554 0.42434
# Poissons Ratio (z) = 0.56686 0.66534
#
# Static dielectric constant tensor:
#      x y z
#    x 1.666950 0.000000 -0.009630 
#    y 0.000000 1.642690 0.000000 
#    z -0.009630 0.000000 1.655450 
# 
# From -- ./inp_files/1959.got.cif
#   From: 2010.05.17/outbox.cif.g08.bks.cpg/sg11_1_cif.got.tgz:1959.got - 2010.06.03 12:22:45.
