data_PCOD9167814
_publ_section_title
;
Structure prediction by ZEFSAII (Michael W. Deem and Ramdas Pophale) SiO2 
 PCOD9167814
Probable space group: P 21/M
;
_chemical_formula_sum "Si O2"
_cell_formula_units_Z 28
_cell_length_a 9.000000
_cell_length_b 9.000000
_cell_length_c 27.000000
_cell_angle_alpha 90.000000
_cell_angle_beta 140.000000
_cell_angle_gamma 90.000000
_cell_volume 1405.776502
_symmetry_space_group_name_H-M "P 21/M"
_symmetry_group_IT_number 11
_symmetry_cell_setting 'monoclinic'
loop_
_space_group_symop_operation_xyz
x,y,z
-x,1/2+y,-z
-x,-y,-z
x,1/2-y,z
loop_
_atom_site_type_symbol
_atom_site_label
_atom_site_fract_x
_atom_site_fract_y
_atom_site_fract_z
Si Si1 0.259268 0.928271 0.327361
Si Si2 0.145854 0.579427 0.965460
Si Si3 0.549911 0.575099 0.247070
Si Si4 0.872954 0.928071 0.803399
Si Si5 0.091297 0.926755 0.394707
Si Si6 0.354342 0.081167 0.106319
Si Si7 0.784594 0.572830 0.473528
O O1 0.239011 0.750000 0.317160
O O2 0.179495 0.966885 0.362483
O O3 0.529694 0.968150 0.388772
O O4 0.111745 0.007196 0.247402
O O5 0.226808 0.750000 0.984615
O O6 0.077931 0.526114 0.893329
O O7 0.898409 0.580697 0.931406
O O8 0.314169 0.479712 0.041103
O O9 0.501664 0.750000 0.239571
O O10 0.365924 0.487593 0.233482
O O11 0.509384 0.522939 0.180318
O O12 0.815729 0.548895 0.328474
O O13 0.867525 0.750000 0.801801
O O14 0.134125 0.750000 0.412822
O O15 0.208193 0.019814 0.467859
O O16 0.439368 0.250000 0.128349
O O17 0.806626 0.750000 0.475667
O O18 0.000000 0.500000 0.500000
#
# Coordination Sequence:
#
# PCOD9167814 Si02
#       7
#     4   4   4   4   4   4   4
#     4  10  22  39  56  77 107 141 175 213 261 313
#     4   8  15  27  43  68 102 135 169 212 262 310
#     4  10  19  32  52  76 104 139 175 216 265 311
#     4  10  20  33  52  79 107 137 176 220 262 309
#     4  10  22  39  57  78 106 140 178 216 257 310
#     4   9  16  26  44  72 103 134 171 216 263 310
#     4  11  23  38  59  84 109 138 172 214 262 309
#
# _framework density 19.917818
#
# number of rings (size 3 to 8) (size 9 to 14) (size 15 to 20)
#    0.000    2.286    0.000    3.857    0.000   10.286 
#    0.000    0.000    0.000    0.857    0.000    0.000 
#    0.000    0.000    0.000    0.000    0.000    0.000 
#
# Total GULP energy -156369.911798 kJ/mol
# GULP energy per Si atom -5584.639707 kJ/mol
# Density = 1.987248 g / cm^3
# Si number density = 19.917818 Si / 1000 Ang^3
#
#
#
# Elastic Constant Matrix: (Units=GPa)
#
#
# Indices 1 2 3 4 5 6 
#
# 1 38.4961 0.0798 -2.4467 0.0000 -26.1165 0.0000
# 2 0.0798 19.6525 16.3705 0.0000 -12.9979 0.0000
# 3 -2.4467 16.3705 65.2478 0.0000 -39.1608 0.0000
# 4 0.0000 0.0000 0.0000 27.7010 0.0000 -12.3240
# 5 -26.1165 -12.9979 -39.1608 0.0000 30.5542 0.0000
# 6 0.0000 0.0000 0.0000 -12.3240 0.0000 25.7333
#
#
#
# Elastic Compliance Matrix: (Units=1/GPa)
#
#
# Indices 1 2 3 4 5 6 
#
# 1 -0.012618 -0.010474 -0.030305 0.000000 -0.054082 0.000000
# 2 -0.010474 0.062139 -0.023798 0.000000 -0.013020 0.000000
# 3 -0.030305 -0.023798 -0.006337 0.000000 -0.044148 0.000000
# 4 0.000000 0.000000 0.000000 0.045874 0.000000 0.021970
# 5 -0.054082 -0.013020 -0.044148 0.000000 -0.075621 0.000000
# 6 0.000000 0.000000 0.000000 0.021970 0.000000 0.049382
#
#
# Mechanical properties :
#
#
# Convention : Reuss Voigt Hill
#
# Bulk Modulus (GPa) = -11.63216 16.82262 2.59523
# Shear Modulus (GPa) = 30.61571 24.09055 27.35313
#
# Velocity S-wave (km/s) = 3.92484 3.48156 3.70983
# Velocity P-wave (km/s) = 3.83229 4.96246 4.43353
#
# Compressibility (1/GPa) = -0.08596854
#
# Stress axis : x y z
#
# Youngs Moduli (GPa) = -79.25158 16.09301 -157.81342
#
# Poissons Ratio (x) = 0.16856 -4.78246
# Poissons Ratio (y) = -0.83010 -3.75558
# Poissons Ratio (z) = -2.40168 0.38298
#
# Static dielectric constant tensor:
#      x y z
#    x 1.704180 0.000000 -0.018980 
#    y 0.000000 1.653910 0.000000 
#    z -0.018980 0.000000 1.714610 
# 
# From -- ./inp_files/70889.got.cif
#   From: 2010.05.17/outbox.ucp.g08.bks.cvg/sg11_36_cif.got.tgz:70889.got - 2010.06.11 11:38:39.
