data_PCOD9167798
_publ_section_title
;
Structure prediction by ZEFSAII (Michael W. Deem and Ramdas Pophale) SiO2 
 PCOD9167798
Probable space group: P 21/M
;
_chemical_formula_sum "Si O2"
_cell_formula_units_Z 28
_cell_length_a 18.000000
_cell_length_b 9.000000
_cell_length_c 15.000000
_cell_angle_alpha 90.000000
_cell_angle_beta 140.000000
_cell_angle_gamma 90.000000
_cell_volume 1561.973892
_symmetry_space_group_name_H-M "P 21/M"
_symmetry_group_IT_number 11
_symmetry_cell_setting 'monoclinic'
loop_
_space_group_symop_operation_xyz
x,y,z
-x,1/2+y,-z
-x,-y,-z
x,1/2-y,z
loop_
_atom_site_type_symbol
_atom_site_label
_atom_site_fract_x
_atom_site_fract_y
_atom_site_fract_z
Si Si1 0.741677 0.926365 0.067427
Si Si2 0.316075 0.930652 0.616222
Si Si3 0.089929 0.430449 0.929033
Si Si4 0.280499 0.430233 0.251446
Si Si5 0.453171 0.426885 0.264390
Si Si6 0.627121 0.429255 0.130816
Si Si7 0.828019 0.429515 0.679716
O O1 0.750813 0.750000 0.096034
O O2 0.853507 0.975950 0.113458
O O3 0.708418 0.013965 0.125563
O O4 0.638592 0.943083 0.900320
O O5 0.322048 0.750000 0.623889
O O6 0.427106 0.987638 0.662767
O O7 0.325109 0.975946 0.727615
O O8 0.208114 0.969485 0.454490
O O9 0.090852 0.250000 0.928399
O O10 0.958671 0.480142 0.819189
O O11 0.173612 0.472658 0.087509
O O12 0.282601 0.250000 0.259897
O O13 0.394310 0.481812 0.301458
O O14 0.257547 0.501598 0.325798
O O15 0.469072 0.250000 0.292256
O O16 0.617423 0.250000 0.119855
O O17 0.500000 0.500000 0.000000
O O18 0.822921 0.250000 0.682554
#
# Coordination Sequence:
#
# PCOD9167798 Si02
#       7
#     4   4   4   4   4   4   4
#     4   9  16  31  53  73  95 124 162 200 235 280
#     4   9  18  31  48  69  97 131 160 191 237 295
#     4   8  16  31  52  73  94 129 166 194 233 288
#     4   9  17  30  50  71  93 125 165 202 239 280
#     4   8  14  28  48  68  92 127 161 188 235 295
#     4  11  20  32  52  76  98 124 160 198 242 287
#     4  10  19  32  49  70  97 129 166 199 232 282
#
# _framework density 17.926036
#
# number of rings (size 3 to 8) (size 9 to 14) (size 15 to 20)
#    0.000    2.857    1.429    2.571    0.000    0.571 
#    0.000    5.714    0.000    0.000    0.000    0.000 
#    0.000    0.000    0.000    0.000    0.000    0.000 
#
# Total GULP energy -155976.599330 kJ/mol
# GULP energy per Si atom -5570.592833 kJ/mol
# Density = 1.788524 g / cm^3
# Si number density = 17.926036 Si / 1000 Ang^3
#
#
#
# Elastic Constant Matrix: (Units=GPa)
#
#
# Indices 1 2 3 4 5 6 
#
# 1 86.8651 13.0604 11.0344 0.0000 -25.9984 0.0000
# 2 13.0604 20.1036 7.7378 0.0000 -8.0114 0.0000
# 3 11.0344 7.7378 27.8217 0.0000 -23.8468 0.0000
# 4 0.0000 0.0000 0.0000 13.4480 0.0000 -6.3248
# 5 -25.9984 -8.0114 -23.8468 0.0000 28.6718 0.0000
# 6 0.0000 0.0000 0.0000 -6.3248 0.0000 30.5801
#
#
#
# Elastic Compliance Matrix: (Units=1/GPa)
#
#
# Indices 1 2 3 4 5 6 
#
# 1 0.021593 -0.008798 0.029807 0.000000 0.041912 0.000000
# 2 -0.008798 0.060017 -0.019737 0.000000 -0.007624 0.000000
# 3 0.029807 -0.019737 0.167355 0.000000 0.160704 0.000000
# 4 0.000000 0.000000 0.000000 0.082373 0.000000 0.017037
# 5 0.041912 -0.007624 0.160704 0.000000 0.204410 0.000000
# 6 0.000000 0.000000 0.000000 0.017037 0.000000 0.036225
#
#
# Mechanical properties :
#
#
# Convention : Reuss Voigt Hill
#
# Bulk Modulus (GPa) = 3.97604 22.05060 13.01332
# Shear Modulus (GPa) = 7.65385 21.40384 14.52884
#
# Velocity S-wave (km/s) = 2.06856 3.45919 2.85000
# Velocity P-wave (km/s) = 2.81569 5.31811 4.25502
#
# Compressibility (1/GPa) = 0.25150678
#
# Stress axis : x y z
#
# Youngs Moduli (GPa) = 46.31208 16.66199 5.97533
#
# Poissons Ratio (x) = 0.14660 -0.17811
# Poissons Ratio (y) = 0.40747 0.11794
# Poissons Ratio (z) = -1.38041 0.32886
#
# Static dielectric constant tensor:
#      x y z
#    x 1.629370 0.000000 0.022230 
#    y 0.000000 1.600420 0.000000 
#    z 0.022230 0.000000 1.629190 
# 
# From -- ./inp_files/44123.got.cif
#   From: 2010.05.17/outbox.ucp.g08.bks.cvg/sg11_23_cif.got.tgz:44123.got - 2010.06.11 11:38:39.
