data_PCOD9167208
_publ_section_title
;
Structure prediction by ZEFSAII (Michael W. Deem and Ramdas Pophale) SiO2 
 PCOD9167208
Probable space group: P 21/M
;
_chemical_formula_sum "Si O2"
_cell_formula_units_Z 24
_cell_length_a 15.150387
_cell_length_b 16.304402
_cell_length_c 5.051813
_cell_angle_alpha 90.000000
_cell_angle_beta 80.779590
_cell_angle_gamma 90.000000
_cell_volume 1231.765085
_symmetry_space_group_name_H-M "P 21/M"
_symmetry_group_IT_number 11
_symmetry_cell_setting 'monoclinic'
loop_
_space_group_symop_operation_xyz
x,y,z
-x,1/2+y,-z
-x,-y,-z
x,1/2-y,z
loop_
_atom_site_type_symbol
_atom_site_label
_atom_site_fract_x
_atom_site_fract_y
_atom_site_fract_z
Si Si1 0.998174 0.439774 0.255821
Si Si2 0.564424 0.511619 0.219539
Si Si3 0.811476 0.344894 0.372820
Si Si4 0.695574 0.657190 0.330031
Si Si5 0.806693 0.604946 0.798167
Si Si6 0.735895 0.076265 0.913891
O O1 0.908029 0.387853 0.326436
O O2 0.000000 0.500000 0.500000
O O3 0.087030 0.384618 0.244449
O O4 0.000000 0.500000 0.000000
O O5 0.500000 0.500000 0.500000
O O6 0.617039 0.596071 0.268366
O O7 0.500000 0.500000 0.000000
O O8 0.642907 0.448750 0.096907
O O9 0.817733 0.250000 0.437949
O O10 0.744217 0.389159 0.612864
O O11 0.778348 0.358508 0.090796
O O12 0.664645 0.750000 0.402920
O O13 0.751784 0.622941 0.554757
O O14 0.762787 0.657051 0.051323
O O15 0.790136 0.509318 0.878282
#
# Coordination Sequence:
#
# PCOD9167208 Si02
#       6
#     4   4   4   4   4   4
#     4  12  22  39  64  93 128 176 229 267 312 383
#     4  11  23  43  70  95 121 166 219 260 320 409
#     4  12  24  40  61  95 134 172 218 273 320 371
#     4  11  24  41  64  97 134 162 207 279 337 377
#     4  11  21  39  67  91 123 177 219 254 323 399
#     4  11  22  42  66  88 126 170 216 263 324 401
#
# _framework density 19.484234000000001
#
# number of rings (size 3 to 8) (size 9 to 14) (size 15 to 20)
#    0.000    0.667    3.333    7.000    0.000    1.333 
#    0.000    5.000    0.000    0.000    0.000    0.000 
#    0.000    0.000    0.000    0.000    0.000    0.000 
#
# Total GULP energy -133851.782836 kJ/mol
# GULP energy per Si atom -5577.157618 kJ/mol
# Density = 1.943989 g / cm^3
# Si number density = 19.484234 Si / 1000 Ang^3
#
#
#
# Elastic Constant Matrix: (Units=GPa)
#
#
# Indices 1 2 3 4 5 6 
#
# 1 132.1187 37.1214 48.4259 0.0000 -3.8516 0.0000
# 2 37.1214 99.0992 25.3300 0.0000 -8.3514 0.0000
# 3 48.4259 25.3300 146.4130 0.0000 3.6599 0.0000
# 4 0.0000 0.0000 0.0000 119.5512 0.0000 90.0539
# 5 -3.8516 -8.3514 3.6599 0.0000 35.6936 0.0000
# 6 0.0000 0.0000 0.0000 90.0539 0.0000 101.7566
#
#
#
# Elastic Compliance Matrix: (Units=1/GPa)
#
#
# Indices 1 2 3 4 5 6 
#
# 1 0.009326 -0.002771 -0.002621 0.000000 0.000627 0.000000
# 2 -0.002771 0.011640 -0.001161 0.000000 0.002543 0.000000
# 3 -0.002621 -0.001161 0.007932 0.000000 -0.001368 0.000000
# 4 0.000000 0.000000 0.000000 0.025091 0.000000 -0.022206
# 5 0.000627 0.002543 -0.001368 0.000000 0.028819 0.000000
# 6 0.000000 0.000000 0.000000 -0.022206 0.000000 0.029479
#
#
# Mechanical properties :
#
#
# Convention : Reuss Voigt Hill
#
# Bulk Modulus (GPa) = 63.31990 66.59838 64.95914
# Shear Modulus (GPa) = 38.26789 69.18387 53.72588
#
# Velocity S-wave (km/s) = 4.43656 5.96529 5.25679
# Velocity P-wave (km/s) = 7.66894 9.03887 8.38194
#
# Compressibility (1/GPa) = 0.01579282
#
# Stress axis : x y z
#
# Youngs Moduli (GPa) = 107.22224 85.91151 126.07293
#
# Poissons Ratio (x) = 0.23804 0.33044
# Poissons Ratio (y) = 0.29709 0.14636
# Poissons Ratio (z) = 0.28103 0.09973
#
# Static dielectric constant tensor:
#      x y z
#    x 1.672440 0.000000 0.032710 
#    y 0.000000 1.792410 0.000000 
#    z 0.032710 0.000000 1.646030 
# 
# From -- ./inp_files/6398.got.cif
#   From: 2010.05.17/outbox.cif.g08.bks.cpg/sg11_4_cif.got.tgz:6398.got - 2010.06.03 12:22:45.
