data_PCOD9167079
_publ_section_title
;
Structure prediction by ZEFSAII (Michael W. Deem and Ramdas Pophale) SiO2 
 PCOD9167079
Probable space group: P 21/M
;
_chemical_formula_sum "Si O2"
_cell_formula_units_Z 30
_cell_length_a 16.969750
_cell_length_b 14.790866
_cell_length_c 11.344263
_cell_angle_alpha 90.000000
_cell_angle_beta 149.143020
_cell_angle_gamma 90.000000
_cell_volume 1460.411871
_symmetry_space_group_name_H-M "P 21/M"
_symmetry_group_IT_number 11
_symmetry_cell_setting 'monoclinic'
loop_
_space_group_symop_operation_xyz
x,y,z
-x,1/2+y,-z
-x,-y,-z
x,1/2-y,z
loop_
_atom_site_type_symbol
_atom_site_label
_atom_site_fract_x
_atom_site_fract_y
_atom_site_fract_z
Si Si1 0.833048 0.463399 0.134827
Si Si2 0.297921 0.854517 0.826294
Si Si3 0.370030 0.895773 0.651158
Si Si4 0.267849 0.350746 0.900442
Si Si5 0.384683 0.391639 0.629789
Si Si6 0.888246 0.848932 0.556023
Si Si7 0.547785 0.402023 0.610720
Si Si8 0.655022 0.250000 0.562218
O O1 0.812095 0.417452 0.236839
O O2 0.803752 0.569260 0.114568
O O3 0.992738 0.430550 0.287353
O O4 0.699872 0.420810 0.883592
O O5 0.250400 0.750000 0.773106
O O6 0.310960 0.884605 0.708261
O O7 0.467961 0.864410 0.101678
O O8 0.285579 0.829582 0.453423
O O9 0.370041 0.000012 0.616651
O O10 0.548646 0.863662 0.873678
O O11 0.238518 0.250000 0.909637
O O12 0.201515 0.355861 0.683105
O O13 0.233758 0.352822 0.495969
O O14 0.422191 0.367462 0.543705
O O15 0.967818 0.750000 0.660338
O O16 0.500000 0.500000 0.500000
O O17 0.584466 0.329604 0.558562
#
# Coordination Sequence:
#
# PCOD9167079 Si02
#       8
#     4   4   4   4   4   4   4   2
#     4  11  24  41  64  95 135 169 214 265 319 383
#     4  11  20  33  62  96 128 160 203 262 324 381
#     4  12  20  38  62  97 129 162 204 276 325 376
#     4  11  20  37  63  94 133 167 207 260 332 396
#     4  11  22  38  63  94 126 165 217 263 320 380
#     4  11  24  39  62  98 137 175 204 255 336 395
#     4  11  24  43  66  95 123 167 226 274 312 374
#     4  12  24  38  64  92 128 162 212 272 330 362
#
# _framework density 20.542151
#
# number of rings (size 3 to 8) (size 9 to 14) (size 15 to 20)
#    0.000    0.800    6.667    2.400    5.600    0.000 
#    0.000    0.667    1.467    0.000    3.467    0.000 
#    0.000    0.000    0.000    0.000    0.000    0.000 
#
# Total GULP energy -167257.279825 kJ/mol
# GULP energy per Si atom -5575.242661 kJ/mol
# Density = 2.049540 g / cm^3
# Si number density = 20.542151 Si / 1000 Ang^3
#
#
#
# Elastic Constant Matrix: (Units=GPa)
#
#
# Indices 1 2 3 4 5 6 
#
# 1 109.9650 1.5277 14.0361 0.0000 -7.1795 0.0000
# 2 1.5277 111.9170 1.1901 0.0000 -1.7674 0.0000
# 3 14.0361 1.1901 16.1496 0.0000 6.8491 0.0000
# 4 0.0000 0.0000 0.0000 -3.3087 0.0000 -4.3260
# 5 -7.1795 -1.7674 6.8491 0.0000 25.5549 0.0000
# 6 0.0000 0.0000 0.0000 -4.3260 0.0000 35.2997
#
#
#
# Elastic Compliance Matrix: (Units=1/GPa)
#
#
# Indices 1 2 3 4 5 6 
#
# 1 0.011093 0.000082 -0.012379 0.000000 0.006440 0.000000
# 2 0.000082 0.008961 -0.001133 0.000000 0.000946 0.000000
# 3 -0.012379 -0.001133 0.083796 0.000000 -0.026015 0.000000
# 4 0.000000 0.000000 0.000000 -0.260496 0.000000 -0.031924
# 5 0.006440 0.000946 -0.026015 0.000000 0.047978 0.000000
# 6 0.000000 0.000000 0.000000 -0.031924 0.000000 0.024417
#
#
# Mechanical properties :
#
#
# Convention : Reuss Voigt Hill
#
# Bulk Modulus (GPa) = 12.98850 30.17104 21.57977
# Shear Modulus (GPa) = -157.59133 26.26103 -65.66515
#
# Velocity S-wave (km/s) = -8.76827 3.57935 -5.65999
# Velocity P-wave (km/s) = 9.80681 5.63929 5.67327
#
# Compressibility (1/GPa) = 0.07699118
#
# Stress axis : x y z
#
# Youngs Moduli (GPa) = 90.14568 111.59379 11.93369
#
# Poissons Ratio (x) = -0.00914 0.14772
# Poissons Ratio (y) = -0.00738 0.01352
# Poissons Ratio (z) = 1.11588 0.12643
#
# Static dielectric constant tensor:
#      x y z
#    x 1.719840 0.000000 -0.008460 
#    y 0.000000 1.709140 0.000000 
#    z -0.008460 0.000000 1.761950 
# 
# From -- ./inp_files/41571.got.cif
#   From: 2010.05.17/outbox.cif.g08.bks.cpg/sg11_21_cif.got.tgz:41571.got - 2010.06.03 12:22:45.
