data_PCOD9167995
_publ_section_title
;
Structure prediction by ZEFSAII (Michael W. Deem and Ramdas Pophale) SiO2 
 PCOD9167995
Probable space group: P 21/M
;
_chemical_formula_sum "Si O2"
_cell_formula_units_Z 28
_cell_length_a 15.000000
_cell_length_b 9.000000
_cell_length_c 12.000000
_cell_angle_alpha 90.000000
_cell_angle_beta 110.000000
_cell_angle_gamma 90.000000
_cell_volume 1522.302046
_symmetry_space_group_name_H-M "P 21/M"
_symmetry_group_IT_number 11
_symmetry_cell_setting 'monoclinic'
loop_
_space_group_symop_operation_xyz
x,y,z
-x,1/2+y,-z
-x,-y,-z
x,1/2-y,z
loop_
_atom_site_type_symbol
_atom_site_label
_atom_site_fract_x
_atom_site_fract_y
_atom_site_fract_z
Si Si1 0.443151 0.070445 0.300871
Si Si2 0.037883 0.928483 0.302923
Si Si3 0.816867 0.569941 0.207886
Si Si4 0.286020 0.429300 0.055215
Si Si5 0.172178 0.428785 0.531999
Si Si6 0.624261 0.927802 0.479431
Si Si7 0.089978 0.072012 0.101301
O O1 0.449155 0.250000 0.297478
O O2 0.377056 0.019446 0.168044
O O3 0.394896 0.031320 0.399649
O O4 0.548402 0.003792 0.363702
O O5 0.044635 0.750000 0.304667
O O6 0.927375 0.968287 0.233123
O O7 0.083213 0.991090 0.436011
O O8 0.094005 0.003330 0.225705
O O9 0.811771 0.750000 0.201806
O O10 0.804688 0.525483 0.331188
O O11 0.741752 0.516284 0.082065
O O12 0.296793 0.250000 0.052837
O O13 0.189068 0.458388 0.081741
O O14 0.155157 0.250000 0.524057
O O15 0.267610 0.461814 0.504480
O O16 0.611268 0.750000 0.464288
O O17 0.077576 0.250000 0.099863
O O18 0.000000 0.000000 0.000000
#
# Coordination Sequence:
#
# PCOD9167995 Si02
#       7
#     4   4   4   4   4   4   4
#     4   9  17  31  54  76  96 129 167 207 260 315
#     4  11  21  34  52  77 107 138 176 219 261 304
#     4   9  18  33  52  74 103 139 177 213 254 309
#     4   9  17  32  53  76 104 136 171 209 253 310
#     4  10  20  35  55  75  99 138 180 215 259 310
#     4   9  18  33  51  75 102 127 165 216 264 310
#     4  11  20  33  53  77 108 139 172 212 255 306
#
# _framework density 18.393196
#
# number of rings (size 3 to 8) (size 9 to 14) (size 15 to 20)
#    0.000    2.286    1.429    2.143    0.000    2.857 
#    0.000    5.714    0.000    0.000    0.000    0.000 
#    0.000    0.000    0.000    0.000    0.000    0.000 
#
# Total GULP energy -156066.526538 kJ/mol
# GULP energy per Si atom -5573.804519 kJ/mol
# Density = 1.835133 g / cm^3
# Si number density = 18.393196 Si / 1000 Ang^3
#
#
#
# Elastic Constant Matrix: (Units=GPa)
#
#
# Indices 1 2 3 4 5 6 
#
# 1 26.0612 11.6119 21.0153 0.0000 11.3519 0.0000
# 2 11.6119 25.1685 16.6213 0.0000 5.5795 0.0000
# 3 21.0153 16.6213 154.6533 0.0000 28.2901 0.0000
# 4 0.0000 0.0000 0.0000 32.1632 0.0000 9.6872
# 5 11.3519 5.5795 28.2901 0.0000 36.9320 0.0000
# 6 0.0000 0.0000 0.0000 9.6872 0.0000 18.7423
#
#
#
# Elastic Compliance Matrix: (Units=1/GPa)
#
#
# Indices 1 2 3 4 5 6 
#
# 1 0.055172 -0.020834 -0.003177 0.000000 -0.011377 0.000000
# 2 -0.020834 0.051010 -0.002806 0.000000 0.000847 0.000000
# 3 -0.003177 -0.002806 0.008075 0.000000 -0.004785 0.000000
# 4 0.000000 0.000000 0.000000 0.036824 0.000000 -0.019033
# 5 -0.011377 0.000847 -0.004785 0.000000 0.034111 0.000000
# 6 0.000000 0.000000 0.000000 -0.019033 0.000000 0.063193
#
#
# Mechanical properties :
#
#
# Convention : Reuss Voigt Hill
#
# Bulk Modulus (GPa) = 16.49571 33.82000 25.15786
# Shear Modulus (GPa) = 15.51710 28.00979 21.76345
#
# Velocity S-wave (km/s) = 2.90769 3.90658 3.44355
# Velocity P-wave (km/s) = 4.50119 6.22701 5.43306
#
# Compressibility (1/GPa) = 0.06062184
#
# Stress axis : x y z
#
# Youngs Moduli (GPa) = 18.12523 19.60410 123.84515
#
# Poissons Ratio (x) = 0.40844 0.39342
# Poissons Ratio (y) = 0.37763 0.34752
# Poissons Ratio (z) = 0.05758 0.05501
#
# Static dielectric constant tensor:
#      x y z
#    x 1.645430 0.000000 -0.029570 
#    y 0.000000 1.614080 0.000000 
#    z -0.029570 0.000000 1.669250 
# 
# From -- ./inp_files/37657.got.cif
#   From: 2010.05.17/outbox.ucp.g08.bks.cvg/sg11_19_cif.got.tgz:37657.got - 2010.06.11 11:38:39.
