data_PCOD9167429
_publ_section_title
;
Structure prediction by ZEFSAII (Michael W. Deem and Ramdas Pophale) SiO2 
 PCOD9167429
Probable space group: P 21/M
;
_chemical_formula_sum "Si O2"
_cell_formula_units_Z 28
_cell_length_a 7.943269
_cell_length_b 15.079936
_cell_length_c 18.907381
_cell_angle_alpha 90.000000
_cell_angle_beta 150.455628
_cell_angle_gamma 90.000000
_cell_volume 1116.767842
_symmetry_space_group_name_H-M "P 21/M"
_symmetry_group_IT_number 11
_symmetry_cell_setting 'monoclinic'
loop_
_space_group_symop_operation_xyz
x,y,z
-x,1/2+y,-z
-x,-y,-z
x,1/2-y,z
loop_
_atom_site_type_symbol
_atom_site_label
_atom_site_fract_x
_atom_site_fract_y
_atom_site_fract_z
Si Si1 0.017560 0.353043 0.317917
Si Si2 0.067967 0.648885 0.951227
Si Si3 0.477990 0.144545 0.762087
Si Si4 0.232682 0.154844 0.885482
Si Si5 0.179526 0.654367 0.406922
Si Si6 0.913586 0.523728 0.779352
Si Si7 0.775229 0.936878 0.466947
O O1 0.907919 0.250000 0.270518
O O2 0.421796 0.357954 0.449918
O O3 0.892726 0.420753 0.211691
O O4 0.000664 0.387897 0.391862
O O5 0.934249 0.750000 0.907043
O O6 0.839078 0.585022 0.820138
O O7 0.194236 0.612606 0.073310
O O8 0.415028 0.652316 0.030142
O O9 0.502121 0.250000 0.784638
O O10 0.424967 0.128243 0.660398
O O11 0.132555 0.103147 0.670760
O O12 0.221645 0.250000 0.921252
O O13 0.947844 0.159947 0.719785
O O14 0.139823 0.060760 0.885309
O O15 0.154284 0.750000 0.434942
O O16 0.542307 0.491386 0.616557
O O17 0.000000 0.000000 0.500000
#
# Coordination Sequence:
#
# PCOD9167429 Si02
#       7
#     4   4   4   4   4   4   4
#     4  11  23  40  62  88 123 161 208 261 312 366
#     4   9  20  39  63  91 118 157 210 258 314 372
#     4   9  19  38  63  84 119 166 206 251 306 372
#     4   9  18  34  60  92 119 149 198 260 309 359
#     4   8  15  32  59  85 109 150 206 254 297 351
#     4  12  23  37  64  94 124 162 205 263 311 361
#     4  12  26  38  57  91 130 166 210 254 307 372
#
# _framework density 25.072354000000001
#
# number of rings (size 3 to 8) (size 9 to 14) (size 15 to 20)
#    0.000    2.000    1.429    4.286    4.000    1.143 
#    0.000    2.143    0.000    0.000    0.000    0.000 
#    0.000    0.000    0.000    0.000    0.000    0.000 
#
# Total GULP energy -156103.107509 kJ/mol
# GULP energy per Si atom -5575.110982 kJ/mol
# Density = 2.501529 g / cm^3
# Si number density = 25.072354 Si / 1000 Ang^3
#
#
#
# Elastic Constant Matrix: (Units=GPa)
#
#
# Indices 1 2 3 4 5 6 
#
# 1 66.2651 36.2816 2.1496 0.0000 -25.2609 0.0000
# 2 36.2816 114.9946 22.4858 0.0000 -15.4273 0.0000
# 3 2.1496 22.4858 58.9328 0.0000 -20.1141 0.0000
# 4 0.0000 0.0000 0.0000 17.4891 0.0000 -9.1371
# 5 -25.2609 -15.4273 -20.1141 0.0000 40.8339 0.0000
# 6 0.0000 0.0000 0.0000 -9.1371 0.0000 29.8596
#
#
#
# Elastic Compliance Matrix: (Units=1/GPa)
#
#
# Indices 1 2 3 4 5 6 
#
# 1 0.025029 -0.007143 0.007424 0.000000 0.016442 0.000000
# 2 -0.007143 0.011594 -0.005020 0.000000 -0.002511 0.000000
# 3 0.007424 -0.005020 0.023481 0.000000 0.014262 0.000000
# 4 0.000000 0.000000 0.000000 0.068059 0.000000 0.020826
# 5 0.016442 -0.002511 0.014262 0.000000 0.040737 0.000000
# 6 0.000000 0.000000 0.000000 0.020826 0.000000 0.039863
#
#
# Mechanical properties :
#
#
# Convention : Reuss Voigt Hill
#
# Bulk Modulus (GPa) = 19.75274 40.22518 29.98896
# Shear Modulus (GPa) = 21.26606 29.58822 25.42714
#
# Velocity S-wave (km/s) = 2.91553 3.43900 3.18803
# Velocity P-wave (km/s) = 4.38510 5.64336 5.05354
#
# Compressibility (1/GPa) = 0.05062589
#
# Stress axis : x y z
#
# Youngs Moduli (GPa) = 39.95442 86.24875 42.58773
#
# Poissons Ratio (x) = 0.61604 -0.31617
# Poissons Ratio (y) = 0.28538 0.21380
# Poissons Ratio (z) = -0.29662 0.43300
#
# Static dielectric constant tensor:
#      x y z
#    x 2.019710 0.000000 -0.005340 
#    y 0.000000 2.191710 0.000000 
#    z -0.005340 0.000000 2.031330 
# 
# From -- ./inp_files/63889.got.cif
#   From: 2010.05.17/outbox.cif.g08.bks.cpg/sg11_32_cif.got.tgz:63889.got - 2010.06.03 12:22:45.
