data_PCOD9167902
_publ_section_title
;
Structure prediction by ZEFSAII (Michael W. Deem and Ramdas Pophale) SiO2 
 PCOD9167902
Probable space group: P 21/M
;
_chemical_formula_sum "Si O2"
_cell_formula_units_Z 28
_cell_length_a 15.000000
_cell_length_b 9.000000
_cell_length_c 12.000000
_cell_angle_alpha 90.000000
_cell_angle_beta 60.000000
_cell_angle_gamma 90.000000
_cell_volume 1402.961154
_symmetry_space_group_name_H-M "P 21/M"
_symmetry_group_IT_number 11
_symmetry_cell_setting 'monoclinic'
loop_
_space_group_symop_operation_xyz
x,y,z
-x,1/2+y,-z
-x,-y,-z
x,1/2-y,z
loop_
_atom_site_type_symbol
_atom_site_label
_atom_site_fract_x
_atom_site_fract_y
_atom_site_fract_z
Si Si1 0.685726 0.921990 0.635024
Si Si2 0.222985 0.430308 0.771273
Si Si3 0.995799 0.576099 0.171015
Si Si4 0.398035 0.572938 0.512533
Si Si5 0.768993 0.070196 0.002897
Si Si6 0.610447 0.578576 0.934502
Si Si7 0.081187 0.423109 0.528321
O O1 0.682919 0.750000 0.594384
O O2 0.653175 0.919524 0.782648
O O3 0.802565 0.980378 0.552719
O O4 0.611002 0.024364 0.609991
O O5 0.225269 0.250000 0.764474
O O6 0.296764 0.499031 0.631595
O O7 0.263658 0.495421 0.861170
O O8 0.103425 0.483221 0.833897
O O9 0.002955 0.750000 0.135699
O O10 0.959286 0.565423 0.321066
O O11 0.112082 0.518390 0.089926
O O12 0.500000 0.500000 0.500000
O O13 0.398289 0.750000 0.527123
O O14 0.765755 0.250000 0.009411
O O15 0.692090 0.010696 0.957683
O O16 0.601726 0.750000 0.978656
O O17 0.500000 0.500000 0.000000
O O18 0.086682 0.250000 0.493960
O O19 0.000000 0.500000 0.500000
#
# Coordination Sequence:
#
# PCOD9167902 Si02
#       7
#     4   4   4   4   4   4   4
#     4  10  22  43  67  91 126 165 211 261 314 374
#     4  11  22  42  67  93 129 171 213 261 316 373
#     4   9  19  37  62  90 127 168 207 255 314 375
#     4  12  26  43  67  97 128 165 211 262 320 382
#     4  11  23  40  63  95 131 169 214 262 315 379
#     4  11  25  44  66  92 124 168 215 265 319 378
#     4  10  19  35  59  89 124 163 204 254 310 368
#
# _framework density 19.957787
#
# number of rings (size 3 to 8) (size 9 to 14) (size 15 to 20)
#    0.000    1.429    1.429    3.857    2.000    1.714 
#    0.000    2.857    0.000    0.000    0.000    0.000 
#    0.000    0.000    0.000    0.000    0.000    0.000 
#
# Total GULP energy -156379.903459 kJ/mol
# GULP energy per Si atom -5584.996552 kJ/mol
# Density = 1.991236 g / cm^3
# Si number density = 19.957787 Si / 1000 Ang^3
#
#
#
# Elastic Constant Matrix: (Units=GPa)
#
#
# Indices 1 2 3 4 5 6 
#
# 1 143.8848 50.4025 35.0166 0.0000 14.8543 0.0000
# 2 50.4025 99.4915 22.8183 0.0000 9.4570 0.0000
# 3 35.0166 22.8183 29.8333 0.0000 -2.6463 0.0000
# 4 0.0000 0.0000 0.0000 27.4104 0.0000 1.4057
# 5 14.8543 9.4570 -2.6463 0.0000 24.3788 0.0000
# 6 0.0000 0.0000 0.0000 1.4057 0.0000 34.3172
#
#
#
# Elastic Compliance Matrix: (Units=1/GPa)
#
#
# Indices 1 2 3 4 5 6 
#
# 1 0.011567 -0.002278 -0.012502 0.000000 -0.007521 0.000000
# 2 -0.002278 0.013507 -0.008077 0.000000 -0.004728 0.000000
# 3 -0.012502 -0.008077 0.055862 0.000000 0.016814 0.000000
# 4 0.000000 0.000000 0.000000 0.036559 0.000000 -0.001498
# 5 -0.007521 -0.004728 0.016814 0.000000 0.049262 0.000000
# 6 0.000000 0.000000 0.000000 -0.001498 0.000000 0.029201
#
#
# Mechanical properties :
#
#
# Convention : Reuss Voigt Hill
#
# Bulk Modulus (GPa) = 28.38985 54.40937 41.39961
# Shear Modulus (GPa) = 19.73075 28.21940 23.97508
#
# Velocity S-wave (km/s) = 3.14765 3.76434 3.46972
# Velocity P-wave (km/s) = 5.24081 6.79817 6.06964
#
# Compressibility (1/GPa) = 0.03522386
#
# Stress axis : x y z
#
# Youngs Moduli (GPa) = 86.45460 74.03651 17.90114
#
# Poissons Ratio (x) = 0.16863 0.22379
# Poissons Ratio (y) = 0.19691 0.14459
# Poissons Ratio (z) = 1.08081 0.59799
#
# Static dielectric constant tensor:
#      x y z
#    x 1.705460 0.000000 0.004790 
#    y 0.000000 1.691870 0.000000 
#    z 0.004790 0.000000 1.727410 
# 
# From -- ./inp_files/37942.got.cif
#   From: 2010.05.17/outbox.ucp.g08.bks.cvg/sg11_19_cif.got.tgz:37942.got - 2010.06.11 11:38:39.
