data_PCOD9167867
_publ_section_title
;
Structure prediction by ZEFSAII (Michael W. Deem and Ramdas Pophale) SiO2 
 PCOD9167867
Probable space group: P 21/M
;
_chemical_formula_sum "Si O2"
_cell_formula_units_Z 28
_cell_length_a 27.000000
_cell_length_b 9.000000
_cell_length_c 9.000000
_cell_angle_alpha 90.000000
_cell_angle_beta 40.000000
_cell_angle_gamma 90.000000
_cell_volume 1405.776502
_symmetry_space_group_name_H-M "P 21/M"
_symmetry_group_IT_number 11
_symmetry_cell_setting 'monoclinic'
loop_
_space_group_symop_operation_xyz
x,y,z
-x,1/2+y,-z
-x,-y,-z
x,1/2-y,z
loop_
_atom_site_type_symbol
_atom_site_label
_atom_site_fract_x
_atom_site_fract_y
_atom_site_fract_z
Si Si1 0.672039 0.076539 0.793510
Si Si2 0.478961 0.417080 0.900203
Si Si3 0.921923 0.918298 0.139496
Si Si4 0.785432 0.076631 0.290770
Si Si5 0.426488 0.919845 0.598438
Si Si6 0.201336 0.415150 0.324214
Si Si7 0.253033 0.575565 0.963118
O O1 0.656215 0.250000 0.819354
O O2 0.711219 0.019261 0.552170
O O3 0.739524 0.037334 0.751027
O O4 0.593553 0.995040 0.009470
O O5 0.456295 0.250000 0.986305
O O6 0.551459 0.415424 0.625564
O O7 0.500000 0.500000 0.000000
O O8 0.937502 0.750000 0.056577
O O9 0.872826 0.916608 0.404157
O O10 0.863510 0.994923 0.158133
O O11 0.000000 0.000000 0.000000
O O12 0.794996 0.250000 0.311807
O O13 0.763157 0.067717 0.172729
O O14 0.424753 0.750000 0.659062
O O15 0.339780 0.979398 0.802579
O O16 0.500000 0.000000 0.500000
O O17 0.235379 0.250000 0.254682
O O18 0.190735 0.470031 0.183146
O O19 0.247296 0.750000 0.016799
#
# Coordination Sequence:
#
# PCOD9167867 Si02
#       7
#     4   4   4   4   4   4   4
#     4  10  19  34  55  77 103 139 182 226 272 324
#     4  11  22  35  51  74 104 138 180 231 280 325
#     4  10  21  38  61  87 114 141 174 215 262 320
#     4   9  19  36  58  82 110 144 182 225 273 321
#     4  10  22  37  52  74 106 144 187 231 275 320
#     4  10  21  36  55  82 111 139 174 218 263 314
#     4  10  20  36  56  78 107 145 186 226 270 324
#
# _framework density 19.917818
#
# number of rings (size 3 to 8) (size 9 to 14) (size 15 to 20)
#    0.000    2.000    0.000    3.429    0.000    9.143 
#    0.000    2.143    0.000    0.000    0.000    0.000 
#    0.000    0.000    0.000    0.000    0.000    0.000 
#
# Total GULP energy -155975.803724 kJ/mol
# GULP energy per Si atom -5570.564419 kJ/mol
# Density = 1.987248 g / cm^3
# Si number density = 19.917818 Si / 1000 Ang^3
#
#
#
# Elastic Constant Matrix: (Units=GPa)
#
#
# Indices 1 2 3 4 5 6 
#
# 1 52.6602 41.2512 46.4886 0.0000 -5.7387 0.0000
# 2 41.2512 48.7987 26.7618 0.0000 -6.6921 0.0000
# 3 46.4886 26.7618 35.3483 0.0000 -4.4578 0.0000
# 4 0.0000 0.0000 0.0000 21.8177 0.0000 -3.9335
# 5 -5.7387 -6.6921 -4.4578 0.0000 26.2164 0.0000
# 6 0.0000 0.0000 0.0000 -3.9335 0.0000 29.4420
#
#
#
# Elastic Compliance Matrix: (Units=1/GPa)
#
#
# Indices 1 2 3 4 5 6 
#
# 1 -0.102129 0.022059 0.118037 0.000000 0.003346 0.000000
# 2 0.022059 0.030812 -0.051849 0.000000 0.003877 0.000000
# 3 0.118037 -0.051849 -0.087991 0.000000 -0.002359 0.000000
# 4 0.000000 0.000000 0.000000 0.046966 0.000000 0.006275
# 5 0.003346 0.003877 -0.002359 0.000000 0.039465 0.000000
# 6 0.000000 0.000000 0.000000 0.006275 0.000000 0.034803
#
#
# Mechanical properties :
#
#
# Convention : Reuss Voigt Hill
#
# Bulk Modulus (GPa) = 58.18751 40.64561 49.41656
# Shear Modulus (GPa) = -23.94172 16.98227 -3.47972
#
# Velocity S-wave (km/s) = -3.47078 2.92313 -1.32319
# Velocity P-wave (km/s) = 3.63530 5.64304 4.74654
#
# Compressibility (1/GPa) = 0.01718582
#
# Stress axis : x y z
#
# Youngs Moduli (GPa) = -9.79149 32.45541 -11.36483
#
# Poissons Ratio (x) = -0.71594 1.34148
# Poissons Ratio (y) = 0.21599 -0.58926
# Poissons Ratio (z) = 1.15576 1.68279
#
# Static dielectric constant tensor:
#      x y z
#    x 1.760810 0.000000 0.120140 
#    y 0.000000 1.720630 0.000000 
#    z 0.120140 0.000000 1.772680 
# 
# From -- ./inp_files/28247.got.cif
#   From: 2010.05.17/outbox.ucp.g08.bks.cvg/sg11_15_cif.got.tgz:28247.got - 2010.06.11 11:38:39.
