data_PCOD9167288
_publ_section_title
;
Structure prediction by ZEFSAII (Michael W. Deem and Ramdas Pophale) SiO2 
 PCOD9167288
Probable space group: P 21/M
;
_chemical_formula_sum "Si O2"
_cell_formula_units_Z 20
_cell_length_a 5.176877
_cell_length_b 8.200637
_cell_length_c 23.787348
_cell_angle_alpha 90.000000
_cell_angle_beta 108.766543
_cell_angle_gamma 90.000000
_cell_volume 956.173736
_symmetry_space_group_name_H-M "P 21/M"
_symmetry_group_IT_number 11
_symmetry_cell_setting 'monoclinic'
loop_
_space_group_symop_operation_xyz
x,y,z
-x,1/2+y,-z
-x,-y,-z
x,1/2-y,z
loop_
_atom_site_type_symbol
_atom_site_label
_atom_site_fract_x
_atom_site_fract_y
_atom_site_fract_z
Si Si1 0.034212 0.551017 0.240347
Si Si2 0.432869 0.949348 0.170342
Si Si3 0.595185 0.442872 0.629811
Si Si4 0.303050 0.944655 0.035761
Si Si5 0.996265 0.559112 0.563900
O O1 0.030738 0.750000 0.242176
O O2 0.187897 0.502126 0.194079
O O3 0.210719 0.497080 0.306071
O O4 0.721709 0.496989 0.216205
O O5 0.435528 0.750000 0.169768
O O6 0.392926 0.005919 0.103679
O O7 0.547566 0.250000 0.634038
O O8 0.299670 0.525160 0.608579
O O9 0.765110 0.471259 0.584661
O O10 0.309717 0.750000 0.038877
O O11 0.500000 0.000000 0.000000
O O12 0.000000 0.000000 0.000000
O O13 0.936011 0.750000 0.561342
O O14 0.000000 0.500000 0.500000
#
# Coordination Sequence:
#
# PCOD9167288 Si02
#       5
#     4   4   4   4   4
#     4   9  17  31  55  84 111 141 188 240 282 333
#     4   9  17  31  53  82 111 146 191 238 282 335
#     4  11  22  39  64  92 118 149 192 243 293 344
#     4  11  22  37  59  85 117 154 197 244 293 346
#     4  12  25  42  62  87 121 158 195 237 286 344
#
# _framework density 20.916701
#
# number of rings (size 3 to 8) (size 9 to 14) (size 15 to 20)
#    0.000    1.600    0.000    6.000    0.000    6.400 
#    0.000    0.000    0.000   24.000    0.000    0.000 
#    0.000    0.000    0.000    0.000    0.000    0.000 
#
# Total GULP energy -111848.557493 kJ/mol
# GULP energy per Si atom -5592.427875 kJ/mol
# Density = 2.086909 g / cm^3
# Si number density = 20.916701 Si / 1000 Ang^3
#
#
#
# Elastic Constant Matrix: (Units=GPa)
#
#
# Indices 1 2 3 4 5 6 
#
# 1 68.4453 -12.3020 -28.0956 0.0000 3.0576 0.0000
# 2 -12.3020 26.1922 -0.1479 0.0000 5.5145 0.0000
# 3 -28.0956 -0.1479 55.1478 0.0000 2.2628 0.0000
# 4 0.0000 0.0000 0.0000 19.9714 0.0000 -0.0707
# 5 3.0576 5.5145 2.2628 0.0000 41.2367 0.0000
# 6 0.0000 0.0000 0.0000 -0.0707 0.0000 30.8786
#
#
#
# Elastic Compliance Matrix: (Units=1/GPa)
#
#
# Indices 1 2 3 4 5 6 
#
# 1 0.021223 0.010792 0.010990 0.000000 -0.003620 0.000000
# 2 0.010792 0.044779 0.005910 0.000000 -0.007113 0.000000
# 3 0.010990 0.005910 0.023867 0.000000 -0.002915 0.000000
# 4 0.000000 0.000000 0.000000 0.050072 0.000000 0.000115
# 5 -0.003620 -0.007113 -0.002915 0.000000 0.025630 0.000000
# 6 0.000000 0.000000 0.000000 0.000115 0.000000 0.032385
#
#
# Mechanical properties :
#
#
# Convention : Reuss Voigt Hill
#
# Bulk Modulus (GPa) = 6.88458 7.63271 7.25865
# Shear Modulus (GPa) = 26.17941 31.10607 28.64274
#
# Velocity S-wave (km/s) = 3.54164 3.86053 3.70452
# Velocity P-wave (km/s) = 4.47469 4.85063 4.66645
#
# Compressibility (1/GPa) = 0.14525210
#
# Stress axis : x y z
#
# Youngs Moduli (GPa) = 47.11951 22.33192 41.89838
#
# Poissons Ratio (x) = -0.24101 -0.46044
# Poissons Ratio (y) = -0.50852 -0.24762
# Poissons Ratio (z) = -0.51782 -0.13198
#
# Static dielectric constant tensor:
#      x y z
#    x 1.709500 0.000000 0.001070 
#    y 0.000000 1.675050 0.000000 
#    z 0.001070 0.000000 1.748570 
# 
# From -- ./inp_files/8474.got.cif
#   From: 2010.05.17/outbox.cif.g08.bks.cpg/sg11_5_cif.got.tgz:8474.got - 2010.06.03 12:22:45.
