data_PCOD9167707
_publ_section_title
;
Structure prediction by ZEFSAII (Michael W. Deem and Ramdas Pophale) SiO2 
 PCOD9167707
Probable space group: P 21/M
;
_chemical_formula_sum "Si O2"
_cell_formula_units_Z 32
_cell_length_a 12.000000
_cell_length_b 9.000000
_cell_length_c 21.000000
_cell_angle_alpha 90.000000
_cell_angle_beta 130.000000
_cell_angle_gamma 90.000000
_cell_volume 1737.388797
_symmetry_space_group_name_H-M "P 21/M"
_symmetry_group_IT_number 11
_symmetry_cell_setting 'monoclinic'
loop_
_space_group_symop_operation_xyz
x,y,z
-x,1/2+y,-z
-x,-y,-z
x,1/2-y,z
loop_
_atom_site_type_symbol
_atom_site_label
_atom_site_fract_x
_atom_site_fract_y
_atom_site_fract_z
Si Si1 0.005825 0.071754 0.402476
Si Si2 0.524867 0.079382 0.265336
Si Si3 0.597324 0.074552 0.142490
Si Si4 0.069997 0.571963 0.763037
Si Si5 0.975768 0.575930 0.129601
Si Si6 0.238570 0.919640 0.140217
Si Si7 0.305315 0.917594 0.014540
Si Si8 0.778915 0.575303 0.414018
O O1 0.987401 0.250000 0.395298
O O2 0.997873 0.018603 0.327918
O O3 0.153203 0.034730 0.493259
O O4 0.876323 0.005877 0.396920
O O5 0.550306 0.250000 0.290202
O O6 0.580244 0.055911 0.212809
O O7 0.357526 0.035220 0.207532
O O8 0.616274 0.974978 0.344353
O O9 0.573803 0.250000 0.121082
O O10 0.758037 0.032558 0.178496
O O11 0.468157 0.976301 0.066700
O O12 0.065033 0.750000 0.764012
O O13 0.985379 0.507307 0.791589
O O14 0.982827 0.750000 0.141758
O O15 0.080800 0.538658 0.109103
O O16 0.811482 0.526596 0.057584
O O17 0.269698 0.750000 0.173373
O O18 0.260499 0.916491 0.072536
O O19 0.290083 0.750000 0.983862
O O20 0.794891 0.750000 0.410775
#
# Coordination Sequence:
#
# PCOD9167707 Si02
#       8
#     4   4   4   4   4   4   4   4
#     4   9  18  33  50  74 107 141 173 209 251 299
#     4  10  18  31  53  79 107 136 169 211 258 307
#     4   9  18  33  52  74 103 137 168 208 257 300
#     4  10  20  36  54  72 104 142 176 210 248 305
#     4  11  23  37  53  75 103 135 172 214 261 308
#     4   9  20  37  55  77 103 130 169 220 262 301
#     4  10  20  35  56  78 100 129 169 215 260 309
#     4  10  18  28  50  80 109 137 168 208 256 305
#
# _framework density 18.418444999999998
#
# number of rings (size 3 to 8) (size 9 to 14) (size 15 to 20)
#    0.000    2.250    1.250    1.875    0.000    4.000 
#    0.000    0.000    0.000    0.750    0.000    0.000 
#    0.000    0.000    0.000    0.000    0.000    0.000 
#
# Total GULP energy -178380.551689 kJ/mol
# GULP energy per Si atom -5574.392240 kJ/mol
# Density = 1.837652 g / cm^3
# Si number density = 18.418445 Si / 1000 Ang^3
#
#
#
# Elastic Constant Matrix: (Units=GPa)
#
#
# Indices 1 2 3 4 5 6 
#
# 1 8.7973 34.2247 26.3690 0.0000 -13.4968 0.0000
# 2 34.2247 -7.8082 5.9167 0.0000 -6.6611 0.0000
# 3 26.3690 5.9167 38.9848 0.0000 -9.8977 0.0000
# 4 0.0000 0.0000 0.0000 17.6693 0.0000 0.3299
# 5 -13.4968 -6.6611 -9.8977 0.0000 13.1781 0.0000
# 6 0.0000 0.0000 0.0000 0.3299 0.0000 20.7571
#
#
#
# Elastic Compliance Matrix: (Units=1/GPa)
#
#
# Indices 1 2 3 4 5 6 
#
# 1 0.019464 0.046797 -0.011369 0.000000 0.035050 0.000000
# 2 0.046797 0.023243 -0.024749 0.000000 0.041090 0.000000
# 3 -0.011369 -0.024749 0.038261 0.000000 0.004583 0.000000
# 4 0.000000 0.000000 0.000000 0.056612 0.000000 -0.000900
# 5 0.035050 0.041090 0.004583 0.000000 0.135993 0.000000
# 6 0.000000 0.000000 0.000000 -0.000900 0.000000 0.048191
#
#
# Mechanical properties :
#
#
# Convention : Reuss Voigt Hill
#
# Bulk Modulus (GPa) = 9.77260 19.22162 14.49711
# Shear Modulus (GPa) = 14.94708 8.55179 11.74944
#
# Velocity S-wave (km/s) = 2.85182 2.15711 2.52844
# Velocity P-wave (km/s) = 4.02011 4.08202 4.05118
#
# Compressibility (1/GPa) = 0.10232694
#
# Stress axis : x y z
#
# Youngs Moduli (GPa) = 51.37733 43.02285 26.13660
#
# Poissons Ratio (x) = -2.01336 0.29714
# Poissons Ratio (y) = -2.40433 0.64685
# Poissons Ratio (z) = 0.58410 1.06477
#
# Static dielectric constant tensor:
#      x y z
#    x 1.596030 0.000000 -0.020160 
#    y 0.000000 1.909830 0.000000 
#    z -0.020160 0.000000 1.703730 
# 
# From -- ./inp_files/42909.got.cif
#   From: 2010.05.17/outbox.ucp.g08.bks.cvg/sg11_22_cif.got.tgz:42909.got - 2010.06.11 11:38:39.
