data_PCOD9167653
_publ_section_title
;
Structure prediction by ZEFSAII (Michael W. Deem and Ramdas Pophale) SiO2 
 PCOD9167653
Probable space group: P 21/M
;
_chemical_formula_sum "Si O2"
_cell_formula_units_Z 24
_cell_length_a 6.806425
_cell_length_b 17.251497
_cell_length_c 10.233337
_cell_angle_alpha 90.000000
_cell_angle_beta 133.537182
_cell_angle_gamma 90.000000
_cell_volume 871.079331
_symmetry_space_group_name_H-M "P 21/M"
_symmetry_group_IT_number 11
_symmetry_cell_setting 'monoclinic'
loop_
_space_group_symop_operation_xyz
x,y,z
-x,1/2+y,-z
-x,-y,-z
x,1/2-y,z
loop_
_atom_site_type_symbol
_atom_site_label
_atom_site_fract_x
_atom_site_fract_y
_atom_site_fract_z
Si Si1 0.749643 0.833114 0.498344
Si Si2 0.296278 0.667193 0.098753
Si Si3 0.087457 0.833540 0.380293
Si Si4 0.262726 0.001903 0.022882
Si Si5 0.916817 0.000262 0.612701
Si Si6 0.719473 0.667401 0.951929
O O1 0.816452 0.750000 0.593745
O O2 0.441567 0.830456 0.305866
O O3 0.797608 0.915355 0.587032
O O4 0.922536 0.834698 0.441967
O O5 0.368915 0.750000 0.067496
O O6 0.974158 0.666793 0.969398
O O7 0.386392 0.583553 0.090052
O O8 0.233395 0.750000 0.447082
O O9 0.871137 0.831437 0.162045
O O10 0.234620 0.917001 0.440159
O O11 0.154389 0.006981 0.826776
O O12 0.415508 0.082867 0.124410
O O13 0.000000 0.000000 0.000000
O O14 0.000000 0.000000 0.500000
O O15 0.571248 0.750000 0.867895
#
# Coordination Sequence:
#
# PCOD9167653 Si02
#       6
#     4   4   4   4   4   4
#     4   9  17  29  46  69  95 121 151 192 238 276
#     4   9  17  29  46  69  95 121 151 192 238 276
#     4   8  14  27  46  64  85 118 156 185 217 271
#     4   9  17  30  47  69  94 123 157 190 229 277
#     4   9  17  30  47  69  94 123 157 190 229 277
#     4   8  14  27  46  64  85 118 156 185 217 271
#
# _framework density 27.552026000000001
#
# number of rings (size 3 to 8) (size 9 to 14) (size 15 to 20)
#    0.000    3.333    0.000    0.000    0.000    0.667 
#    0.000   15.000    0.000    1.000    0.000    0.000 
#    0.000    0.000    0.000    0.000    0.000    0.000 
#
# Total GULP energy -133925.820269 kJ/mol
# GULP energy per Si atom -5580.242511 kJ/mol
# Density = 2.748932 g / cm^3
# Si number density = 27.552026 Si / 1000 Ang^3
#
#
#
# Elastic Constant Matrix: (Units=GPa)
#
#
# Indices 1 2 3 4 5 6 
#
# 1 102.5721 37.4642 2.2581 0.0000 -12.1495 0.0000
# 2 37.4642 429.4237 44.1846 0.0000 0.5516 0.0000
# 3 2.2581 44.1846 79.5191 0.0000 -13.9117 0.0000
# 4 0.0000 0.0000 0.0000 33.4446 0.0000 -11.2430
# 5 -12.1495 0.5516 -13.9117 0.0000 18.8915 0.0000
# 6 0.0000 0.0000 0.0000 -11.2430 0.0000 -2.0901
#
#
#
# Elastic Compliance Matrix: (Units=1/GPa)
#
#
# Indices 1 2 3 4 5 6 
#
# 1 0.011150 -0.001172 0.001831 0.000000 0.008554 0.000000
# 2 -0.001172 0.002619 -0.001799 0.000000 -0.002155 0.000000
# 3 0.001831 -0.001799 0.015770 0.000000 0.012843 0.000000
# 4 0.000000 0.000000 0.000000 0.010647 0.000000 -0.057272
# 5 0.008554 -0.002155 0.012843 0.000000 0.067955 0.000000
# 6 0.000000 0.000000 0.000000 -0.057272 0.000000 -0.170369
#
#
# Mechanical properties :
#
#
# Convention : Reuss Voigt Hill
#
# Bulk Modulus (GPa) = 36.68489 86.59207 61.63848
# Shear Modulus (GPa) = -98.30736 45.22307 -26.54215
#
# Velocity S-wave (km/s) = -5.97981 4.05578 -3.10715
# Velocity P-wave (km/s) = 5.85950 7.30953 3.08994
#
# Compressibility (1/GPa) = 0.02725918
#
# Stress axis : x y z
#
# Youngs Moduli (GPa) = 89.68438 381.85060 63.41149
#
# Poissons Ratio (x) = 0.44759 -0.11611
# Poissons Ratio (y) = 0.10513 0.11407
# Poissons Ratio (z) = -0.16422 0.68690
#
# Static dielectric constant tensor:
#      x y z
#    x 2.169710 0.000000 -0.004410 
#    y 0.000000 2.198150 0.000000 
#    z -0.004410 0.000000 2.068770 
# 
# From -- ./inp_files/32034.got.cif
#   From: 2010.05.17/outbox.cif.g08.bks.cpg/sg11_17_cif.got.tgz:32034.got - 2010.06.03 12:22:45.
