data_PCOD9167343
_publ_section_title
;
Structure prediction by ZEFSAII (Michael W. Deem and Ramdas Pophale) SiO2 
 PCOD9167343
Probable space group: P 21/M
;
_chemical_formula_sum "Si O2"
_cell_formula_units_Z 20
_cell_length_a 10.035683
_cell_length_b 10.004125
_cell_length_c 9.293172
_cell_angle_alpha 90.000000
_cell_angle_beta 134.805861
_cell_angle_gamma 90.000000
_cell_volume 661.975010
_symmetry_space_group_name_H-M "P 21/M"
_symmetry_group_IT_number 11
_symmetry_cell_setting 'monoclinic'
loop_
_space_group_symop_operation_xyz
x,y,z
-x,1/2+y,-z
-x,-y,-z
x,1/2-y,z
loop_
_atom_site_type_symbol
_atom_site_label
_atom_site_fract_x
_atom_site_fract_y
_atom_site_fract_z
Si Si1 0.981876 0.750000 0.735652
Si Si2 0.936102 0.454493 0.643413
Si Si3 0.952938 0.250000 0.903216
Si Si4 0.574178 0.250000 0.978626
Si Si5 0.358400 0.076038 0.956969
Si Si6 0.507767 0.250000 0.606527
Si Si7 0.484165 0.581259 0.614920
O O1 0.913221 0.611564 0.625875
O O2 0.929125 0.750000 0.863573
O O3 0.201707 0.750000 0.877933
O O4 0.975637 0.382538 0.826906
O O5 0.722563 0.404415 0.460868
O O6 0.141608 0.429973 0.729810
O O7 0.735878 0.250000 0.781125
O O8 0.569274 0.411558 0.023796
O O9 0.460847 0.250000 0.740762
O O10 0.386878 0.250000 0.963767
O O11 0.372614 0.062340 0.142826
O O12 0.466676 0.415644 0.538939
O O13 0.511824 0.750000 0.599189
#
# Coordination Sequence:
#
# PCOD9167343 Si02
#       7
#     2   4   2   2   4   2   4
#     4  11  22  40  73 105 145 189 243 306 373 441
#     4  11  25  46  71 106 148 195 247 308 372 445
#     4   9  21  38  73 101 139 191 243 297 373 437
#     4  11  22  45  72 105 146 198 243 303 377 449
#     4  12  25  44  73 100 148 201 242 297 376 451
#     4   9  21  45  70 103 146 184 249 318 359 439
#     4  11  26  44  73 107 142 189 253 309 368 444
#
# _framework density 30.212622
#
# number of rings (size 3 to 8) (size 9 to 14) (size 15 to 20)
#    0.000    1.200    2.000    3.000    8.400    1.600 
#    0.000    2.000    0.000    0.000    0.000    0.000 
#    0.000    0.000    0.000    0.000    0.000    0.000 
#
# Total GULP energy -111709.203035 kJ/mol
# GULP energy per Si atom -5585.460152 kJ/mol
# Density = 3.014386 g / cm^3
# Si number density = 30.212622 Si / 1000 Ang^3
#
#
#
# Elastic Constant Matrix: (Units=GPa)
#
#
# Indices 1 2 3 4 5 6 
#
# 1 157.0959 84.4838 69.8787 0.0000 -3.6869 0.0000
# 2 84.4838 252.7519 54.7776 0.0000 18.4735 0.0000
# 3 69.8787 54.7776 162.9235 0.0000 33.8977 0.0000
# 4 0.0000 0.0000 0.0000 56.7928 0.0000 12.5208
# 5 -3.6869 18.4735 33.8977 0.0000 75.2285 0.0000
# 6 0.0000 0.0000 0.0000 12.5208 0.0000 79.6194
#
#
#
# Elastic Compliance Matrix: (Units=1/GPa)
#
#
# Indices 1 2 3 4 5 6 
#
# 1 0.009494 -0.002556 -0.003796 0.000000 0.002803 0.000000
# 2 -0.002556 0.004969 -0.000325 0.000000 -0.001199 0.000000
# 3 -0.003796 -0.000325 0.008714 0.000000 -0.004033 0.000000
# 4 0.000000 0.000000 0.000000 0.018240 0.000000 -0.002868
# 5 0.002803 -0.001199 -0.004033 0.000000 0.015542 0.000000
# 6 0.000000 0.000000 0.000000 -0.002868 0.000000 0.013011
#
#
# Mechanical properties :
#
#
# Convention : Reuss Voigt Hill
#
# Bulk Modulus (GPa) = 101.79369 110.11683 105.95526
# Shear Modulus (GPa) = 57.73748 66.57020 62.15384
#
# Velocity S-wave (km/s) = 4.37628 4.69912 4.54057
# Velocity P-wave (km/s) = 7.70074 8.12211 7.91423
#
# Compressibility (1/GPa) = 0.00982379
#
# Stress axis : x y z
#
# Youngs Moduli (GPa) = 105.32565 201.25678 114.75259
#
# Poissons Ratio (x) = 0.51436 0.43562
# Poissons Ratio (y) = 0.26918 0.03729
# Poissons Ratio (z) = 0.39984 0.06540
#
# Static dielectric constant tensor:
#      x y z
#    x 2.333990 0.000000 0.022860 
#    y 0.000000 2.326360 0.000000 
#    z 0.022860 0.000000 2.154730 
# 
# From -- ./inp_files/60028.got.cif
#   From: 2010.05.17/outbox.cif.g08.bks.cpg/sg11_31_cif.got.tgz:60028.got - 2010.06.03 12:22:45.
