data_PCOD9167085
_publ_section_title
;
Structure prediction by ZEFSAII (Michael W. Deem and Ramdas Pophale) SiO2 
 PCOD9167085
Probable space group: P 21/M
;
_chemical_formula_sum "Si O2"
_cell_formula_units_Z 32
_cell_length_a 12.571103
_cell_length_b 8.642604
_cell_length_c 20.706175
_cell_angle_alpha 90.000000
_cell_angle_beta 53.522369
_cell_angle_gamma 90.000000
_cell_volume 1808.931053
_symmetry_space_group_name_H-M "P 21/M"
_symmetry_group_IT_number 11
_symmetry_cell_setting 'monoclinic'
loop_
_space_group_symop_operation_xyz
x,y,z
-x,1/2+y,-z
-x,-y,-z
x,1/2-y,z
loop_
_atom_site_type_symbol
_atom_site_label
_atom_site_fract_x
_atom_site_fract_y
_atom_site_fract_z
Si Si1 0.357312 0.433536 0.031177
Si Si2 0.381377 0.935395 0.883974
Si Si3 0.316058 0.938174 0.766378
Si Si4 0.356370 0.436569 0.531551
Si Si5 0.855459 0.064000 0.290709
Si Si6 0.311686 0.435367 0.263629
Si Si7 0.613011 0.561944 0.623909
Si Si8 0.853437 0.433584 0.791951
O O1 0.359590 0.250000 0.038144
O O2 0.245938 0.502983 0.117681
O O3 0.500000 0.500000 0.000000
O O4 0.335251 0.480039 0.964828
O O5 0.365386 0.750000 0.897700
O O6 0.309941 0.985617 0.843414
O O7 0.538407 0.963208 0.815910
O O8 0.317842 0.750000 0.766467
O O9 0.202525 0.987135 0.758116
O O10 0.459604 0.987109 0.687042
O O11 0.500000 0.500000 0.500000
O O12 0.357986 0.250000 0.534205
O O13 0.245601 0.502258 0.618911
O O14 0.333449 0.484327 0.465122
O O15 0.854752 0.250000 0.292429
O O16 0.001766 0.003356 0.250278
O O17 0.290895 0.250000 0.268458
O O18 0.310883 0.486986 0.338761
O O19 0.208568 0.516568 0.254206
O O20 0.611825 0.750000 0.625892
O O21 0.859548 0.250000 0.793770
#
# Coordination Sequence:
#
# PCOD9167085 Si02
#       8
#     4   4   4   4   4   4   4   4
#     4  12  23  37  58  86 115 147 188 232 279 331
#     4   9  17  32  58  87 113 142 183 233 281 327
#     4   8  15  31  56  84 112 147 185 227 279 332
#     4  11  20  34  57  87 118 150 191 236 281 331
#     4  11  22  39  60  83 115 154 193 231 282 341
#     4   9  17  33  58  83 110 147 188 229 280 333
#     4   8  15  30  55  85 113 144 184 232 280 329
#     4  12  25  40  57  82 116 151 189 233 283 337
#
# _framework density 17.690006
#
# number of rings (size 3 to 8) (size 9 to 14) (size 15 to 20)
#    0.000    2.000    2.500    4.500    0.000    0.000 
#    0.000    3.750    0.000    0.000    0.000    0.000 
#    0.000    0.000    0.000    0.000    0.000    0.000 
#
# Total GULP energy -178596.030787 kJ/mol
# GULP energy per Si atom -5581.125962 kJ/mol
# Density = 1.764974 g / cm^3
# Si number density = 17.690006 Si / 1000 Ang^3
#
#
#
# Elastic Constant Matrix: (Units=GPa)
#
#
# Indices 1 2 3 4 5 6 
#
# 1 161.8544 53.7648 93.9179 0.0000 16.7576 0.0000
# 2 53.7648 66.1894 41.8322 0.0000 2.4316 0.0000
# 3 93.9179 41.8322 119.8659 0.0000 10.6219 0.0000
# 4 0.0000 0.0000 0.0000 27.9311 0.0000 1.5435
# 5 16.7576 2.4316 10.6219 0.0000 32.6800 0.0000
# 6 0.0000 0.0000 0.0000 1.5435 0.0000 20.4092
#
#
#
# Elastic Compliance Matrix: (Units=1/GPa)
#
#
# Indices 1 2 3 4 5 6 
#
# 1 0.012953 -0.005360 -0.007954 0.000000 -0.003658 0.000000
# 2 -0.005360 0.021621 -0.003549 0.000000 0.002293 0.000000
# 3 -0.007954 -0.003549 0.015886 0.000000 -0.000821 0.000000
# 4 0.000000 0.000000 0.000000 0.035953 0.000000 -0.002719
# 5 -0.003658 0.002293 -0.000821 0.000000 0.032572 0.000000
# 6 0.000000 0.000000 0.000000 -0.002719 0.000000 0.049203
#
#
# Mechanical properties :
#
#
# Convention : Reuss Voigt Hill
#
# Bulk Modulus (GPa) = 59.76018 80.77106 70.26562
# Shear Modulus (GPa) = 24.09724 26.76373 25.43049
#
# Velocity S-wave (km/s) = 3.69480 3.89386 3.79563
# Velocity P-wave (km/s) = 7.21507 8.12247 7.68218
#
# Compressibility (1/GPa) = 0.01673355
#
# Stress axis : x y z
#
# Youngs Moduli (GPa) = 77.20039 46.25177 62.94693
#
# Poissons Ratio (x) = 0.24792 0.50071
# Poissons Ratio (y) = 0.41380 0.22339
# Poissons Ratio (z) = 0.61409 0.16414
#
# Static dielectric constant tensor:
#      x y z
#    x 1.604380 0.000000 0.034210 
#    y 0.000000 1.599020 0.000000 
#    z 0.034210 0.000000 1.584200 
# 
# From -- ./inp_files/49296.got.cif
#   From: 2010.05.17/outbox.cif.g08.bks.cpg/sg11_25_cif.got.tgz:49296.got - 2010.06.03 12:22:45.
