data_PCOD9167549
_publ_section_title
;
Structure prediction by ZEFSAII (Michael W. Deem and Ramdas Pophale) SiO2 
 PCOD9167549
Probable space group: P 21/M
;
_chemical_formula_sum "Si O2"
_cell_formula_units_Z 16
_cell_length_a 9.827933
_cell_length_b 14.517055
_cell_length_c 4.819950
_cell_angle_alpha 90.000000
_cell_angle_beta 78.599469
_cell_angle_gamma 90.000000
_cell_volume 674.106730
_symmetry_space_group_name_H-M "P 21/M"
_symmetry_group_IT_number 11
_symmetry_cell_setting 'monoclinic'
loop_
_space_group_symop_operation_xyz
x,y,z
-x,1/2+y,-z
-x,-y,-z
x,1/2-y,z
loop_
_atom_site_type_symbol
_atom_site_label
_atom_site_fract_x
_atom_site_fract_y
_atom_site_fract_z
Si Si1 0.408557 0.750000 0.385037
Si Si2 0.590524 0.579921 0.106931
Si Si3 0.219829 0.750000 0.961568
Si Si4 0.219058 0.062031 0.451282
Si Si5 0.943994 0.418715 0.827983
O O1 0.495885 0.660457 0.266451
O O2 0.269081 0.750000 0.259909
O O3 0.357294 0.750000 0.720747
O O4 0.316991 0.456161 0.674799
O O5 0.500000 0.500000 0.000000
O O6 0.694352 0.612881 0.822364
O O7 0.128448 0.840575 0.964718
O O8 0.080274 0.113867 0.607020
O O9 0.164569 0.967287 0.335567
O O10 0.000000 0.500000 0.000000
#
# Coordination Sequence:
#
# PCOD9167549 Si02
#       5
#     2   4   2   4   4
#     4  12  30  48  73 111 152 200 259 301 379 455
#     4  12  26  46  75 107 153 201 242 311 373 447
#     4  12  30  48  75 109 154 194 255 317 375 447
#     4  11  25  46  76 107 148 191 255 297 380 444
#     4  11  26  48  78 113 149 198 247 317 379 444
#
# _framework density 23.735116000000001
#
# number of rings (size 3 to 8) (size 9 to 14) (size 15 to 20)
#    0.000    0.500    2.500    3.750   10.500    2.000 
#    0.000    1.250    0.000    0.000    0.000    0.000 
#    0.000    0.000    0.000    0.000    0.000    0.000 
#
# Total GULP energy -89696.186113 kJ/mol
# GULP energy per Si atom -5606.011632 kJ/mol
# Density = 2.368109 g / cm^3
# Si number density = 23.735116 Si / 1000 Ang^3
#
#
#
# Elastic Constant Matrix: (Units=GPa)
#
#
# Indices 1 2 3 4 5 6 
#
# 1 137.6187 64.5580 33.9658 0.0000 17.7733 0.0000
# 2 64.5580 122.8889 36.7195 0.0000 -13.0233 0.0000
# 3 33.9658 36.7195 141.9739 0.0000 -21.3817 0.0000
# 4 0.0000 0.0000 0.0000 33.0363 0.0000 -7.5557
# 5 17.7733 -13.0233 -21.3817 0.0000 63.0832 0.0000
# 6 0.0000 0.0000 0.0000 -7.5557 0.0000 26.0839
#
#
#
# Elastic Compliance Matrix: (Units=1/GPa)
#
#
# Indices 1 2 3 4 5 6 
#
# 1 0.011091 -0.005783 -0.001905 0.000000 -0.004964 0.000000
# 2 -0.005783 0.011908 -0.001139 0.000000 0.003702 0.000000
# 3 -0.001905 -0.001139 0.008261 0.000000 0.003102 0.000000
# 4 0.000000 0.000000 0.000000 0.032417 0.000000 0.009390
# 5 -0.004964 0.003702 0.003102 0.000000 0.019066 0.000000
# 6 0.000000 0.000000 0.000000 0.009390 0.000000 0.041058
#
#
# Mechanical properties :
#
#
# Convention : Reuss Voigt Hill
#
# Bulk Modulus (GPa) = 73.50025 74.77423 74.13724
# Shear Modulus (GPa) = 34.24860 42.25656 38.25258
#
# Velocity S-wave (km/s) = 3.80274 4.22398 4.01889
# Velocity P-wave (km/s) = 7.09332 7.44052 7.26900
#
# Compressibility (1/GPa) = 0.01360540
#
# Stress axis : x y z
#
# Youngs Moduli (GPa) = 90.16471 83.97612 121.05032
#
# Poissons Ratio (x) = 0.48565 0.23063
# Poissons Ratio (y) = 0.52144 0.13785
# Poissons Ratio (z) = 0.17179 0.09563
#
# Static dielectric constant tensor:
#      x y z
#    x 1.902240 0.000000 -0.029360 
#    y 0.000000 1.892240 0.000000 
#    z -0.029360 0.000000 1.935970 
# 
# From -- ./inp_files/4106.got.cif
#   From: 2010.05.17/outbox.cif.g08.bks.cpg/sg11_3_cif.got.tgz:4106.got - 2010.06.03 12:22:45.
