data_PCOD9167276
_publ_section_title
;
Structure prediction by ZEFSAII (Michael W. Deem and Ramdas Pophale) SiO2 
 PCOD9167276
Probable space group: P 21/M
;
_chemical_formula_sum "Si O2"
_cell_formula_units_Z 24
_cell_length_a 13.027131
_cell_length_b 16.784266
_cell_length_c 4.964795
_cell_angle_alpha 90.000000
_cell_angle_beta 82.594812
_cell_angle_gamma 90.000000
_cell_volume 1076.502468
_symmetry_space_group_name_H-M "P 21/M"
_symmetry_group_IT_number 11
_symmetry_cell_setting 'monoclinic'
loop_
_space_group_symop_operation_xyz
x,y,z
-x,1/2+y,-z
-x,-y,-z
x,1/2-y,z
loop_
_atom_site_type_symbol
_atom_site_label
_atom_site_fract_x
_atom_site_fract_y
_atom_site_fract_z
Si Si1 0.974185 0.659328 0.803920
Si Si2 0.870642 0.593677 0.337292
Si Si3 0.791411 0.340964 0.064374
Si Si4 0.358462 0.343906 0.642191
Si Si5 0.763423 0.440678 0.550568
Si Si6 0.410834 0.055388 0.148922
O O1 0.936723 0.750000 0.861054
O O2 0.909586 0.601693 0.020202
O O3 0.952447 0.635071 0.506189
O O4 0.093528 0.657607 0.847415
O O5 0.760815 0.639048 0.402931
O O6 0.851688 0.502951 0.430234
O O7 0.755191 0.250000 0.067509
O O8 0.727281 0.395495 0.293213
O O9 0.794915 0.378133 0.767651
O O10 0.376958 0.250000 0.653159
O O11 0.431217 0.387193 0.397307
O O12 0.372040 0.388108 0.921512
O O13 0.676025 0.495168 0.713064
O O14 0.500000 0.000000 0.000000
#
# Coordination Sequence:
#
# PCOD9167276 Si02
#       6
#     4   4   4   4   4   4
#     4  11  22  36  56  86 124 163 201 242 290 342
#     4  11  22  36  60  90 121 158 197 246 299 356
#     4  11  24  41  59  83 120 163 206 248 288 344
#     4  11  22  40  66  95 126 157 196 245 303 364
#     4  11  23  41  61  85 115 155 201 246 307 359
#     4  11  24  44  66  91 124 158 195 250 310 364
#
# _framework density 22.294422000000001
#
# number of rings (size 3 to 8) (size 9 to 14) (size 15 to 20)
#    0.000    1.000    0.000    9.000    0.000    6.667 
#    0.000    5.000    0.000    0.000    0.000    0.000 
#    0.000    0.000    0.000    0.000    0.000    0.000 
#
# Total GULP energy -134372.571093 kJ/mol
# GULP energy per Si atom -5598.857129 kJ/mol
# Density = 2.224368 g / cm^3
# Si number density = 22.294422 Si / 1000 Ang^3
#
#
#
# Elastic Constant Matrix: (Units=GPa)
#
#
# Indices 1 2 3 4 5 6 
#
# 1 18.2047 14.1945 4.1777 0.0000 -12.3428 0.0000
# 2 14.1945 151.3204 57.6723 0.0000 -6.5198 0.0000
# 3 4.1777 57.6723 122.8072 0.0000 -4.3345 0.0000
# 4 0.0000 0.0000 0.0000 9.6433 0.0000 14.1505
# 5 -12.3428 -6.5198 -4.3345 0.0000 22.5890 0.0000
# 6 0.0000 0.0000 0.0000 14.1505 0.0000 10.1696
#
#
#
# Elastic Compliance Matrix: (Units=1/GPa)
#
#
# Indices 1 2 3 4 5 6 
#
# 1 0.093846 -0.007453 0.002055 0.000000 0.049521 0.000000
# 2 -0.007453 0.008700 -0.003914 0.000000 -0.002312 0.000000
# 3 0.002055 -0.003914 0.009978 0.000000 0.001908 0.000000
# 4 0.000000 0.000000 0.000000 -0.099538 0.000000 0.138503
# 5 0.049521 -0.002312 0.001908 0.000000 0.071027 0.000000
# 6 0.000000 0.000000 0.000000 0.138503 0.000000 -0.094387
#
#
# Mechanical properties :
#
#
# Convention : Reuss Voigt Hill
#
# Bulk Modulus (GPa) = 10.64947 49.38015 30.01481
# Shear Modulus (GPa) = 126.43106 22.89957 74.66532
#
# Velocity S-wave (km/s) = 7.53876 3.20838 5.79338
# Velocity P-wave (km/s) = 8.97576 5.99351 7.63172
#
# Compressibility (1/GPa) = 0.09390137
#
# Stress axis : x y z
#
# Youngs Moduli (GPa) = 10.65578 114.94885 100.21922
#
# Poissons Ratio (x) = 0.85669 -0.20598
# Poissons Ratio (y) = 0.07942 0.39221
# Poissons Ratio (z) = -0.02190 0.44985
#
# Static dielectric constant tensor:
#      x y z
#    x 1.835560 0.000000 -0.015840 
#    y 0.000000 1.819470 0.000000 
#    z -0.015840 0.000000 1.792650 
# 
# From -- ./inp_files/6405.got.cif
#   From: 2010.05.17/outbox.cif.g08.bks.cpg/sg11_4_cif.got.tgz:6405.got - 2010.06.03 12:22:45.
