data_PCOD9167038
_publ_section_title
;
Structure prediction by ZEFSAII (Michael W. Deem and Ramdas Pophale) SiO2 
 PCOD9167038
Probable space group: P 21/M
;
_chemical_formula_sum "Si O2"
_cell_formula_units_Z 32
_cell_length_a 11.001187
_cell_length_b 17.839340
_cell_length_c 12.134400
_cell_angle_alpha 90.000000
_cell_angle_beta 144.615988
_cell_angle_gamma 90.000000
_cell_volume 1378.972080
_symmetry_space_group_name_H-M "P 21/M"
_symmetry_group_IT_number 11
_symmetry_cell_setting 'monoclinic'
loop_
_space_group_symop_operation_xyz
x,y,z
-x,1/2+y,-z
-x,-y,-z
x,1/2-y,z
loop_
_atom_site_type_symbol
_atom_site_label
_atom_site_fract_x
_atom_site_fract_y
_atom_site_fract_z
Si Si1 0.676972 0.002577 0.497208
Si Si2 0.308077 0.603061 0.879567
Si Si3 0.900692 0.168221 0.458711
Si Si4 0.773670 0.829727 0.864444
Si Si5 0.213346 0.011080 0.090706
Si Si6 0.996872 0.385370 0.176991
Si Si7 0.263313 0.454430 0.711777
Si Si8 0.288039 0.668306 0.439348
O O1 0.798443 0.931845 0.636386
O O2 0.715005 0.995024 0.392128
O O3 0.424804 0.999485 0.315677
O O4 0.750766 0.079313 0.612960
O O5 0.308704 0.648636 0.765437
O O6 0.243564 0.518907 0.790428
O O7 0.122509 0.648228 0.807180
O O8 0.530511 0.593424 0.103079
O O9 0.985445 0.250000 0.490591
O O10 0.830923 0.172110 0.533103
O O11 0.070338 0.102821 0.567503
O O12 0.805497 0.750000 0.943042
O O13 0.787224 0.903293 0.949160
O O14 0.936016 0.840268 0.881885
O O15 0.539445 0.830585 0.642308
O O16 0.000000 0.000000 0.000000
O O17 0.185810 0.946541 0.982828
O O18 0.244465 0.750000 0.348779
#
# Coordination Sequence:
#
# PCOD9167038 Si02
#       8
#     4   4   4   4   4   4   4   4
#     4  11  19  36  62  84 120 156 192 250 293 348
#     4  11  22  37  63  91 118 155 201 250 294 358
#     4  11  22  38  59  86 122 160 195 245 303 357
#     4   9  20  38  59  83 118 154 190 242 296 351
#     4   9  20  36  57  85 115 149 199 244 290 346
#     4  11  21  35  62  90 114 151 201 239 298 354
#     4  11  22  37  60  90 122 155 203 241 299 358
#     4   9  19  36  58  82 114 153 193 239 299 349
#
# _framework density 23.205691000000002
#
# number of rings (size 3 to 8) (size 9 to 14) (size 15 to 20)
#    0.000    1.750    3.750    1.125    0.000    5.500 
#    0.000    0.625    0.000   11.250    0.000    0.000 
#    0.000    0.000    0.000    0.000    0.000    0.000 
#
# Total GULP energy -178289.684882 kJ/mol
# GULP energy per Si atom -5571.552653 kJ/mol
# Density = 2.315287 g / cm^3
# Si number density = 23.205691 Si / 1000 Ang^3
#
#
#
# Elastic Constant Matrix: (Units=GPa)
#
#
# Indices 1 2 3 4 5 6 
#
# 1 54.3593 1.9791 6.1134 0.0000 21.4990 0.0000
# 2 1.9791 97.8511 16.9172 0.0000 2.6131 0.0000
# 3 6.1134 16.9172 116.2871 0.0000 14.5478 0.0000
# 4 0.0000 0.0000 0.0000 -34.1904 0.0000 -9.2405
# 5 21.4990 2.6131 14.5478 0.0000 27.2472 0.0000
# 6 0.0000 0.0000 0.0000 -9.2405 0.0000 6.6176
#
#
#
# Elastic Compliance Matrix: (Units=1/GPa)
#
#
# Indices 1 2 3 4 5 6 
#
# 1 0.026936 -0.000193 0.001359 0.000000 -0.021960 0.000000
# 2 -0.000193 0.010486 -0.001509 0.000000 -0.000047 0.000000
# 3 0.001359 -0.001509 0.009498 0.000000 -0.005999 0.000000
# 4 0.000000 0.000000 0.000000 -0.021234 0.000000 -0.029651
# 5 -0.021960 -0.000047 -0.005999 0.000000 0.057236 0.000000
# 6 0.000000 0.000000 0.000000 -0.029651 0.000000 0.109710
#
#
# Mechanical properties :
#
#
# Convention : Reuss Voigt Hill
#
# Bulk Modulus (GPa) = 21.62970 35.39075 28.51022
# Shear Modulus (GPa) = 23.95459 16.16740 20.06099
#
# Velocity S-wave (km/s) = 3.21638 2.64237 2.94340
# Velocity P-wave (km/s) = 4.80984 4.95918 4.88508
#
# Compressibility (1/GPa) = 0.04623273
#
# Stress axis : x y z
#
# Youngs Moduli (GPa) = 37.12557 95.36772 105.28516
#
# Poissons Ratio (x) = 0.01844 -0.14312
# Poissons Ratio (y) = 0.00718 0.15891
# Poissons Ratio (z) = -0.05047 0.14395
#
# Static dielectric constant tensor:
#      x y z
#    x 2.134690 0.000000 -0.074840 
#    y 0.000000 1.261530 0.000000 
#    z -0.074840 0.000000 1.882870 
# 
# From -- ./inp_files/50691.got.cif
#   From: 2010.05.17/outbox.cif.g08.bks.cpg/sg11_26_cif.got.tgz:50691.got - 2010.06.03 12:22:45.
