data_PCOD9167563
_publ_section_title
;
Structure prediction by ZEFSAII (Michael W. Deem and Ramdas Pophale) SiO2 
 PCOD9167563
Probable space group: P 21/M
;
_chemical_formula_sum "Si O2"
_cell_formula_units_Z 26
_cell_length_a 4.907778
_cell_length_b 19.275036
_cell_length_c 11.701221
_cell_angle_alpha 90.000000
_cell_angle_beta 109.518142
_cell_angle_gamma 90.000000
_cell_volume 1043.299790
_symmetry_space_group_name_H-M "P 21/M"
_symmetry_group_IT_number 11
_symmetry_cell_setting 'monoclinic'
loop_
_space_group_symop_operation_xyz
x,y,z
-x,1/2+y,-z
-x,-y,-z
x,1/2-y,z
loop_
_atom_site_type_symbol
_atom_site_label
_atom_site_fract_x
_atom_site_fract_y
_atom_site_fract_z
Si Si1 0.042906 0.941316 0.668543
Si Si2 0.133301 0.138071 0.145384
Si Si3 0.617791 0.750000 0.951470
Si Si4 0.353564 0.173142 0.635639
Si Si5 0.410643 0.498324 0.117516
Si Si6 0.631957 0.156518 0.903783
Si Si7 0.198625 0.584848 0.430048
O O1 0.316998 0.974387 0.770930
O O2 0.933464 0.877706 0.731977
O O3 0.152191 0.920170 0.559244
O O4 0.822587 0.006579 0.623163
O O5 0.175658 0.060224 0.106014
O O6 0.394084 0.188407 0.150002
O O7 0.886758 0.174125 0.030999
O O8 0.624495 0.688434 0.054270
O O9 0.273038 0.250000 0.581358
O O10 0.579963 0.183373 0.770280
O O11 0.077002 0.131615 0.645836
O O12 0.511417 0.123775 0.566311
O O13 0.328594 0.576825 0.124326
O O14 0.500000 0.500000 0.000000
#
# Coordination Sequence:
#
# PCOD9167563 Si02
#       7
#     4   4   2   4   4   4   4
#     4  11  26  47  74 106 149 191 261 312 377 440
#     4  12  26  43  72 104 147 196 239 311 386 458
#     4  12  26  44  66 102 158 188 244 298 398 442
#     4  12  27  48  79 109 151 198 257 309 382 453
#     4  12  23  42  72 105 143 183 247 307 370 444
#     4  12  25  43  69 110 143 190 241 315 374 452
#     4  11  28  49  77 110 147 204 258 321 367 439
#
# _framework density 24.920928
#
# number of rings (size 3 to 8) (size 9 to 14) (size 15 to 20)
#    0.000    0.308    5.385    2.308    6.462    1.231 
#    2.769    0.000    0.000    0.000    0.000    0.000 
#    0.000    0.000    0.000    0.000    0.000    0.000 
#
# Total GULP energy -144796.201781 kJ/mol
# GULP energy per Si atom -5569.084684 kJ/mol
# Density = 2.486421 g / cm^3
# Si number density = 24.920928 Si / 1000 Ang^3
#
#
#
# Elastic Constant Matrix: (Units=GPa)
#
#
# Indices 1 2 3 4 5 6 
#
# 1 62.7373 13.0836 12.5189 0.0000 -13.4615 0.0000
# 2 13.0836 167.6310 21.9542 0.0000 -15.8752 0.0000
# 3 12.5189 21.9542 121.0184 0.0000 -13.4800 0.0000
# 4 0.0000 0.0000 0.0000 36.4359 0.0000 -59.3893
# 5 -13.4615 -15.8752 -13.4800 0.0000 35.1309 0.0000
# 6 0.0000 0.0000 0.0000 -59.3893 0.0000 126.1440
#
#
#
# Elastic Compliance Matrix: (Units=1/GPa)
#
#
# Indices 1 2 3 4 5 6 
#
# 1 0.017579 -0.000666 -0.001025 0.000000 0.006042 0.000000
# 2 -0.000666 0.006343 -0.000826 0.000000 0.002294 0.000000
# 3 -0.001025 -0.000826 0.008810 0.000000 0.002615 0.000000
# 4 0.000000 0.000000 0.000000 0.117994 0.000000 0.055552
# 5 0.006042 0.002294 0.002615 0.000000 0.032820 0.000000
# 6 0.000000 0.000000 0.000000 0.055552 0.000000 0.034082
#
#
# Mechanical properties :
#
#
# Convention : Reuss Voigt Hill
#
# Bulk Modulus (GPa) = 36.10220 49.61111 42.85666
# Shear Modulus (GPa) = 21.56154 59.79749 40.67952
#
# Velocity S-wave (km/s) = 2.94462 4.90377 4.04461
# Velocity P-wave (km/s) = 5.10678 7.21202 6.24870
#
# Compressibility (1/GPa) = 0.02769915
#
# Stress axis : x y z
#
# Youngs Moduli (GPa) = 56.88535 157.65612 113.50306
#
# Poissons Ratio (x) = 0.10494 0.11631
# Poissons Ratio (y) = 0.03787 0.09379
# Poissons Ratio (z) = 0.05829 0.13027
#
# Static dielectric constant tensor:
#      x y z
#    x 2.210220 0.000000 0.026660 
#    y 0.000000 1.873830 0.000000 
#    z 0.026660 0.000000 1.988200 
# 
# From -- ./inp_files/29908.got.cif
#   From: 2010.05.17/outbox.cif.g08.bks.cpg/sg11_15_cif.got.tgz:29908.got - 2010.06.03 12:22:45.
