data_PCOD9167967
_publ_section_title
;
Structure prediction by ZEFSAII (Michael W. Deem and Ramdas Pophale) SiO2 
 PCOD9167967
Probable space group: P 21/M
;
_chemical_formula_sum "Si O2"
_cell_formula_units_Z 32
_cell_length_a 27.000000
_cell_length_b 9.000000
_cell_length_c 21.000000
_cell_angle_alpha 90.000000
_cell_angle_beta 20.000000
_cell_angle_gamma 90.000000
_cell_volume 1745.328791
_symmetry_space_group_name_H-M "P 21/M"
_symmetry_group_IT_number 11
_symmetry_cell_setting 'monoclinic'
loop_
_space_group_symop_operation_xyz
x,y,z
-x,1/2+y,-z
-x,-y,-z
x,1/2-y,z
loop_
_atom_site_type_symbol
_atom_site_label
_atom_site_fract_x
_atom_site_fract_y
_atom_site_fract_z
Si Si1 0.350462 0.573104 0.955979
Si Si2 0.147216 0.426148 0.034448
Si Si3 0.550285 0.071353 0.306253
Si Si4 0.526306 0.072506 0.060170
Si Si5 0.240712 0.572905 0.699440
Si Si6 0.004066 0.073432 0.898108
Si Si7 0.743353 0.572043 0.699309
Si Si8 0.948681 0.925628 0.703524
O O1 0.322658 0.750000 0.988068
O O2 0.455205 0.539563 0.888053
O O3 0.196552 0.493214 0.152020
O O4 0.423964 0.534748 0.799804
O O5 0.161955 0.250000 0.005821
O O6 0.304887 0.503144 0.837321
O O7 0.037629 0.499840 0.117731
O O8 0.084405 0.448838 0.181350
O O9 0.547786 0.250000 0.317034
O O10 0.398790 0.001746 0.512331
O O11 0.545168 0.250000 0.027631
O O12 0.653728 0.989946 0.867890
O O13 0.368506 0.033916 0.223037
O O14 0.256647 0.750000 0.671691
O O15 0.135639 0.547880 0.887192
O O16 0.145825 0.500961 0.757475
O O17 0.025729 0.250000 0.866907
O O18 0.757280 0.750000 0.686380
O O19 0.901325 0.501391 0.498705
O O20 0.957564 0.750000 0.680497
#
# Coordination Sequence:
#
# PCOD9167967 Si02
#       8
#     4   4   4   4   4   4   4   4
#     4   9  19  36  56  78 104 136 175 218 262 309
#     4  10  21  37  56  79 108 141 178 221 268 317
#     4  10  20  35  56  81 108 140 179 221 267 319
#     4   9  19  36  55  76 104 136 173 217 261 308
#     4  10  21  37  56  80 110 142 177 219 267 317
#     4  10  21  37  57  80 107 141 180 221 265 315
#     4  10  20  34  54  79 106 138 174 214 261 312
#     4  10  21  36  54  78 107 139 174 214 261 312
#
# _framework density 18.334654
#
# number of rings (size 3 to 8) (size 9 to 14) (size 15 to 20)
#    0.000    2.250    0.000    2.250    0.000    6.500 
#    0.000    1.250    0.000    0.000    0.000    0.000 
#    0.000    0.000    0.000    0.000    0.000    0.000 
#
# Total GULP energy -178597.750064 kJ/mol
# GULP energy per Si atom -5581.179690 kJ/mol
# Density = 1.829292 g / cm^3
# Si number density = 18.334654 Si / 1000 Ang^3
#
#
#
# Elastic Constant Matrix: (Units=GPa)
#
#
# Indices 1 2 3 4 5 6 
#
# 1 32.0537 -4.2847 -43.8080 0.0000 -1.2223 0.0000
# 2 -4.2847 38.5895 5.2027 0.0000 3.1249 0.0000
# 3 -43.8080 5.2027 43.7425 0.0000 -4.7503 0.0000
# 4 0.0000 0.0000 0.0000 34.6338 0.0000 -2.2312
# 5 -1.2223 3.1249 -4.7503 0.0000 8.7576 0.0000
# 6 0.0000 0.0000 0.0000 -2.2312 0.0000 25.2206
#
#
#
# Elastic Compliance Matrix: (Units=1/GPa)
#
#
# Indices 1 2 3 4 5 6 
#
# 1 -0.060547 0.006007 -0.066415 0.000000 -0.046619 0.000000
# 2 0.006007 0.026938 0.001975 0.000000 -0.007702 0.000000
# 3 -0.066415 0.001975 -0.047787 0.000000 -0.035895 0.000000
# 4 0.000000 0.000000 0.000000 0.029039 0.000000 0.002569
# 5 -0.046619 -0.007702 -0.035895 0.000000 0.090958 0.000000
# 6 0.000000 0.000000 0.000000 0.002569 0.000000 0.039877
#
#
# Mechanical properties :
#
#
# Convention : Reuss Voigt Hill
#
# Bulk Modulus (GPa) = -5.04380 3.17840 -0.93270
# Shear Modulus (GPa) = 38.68245 24.20747 31.44496
#
# Velocity S-wave (km/s) = 4.59824 3.63755 4.14582
# Velocity P-wave (km/s) = 5.04329 4.40224 4.73363
#
# Compressibility (1/GPa) = -0.19826330
#
# Stress axis : x y z
#
# Youngs Moduli (GPa) = -16.51597 37.12211 -20.92634
#
# Poissons Ratio (x) = -0.22297 -1.38983
# Poissons Ratio (y) = 0.09920 0.04133
# Poissons Ratio (z) = -1.09691 -0.07332
#
# Static dielectric constant tensor:
#      x y z
#    x 1.653730 0.000000 0.011120 
#    y 0.000000 1.613480 0.000000 
#    z 0.011120 0.000000 1.580470 
# 
# From -- ./inp_files/66997.got.cif
#   From: 2010.05.17/outbox.ucp.g08.bks.cvg/sg11_34_cif.got.tgz:66997.got - 2010.06.11 11:38:39.
