data_PCOD9167874
_publ_section_title
;
Structure prediction by ZEFSAII (Michael W. Deem and Ramdas Pophale) SiO2 
 PCOD9167874
Probable space group: P 21/M
;
_chemical_formula_sum "Si O2"
_cell_formula_units_Z 24
_cell_length_a 30.000000
_cell_length_b 9.000000
_cell_length_c 9.000000
_cell_angle_alpha 90.000000
_cell_angle_beta 150.000000
_cell_angle_gamma 90.000000
_cell_volume 1215.000000
_symmetry_space_group_name_H-M "P 21/M"
_symmetry_group_IT_number 11
_symmetry_cell_setting 'monoclinic'
loop_
_space_group_symop_operation_xyz
x,y,z
-x,1/2+y,-z
-x,-y,-z
x,1/2-y,z
loop_
_atom_site_type_symbol
_atom_site_label
_atom_site_fract_x
_atom_site_fract_y
_atom_site_fract_z
Si Si1 0.663709 0.427830 0.271376
Si Si2 0.488556 0.572424 0.804181
Si Si3 0.828835 0.572061 0.622051
Si Si4 0.036048 0.415395 0.745382
Si Si5 0.146094 0.918813 0.606874
Si Si6 0.707854 0.428353 0.737590
O O1 0.659505 0.250000 0.261082
O O2 0.734587 0.493941 0.365041
O O3 0.695526 0.478748 0.530421
O O4 0.568909 0.495565 0.952359
O O5 0.499467 0.750000 0.845289
O O6 0.387926 0.541610 0.463906
O O7 0.500000 0.500000 0.000000
O O8 0.824917 0.750000 0.619891
O O9 0.863598 0.521227 0.563762
O O10 0.887270 0.516247 0.930816
O O11 0.064972 0.250000 0.782682
O O12 0.000000 0.500000 0.500000
O O13 0.950913 0.404404 0.604587
O O14 0.176535 0.750000 0.653983
O O15 0.212359 0.980367 0.926616
O O16 0.719617 0.250000 0.760255
#
# Coordination Sequence:
#
# PCOD9167874 Si02
#       6
#     4   4   4   4   4   4
#     4  10  19  34  56  80 105 142 185 226 271 321
#     4   9  16  29  50  79 111 141 176 225 273 318
#     4  11  23  37  52  79 113 143 176 221 270 318
#     4  10  22  38  59  84 110 139 177 220 265 316
#     4  10  20  37  57  78 106 144 181 215 260 322
#     4   8  16  31  54  80 105 135 178 223 265 313
#
# _framework density 19.753086
#
# number of rings (size 3 to 8) (size 9 to 14) (size 15 to 20)
#    0.000    2.333    0.000    4.000    0.000    3.333 
#    0.000    5.833    0.000    0.000    0.000    0.000 
#    0.000    0.000    0.000    0.000    0.000    0.000 
#
# Total GULP energy -133646.494354 kJ/mol
# GULP energy per Si atom -5568.603931 kJ/mol
# Density = 1.970813 g / cm^3
# Si number density = 19.753086 Si / 1000 Ang^3
#
#
#
# Elastic Constant Matrix: (Units=GPa)
#
#
# Indices 1 2 3 4 5 6 
#
# 1 48.2426 16.3385 -7.8231 0.0000 15.3963 0.0000
# 2 16.3385 44.6037 -4.2756 0.0000 6.8226 0.0000
# 3 -7.8231 -4.2756 6.9466 0.0000 25.4769 0.0000
# 4 0.0000 0.0000 0.0000 23.5920 0.0000 -3.6202
# 5 15.3963 6.8226 25.4769 0.0000 19.6236 0.0000
# 6 0.0000 0.0000 0.0000 -3.6202 0.0000 19.7302
#
#
#
# Elastic Compliance Matrix: (Units=1/GPa)
#
#
# Indices 1 2 3 4 5 6 
#
# 1 0.018867 -0.009645 -0.015234 0.000000 0.008328 0.000000
# 2 -0.009645 0.025409 -0.002505 0.000000 0.001985 0.000000
# 3 -0.015234 -0.002505 -0.020797 0.000000 0.039824 0.000000
# 4 0.000000 0.000000 0.000000 0.043615 0.000000 0.008003
# 5 0.008328 0.001985 0.039824 0.000000 -0.007968 0.000000
# 6 0.000000 0.000000 0.000000 0.008003 0.000000 0.052152
#
#
# Mechanical properties :
#
#
# Convention : Reuss Voigt Hill
#
# Bulk Modulus (GPa) = -31.95997 12.03027 -9.96485
# Shear Modulus (GPa) = 32.13044 18.95938 25.54491
#
# Velocity S-wave (km/s) = 4.03749 3.10145 3.60003
# Velocity P-wave (km/s) = 2.34953 4.35074 3.49637
#
# Compressibility (1/GPa) = -0.03128914
#
# Stress axis : x y z
#
# Youngs Moduli (GPa) = 53.00297 39.35624 -48.08297
#
# Poissons Ratio (x) = 0.37960 -0.73248
# Poissons Ratio (y) = 0.51122 -0.12044
# Poissons Ratio (z) = 0.80743 0.09858
#
# Static dielectric constant tensor:
#      x y z
#    x 1.648520 0.000000 0.011160 
#    y 0.000000 1.731900 0.000000 
#    z 0.011160 0.000000 1.681100 
# 
# From -- ./inp_files/20579.got.cif
#   From: 2010.05.17/outbox.ucp.g08.bks.cvg/sg11_11_cif.got.tgz:20579.got - 2010.06.11 11:38:39.
