data_PCOD9167372
_publ_section_title
;
Structure prediction by ZEFSAII (Michael W. Deem and Ramdas Pophale) SiO2 
 PCOD9167372
Probable space group: P 21/M
;
_chemical_formula_sum "Si O2"
_cell_formula_units_Z 20
_cell_length_a 5.257221
_cell_length_b 27.781274
_cell_length_c 5.630543
_cell_angle_alpha 90.000000
_cell_angle_beta 101.552883
_cell_angle_gamma 90.000000
_cell_volume 805.693078
_symmetry_space_group_name_H-M "P 21/M"
_symmetry_group_IT_number 11
_symmetry_cell_setting 'monoclinic'
loop_
_space_group_symop_operation_xyz
x,y,z
-x,1/2+y,-z
-x,-y,-z
x,1/2-y,z
loop_
_atom_site_type_symbol
_atom_site_label
_atom_site_fract_x
_atom_site_fract_y
_atom_site_fract_z
Si Si1 0.677337 0.118062 0.508626
Si Si2 0.717669 0.807091 0.593904
Si Si3 0.267457 0.462657 0.931277
Si Si4 0.138043 0.058456 0.403591
Si Si5 0.124924 0.355235 0.887471
O O1 0.570976 0.170737 0.426546
O O2 0.421279 0.085059 0.457547
O O3 0.836199 0.124087 0.783726
O O4 0.895166 0.094217 0.384229
O O5 0.725725 0.750000 0.589684
O O6 0.805707 0.826819 0.346637
O O7 0.855452 0.825938 0.863492
O O8 0.117771 0.466613 0.149730
O O9 0.500000 0.500000 0.000000
O O10 0.155766 0.470412 0.649614
O O11 0.301933 0.403540 0.935180
#
# Coordination Sequence:
#
# PCOD9167372 Si02
#       5
#     4   4   4   4   4
#     4  11  23  50  72 103 142 194 229 300 359 419
#     4  12  26  45  74 103 139 189 241 296 366 431
#     4  11  22  45  73 110 144 194 240 293 359 435
#     4  11  25  43  75 100 150 187 240 291 361 417
#     4  11  24  47  72 102 149 184 236 302 357 425
#
# _framework density 24.823349
#
# number of rings (size 3 to 8) (size 9 to 14) (size 15 to 20)
#    0.000    0.800    6.000    1.200    0.000   11.200 
#    0.000   14.000    0.000    0.000    0.000    0.000 
#    0.000    0.000    0.000    0.000    0.000    0.000 
#
# Total GULP energy -111680.663058 kJ/mol
# GULP energy per Si atom -5584.033153 kJ/mol
# Density = 2.476685 g / cm^3
# Si number density = 24.823349 Si / 1000 Ang^3
#
#
#
# Elastic Constant Matrix: (Units=GPa)
#
#
# Indices 1 2 3 4 5 6 
#
# 1 160.4753 76.4816 81.7325 0.0000 -2.8750 0.0000
# 2 76.4816 178.0363 129.5987 0.0000 -3.0016 0.0000
# 3 81.7325 129.5987 291.1007 0.0000 -18.2497 0.0000
# 4 0.0000 0.0000 0.0000 61.0100 0.0000 -4.3657
# 5 -2.8750 -3.0016 -18.2497 0.0000 36.5916 0.0000
# 6 0.0000 0.0000 0.0000 -4.3657 0.0000 35.5094
#
#
#
# Elastic Compliance Matrix: (Units=1/GPa)
#
#
# Indices 1 2 3 4 5 6 
#
# 1 0.008054 -0.002678 -0.001077 0.000000 -0.000124 0.000000
# 2 -0.002678 0.009252 -0.003440 0.000000 -0.001167 0.000000
# 3 -0.001077 -0.003440 0.005415 0.000000 0.002334 0.000000
# 4 0.000000 0.000000 0.000000 0.016536 0.000000 0.002033
# 5 -0.000124 -0.001167 0.002334 0.000000 0.028387 0.000000
# 6 0.000000 0.000000 0.000000 0.002033 0.000000 0.028411
#
#
# Mechanical properties :
#
#
# Convention : Reuss Voigt Hill
#
# Bulk Modulus (GPa) = 120.03132 133.91532 126.97332
# Shear Modulus (GPa) = 44.16032 49.40884 46.78458
#
# Velocity S-wave (km/s) = 4.22238 4.46625 4.34602
# Velocity P-wave (km/s) = 8.49885 8.98114 8.74332
#
# Compressibility (1/GPa) = 0.00833116
#
# Stress axis : x y z
#
# Youngs Moduli (GPa) = 124.16047 108.08614 184.65578
#
# Poissons Ratio (x) = 0.28947 0.19884
# Poissons Ratio (y) = 0.33252 0.63525
# Poissons Ratio (z) = 0.13370 0.37184
#
# Static dielectric constant tensor:
#      x y z
#    x 2.027150 0.000000 -0.024830 
#    y 0.000000 2.017840 0.000000 
#    z -0.024830 0.000000 1.983720 
# 
# From -- ./inp_files/828.got.cif
#   From: 2010.05.17/outbox.cif.g08.bks.cpg/sg11_1_cif.got.tgz:828.got - 2010.06.03 12:22:45.
