data_PCOD9167295
_publ_section_title
;
Structure prediction by ZEFSAII (Michael W. Deem and Ramdas Pophale) SiO2 
 PCOD9167295
Probable space group: P 21/M
;
_chemical_formula_sum "Si O2"
_cell_formula_units_Z 20
_cell_length_a 8.964447
_cell_length_b 15.233186
_cell_length_c 11.738433
_cell_angle_alpha 90.000000
_cell_angle_beta 38.545544
_cell_angle_gamma 90.000000
_cell_volume 998.866816
_symmetry_space_group_name_H-M "P 21/M"
_symmetry_group_IT_number 11
_symmetry_cell_setting 'monoclinic'
loop_
_space_group_symop_operation_xyz
x,y,z
-x,1/2+y,-z
-x,-y,-z
x,1/2-y,z
loop_
_atom_site_type_symbol
_atom_site_label
_atom_site_fract_x
_atom_site_fract_y
_atom_site_fract_z
Si Si1 0.598896 0.526594 0.815968
Si Si2 0.116456 0.536863 0.553737
Si Si3 0.856418 0.848723 0.357632
Si Si4 0.879917 0.410952 0.022811
Si Si5 0.295708 0.844490 0.644145
O O1 0.700562 0.456756 0.661475
O O2 0.379028 0.571339 0.880969
O O3 0.851610 0.575710 0.689654
O O4 0.500000 0.500000 0.000000
O O5 0.077874 0.433111 0.605343
O O6 0.227511 0.579590 0.598531
O O7 0.926293 0.750000 0.354822
O O8 0.571417 0.850964 0.514486
O O9 0.964888 0.867252 0.168501
O O10 0.848952 0.352728 0.152873
O O11 0.000000 0.500000 0.000000
O O12 0.253024 0.750000 0.614367
#
# Coordination Sequence:
#
# PCOD9167295 Si02
#       5
#     4   4   4   4   4
#     4  11  22  38  65  92 123 165 208 250 315 378
#     4  11  22  41  64  89 127 166 205 256 315 369
#     4  11  22  37  62  93 122 159 208 255 305 368
#     4  12  21  38  68  92 124 165 207 259 314 364
#     4  11  23  41  64  93 124 163 212 260 311 369
#
# _framework density 20.022687999999999
#
# number of rings (size 3 to 8) (size 9 to 14) (size 15 to 20)
#    0.000    0.800    6.000    2.400    0.000    0.000 
#    0.000    6.000    0.000    1.200    0.000    0.000 
#    0.000    0.000    0.000    0.000    0.000    0.000 
#
# Total GULP energy -111480.927054 kJ/mol
# GULP energy per Si atom -5574.046353 kJ/mol
# Density = 1.997712 g / cm^3
# Si number density = 20.022688 Si / 1000 Ang^3
#
#
#
# Elastic Constant Matrix: (Units=GPa)
#
#
# Indices 1 2 3 4 5 6 
#
# 1 57.5930 25.5210 4.9607 0.0000 20.2921 0.0000
# 2 25.5210 95.5300 12.4977 0.0000 4.2213 0.0000
# 3 4.9607 12.4977 129.2399 0.0000 28.2720 0.0000
# 4 0.0000 0.0000 0.0000 10.2812 0.0000 -2.0844
# 5 20.2921 4.2213 28.2720 0.0000 40.0936 0.0000
# 6 0.0000 0.0000 0.0000 -2.0844 0.0000 -1.2880
#
#
#
# Elastic Compliance Matrix: (Units=1/GPa)
#
#
# Indices 1 2 3 4 5 6 
#
# 1 0.024807 -0.006369 0.002676 0.000000 -0.013772 0.000000
# 2 -0.006369 0.012244 -0.001611 0.000000 0.003070 0.000000
# 3 0.002676 -0.001611 0.009518 0.000000 -0.007897 0.000000
# 4 0.000000 0.000000 0.000000 0.073236 0.000000 -0.118524
# 5 -0.013772 0.003070 -0.007897 0.000000 0.037157 0.000000
# 6 0.000000 0.000000 0.000000 -0.118524 0.000000 -0.584608
#
#
# Mechanical properties :
#
#
# Convention : Reuss Voigt Hill
#
# Bulk Modulus (GPa) = 27.80684 40.92464 34.36574
# Shear Modulus (GPa) = -12.34415 25.77627 6.71606
#
# Velocity S-wave (km/s) = -2.48565 3.59186 1.83344
# Velocity P-wave (km/s) = 2.38325 6.13885 4.65647
#
# Compressibility (1/GPa) = 0.03596238
#
# Stress axis : x y z
#
# Youngs Moduli (GPa) = 40.31071 81.66939 105.06347
#
# Poissons Ratio (x) = 0.52014 -0.28119
# Poissons Ratio (y) = 0.25673 0.16929
# Poissons Ratio (z) = -0.10789 0.13159
#
# Static dielectric constant tensor:
#      x y z
#    x 1.700450 0.000000 -0.001780 
#    y 0.000000 1.703060 0.000000 
#    z -0.001780 0.000000 1.722960 
# 
# From -- ./inp_files/32020.got.cif
#   From: 2010.05.17/outbox.cif.g08.bks.cpg/sg11_17_cif.got.tgz:32020.got - 2010.06.03 12:22:45.
