data_PCOD9167166
_publ_section_title
;
Structure prediction by ZEFSAII (Michael W. Deem and Ramdas Pophale) SiO2 
 PCOD9167166
Probable space group: P 21/M
;
_chemical_formula_sum "Si O2"
_cell_formula_units_Z 32
_cell_length_a 22.265001
_cell_length_b 8.667335
_cell_length_c 17.327642
_cell_angle_alpha 90.000000
_cell_angle_beta 153.106716
_cell_angle_gamma 90.000000
_cell_volume 1512.527665
_symmetry_space_group_name_H-M "P 21/M"
_symmetry_group_IT_number 11
_symmetry_cell_setting 'monoclinic'
loop_
_space_group_symop_operation_xyz
x,y,z
-x,1/2+y,-z
-x,-y,-z
x,1/2-y,z
loop_
_atom_site_type_symbol
_atom_site_label
_atom_site_fract_x
_atom_site_fract_y
_atom_site_fract_z
Si Si1 0.492642 0.063452 0.678794
Si Si2 0.326789 0.562174 0.982764
Si Si3 0.798806 0.936136 0.654497
Si Si4 0.354462 0.566569 0.842812
Si Si5 0.364064 0.566170 0.309359
Si Si6 0.898172 0.071054 0.156682
Si Si7 0.199796 0.425338 0.525137
Si Si8 0.917411 0.930483 0.010860
O O1 0.482071 0.250000 0.668685
O O2 0.540379 0.012550 0.818504
O O3 0.346910 0.008772 0.484956
O O4 0.608510 0.029155 0.750045
O O5 0.329309 0.750000 0.984477
O O6 0.308386 0.508384 0.874464
O O7 0.206269 0.517783 0.900005
O O8 0.808060 0.750000 0.672354
O O9 0.789961 0.974204 0.552596
O O10 0.937893 0.001066 0.846251
O O11 0.359135 0.750000 0.851766
O O12 0.270446 0.519129 0.672420
O O13 0.500000 0.500000 0.000000
O O14 0.500000 0.500000 0.500000
O O15 0.361086 0.750000 0.315292
O O16 0.224425 0.498672 0.179339
O O17 0.867761 0.250000 0.097483
O O18 0.042901 0.075235 0.360342
O O19 0.908321 0.969093 0.091896
O O20 0.252450 0.250000 0.588355
O O21 0.918402 0.750000 0.996062
#
# Coordination Sequence:
#
# PCOD9167166 Si02
#       8
#     4   4   4   4   4   4   4   4
#     4   9  17  33  61  87 107 138 190 238 275 327
#     4   9  17  32  55  79 101 138 188 231 273 328
#     4   9  18  35  60  85 109 150 196 233 273 327
#     4  11  22  34  50  71 103 143 184 231 282 334
#     4  11  22  39  63  89 117 149 184 227 278 336
#     4   9  17  34  58  78 101 142 189 231 275 327
#     4   9  18  32  52  77 108 141 181 227 278 333
#     4  11  21  35  56  86 120 151 184 226 278 335
#
# _framework density 21.156638000000001
#
# number of rings (size 3 to 8) (size 9 to 14) (size 15 to 20)
#    0.000    2.250    1.250    3.375    0.000    4.500 
#    0.000    3.125    0.000    0.000    0.000    0.000 
#    0.000    0.000    0.000    0.000    0.000    0.000 
#
# Total GULP energy -178525.785318 kJ/mol
# GULP energy per Si atom -5578.930791 kJ/mol
# Density = 2.110848 g / cm^3
# Si number density = 21.156638 Si / 1000 Ang^3
#
#
#
# Elastic Constant Matrix: (Units=GPa)
#
#
# Indices 1 2 3 4 5 6 
#
# 1 55.4099 7.7780 28.1394 0.0000 9.5661 0.0000
# 2 7.7780 35.0981 33.3335 0.0000 2.3999 0.0000
# 3 28.1394 33.3335 132.1594 0.0000 13.4645 0.0000
# 4 0.0000 0.0000 0.0000 36.7237 0.0000 -2.4100
# 5 9.5661 2.3999 13.4645 0.0000 45.5305 0.0000
# 6 0.0000 0.0000 0.0000 -2.4100 0.0000 8.7637
#
#
#
# Elastic Compliance Matrix: (Units=1/GPa)
#
#
# Indices 1 2 3 4 5 6 
#
# 1 0.020671 -0.000645 -0.003918 0.000000 -0.003151 0.000000
# 2 -0.000645 0.037518 -0.009422 0.000000 0.000944 0.000000
# 3 -0.003918 -0.009422 0.010973 0.000000 -0.001925 0.000000
# 4 0.000000 0.000000 0.000000 0.027731 0.000000 0.007626
# 5 -0.003151 0.000944 -0.001925 0.000000 0.023145 0.000000
# 6 0.000000 0.000000 0.000000 0.007626 0.000000 0.116205
#
#
# Mechanical properties :
#
#
# Convention : Reuss Voigt Hill
#
# Bulk Modulus (GPa) = 24.27534 40.12991 32.20262
# Shear Modulus (GPa) = 17.98932 28.43134 23.21033
#
# Velocity S-wave (km/s) = 2.91914 3.66983 3.31580
# Velocity P-wave (km/s) = 4.78130 6.07997 5.46932
#
# Compressibility (1/GPa) = 0.04119407
#
# Stress axis : x y z
#
# Youngs Moduli (GPa) = 48.37623 26.65396 91.13022
#
# Poissons Ratio (x) = 0.01718 0.35702
# Poissons Ratio (y) = 0.03119 0.85860
# Poissons Ratio (z) = 0.18953 0.25113
#
# Static dielectric constant tensor:
#      x y z
#    x 1.814660 0.000000 -0.014680 
#    y 0.000000 1.729560 0.000000 
#    z -0.014680 0.000000 1.788610 
# 
# From -- ./inp_files/67146.got.cif
#   From: 2010.05.17/outbox.cif.g08.bks.cpg/sg11_34_cif.got.tgz:67146.got - 2010.06.03 12:22:45.
