data_PCOD9167963
_publ_section_title
;
Structure prediction by ZEFSAII (Michael W. Deem and Ramdas Pophale) SiO2 
 PCOD9167963
Probable space group: P 21/M
;
_chemical_formula_sum "Si O2"
_cell_formula_units_Z 28
_cell_length_a 27.000000
_cell_length_b 9.000000
_cell_length_c 9.000000
_cell_angle_alpha 90.000000
_cell_angle_beta 140.000000
_cell_angle_gamma 90.000000
_cell_volume 1405.776502
_symmetry_space_group_name_H-M "P 21/M"
_symmetry_group_IT_number 11
_symmetry_cell_setting 'monoclinic'
loop_
_space_group_symop_operation_xyz
x,y,z
-x,1/2+y,-z
-x,-y,-z
x,1/2-y,z
loop_
_atom_site_type_symbol
_atom_site_label
_atom_site_fract_x
_atom_site_fract_y
_atom_site_fract_z
Si Si1 0.753750 0.075841 0.261505
Si Si2 0.385905 0.928960 0.847842
Si Si3 0.555256 0.926461 0.321246
Si Si4 0.171965 0.073924 0.037079
Si Si5 0.316841 0.578510 0.230911
Si Si6 0.033627 0.427734 0.926009
Si Si7 0.101781 0.424655 0.546170
O O1 0.774118 0.250000 0.335538
O O2 0.830173 0.979063 0.408830
O O3 0.692294 0.026337 0.245756
O O4 0.712169 0.069721 0.005107
O O5 0.382271 0.750000 0.823296
O O6 0.464632 0.964527 0.119214
O O7 0.404550 0.001792 0.732086
O O8 0.561253 0.750000 0.323336
O O9 0.605259 0.987245 0.570860
O O10 0.188438 0.250000 0.091249
O O11 0.117345 0.027478 0.049863
O O12 0.127398 0.055898 0.776503
O O13 0.250833 0.986044 0.188702
O O14 0.330215 0.750000 0.298785
O O15 0.034755 0.250000 0.946019
O O16 0.972318 0.477670 0.660828
O O17 0.000000 0.500000 0.000000
O O18 0.086670 0.250000 0.487001
#
# Coordination Sequence:
#
# PCOD9167963 Si02
#       7
#     4   4   4   4   4   4   4
#     4   9  19  36  56  79 106 137 176 218 260 309
#     4   9  19  36  55  75 103 140 179 218 261 310
#     4  10  20  34  53  77 106 140 177 217 262 312
#     4   9  20  38  58  79 105 138 176 216 259 310
#     4  10  20  34  55  81 107 137 174 216 262 312
#     4  11  23  38  56  80 109 140 175 216 260 307
#     4  10  20  36  58  82 107 137 173 214 263 315
#
# _framework density 19.917818
#
# number of rings (size 3 to 8) (size 9 to 14) (size 15 to 20)
#    0.000    2.286    0.000    2.143    0.000    5.143 
#    0.000    0.000    0.000    0.000    0.000    0.000 
#    0.000    0.000    0.000    0.000    0.000    0.000 
#
# Total GULP energy -156302.733008 kJ/mol
# GULP energy per Si atom -5582.240465 kJ/mol
# Density = 1.987248 g / cm^3
# Si number density = 19.917818 Si / 1000 Ang^3
#
#
#
# Elastic Constant Matrix: (Units=GPa)
#
#
# Indices 1 2 3 4 5 6 
#
# 1 78.8710 7.9249 -27.6496 0.0000 7.5207 0.0000
# 2 7.9249 28.4186 -0.3381 0.0000 1.6046 0.0000
# 3 -27.6496 -0.3381 21.9430 0.0000 9.1552 0.0000
# 4 0.0000 0.0000 0.0000 31.8646 0.0000 0.2638
# 5 7.5207 1.6046 9.1552 0.0000 18.2728 0.0000
# 6 0.0000 0.0000 0.0000 0.2638 0.0000 30.5073
#
#
#
# Elastic Compliance Matrix: (Units=1/GPa)
#
#
# Indices 1 2 3 4 5 6 
#
# 1 0.055723 -0.010269 0.100193 0.000000 -0.072232 0.000000
# 2 -0.010269 0.037350 -0.016130 0.000000 0.009028 0.000000
# 3 0.100193 -0.016130 0.237924 0.000000 -0.159028 0.000000
# 4 0.000000 0.000000 0.000000 0.031385 0.000000 -0.000271
# 5 -0.072232 0.009028 -0.159028 0.000000 0.163340 0.000000
# 6 0.000000 0.000000 0.000000 -0.000271 0.000000 0.032781
#
#
# Mechanical properties :
#
#
# Convention : Reuss Voigt Hill
#
# Bulk Modulus (GPa) = 2.08949 9.90079 5.99514
# Shear Modulus (GPa) = 8.76510 26.08195 17.42353
#
# Velocity S-wave (km/s) = 2.10004 3.62260 2.96086
# Velocity P-wave (km/s) = 2.63279 4.74123 3.83476
#
# Compressibility (1/GPa) = 0.47858471
#
# Stress axis : x y z
#
# Youngs Moduli (GPa) = 17.94603 26.77372 4.20302
#
# Poissons Ratio (x) = 0.27493 -0.42111
# Poissons Ratio (y) = 0.18428 0.06780
# Poissons Ratio (z) = -1.79807 0.43187
#
# Static dielectric constant tensor:
#      x y z
#    x 1.675710 0.000000 -0.007760 
#    y 0.000000 1.667550 0.000000 
#    z -0.007760 0.000000 1.750990 
# 
# From -- ./inp_files/28405.got.cif
#   From: 2010.05.17/outbox.ucp.g08.bks.cvg/sg11_15_cif.got.tgz:28405.got - 2010.06.11 11:38:39.
