data_PCOD9167836
_publ_section_title
;
Structure prediction by ZEFSAII (Michael W. Deem and Ramdas Pophale) SiO2 
 PCOD9167836
Probable space group: P 21/M
;
_chemical_formula_sum "Si O2"
_cell_formula_units_Z 28
_cell_length_a 15.000000
_cell_length_b 9.000000
_cell_length_c 18.000000
_cell_angle_alpha 90.000000
_cell_angle_beta 140.000000
_cell_angle_gamma 90.000000
_cell_volume 1561.973892
_symmetry_space_group_name_H-M "P 21/M"
_symmetry_group_IT_number 11
_symmetry_cell_setting 'monoclinic'
loop_
_space_group_symop_operation_xyz
x,y,z
-x,1/2+y,-z
-x,-y,-z
x,1/2-y,z
loop_
_atom_site_type_symbol
_atom_site_label
_atom_site_fract_x
_atom_site_fract_y
_atom_site_fract_z
Si Si1 0.325560 0.571305 0.179494
Si Si2 0.137898 0.929182 0.623954
Si Si3 0.755957 0.928850 0.720009
Si Si4 0.943892 0.429214 0.264747
Si Si5 0.920032 0.429315 0.084140
Si Si6 0.757269 0.074557 0.566769
Si Si7 0.602273 0.426037 0.312609
O O1 0.324629 0.750000 0.185476
O O2 0.319500 0.498167 0.257149
O O3 0.460730 0.517693 0.221042
O O4 0.189442 0.519444 0.046807
O O5 0.127001 0.750000 0.610154
O O6 0.137123 0.966953 0.711368
O O7 0.276511 0.973216 0.667461
O O8 0.000000 0.000000 0.500000
O O9 0.745113 0.750000 0.713765
O O10 0.920218 0.972286 0.828806
O O11 0.707179 0.992436 0.609422
O O12 0.962781 0.250000 0.276321
O O13 0.881566 0.471737 0.144482
O O14 0.094359 0.505428 0.361132
O O15 0.917929 0.250000 0.080340
O O16 0.771990 0.250000 0.591424
O O17 0.660997 0.056279 0.433648
O O18 0.575613 0.250000 0.283649
#
# Coordination Sequence:
#
# PCOD9167836 Si02
#       7
#     4   4   4   4   4   4   4
#     4  11  22  36  54  76 105 142 182 221 260 309
#     4  10  19  33  56  82 108 139 175 216 262 314
#     4  10  20  36  58  80 105 136 175 220 269 320
#     4   9  17  32  56  82 107 136 172 218 269 312
#     4   8  17  34  55  80 106 135 175 219 262 310
#     4  10  19  33  53  79 110 138 173 219 262 312
#     4  10  22  37  51  75 112 146 175 213 263 317
#
# _framework density 17.926036
#
# number of rings (size 3 to 8) (size 9 to 14) (size 15 to 20)
#    0.000    2.286    1.429    2.571    0.000    2.286 
#    0.000    7.143    0.000    0.000    0.000    0.000 
#    0.000    0.000    0.000    0.000    0.000    0.000 
#
# Total GULP energy -156194.560706 kJ/mol
# GULP energy per Si atom -5578.377168 kJ/mol
# Density = 1.788524 g / cm^3
# Si number density = 17.926036 Si / 1000 Ang^3
#
#
#
# Elastic Constant Matrix: (Units=GPa)
#
#
# Indices 1 2 3 4 5 6 
#
# 1 119.8118 21.4453 12.5345 0.0000 -8.1787 0.0000
# 2 21.4453 39.1343 10.8800 0.0000 -2.2610 0.0000
# 3 12.5345 10.8800 15.4772 0.0000 -6.3391 0.0000
# 4 0.0000 0.0000 0.0000 20.0116 0.0000 2.2808
# 5 -8.1787 -2.2610 -6.3391 0.0000 22.1088 0.0000
# 6 0.0000 0.0000 0.0000 2.2808 0.0000 30.6838
#
#
#
# Elastic Compliance Matrix: (Units=1/GPa)
#
#
# Indices 1 2 3 4 5 6 
#
# 1 0.009634 -0.004002 -0.004189 0.000000 0.001954 0.000000
# 2 -0.004002 0.033674 -0.022238 0.000000 -0.004413 0.000000
# 3 -0.004189 -0.022238 0.092991 0.000000 0.022839 0.000000
# 4 0.000000 0.000000 0.000000 0.050398 0.000000 -0.003746
# 5 0.001954 -0.004413 0.022839 0.000000 0.052051 0.000000
# 6 0.000000 0.000000 0.000000 -0.003746 0.000000 0.032869
#
#
# Mechanical properties :
#
#
# Convention : Reuss Voigt Hill
#
# Bulk Modulus (GPa) = 13.25541 29.34920 21.30231
# Shear Modulus (GPa) = 13.98127 23.19841 18.58984
#
# Velocity S-wave (km/s) = 2.79577 3.60129 3.22379
# Velocity P-wave (km/s) = 4.22284 5.80520 5.07605
#
# Compressibility (1/GPa) = 0.07544090
#
# Stress axis : x y z
#
# Youngs Moduli (GPa) = 103.79503 29.69681 10.75375
#
# Poissons Ratio (x) = 0.11885 0.04505
# Poissons Ratio (y) = 0.41539 0.23914
# Poissons Ratio (z) = 0.43480 0.66039
#
# Static dielectric constant tensor:
#      x y z
#    x 1.613820 0.000000 -0.009550 
#    y 0.000000 1.599420 0.000000 
#    z -0.009550 0.000000 1.624580 
# 
# From -- ./inp_files/37193.got.cif
#   From: 2010.05.17/outbox.ucp.g08.bks.cvg/sg11_19_cif.got.tgz:37193.got - 2010.06.11 11:38:39.
