data_PCOD9167931
_publ_section_title
;
Structure prediction by ZEFSAII (Michael W. Deem and Ramdas Pophale) SiO2 
 PCOD9167931
Probable space group: P 21/M
;
_chemical_formula_sum "Si O2"
_cell_formula_units_Z 28
_cell_length_a 30.000000
_cell_length_b 9.000000
_cell_length_c 9.000000
_cell_angle_alpha 90.000000
_cell_angle_beta 40.000000
_cell_angle_gamma 90.000000
_cell_volume 1561.973892
_symmetry_space_group_name_H-M "P 21/M"
_symmetry_group_IT_number 11
_symmetry_cell_setting 'monoclinic'
loop_
_space_group_symop_operation_xyz
x,y,z
-x,1/2+y,-z
-x,-y,-z
x,1/2-y,z
loop_
_atom_site_type_symbol
_atom_site_label
_atom_site_fract_x
_atom_site_fract_y
_atom_site_fract_z
Si Si1 0.432594 0.074997 0.599435
Si Si2 0.000973 0.070529 0.835532
Si Si3 0.289257 0.922799 0.958710
Si Si4 0.861316 0.070063 0.020137
Si Si5 0.865625 0.430106 0.660557
Si Si6 0.566874 0.575475 0.758345
Si Si7 0.709069 0.423103 0.407456
O O1 0.434021 0.250000 0.626864
O O2 0.436200 0.052864 0.411954
O O3 0.500000 0.000000 0.500000
O O4 0.357507 0.009133 0.837836
O O5 0.002447 0.250000 0.836329
O O6 0.929735 0.023669 0.933870
O O7 0.069851 0.008865 0.580772
O O8 0.000000 0.000000 0.000000
O O9 0.296632 0.750000 0.981690
O O10 0.288260 0.928799 0.780268
O O11 0.211439 0.973072 0.201452
O O12 0.858238 0.250000 0.035534
O O13 0.868898 0.032304 0.827217
O O14 0.784498 0.019027 0.267679
O O15 0.870801 0.250000 0.633119
O O16 0.565352 0.750000 0.791935
O O17 0.639815 0.509013 0.628831
O O18 0.500000 0.500000 0.000000
O O19 0.702026 0.250000 0.467419
#
# Coordination Sequence:
#
# PCOD9167931 Si02
#       7
#     4   4   4   4   4   4   4
#     4  10  20  33  51  75 103 133 168 206 247 295
#     4  11  22  35  50  72 104 139 169 201 245 297
#     4   8  15  29  51  75  99 127 161 203 252 298
#     4   8  16  32  55  78  98 125 165 207 249 296
#     4   9  17  33  56  79  99 124 163 209 252 298
#     4  10  20  33  50  75 103 132 165 203 247 295
#     4   8  14  29  52  74  96 126 163 205 249 293
#
# _framework density 17.926036
#
# number of rings (size 3 to 8) (size 9 to 14) (size 15 to 20)
#    0.000    2.857    0.000    3.429    0.000    2.286 
#    0.000    5.714    0.000    3.429    0.000    0.000 
#    0.000    0.000    0.000    0.000    0.000    0.000 
#
# Total GULP energy -156018.173294 kJ/mol
# GULP energy per Si atom -5572.077618 kJ/mol
# Density = 1.788524 g / cm^3
# Si number density = 17.926036 Si / 1000 Ang^3
#
#
#
# Elastic Constant Matrix: (Units=GPa)
#
#
# Indices 1 2 3 4 5 6 
#
# 1 123.4126 61.6394 75.4241 0.0000 -53.0882 0.0000
# 2 61.6394 65.2014 65.0304 0.0000 -26.4070 0.0000
# 3 75.4241 65.0304 141.6018 0.0000 -54.1906 0.0000
# 4 0.0000 0.0000 0.0000 33.9389 0.0000 -9.4139
# 5 -53.0882 -26.4070 -54.1906 0.0000 38.3248 0.0000
# 6 0.0000 0.0000 0.0000 -9.4139 0.0000 26.6632
#
#
#
# Elastic Compliance Matrix: (Units=1/GPa)
#
#
# Indices 1 2 3 4 5 6 
#
# 1 0.031008 -0.021938 0.009178 0.000000 0.040814 0.000000
# 2 -0.021938 0.043926 -0.018599 0.000000 -0.026421 0.000000
# 3 0.009178 -0.018599 0.023266 0.000000 0.032796 0.000000
# 4 0.000000 0.000000 0.000000 0.032664 0.000000 0.011532
# 5 0.040814 -0.026421 0.032796 0.000000 0.110798 0.000000
# 6 0.000000 0.000000 0.000000 0.011532 0.000000 0.041577
#
#
# Mechanical properties :
#
#
# Convention : Reuss Voigt Hill
#
# Bulk Modulus (GPa) = 28.18308 81.60039 54.89174
# Shear Modulus (GPa) = 13.97499 28.32682 21.15091
#
# Velocity S-wave (km/s) = 2.79515 3.97949 3.43869
# Velocity P-wave (km/s) = 5.11597 8.16912 6.81571
#
# Compressibility (1/GPa) = 0.03548228
#
# Stress axis : x y z
#
# Youngs Moduli (GPa) = 32.25009 22.76552 42.98168
#
# Poissons Ratio (x) = 0.49943 -0.39450
# Poissons Ratio (y) = 0.70750 0.79942
# Poissons Ratio (z) = -0.29600 0.42342
#
# Static dielectric constant tensor:
#      x y z
#    x 1.621930 0.000000 -0.007860 
#    y 0.000000 1.603540 0.000000 
#    z -0.007860 0.000000 1.626160 
# 
# From -- ./inp_files/28988.got.cif
#   From: 2010.05.17/outbox.ucp.g08.bks.cvg/sg11_15_cif.got.tgz:28988.got - 2010.06.11 11:38:39.
