data_PCOD9167159
_publ_section_title
;
Structure prediction by ZEFSAII (Michael W. Deem and Ramdas Pophale) SiO2 
 PCOD9167159
Probable space group: P 21/M
;
_chemical_formula_sum "Si O2"
_cell_formula_units_Z 32
_cell_length_a 26.725251
_cell_length_b 9.269852
_cell_length_c 21.638014
_cell_angle_alpha 90.000000
_cell_angle_beta 158.685575
_cell_angle_gamma 90.000000
_cell_volume 1948.495567
_symmetry_space_group_name_H-M "P 21/M"
_symmetry_group_IT_number 11
_symmetry_cell_setting 'monoclinic'
loop_
_space_group_symop_operation_xyz
x,y,z
-x,1/2+y,-z
-x,-y,-z
x,1/2-y,z
loop_
_atom_site_type_symbol
_atom_site_label
_atom_site_fract_x
_atom_site_fract_y
_atom_site_fract_z
Si Si1 0.893843 0.083805 0.462733
Si Si2 0.206618 0.416205 0.767701
Si Si3 0.403900 0.576392 0.440259
Si Si4 0.887801 0.923491 0.913422
Si Si5 0.098173 0.080330 0.925864
Si Si6 0.401928 0.080419 0.222047
Si Si7 0.993999 0.916077 0.692340
Si Si8 0.693454 0.416089 0.002874
O O1 0.852542 0.250000 0.421251
O O2 0.050334 0.082523 0.615461
O O3 0.802876 0.000146 0.307790
O O4 0.903090 0.004496 0.539017
O O5 0.245950 0.250000 0.804684
O O6 0.299340 0.495234 0.925411
O O7 0.500000 0.500000 0.500000
O O8 0.396126 0.750000 0.420830
O O9 0.257213 0.499795 0.267180
O O10 0.474944 0.553794 0.588705
O O11 0.880588 0.750000 0.895469
O O12 0.922324 0.947284 0.025518
O O13 0.000000 0.000000 0.000000
O O14 0.074676 0.250000 0.886638
O O15 0.258547 0.051358 0.093541
O O16 0.006029 0.988141 0.773221
O O17 0.400470 0.250000 0.204089
O O18 0.399165 0.987844 0.156678
O O19 0.951365 0.750000 0.646401
O O20 0.150315 0.919809 0.844842
O O21 0.657552 0.250000 0.972375
#
# Coordination Sequence:
#
# PCOD9167159 Si02
#       8
#     4   4   4   4   4   4   4   4
#     4   9  15  22  32  47  70 104 144 185 227 273
#     4   9  15  22  32  46  70 106 144 184 227 274
#     4  11  21  35  55  78 102 131 166 209 254 302
#     4  11  23  39  55  76 102 133 168 208 256 309
#     4   9  17  31  47  64  90 121 155 195 242 292
#     4   9  17  30  46  66  91 120 155 196 242 289
#     4   9  16  24  36  56  79 106 146 190 232 278
#     4   9  16  24  35  55  80 109 146 188 232 279
#
# _framework density 16.422927000000001
#
# number of rings (size 3 to 8) (size 9 to 14) (size 15 to 20)
#    0.000    2.500    1.250    2.250    0.000    8.000 
#    0.000    0.000    0.000    0.000    0.000    0.000 
#    0.000    0.000    0.000    1.125    0.000   15.250 
#
# Total GULP energy -178365.403929 kJ/mol
# GULP energy per Si atom -5573.918873 kJ/mol
# Density = 1.638555 g / cm^3
# Si number density = 16.422927 Si / 1000 Ang^3
#
#
#
# Elastic Constant Matrix: (Units=GPa)
#
#
# Indices 1 2 3 4 5 6 
#
# 1 77.2753 81.3648 65.2797 0.0000 -30.1548 0.0000
# 2 81.3648 155.4033 79.4260 0.0000 -42.0107 0.0000
# 3 65.2797 79.4260 77.7059 0.0000 -29.9297 0.0000
# 4 0.0000 0.0000 0.0000 26.1920 0.0000 -12.5630
# 5 -30.1548 -42.0107 -29.9297 0.0000 35.3120 0.0000
# 6 0.0000 0.0000 0.0000 -12.5630 0.0000 25.5808
#
#
#
# Elastic Compliance Matrix: (Units=1/GPa)
#
#
# Indices 1 2 3 4 5 6 
#
# 1 0.052080 -0.009269 -0.031764 0.000000 0.006523 0.000000
# 2 -0.009269 0.016198 -0.006526 0.000000 0.005823 0.000000
# 3 -0.031764 -0.006526 0.048678 0.000000 0.006368 0.000000
# 4 0.000000 0.000000 0.000000 0.049945 0.000000 0.024528
# 5 0.006523 0.005823 0.006368 0.000000 0.046215 0.000000
# 6 0.000000 0.000000 0.000000 0.024528 0.000000 0.051138
#
#
# Mechanical properties :
#
#
# Convention : Reuss Voigt Hill
#
# Bulk Modulus (GPa) = 45.79853 84.72506 65.26179
# Shear Modulus (GPa) = 13.63693 23.03791 18.33742
#
# Velocity S-wave (km/s) = 2.88472 3.74945 3.34514
# Velocity P-wave (km/s) = 6.24844 8.39321 7.39895
#
# Compressibility (1/GPa) = 0.02183476
#
# Stress axis : x y z
#
# Youngs Moduli (GPa) = 19.20136 61.73616 20.54328
#
# Poissons Ratio (x) = 0.57226 0.65255
# Poissons Ratio (y) = 0.17799 0.13407
# Poissons Ratio (z) = 0.60992 0.40292
#
# Static dielectric constant tensor:
#      x y z
#    x 1.534510 0.000000 -0.012090 
#    y 0.000000 1.548300 0.000000 
#    z -0.012090 0.000000 1.536840 
# 
# From -- ./inp_files/67306.got.cif
#   From: 2010.05.17/outbox.cif.g08.bks.cpg/sg11_34_cif.got.tgz:67306.got - 2010.06.03 12:22:45.
