data_PCOD9167754
_publ_section_title
;
Structure prediction by ZEFSAII (Michael W. Deem and Ramdas Pophale) SiO2 
 PCOD9167754
Probable space group: P 21/M
;
_chemical_formula_sum "Si O2"
_cell_formula_units_Z 32
_cell_length_a 21.000000
_cell_length_b 9.000000
_cell_length_c 30.000000
_cell_angle_alpha 90.000000
_cell_angle_beta 160.000000
_cell_angle_gamma 90.000000
_cell_volume 1939.254213
_symmetry_space_group_name_H-M "P 21/M"
_symmetry_group_IT_number 11
_symmetry_cell_setting 'monoclinic'
loop_
_space_group_symop_operation_xyz
x,y,z
-x,1/2+y,-z
-x,-y,-z
x,1/2-y,z
loop_
_atom_site_type_symbol
_atom_site_label
_atom_site_fract_x
_atom_site_fract_y
_atom_site_fract_z
Si Si1 0.048237 0.427549 0.220483
Si Si2 0.523278 0.072452 0.082764
Si Si3 0.558657 0.930715 0.687087
Si Si4 0.798606 0.072715 0.188483
Si Si5 0.890704 0.928649 0.840057
Si Si6 0.161543 0.571176 0.386552
Si Si7 0.648210 0.928114 0.939881
Si Si8 0.708522 0.929057 0.880628
O O1 0.046206 0.250000 0.225566
O O2 0.139400 0.460836 0.232234
O O3 0.143226 0.506443 0.324722
O O4 0.837299 0.488467 0.078159
O O5 0.490121 0.250000 0.055179
O O6 0.713555 0.039292 0.181534
O O7 0.505893 0.039451 0.123849
O O8 0.359106 0.985084 0.949529
O O9 0.559792 0.750000 0.687821
O O10 0.722113 0.977639 0.760755
O O11 0.356767 0.975760 0.536767
O O12 0.604578 0.979610 0.767583
O O13 0.820606 0.250000 0.198369
O O14 0.988867 0.991667 0.301299
O O15 0.910819 0.750000 0.857266
O O16 0.084418 0.003729 0.981477
O O17 0.151571 0.750000 0.378356
O O18 0.682993 0.750000 0.964267
O O19 0.611586 0.967336 0.864169
O O20 0.723339 0.750000 0.888555
#
# Coordination Sequence:
#
# PCOD9167754 Si02
#       8
#     4   4   4   4   4   4   4   4
#     4  10  19  30  46  70  97 124 154 194 243 286
#     4   9  17  29  47  72  99 125 153 187 235 287
#     4   9  19  34  50  68  93 129 165 196 233 282
#     4  10  19  30  46  70  98 126 156 193 235 280
#     4   9  18  33  51  71  96 122 153 199 249 285
#     4  11  21  33  48  65  94 133 166 194 231 282
#     4   9  16  28  49  74  97 121 151 191 235 283
#     4   9  17  31  52  75  95 119 158 200 236 278
#
# _framework density 16.501189
#
# number of rings (size 3 to 8) (size 9 to 14) (size 15 to 20)
#    0.000    2.500    1.250    1.500    0.000    1.500 
#    0.000    2.500    0.000    0.750    0.000    0.000 
#    0.000    0.000    0.000    0.000    0.000    0.500 
#
# Total GULP energy -178350.023986 kJ/mol
# GULP energy per Si atom -5573.438250 kJ/mol
# Density = 1.646363 g / cm^3
# Si number density = 16.501189 Si / 1000 Ang^3
#
#
#
# Elastic Constant Matrix: (Units=GPa)
#
#
# Indices 1 2 3 4 5 6 
#
# 1 168.8390 37.4842 77.0539 0.0000 -16.8256 0.0000
# 2 37.4842 30.6030 25.4373 0.0000 -6.2283 0.0000
# 3 77.0539 25.4373 85.9580 0.0000 -20.8486 0.0000
# 4 0.0000 0.0000 0.0000 14.7519 0.0000 1.7312
# 5 -16.8256 -6.2283 -20.8486 0.0000 12.9858 0.0000
# 6 0.0000 0.0000 0.0000 1.7312 0.0000 17.9297
#
#
#
# Elastic Compliance Matrix: (Units=1/GPa)
#
#
# Indices 1 2 3 4 5 6 
#
# 1 0.011115 -0.007079 -0.008515 0.000000 -0.002664 0.000000
# 2 -0.007079 0.047845 -0.007324 0.000000 0.002017 0.000000
# 3 -0.008515 -0.007324 0.029325 0.000000 0.032536 0.000000
# 4 0.000000 0.000000 0.000000 0.068565 0.000000 -0.006620
# 5 -0.002664 0.002017 0.032536 0.000000 0.126758 0.000000
# 6 0.000000 0.000000 0.000000 -0.006620 0.000000 0.056413
#
#
# Mechanical properties :
#
#
# Convention : Reuss Voigt Hill
#
# Bulk Modulus (GPa) = 23.55711 62.81677 43.18694
# Shear Modulus (GPa) = 12.49980 18.82845 15.66413
#
# Velocity S-wave (km/s) = 2.75527 3.38159 3.08437
# Velocity P-wave (km/s) = 4.94258 7.30736 6.23805
#
# Compressibility (1/GPa) = 0.04245003
#
# Stress axis : x y z
#
# Youngs Moduli (GPa) = 89.96969 20.90075 34.10028
#
# Poissons Ratio (x) = 0.14795 0.29036
# Poissons Ratio (y) = 0.63687 0.24975
# Poissons Ratio (z) = 0.76609 0.15308
#
# Static dielectric constant tensor:
#      x y z
#    x 1.595370 0.000000 -0.001900 
#    y 0.000000 1.547520 0.000000 
#    z -0.001900 0.000000 1.513440 
# 
# From -- ./inp_files/40649.got.cif
#   From: 2010.05.17/outbox.ucp.g08.bks.cvg/sg11_21_cif.got.tgz:40649.got - 2010.06.11 11:38:39.
