data_PCOD9167710
_publ_section_title
;
Structure prediction by ZEFSAII (Michael W. Deem and Ramdas Pophale) SiO2 
 PCOD9167710
Probable space group: P 21/M
;
_chemical_formula_sum "Si O2"
_cell_formula_units_Z 32
_cell_length_a 12.000000
_cell_length_b 9.000000
_cell_length_c 30.000000
_cell_angle_alpha 90.000000
_cell_angle_beta 150.000000
_cell_angle_gamma 90.000000
_cell_volume 1620.000000
_symmetry_space_group_name_H-M "P 21/M"
_symmetry_group_IT_number 11
_symmetry_cell_setting 'monoclinic'
loop_
_space_group_symop_operation_xyz
x,y,z
-x,1/2+y,-z
-x,-y,-z
x,1/2-y,z
loop_
_atom_site_type_symbol
_atom_site_label
_atom_site_fract_x
_atom_site_fract_y
_atom_site_fract_z
Si Si1 0.688098 0.072294 0.679097
Si Si2 0.225829 0.926709 0.637366
Si Si3 0.668826 0.086388 0.088491
Si Si4 0.240504 0.573512 0.537069
Si Si5 0.852432 0.429331 0.987739
Si Si6 0.928482 0.917094 0.841347
Si Si7 0.915996 0.927921 0.249451
Si Si8 0.388204 0.428900 0.779734
O O1 0.671720 0.250000 0.673474
O O2 0.859577 0.026936 0.698882
O O3 0.456359 0.993884 0.589089
O O4 0.765612 0.020896 0.755808
O O5 0.222829 0.750000 0.642027
O O6 0.270593 0.958023 0.600579
O O7 0.386783 0.996876 0.730509
O O8 0.981071 0.997061 0.558040
O O9 0.590753 0.250000 0.074401
O O10 0.878481 0.100070 0.128428
O O11 0.728974 0.990475 0.151773
O O12 0.500000 0.000000 0.000000
O O13 0.223993 0.750000 0.526006
O O14 0.863641 0.250000 0.991151
O O15 0.599701 0.467600 0.884605
O O16 0.956020 0.471250 0.072406
O O17 0.000000 0.500000 0.000000
O O18 0.830869 0.750000 0.815348
O O19 0.912148 0.750000 0.247770
O O20 0.837190 0.973852 0.271402
O O21 0.389412 0.250000 0.774568
#
# Coordination Sequence:
#
# PCOD9167710 Si02
#       8
#     4   4   4   4   4   4   4   4
#     4  10  20  34  58  88 116 146 188 240 283 331
#     4  10  22  39  61  89 115 145 188 236 280 333
#     4  10  18  29  49  73 100 137 184 234 281 327
#     4  10  21  39  62  87 117 148 183 230 286 342
#     4  10  22  37  53  76 109 150 193 234 277 332
#     4   9  19  35  51  72 106 147 187 227 278 331
#     4   9  19  36  55  79 111 148 189 231 281 336
#     4  10  21  39  60  81 114 155 190 230 287 344
#
# _framework density 19.753086
#
# number of rings (size 3 to 8) (size 9 to 14) (size 15 to 20)
#    0.000    2.250    0.000    2.250    1.750    6.000 
#    0.000    1.875    0.000    0.000    0.000    0.000 
#    0.000    0.000    0.000    0.000    0.000    0.000 
#
# Total GULP energy -178263.922736 kJ/mol
# GULP energy per Si atom -5570.747585 kJ/mol
# Density = 1.970813 g / cm^3
# Si number density = 19.753086 Si / 1000 Ang^3
#
#
#
# Elastic Constant Matrix: (Units=GPa)
#
#
# Indices 1 2 3 4 5 6 
#
# 1 62.8126 18.6761 15.0940 0.0000 0.5640 0.0000
# 2 18.6761 -31.1950 13.5967 0.0000 18.7718 0.0000
# 3 15.0940 13.5967 40.8230 0.0000 16.4466 0.0000
# 4 0.0000 0.0000 0.0000 30.5460 0.0000 -2.5838
# 5 0.5640 18.7718 16.4466 0.0000 25.8937 0.0000
# 6 0.0000 0.0000 0.0000 -2.5838 0.0000 24.0996
#
#
#
# Elastic Compliance Matrix: (Units=1/GPa)
#
#
# Indices 1 2 3 4 5 6 
#
# 1 0.016016 0.006227 -0.008112 0.000000 0.000290 0.000000
# 2 0.006227 -0.019853 -0.001927 0.000000 0.015481 0.000000
# 3 -0.008112 -0.001927 0.036961 0.000000 -0.021903 0.000000
# 4 0.000000 0.000000 0.000000 0.033037 0.000000 0.003542
# 5 0.000290 0.015481 -0.021903 0.000000 0.041302 0.000000
# 6 0.000000 0.000000 0.000000 0.003542 0.000000 0.041874
#
#
# Mechanical properties :
#
#
# Convention : Reuss Voigt Hill
#
# Bulk Modulus (GPa) = 39.21611 18.57490 28.89551
# Shear Modulus (GPa) = 30.21835 17.77944 23.99890
#
# Velocity S-wave (km/s) = 3.91551 3.00339 3.48939
# Velocity P-wave (km/s) = 6.35121 4.63154 5.55828
#
# Compressibility (1/GPa) = 0.02549972
#
# Stress axis : x y z
#
# Youngs Moduli (GPa) = 62.43847 -50.37093 27.05531
#
# Poissons Ratio (x) = 0.31365 0.21948
# Poissons Ratio (y) = -0.38879 0.05213
# Poissons Ratio (z) = 0.50652 -0.09706
#
# Static dielectric constant tensor:
#      x y z
#    x 1.758710 0.000000 0.089810 
#    y 0.000000 1.683300 0.000000 
#    z 0.089810 0.000000 1.751690 
# 
# From -- ./inp_files/73038.got.cif
#   From: 2010.05.17/outbox.ucp.g08.bks.cvg/sg11_37_cif.got.tgz:73038.got - 2010.06.11 11:38:39.
