data_PCOD9167185
_publ_section_title
;
Structure prediction by ZEFSAII (Michael W. Deem and Ramdas Pophale) SiO2 
 PCOD9167185
Probable space group: P 21/M
;
_chemical_formula_sum "Si O2"
_cell_formula_units_Z 32
_cell_length_a 10.043857
_cell_length_b 17.831396
_cell_length_c 11.991142
_cell_angle_alpha 90.000000
_cell_angle_beta 125.396374
_cell_angle_gamma 90.000000
_cell_volume 1750.619031
_symmetry_space_group_name_H-M "P 21/M"
_symmetry_group_IT_number 11
_symmetry_cell_setting 'monoclinic'
loop_
_space_group_symop_operation_xyz
x,y,z
-x,1/2+y,-z
-x,-y,-z
x,1/2-y,z
loop_
_atom_site_type_symbol
_atom_site_label
_atom_site_fract_x
_atom_site_fract_y
_atom_site_fract_z
Si Si1 0.049157 0.659170 0.151863
Si Si2 0.651157 0.160691 0.868857
Si Si3 0.188774 0.339150 0.145773
Si Si4 0.035735 0.420173 0.457900
Si Si5 0.484329 0.595740 0.599230
Si Si6 0.418076 0.078926 0.599002
Si Si7 0.866970 0.338565 0.564178
Si Si8 0.105080 0.660400 0.818645
O O1 0.035754 0.750000 0.150452
O O2 0.206294 0.643728 0.151959
O O3 0.076943 0.629451 0.288833
O O4 0.891777 0.631703 0.007864
O O5 0.619472 0.250000 0.850446
O O6 0.496895 0.116134 0.746764
O O7 0.733517 0.144201 0.028709
O O8 0.212768 0.250000 0.147879
O O9 0.359165 0.375273 0.259131
O O10 0.050906 0.349571 0.174525
O O11 0.222725 0.417532 0.509483
O O12 0.000000 0.500000 0.500000
O O13 0.996977 0.360139 0.534660
O O14 0.923235 0.394419 0.299239
O O15 0.516144 0.615546 0.484124
O O16 0.471084 0.507175 0.612293
O O17 0.311347 0.629775 0.550719
O O18 0.852088 0.250000 0.567103
O O19 0.108706 0.750000 0.789768
#
# Coordination Sequence:
#
# PCOD9167185 Si02
#       8
#     4   4   4   4   4   4   4   4
#     4   8  16  33  56  87 117 143 185 242 298 343
#     4   9  18  36  63  89 114 145 196 257 295 339
#     4   9  17  33  60  89 115 143 191 252 295 342
#     4  12  24  42  57  83 125 161 194 240 294 363
#     4  11  21  37  57  88 121 150 196 250 291 346
#     4  11  23  38  58  86 121 155 198 243 297 350
#     4  11  22  38  61  86 118 159 194 236 298 354
#     4   9  19  38  62  88 115 152 198 243 296 352
#
# _framework density 18.279247999999999
#
# number of rings (size 3 to 8) (size 9 to 14) (size 15 to 20)
#    0.000    2.000    3.750    2.250    0.000    1.500 
#    2.250    3.125    0.000    3.000    0.000    0.000 
#    0.000    0.000    0.000    0.000    0.000    0.000 
#
# Total GULP energy -178420.772731 kJ/mol
# GULP energy per Si atom -5575.649148 kJ/mol
# Density = 1.823764 g / cm^3
# Si number density = 18.279248 Si / 1000 Ang^3
#
#
#
# Elastic Constant Matrix: (Units=GPa)
#
#
# Indices 1 2 3 4 5 6 
#
# 1 33.0560 6.2923 9.7531 0.0000 1.2230 0.0000
# 2 6.2923 36.3632 38.8701 0.0000 1.3561 0.0000
# 3 9.7531 38.8701 122.4662 0.0000 0.7564 0.0000
# 4 0.0000 0.0000 0.0000 46.9012 0.0000 2.7225
# 5 1.2230 1.3561 0.7564 0.0000 21.5551 0.0000
# 6 0.0000 0.0000 0.0000 2.7225 0.0000 26.4958
#
#
#
# Elastic Compliance Matrix: (Units=1/GPa)
#
#
# Indices 1 2 3 4 5 6 
#
# 1 0.031440 -0.004114 -0.001189 0.000000 -0.001483 0.000000
# 2 -0.004114 0.042260 -0.013073 0.000000 -0.001966 0.000000
# 3 -0.001189 -0.013073 0.012407 0.000000 0.000455 0.000000
# 4 0.000000 0.000000 0.000000 0.021449 0.000000 -0.002204
# 5 -0.001483 -0.001966 0.000455 0.000000 0.046585 0.000000
# 6 0.000000 0.000000 0.000000 -0.002204 0.000000 0.037968
#
#
# Mechanical properties :
#
#
# Convention : Reuss Voigt Hill
#
# Bulk Modulus (GPa) = 20.26161 33.52405 26.89283
# Shear Modulus (GPa) = 20.38198 28.12175 24.25186
#
# Velocity S-wave (km/s) = 3.34283 3.92657 3.64640
# Velocity P-wave (km/s) = 5.09980 6.23995 5.69846
#
# Compressibility (1/GPa) = 0.04935443
#
# Stress axis : x y z
#
# Youngs Moduli (GPa) = 31.80614 23.66284 80.60079
#
# Poissons Ratio (x) = 0.09736 0.09582
# Poissons Ratio (y) = 0.13086 1.05373
# Poissons Ratio (z) = 0.03781 0.30935
#
# Static dielectric constant tensor:
#      x y z
#    x 1.615840 0.000000 -0.020370 
#    y 0.000000 1.627610 0.000000 
#    z -0.020370 0.000000 1.652320 
# 
# From -- ./inp_files/32855.got.cif
#   From: 2010.05.17/outbox.cif.g08.bks.cpg/sg11_17_cif.got.tgz:32855.got - 2010.06.03 12:22:45.
