data_PCOD9167627
_publ_section_title
;
Structure prediction by ZEFSAII (Michael W. Deem and Ramdas Pophale) SiO2 
 PCOD9167627
Probable space group: P 21/M
;
_chemical_formula_sum "Si O2"
_cell_formula_units_Z 32
_cell_length_a 20.523891
_cell_length_b 7.253145
_cell_length_c 8.013953
_cell_angle_alpha 90.000000
_cell_angle_beta 108.456970
_cell_angle_gamma 90.000000
_cell_volume 1131.614308
_symmetry_space_group_name_H-M "P 21/M"
_symmetry_group_IT_number 11
_symmetry_cell_setting 'monoclinic'
loop_
_space_group_symop_operation_xyz
x,y,z
-x,1/2+y,-z
-x,-y,-z
x,1/2-y,z
loop_
_atom_site_type_symbol
_atom_site_label
_atom_site_fract_x
_atom_site_fract_y
_atom_site_fract_z
Si Si1 0.143893 0.473834 0.687864
Si Si2 0.604099 0.529535 0.139488
Si Si3 0.768772 0.976491 0.558082
Si Si4 0.109197 0.459906 0.136282
Si Si5 0.272742 0.027132 0.973972
Si Si6 0.985070 0.972847 0.244121
Si Si7 0.481375 0.031530 0.254062
Si Si8 0.362097 0.473397 0.376246
O O1 0.141185 0.250000 0.682151
O O2 0.187781 0.535145 0.565859
O O3 0.194422 0.530037 0.881181
O O4 0.065130 0.533825 0.646784
O O5 0.607366 0.750000 0.135954
O O6 0.679601 0.467809 0.144441
O O7 0.561516 0.495415 0.275114
O O8 0.557006 0.462301 0.945520
O O9 0.767273 0.750000 0.553526
O O10 0.817776 0.035560 0.750345
O O11 0.690522 0.036066 0.522387
O O12 0.122529 0.250000 0.095141
O O13 0.060658 0.457365 0.262541
O O14 0.061155 0.536974 0.952850
O O15 0.270783 0.250000 0.970630
O O16 0.315235 0.983391 0.173915
O O17 0.989917 0.750000 0.247828
O O18 0.471406 0.250000 0.248627
O O19 0.437339 0.958413 0.375784
O O20 0.367125 0.250000 0.398076
#
# Coordination Sequence:
#
# PCOD9167627 Si02
#       8
#     4   4   4   4   4   4   4   4
#     4   9  16  25  39  60  83 106 135 170 202 233
#     4   8  13  21  35  56  79 101 127 161 199 236
#     4   9  16  25  39  60  83 106 135 170 202 233
#     4   9  17  29  45  64  85 108 133 163 200 240
#     4   8  13  22  37  56  77 102 133 168 203 237
#     4   9  17  29  45  64  85 108 133 163 200 240
#     4   8  13  21  35  56  79 101 127 161 199 236
#     4   8  13  22  37  56  77 102 133 168 203 237
#
# _framework density 28.278186999999999
#
# number of rings (size 3 to 8) (size 9 to 14) (size 15 to 20)
#    0.000    3.500    0.000    2.250    0.000    3.500 
#    0.000    0.000    0.000    2.250    0.000    7.000 
#    0.000    0.000    0.000    0.000    0.000    0.000 
#
# Total GULP energy -178798.674327 kJ/mol
# GULP energy per Si atom -5587.458573 kJ/mol
# Density = 2.821382 g / cm^3
# Si number density = 28.278187 Si / 1000 Ang^3
#
#
#
# Elastic Constant Matrix: (Units=GPa)
#
#
# Indices 1 2 3 4 5 6 
#
# 1 263.0783 -7.4029 34.8573 0.0000 -16.8262 0.0000
# 2 -7.4029 131.9532 -6.8747 0.0000 -3.3659 0.0000
# 3 34.8573 -6.8747 81.8339 0.0000 -29.2460 0.0000
# 4 0.0000 0.0000 0.0000 -7.2180 0.0000 -6.0370
# 5 -16.8262 -3.3659 -29.2460 0.0000 67.1214 0.0000
# 6 0.0000 0.0000 0.0000 -6.0370 0.0000 5.4414
#
#
#
# Elastic Compliance Matrix: (Units=1/GPa)
#
#
# Indices 1 2 3 4 5 6 
#
# 1 0.004037 0.000152 -0.001590 0.000000 0.000327 0.000000
# 2 0.000152 0.007652 0.000863 0.000000 0.000798 0.000000
# 3 -0.001590 0.000863 0.015211 0.000000 0.006273 0.000000
# 4 0.000000 0.000000 0.000000 -0.071861 0.000000 -0.079727
# 5 0.000327 0.000798 0.006273 0.000000 0.017753 0.000000
# 6 0.000000 0.000000 0.000000 -0.079727 0.000000 0.095322
#
#
# Mechanical properties :
#
#
# Convention : Reuss Voigt Hill
#
# Bulk Modulus (GPa) = 38.83305 57.55831 48.19568
# Shear Modulus (GPa) = 64.22692 43.48802 53.85747
#
# Velocity S-wave (km/s) = 4.77094 3.92582 4.36886
# Velocity P-wave (km/s) = 6.64164 6.39905 6.52148
#
# Compressibility (1/GPa) = 0.02575126
#
# Stress axis : x y z
#
# Youngs Moduli (GPa) = 247.70856 130.67961 65.74032
#
# Poissons Ratio (x) = -0.01986 0.10453
# Poissons Ratio (y) = -0.03765 -0.05675
# Poissons Ratio (z) = 0.39386 -0.11282
#
# Static dielectric constant tensor:
#      x y z
#    x 2.151420 0.000000 -0.031380 
#    y 0.000000 2.103160 0.000000 
#    z -0.031380 0.000000 2.333380 
# 
# From -- ./inp_files/24465.got.cif
#   From: 2010.05.17/outbox.cif.g08.bks.cpg/sg11_13_cif.got.tgz:24465.got - 2010.06.03 12:22:45.
