data_PCOD9167716
_publ_section_title
;
Structure prediction by ZEFSAII (Michael W. Deem and Ramdas Pophale) SiO2 
 PCOD9167716
Probable space group: P 21/M
;
_chemical_formula_sum "Si O2"
_cell_formula_units_Z 32
_cell_length_a 21.000000
_cell_length_b 9.000000
_cell_length_c 30.000000
_cell_angle_alpha 90.000000
_cell_angle_beta 20.000000
_cell_angle_gamma 90.000000
_cell_volume 1939.254213
_symmetry_space_group_name_H-M "P 21/M"
_symmetry_group_IT_number 11
_symmetry_cell_setting 'monoclinic'
loop_
_space_group_symop_operation_xyz
x,y,z
-x,1/2+y,-z
-x,-y,-z
x,1/2-y,z
loop_
_atom_site_type_symbol
_atom_site_label
_atom_site_fract_x
_atom_site_fract_y
_atom_site_fract_z
Si Si1 0.320420 0.073427 0.498719
Si Si2 0.371452 0.571049 0.123514
Si Si3 0.709168 0.574473 0.219924
Si Si4 0.960464 0.571864 0.699798
Si Si5 0.059642 0.426390 0.117703
Si Si6 0.285837 0.070506 0.051671
Si Si7 0.691107 0.926096 0.389448
Si Si8 0.083304 0.076411 0.004242
O O1 0.312633 0.250000 0.496950
O O2 0.276090 0.042615 0.579817
O O3 0.527070 0.013013 0.354264
O O4 0.166272 0.992384 0.570036
O O5 0.362716 0.750000 0.124034
O O6 0.168242 0.500312 0.253645
O O7 0.500000 0.500000 0.000000
O O8 0.499183 0.531664 0.081894
O O9 0.681523 0.750000 0.245158
O O10 0.898482 0.520094 0.118812
O O11 0.759351 0.544268 0.135314
O O12 0.963103 0.750000 0.694474
O O13 0.846939 0.528981 0.819623
O O14 0.026634 0.250000 0.146545
O O15 0.862158 0.506036 0.250099
O O16 0.192440 0.486788 0.068646
O O17 0.149776 0.444198 0.010439
O O18 0.282189 0.250000 0.053015
O O19 0.679613 0.750000 0.390750
O O20 0.500000 0.000000 0.500000
O O21 0.029338 0.250000 0.033457
#
# Coordination Sequence:
#
# PCOD9167716 Si02
#       8
#     4   4   4   4   4   4   4   4
#     4  11  22  34  48  69  96 127 161 199 239 283
#     4   9  16  27  43  66  95 128 162 192 229 277
#     4  10  20  34  51  70  93 123 161 204 245 284
#     4  10  18  30  47  69  95 127 161 193 236 285
#     4  10  18  32  51  70  95 125 157 194 235 281
#     4   8  15  27  45  68  94 125 156 186 227 280
#     4  11  23  34  45  66  95 127 160 192 233 284
#     4   9  19  34  52  72  93 121 160 204 244 281
#
# _framework density 16.501189
#
# number of rings (size 3 to 8) (size 9 to 14) (size 15 to 20)
#    0.000    2.250    1.250    3.375    0.000    5.500 
#    0.000    0.625    0.000    0.000    0.000    0.875 
#    0.000    0.000    0.000    0.000    0.000    0.000 
#
# Total GULP energy -178278.165745 kJ/mol
# GULP energy per Si atom -5571.192680 kJ/mol
# Density = 1.646363 g / cm^3
# Si number density = 16.501189 Si / 1000 Ang^3
#
#
#
# Elastic Constant Matrix: (Units=GPa)
#
#
# Indices 1 2 3 4 5 6 
#
# 1 34.2732 7.2690 -10.7778 0.0000 8.3104 0.0000
# 2 7.2690 27.2141 9.7220 0.0000 5.4659 0.0000
# 3 -10.7778 9.7220 -2.0387 0.0000 16.6385 0.0000
# 4 0.0000 0.0000 0.0000 21.3072 0.0000 -6.4741
# 5 8.3104 5.4659 16.6385 0.0000 13.0116 0.0000
# 6 0.0000 0.0000 0.0000 -6.4741 0.0000 16.5966
#
#
#
# Elastic Compliance Matrix: (Units=1/GPa)
#
#
# Indices 1 2 3 4 5 6 
#
# 1 0.020596 -0.001036 -0.019030 0.000000 0.011615 0.000000
# 2 -0.001036 0.039675 0.005601 0.000000 -0.023167 0.000000
# 3 -0.019030 0.005601 -0.024764 0.000000 0.041468 0.000000
# 4 0.000000 0.000000 0.000000 0.053243 0.000000 0.020770
# 5 0.011615 -0.023167 0.041468 0.000000 0.026141 0.000000
# 6 0.000000 0.000000 0.000000 0.020770 0.000000 0.068355
#
#
# Mechanical properties :
#
#
# Convention : Reuss Voigt Hill
#
# Bulk Modulus (GPa) = 152.04659 7.98610 80.01634
# Shear Modulus (GPa) = 23.32418 13.73212 18.52815
#
# Velocity S-wave (km/s) = 3.76371 2.88790 3.35451
# Velocity P-wave (km/s) = 10.54657 3.99627 7.97497
#
# Compressibility (1/GPa) = 0.00657693
#
# Stress axis : x y z
#
# Youngs Moduli (GPa) = 48.55241 25.20503 -40.38165
#
# Poissons Ratio (x) = 0.02611 -0.76847
# Poissons Ratio (y) = 0.05029 0.22617
# Poissons Ratio (z) = 0.92396 -0.14117
#
# Static dielectric constant tensor:
#      x y z
#    x 1.615950 0.000000 -0.004340 
#    y 0.000000 1.556230 0.000000 
#    z -0.004340 0.000000 1.522460 
# 
# From -- ./inp_files/67402.got.cif
#   From: 2010.05.17/outbox.ucp.g08.bks.cvg/sg11_34_cif.got.tgz:67402.got - 2010.06.11 11:38:39.
