data_PCOD9167914
_publ_section_title
;
Structure prediction by ZEFSAII (Michael W. Deem and Ramdas Pophale) SiO2 
 PCOD9167914
Probable space group: P 21/M
;
_chemical_formula_sum "Si O2"
_cell_formula_units_Z 20
_cell_length_a 18.000000
_cell_length_b 15.000000
_cell_length_c 12.000000
_cell_angle_alpha 90.000000
_cell_angle_beta 160.000000
_cell_angle_gamma 90.000000
_cell_volume 1108.145264
_symmetry_space_group_name_H-M "P 21/M"
_symmetry_group_IT_number 11
_symmetry_cell_setting 'monoclinic'
loop_
_space_group_symop_operation_xyz
x,y,z
-x,1/2+y,-z
-x,-y,-z
x,1/2-y,z
loop_
_atom_site_type_symbol
_atom_site_label
_atom_site_fract_x
_atom_site_fract_y
_atom_site_fract_z
Si Si1 0.808164 0.150211 0.384362
Si Si2 0.249603 0.355723 0.864518
Si Si3 0.402507 0.514732 0.238221
Si Si4 0.625759 0.645278 0.375965
Si Si5 0.107139 0.048557 0.435468
O O1 0.818446 0.250000 0.453697
O O2 0.010083 0.146649 0.582911
O O3 0.827174 0.056903 0.478423
O O4 0.585434 0.146029 0.001955
O O5 0.320036 0.250000 0.956079
O O6 0.223340 0.403017 0.706121
O O7 0.382419 0.423521 0.134095
O O8 0.500000 0.500000 0.500000
O O9 0.548497 0.585571 0.373232
O O10 0.152693 0.548956 0.904890
O O11 0.674500 0.750000 0.471705
O O12 0.814431 0.599146 0.566310
#
# Coordination Sequence:
#
# PCOD9167914 Si02
#       5
#     4   4   4   4   4
#     4   9  17  32  57  88 118 147 189 247 301 346
#     4  10  19  36  61  90 116 152 203 253 299 351
#     4  11  24  41  60  84 125 165 197 241 296 358
#     4  11  22  36  61  91 117 154 200 247 299 354
#     4  11  20  38  62  89 118 151 198 253 302 348
#
# _framework density 18.048175000000001
#
# number of rings (size 3 to 8) (size 9 to 14) (size 15 to 20)
#    0.000    1.600    4.000    2.400    0.000    2.400 
#    0.000    0.000    0.000    0.000    0.000    0.000 
#    0.000    0.000    0.000    0.000    0.000    0.000 
#
# Total GULP energy -111534.635047 kJ/mol
# GULP energy per Si atom -5576.731752 kJ/mol
# Density = 1.800710 g / cm^3
# Si number density = 18.048175 Si / 1000 Ang^3
#
#
#
# Elastic Constant Matrix: (Units=GPa)
#
#
# Indices 1 2 3 4 5 6 
#
# 1 123.3400 77.8623 35.4730 0.0000 -4.5472 0.0000
# 2 77.8623 192.2078 30.6389 0.0000 -1.4120 0.0000
# 3 35.4730 30.6389 45.3632 0.0000 -12.6707 0.0000
# 4 0.0000 0.0000 0.0000 22.4085 0.0000 5.5447
# 5 -4.5472 -1.4120 -12.6707 0.0000 27.4620 0.0000
# 6 0.0000 0.0000 0.0000 5.5447 0.0000 33.6467
#
#
#
# Elastic Compliance Matrix: (Units=1/GPa)
#
#
# Indices 1 2 3 4 5 6 
#
# 1 0.012780 -0.003946 -0.007799 0.000000 -0.001685 0.000000
# 2 -0.003946 0.007122 -0.002072 0.000000 -0.001243 0.000000
# 3 -0.007799 -0.002072 0.033464 0.000000 0.014042 0.000000
# 4 0.000000 0.000000 0.000000 0.046523 0.000000 -0.007667
# 5 -0.001685 -0.001243 0.014042 0.000000 0.042550 0.000000
# 6 0.000000 0.000000 0.000000 -0.007667 0.000000 0.030984
#
#
# Mechanical properties :
#
#
# Convention : Reuss Voigt Hill
#
# Bulk Modulus (GPa) = 38.86115 72.09547 55.47831
# Shear Modulus (GPa) = 23.85100 31.16591 27.50845
#
# Velocity S-wave (km/s) = 3.63921 4.16001 3.90830
# Velocity P-wave (km/s) = 6.26396 7.94400 7.15347
#
# Compressibility (1/GPa) = 0.02573264
#
# Stress axis : x y z
#
# Youngs Moduli (GPa) = 78.24939 140.40147 29.88242
#
# Poissons Ratio (x) = 0.55405 0.23305
# Poissons Ratio (y) = 0.30879 0.06192
# Poissons Ratio (z) = 0.61025 0.29091
#
# Static dielectric constant tensor:
#      x y z
#    x 1.610200 0.000000 0.014750 
#    y 0.000000 1.663420 0.000000 
#    z 0.014750 0.000000 1.614760 
# 
# From -- ./inp_files/12220.got.cif
#   From: 2010.05.17/outbox.ucp.g08.bks.cvg/sg11_7_cif.got.tgz:12220.got - 2010.06.11 11:38:39.
