data_PCOD9167577
_publ_section_title
;
Structure prediction by ZEFSAII (Michael W. Deem and Ramdas Pophale) SiO2 
 PCOD9167577
Probable space group: P 21/M
;
_chemical_formula_sum "Si O2"
_cell_formula_units_Z 18
_cell_length_a 5.090209
_cell_length_b 18.787020
_cell_length_c 7.252304
_cell_angle_alpha 90.000000
_cell_angle_beta 90.669270
_cell_angle_gamma 90.000000
_cell_volume 693.489490
_symmetry_space_group_name_H-M "P 21/M"
_symmetry_group_IT_number 11
_symmetry_cell_setting 'monoclinic'
loop_
_space_group_symop_operation_xyz
x,y,z
-x,1/2+y,-z
-x,-y,-z
x,1/2-y,z
loop_
_atom_site_type_symbol
_atom_site_label
_atom_site_fract_x
_atom_site_fract_y
_atom_site_fract_z
Si Si1 0.030989 0.893447 0.284753
Si Si2 0.524579 0.514926 0.277708
Si Si3 0.471980 0.860029 0.874911
Si Si4 0.028514 0.170109 0.338431
Si Si5 0.223431 0.250000 0.867319
O O1 0.803901 0.949713 0.240413
O O2 0.961349 0.814508 0.217560
O O3 0.302331 0.927579 0.225689
O O4 0.037262 0.885992 0.506731
O O5 0.500000 0.500000 0.500000
O O6 0.488290 0.443861 0.157991
O O7 0.165846 0.844240 0.833550
O O8 0.666135 0.832310 0.710951
O O9 0.584206 0.812456 0.039863
O O10 0.966982 0.250000 0.397785
#
# Coordination Sequence:
#
# PCOD9167577 Si02
#       5
#     4   4   4   4   2
#     4  12  26  44  74 104 142 176 240 292 351 408
#     4  12  24  45  76 109 134 181 239 301 341 404
#     4  12  26  44  74 101 144 181 238 280 356 414
#     4  12  21  43  71 104 129 188 237 293 328 413
#     4  12  30  48  66 108 146 194 224 286 356 430
#
# _framework density 25.955691000000002
#
# number of rings (size 3 to 8) (size 9 to 14) (size 15 to 20)
#    0.000    0.000    7.778    2.000    0.000    6.222 
#    0.000    0.000    0.000    0.000    0.000    0.000 
#    0.000    0.000    0.000    0.000    0.000    0.000 
#
# Total GULP energy -100347.406266 kJ/mol
# GULP energy per Si atom -5574.855904 kJ/mol
# Density = 2.589661 g / cm^3
# Si number density = 25.955691 Si / 1000 Ang^3
#
#
#
# Elastic Constant Matrix: (Units=GPa)
#
#
# Indices 1 2 3 4 5 6 
#
# 1 87.3814 40.0639 21.9454 0.0000 6.0851 0.0000
# 2 40.0639 227.6925 42.9723 0.0000 21.5308 0.0000
# 3 21.9454 42.9723 78.3236 0.0000 18.4057 0.0000
# 4 0.0000 0.0000 0.0000 76.5889 0.0000 33.8415
# 5 6.0851 21.5308 18.4057 0.0000 36.5291 0.0000
# 6 0.0000 0.0000 0.0000 33.8415 0.0000 35.5141
#
#
#
# Elastic Compliance Matrix: (Units=1/GPa)
#
#
# Indices 1 2 3 4 5 6 
#
# 1 0.012925 -0.001789 -0.002701 0.000000 0.000263 0.000000
# 2 -0.001789 0.005246 -0.001952 0.000000 -0.001811 0.000000
# 3 -0.002701 -0.001952 0.016129 0.000000 -0.006527 0.000000
# 4 0.000000 0.000000 0.000000 0.022552 0.000000 -0.021490
# 5 0.000263 -0.001811 -0.006527 0.000000 0.031688 0.000000
# 6 0.000000 0.000000 0.000000 -0.021490 0.000000 0.048636
#
#
# Mechanical properties :
#
#
# Convention : Reuss Voigt Hill
#
# Bulk Modulus (GPa) = 46.69523 67.04008 56.86766
# Shear Modulus (GPa) = 31.80696 48.95414 40.38055
#
# Velocity S-wave (km/s) = 3.50442 4.34760 3.94858
# Velocity P-wave (km/s) = 5.86549 7.14751 6.53800
#
# Compressibility (1/GPa) = 0.02141546
#
# Stress axis : x y z
#
# Youngs Moduli (GPa) = 77.37213 190.61246 62.00066
#
# Poissons Ratio (x) = 0.34104 0.16749
# Poissons Ratio (y) = 0.13843 0.12099
# Poissons Ratio (z) = 0.20902 0.37198
#
# Static dielectric constant tensor:
#      x y z
#    x 1.970940 0.000000 -0.011880 
#    y 0.000000 1.956660 0.000000 
#    z -0.011880 0.000000 2.156750 
# 
# From -- ./inp_files/1846.got.cif
#   From: 2010.05.17/outbox.cif.g08.bks.cpg/sg11_1_cif.got.tgz:1846.got - 2010.06.03 12:22:45.
