data_PCOD9167885
_publ_section_title
;
Structure prediction by ZEFSAII (Michael W. Deem and Ramdas Pophale) SiO2 
 PCOD9167885
Probable space group: P 21/M
;
_chemical_formula_sum "Si O2"
_cell_formula_units_Z 32
_cell_length_a 30.000000
_cell_length_b 9.000000
_cell_length_c 12.000000
_cell_angle_alpha 90.000000
_cell_angle_beta 150.000000
_cell_angle_gamma 90.000000
_cell_volume 1620.000000
_symmetry_space_group_name_H-M "P 21/M"
_symmetry_group_IT_number 11
_symmetry_cell_setting 'monoclinic'
loop_
_space_group_symop_operation_xyz
x,y,z
-x,1/2+y,-z
-x,-y,-z
x,1/2-y,z
loop_
_atom_site_type_symbol
_atom_site_label
_atom_site_fract_x
_atom_site_fract_y
_atom_site_fract_z
Si Si1 0.068685 0.071408 0.064285
Si Si2 0.437396 0.926445 0.691309
Si Si3 0.480434 0.927710 0.339213
Si Si4 0.272652 0.925694 0.886479
Si Si5 0.861047 0.926934 0.249530
Si Si6 0.216752 0.082150 0.551645
Si Si7 0.391995 0.417953 0.791573
Si Si8 0.032839 0.070920 0.735982
O O1 0.059716 0.250000 0.043563
O O2 0.160357 0.033859 0.323206
O O3 0.056270 0.021419 0.911040
O O4 0.000000 0.000000 0.000000
O O5 0.432108 0.750000 0.665586
O O6 0.452422 0.005540 0.606930
O O7 0.366641 0.986831 0.627825
O O8 0.525268 0.968511 0.953566
O O9 0.489058 0.750000 0.360960
O O10 0.500000 0.000000 0.500000
O O11 0.376254 0.963968 0.089558
O O12 0.266141 0.750000 0.885914
O O13 0.229933 0.004144 0.901277
O O14 0.215907 0.978644 0.656927
O O15 0.858227 0.750000 0.256362
O O16 0.888259 0.961793 0.181130
O O17 0.943085 0.993853 0.498280
O O18 0.189141 0.250000 0.525323
O O19 0.314586 0.087739 0.713719
O O20 0.411399 0.250000 0.794025
O O21 0.019370 0.250000 0.705285
#
# Coordination Sequence:
#
# PCOD9167885 Si02
#       8
#     4   4   4   4   4   4   4   4
#     4  10  21  36  55  81 115 148 184 227 276 329
#     4  10  19  34  58  83 112 145 183 228 280 337
#     4  11  24  41  60  82 112 148 188 234 287 343
#     4  11  23  38  58  84 114 144 184 234 283 336
#     4  10  20  35  59  85 110 149 194 231 276 331
#     4  10  20  36  58  83 112 148 191 233 276 336
#     4   9  18  33  55  83 112 145 185 230 277 329
#     4   9  19  37  57  81 115 150 188 233 278 327
#
# _framework density 19.753086
#
# number of rings (size 3 to 8) (size 9 to 14) (size 15 to 20)
#    0.000    2.000    1.250    2.250    0.000    6.000 
#    2.250    0.000    0.000    0.000    0.000    0.000 
#    0.000    0.000    0.000    0.000    0.000    0.000 
#
# Total GULP energy -178348.934790 kJ/mol
# GULP energy per Si atom -5573.404212 kJ/mol
# Density = 1.970813 g / cm^3
# Si number density = 19.753086 Si / 1000 Ang^3
#
#
#
# Elastic Constant Matrix: (Units=GPa)
#
#
# Indices 1 2 3 4 5 6 
#
# 1 116.8822 47.3029 19.0510 0.0000 -27.6563 0.0000
# 2 47.3029 37.7134 16.6805 0.0000 -14.4603 0.0000
# 3 19.0510 16.6805 36.5124 0.0000 -23.5370 0.0000
# 4 0.0000 0.0000 0.0000 18.0710 0.0000 -2.6341
# 5 -27.6563 -14.4603 -23.5370 0.0000 31.6179 0.0000
# 6 0.0000 0.0000 0.0000 -2.6341 0.0000 35.9284
#
#
#
# Elastic Compliance Matrix: (Units=1/GPa)
#
#
# Indices 1 2 3 4 5 6 
#
# 1 0.019850 -0.023837 0.009032 0.000000 0.013185 0.000000
# 2 -0.023837 0.062804 -0.021494 0.000000 -0.008127 0.000000
# 3 0.009032 -0.021494 0.060083 0.000000 0.042798 0.000000
# 4 0.000000 0.000000 0.000000 0.055935 0.000000 0.004101
# 5 0.013185 -0.008127 0.042798 0.000000 0.071303 0.000000
# 6 0.000000 0.000000 0.000000 0.004101 0.000000 0.028134
#
#
# Mechanical properties :
#
#
# Convention : Reuss Voigt Hill
#
# Bulk Modulus (GPa) = 14.25706 39.68631 26.97169
# Shear Modulus (GPa) = 12.68755 24.32837 18.50796
#
# Velocity S-wave (km/s) = 2.53713 3.51326 3.06431
# Velocity P-wave (km/s) = 3.97693 6.04914 5.11899
#
# Compressibility (1/GPa) = 0.07014068
#
# Stress axis : x y z
#
# Youngs Moduli (GPa) = 50.37736 15.92250 16.64351
#
# Poissons Ratio (x) = 0.37954 -0.15033
# Poissons Ratio (y) = 1.20084 0.35773
# Poissons Ratio (z) = -0.45501 0.34223
#
# Static dielectric constant tensor:
#      x y z
#    x 1.779870 0.000000 0.025740 
#    y 0.000000 1.701680 0.000000 
#    z 0.025740 0.000000 1.700440 
# 
# From -- ./inp_files/45275.got.cif
#   From: 2010.05.17/outbox.ucp.g08.bks.cvg/sg11_23_cif.got.tgz:45275.got - 2010.06.11 11:38:39.
