data_PCOD9167410
_publ_section_title
;
Structure prediction by ZEFSAII (Michael W. Deem and Ramdas Pophale) SiO2 
 PCOD9167410
Probable space group: P 21/M
;
_chemical_formula_sum "Si O2"
_cell_formula_units_Z 28
_cell_length_a 7.244297
_cell_length_b 9.028413
_cell_length_c 20.144113
_cell_angle_alpha 90.000000
_cell_angle_beta 87.045940
_cell_angle_gamma 90.000000
_cell_volume 1315.764998
_symmetry_space_group_name_H-M "P 21/M"
_symmetry_group_IT_number 11
_symmetry_cell_setting 'monoclinic'
loop_
_space_group_symop_operation_xyz
x,y,z
-x,1/2+y,-z
-x,-y,-z
x,1/2-y,z
loop_
_atom_site_type_symbol
_atom_site_label
_atom_site_fract_x
_atom_site_fract_y
_atom_site_fract_z
Si Si1 0.115893 0.426304 0.358122
Si Si2 0.671003 0.417051 0.917277
Si Si3 0.732120 0.927069 0.325148
Si Si4 0.589768 0.425296 0.562446
Si Si5 0.239118 0.417410 0.959224
Si Si6 0.187416 0.419293 0.816759
Si Si7 0.765250 0.420036 0.774372
O O1 0.112088 0.250000 0.362347
O O2 0.220694 0.497590 0.418581
O O3 0.229083 0.480599 0.290818
O O4 0.910062 0.490943 0.352062
O O5 0.743053 0.250000 0.908306
O O6 0.461757 0.408685 0.946644
O O7 0.665720 0.478767 0.842510
O O8 0.789795 0.498350 0.971191
O O9 0.773111 0.750000 0.320797
O O10 0.557381 0.946116 0.375259
O O11 0.702342 0.978652 0.249217
O O12 0.500000 0.500000 0.500000
O O13 0.617222 0.250000 0.551944
O O14 0.165484 0.250000 0.966120
O O15 0.183498 0.489545 0.889804
O O16 0.254763 0.250000 0.827256
O O17 0.978906 0.413993 0.794038
O O18 0.705337 0.250000 0.759513
#
# Coordination Sequence:
#
# PCOD9167410 Si02
#       7
#     4   4   4   4   4   4   4
#     4  11  23  39  61  91 127 159 193 245 302 353
#     4   9  18  30  46  68  99 139 183 231 284 342
#     4   9  20  40  65  89 117 158 204 245 290 348
#     4  11  24  42  67  95 124 159 200 241 288 350
#     4   9  17  29  46  68  99 136 178 230 287 343
#     4   8  15  30  52  76  99 133 184 234 279 335
#     4   9  18  34  54  75 103 143 193 238 282 344
#
# _framework density 21.280397000000001
#
# number of rings (size 3 to 8) (size 9 to 14) (size 15 to 20)
#    0.000    2.571    0.000    2.571    2.000    2.857 
#    0.000    2.857    0.000    0.000    0.000    0.000 
#    0.000    0.000    0.000    0.000    0.000    0.000 
#
# Total GULP energy -156249.646440 kJ/mol
# GULP energy per Si atom -5580.344516 kJ/mol
# Density = 2.123196 g / cm^3
# Si number density = 21.280397 Si / 1000 Ang^3
#
#
#
# Elastic Constant Matrix: (Units=GPa)
#
#
# Indices 1 2 3 4 5 6 
#
# 1 47.9956 29.6839 19.6683 0.0000 15.3345 0.0000
# 2 29.6839 70.5917 35.8710 0.0000 16.0332 0.0000
# 3 19.6683 35.8710 76.5891 0.0000 32.2680 0.0000
# 4 0.0000 0.0000 0.0000 34.3968 0.0000 4.2021
# 5 15.3345 16.0332 32.2680 0.0000 41.7300 0.0000
# 6 0.0000 0.0000 0.0000 4.2021 0.0000 14.9775
#
#
#
# Elastic Compliance Matrix: (Units=1/GPa)
#
#
# Indices 1 2 3 4 5 6 
#
# 1 0.029799 -0.011220 0.000593 0.000000 -0.007098 0.000000
# 2 -0.011220 0.022825 -0.008679 0.000000 0.002064 0.000000
# 3 0.000593 -0.008679 0.023221 0.000000 -0.014839 0.000000
# 4 0.000000 0.000000 0.000000 0.030104 0.000000 -0.008446
# 5 -0.007098 0.002064 -0.014839 0.000000 0.037253 0.000000
# 6 0.000000 0.000000 0.000000 -0.008446 0.000000 0.069136
#
#
# Mechanical properties :
#
#
# Convention : Reuss Voigt Hill
#
# Bulk Modulus (GPa) = 26.85700 40.62475 33.74087
# Shear Modulus (GPa) = 18.98528 25.55108 22.26818
#
# Velocity S-wave (km/s) = 2.99013 3.46885 3.23835
# Velocity P-wave (km/s) = 4.95672 5.93090 5.46556
#
# Compressibility (1/GPa) = 0.03723424
#
# Stress axis : x y z
#
# Youngs Moduli (GPa) = 33.55799 43.81148 43.06415
#
# Poissons Ratio (x) = 0.49155 -0.02552
# Poissons Ratio (y) = 0.37651 0.37374
# Poissons Ratio (z) = -0.01989 0.38022
#
# Static dielectric constant tensor:
#      x y z
#    x 1.822930 0.000000 -0.018920 
#    y 0.000000 1.588720 0.000000 
#    z -0.018920 0.000000 1.836520 
# 
# From -- ./inp_files/63065.got.cif
#   From: 2010.05.17/outbox.cif.g08.bks.cpg/sg11_32_cif.got.tgz:63065.got - 2010.06.03 12:22:45.
