data_PCOD9167001
_publ_section_title
;
Structure prediction by ZEFSAII (Michael W. Deem and Ramdas Pophale) SiO2 
 PCOD9167001
Probable space group: P 21/M
;
_chemical_formula_sum "Si O2"
_cell_formula_units_Z 32
_cell_length_a 9.752086
_cell_length_b 14.743493
_cell_length_c 9.694002
_cell_angle_alpha 90.000000
_cell_angle_beta 89.773873
_cell_angle_gamma 90.000000
_cell_volume 1393.790927
_symmetry_space_group_name_H-M "P 21/M"
_symmetry_group_IT_number 11
_symmetry_cell_setting 'monoclinic'
loop_
_space_group_symop_operation_xyz
x,y,z
-x,1/2+y,-z
-x,-y,-z
x,1/2-y,z
loop_
_atom_site_type_symbol
_atom_site_label
_atom_site_fract_x
_atom_site_fract_y
_atom_site_fract_z
Si Si1 0.493509 0.350167 0.945630
Si Si2 0.600872 0.641455 0.548499
Si Si3 0.224773 0.387026 0.088269
Si Si4 0.137640 0.968027 0.708482
Si Si5 0.795071 0.094901 0.991252
Si Si6 0.044191 0.345543 0.822672
Si Si7 0.548456 0.984275 0.304826
Si Si8 0.904956 0.648681 0.613926
O O1 0.482567 0.250000 0.878736
O O2 0.645572 0.362588 0.003159
O O3 0.464172 0.433726 0.841655
O O4 0.379065 0.354761 0.063620
O O5 0.574423 0.750000 0.569863
O O6 0.551961 0.568542 0.664378
O O7 0.528846 0.597495 0.414683
O O8 0.765272 0.630643 0.531054
O O9 0.218833 0.495343 0.074878
O O10 0.154491 0.356769 0.228910
O O11 0.143933 0.351833 0.954357
O O12 0.036120 0.915845 0.607410
O O13 0.076150 0.067443 0.732685
O O14 0.297968 0.977211 0.675122
O O15 0.136980 0.918546 0.859014
O O16 0.893803 0.148231 0.888619
O O17 0.066607 0.250000 0.750361
O O18 0.952138 0.750000 0.586316
#
# Coordination Sequence:
#
# PCOD9167001 Si02
#       8
#     4   4   4   4   4   4   4   4
#     4  12  24  36  60  96 130 167 210 254 304 370
#     4  10  25  47  69  91 117 161 215 262 315 370
#     4  11  20  36  57  86 127 166 205 246 306 370
#     4  11  23  38  62  91 127 162 204 256 308 368
#     4  11  21  36  54  87 132 167 198 251 305 368
#     4  11  20  35  56  86 126 170 205 241 301 370
#     4  11  24  44  69  90 123 164 206 267 314 359
#     4  11  22  39  64  91 125 167 207 249 303 369
#
# _framework density 22.958967000000001
#
# number of rings (size 3 to 8) (size 9 to 14) (size 15 to 20)
#    0.000    1.000    5.000    3.750    1.750    2.000 
#    0.000    0.000    0.000    0.000    0.000    0.000 
#    0.000    0.000    0.000    0.000    0.000    0.000 
#
# Total GULP energy -179009.196754 kJ/mol
# GULP energy per Si atom -5594.037399 kJ/mol
# Density = 2.290671 g / cm^3
# Si number density = 22.958967 Si / 1000 Ang^3
#
#
#
# Elastic Constant Matrix: (Units=GPa)
#
#
# Indices 1 2 3 4 5 6 
#
# 1 132.6990 53.1666 -1.2091 0.0000 -0.3064 0.0000
# 2 53.1666 144.4287 23.1491 0.0000 11.2409 0.0000
# 3 -1.2091 23.1491 58.3576 0.0000 2.7038 0.0000
# 4 0.0000 0.0000 0.0000 -143.8809 0.0000 111.8127
# 5 -0.3064 11.2409 2.7038 0.0000 20.1986 0.0000
# 6 0.0000 0.0000 0.0000 111.8127 0.0000 -104.5459
#
#
#
# Elastic Compliance Matrix: (Units=1/GPa)
#
#
# Indices 1 2 3 4 5 6 
#
# 1 0.009054 -0.003742 0.001579 0.000000 0.002009 0.000000
# 2 -0.003742 0.009234 -0.003521 0.000000 -0.004724 0.000000
# 3 0.001579 -0.003521 0.018589 0.000000 -0.000505 0.000000
# 4 0.000000 0.000000 0.000000 -0.041158 0.000000 -0.044019
# 5 0.002009 -0.004724 -0.000505 0.000000 0.052236 0.000000
# 6 0.000000 0.000000 0.000000 -0.044019 0.000000 -0.056644
#
#
# Mechanical properties :
#
#
# Convention : Reuss Voigt Hill
#
# Bulk Modulus (GPa) = 39.20496 53.96649 46.58573
# Shear Modulus (GPa) = 447.16945 -28.28706 209.44120
#
# Velocity S-wave (km/s) = 13.97111 -3.51389 9.56149
# Velocity P-wave (km/s) = 16.65440 2.66334 11.92607
#
# Compressibility (1/GPa) = 0.02550698
#
# Stress axis : x y z
#
# Youngs Moduli (GPa) = 110.44451 108.30024 53.79613
#
# Poissons Ratio (x) = 0.40531 -0.08495
# Poissons Ratio (y) = 0.41334 0.18944
# Poissons Ratio (z) = -0.17440 0.38137
#
# Static dielectric constant tensor:
#      x y z
#    x 1.832270 0.000000 0.016140 
#    y 0.000000 1.733170 0.000000 
#    z 0.016140 0.000000 1.880680 
# 
# From -- ./inp_files/31891.got.cif
#   From: 2010.05.17/outbox.cif.g08.bks.cpg/sg11_16_cif.got.tgz:31891.got - 2010.06.03 12:22:45.
