data_PCOD9167058
_publ_section_title
;
Structure prediction by ZEFSAII (Michael W. Deem and Ramdas Pophale) SiO2 
 PCOD9167058
Probable space group: P 21/M
;
_chemical_formula_sum "Si O2"
_cell_formula_units_Z 24
_cell_length_a 10.365895
_cell_length_b 8.684126
_cell_length_c 23.455575
_cell_angle_alpha 90.000000
_cell_angle_beta 138.699139
_cell_angle_gamma 90.000000
_cell_volume 1393.578595
_symmetry_space_group_name_H-M "P 21/M"
_symmetry_group_IT_number 11
_symmetry_cell_setting 'monoclinic'
loop_
_space_group_symop_operation_xyz
x,y,z
-x,1/2+y,-z
-x,-y,-z
x,1/2-y,z
loop_
_atom_site_type_symbol
_atom_site_label
_atom_site_fract_x
_atom_site_fract_y
_atom_site_fract_z
Si Si1 0.352233 0.432806 0.278658
Si Si2 0.970640 0.066896 0.898719
Si Si3 0.012280 0.434055 0.440237
Si Si4 0.451390 0.434000 0.545548
Si Si5 0.619428 0.566288 0.264962
Si Si6 0.295516 0.434805 0.087505
O O1 0.372024 0.250000 0.281019
O O2 0.133112 0.482527 0.188073
O O3 0.414716 0.491661 0.361106
O O4 0.498770 0.508569 0.280710
O O5 0.955242 0.250000 0.885658
O O6 0.837192 0.016590 0.908326
O O7 0.190775 0.029692 0.992517
O O8 0.985803 0.250000 0.433381
O O9 0.839079 0.508386 0.346103
O O10 0.000000 0.500000 0.500000
O O11 0.226193 0.468078 0.486634
O O12 0.500000 0.500000 0.500000
O O13 0.476533 0.250000 0.554850
O O14 0.610220 0.750000 0.259938
O O15 0.510410 0.494670 0.173836
O O16 0.286193 0.250000 0.092462
#
# Coordination Sequence:
#
# PCOD9167058 Si02
#       6
#     4   4   4   4   4   4
#     4  11  20  31  50  73 102 138 176 217 262 313
#     4   9  16  26  42  65  97 133 170 211 258 311
#     4  11  22  36  56  79 105 139 178 218 263 316
#     4  11  24  40  57  78 106 139 178 221 266 315
#     4  11  20  30  48  74 105 138 174 217 262 311
#     4   9  16  26  41  65  98 134 169 210 259 310
#
# _framework density 17.221848999999999
#
# number of rings (size 3 to 8) (size 9 to 14) (size 15 to 20)
#    0.000    1.667    1.667    7.000    0.000    4.000 
#    0.000    0.000    0.000    0.000    0.000    1.167 
#    0.000    0.000    0.000    0.000    0.000    0.000 
#
# Total GULP energy -133891.441763 kJ/mol
# GULP energy per Si atom -5578.810073 kJ/mol
# Density = 1.718265 g / cm^3
# Si number density = 17.221849 Si / 1000 Ang^3
#
#
#
# Elastic Constant Matrix: (Units=GPa)
#
#
# Indices 1 2 3 4 5 6 
#
# 1 48.6225 33.0965 37.8543 0.0000 -4.3395 0.0000
# 2 33.0965 74.6438 46.5737 0.0000 -0.8263 0.0000
# 3 37.8543 46.5737 171.2141 0.0000 6.7372 0.0000
# 4 0.0000 0.0000 0.0000 34.8704 0.0000 0.3451
# 5 -4.3395 -0.8263 6.7372 0.0000 14.8996 0.0000
# 6 0.0000 0.0000 0.0000 0.3451 0.0000 17.4851
#
#
#
# Elastic Compliance Matrix: (Units=1/GPa)
#
#
# Indices 1 2 3 4 5 6 
#
# 1 0.033063 -0.011689 -0.004565 0.000000 0.011045 0.000000
# 2 -0.011689 0.020395 -0.002926 0.000000 -0.000950 0.000000
# 3 -0.004565 -0.002926 0.007844 0.000000 -0.005039 0.000000
# 4 0.000000 0.000000 0.000000 0.028683 0.000000 -0.000566
# 5 0.011045 -0.000950 -0.005039 0.000000 0.072558 0.000000
# 6 0.000000 0.000000 0.000000 -0.000566 0.000000 0.057203
#
#
# Mechanical properties :
#
#
# Convention : Reuss Voigt Hill
#
# Bulk Modulus (GPa) = 43.58883 58.83662 51.21273
# Shear Modulus (GPa) = 18.81434 25.24808 22.03121
#
# Velocity S-wave (km/s) = 3.30884 3.83306 3.58055
# Velocity P-wave (km/s) = 6.32163 7.33675 6.84802
#
# Compressibility (1/GPa) = 0.02294166
#
# Stress axis : x y z
#
# Youngs Moduli (GPa) = 30.24518 49.03131 127.48385
#
# Poissons Ratio (x) = 0.57315 0.58195
# Poissons Ratio (y) = 0.35355 0.37302
# Poissons Ratio (z) = 0.13807 0.14347
#
# Static dielectric constant tensor:
#      x y z
#    x 1.549250 0.000000 0.022390 
#    y 0.000000 1.571450 0.000000 
#    z 0.022390 0.000000 1.643710 
# 
# From -- ./inp_files/25733.got.cif
#   From: 2010.05.17/outbox.cif.g08.bks.cpg/sg11_13_cif.got.tgz:25733.got - 2010.06.03 12:22:45.
