data_PCOD9167214
_publ_section_title
;
Structure prediction by ZEFSAII (Michael W. Deem and Ramdas Pophale) SiO2 
 PCOD9167214
Probable space group: P 21/M
;
_chemical_formula_sum "Si O2"
_cell_formula_units_Z 18
_cell_length_a 7.917173
_cell_length_b 22.050989
_cell_length_c 5.275013
_cell_angle_alpha 90.000000
_cell_angle_beta 120.754845
_cell_angle_gamma 90.000000
_cell_volume 791.404436
_symmetry_space_group_name_H-M "P 21/M"
_symmetry_group_IT_number 11
_symmetry_cell_setting 'monoclinic'
loop_
_space_group_symop_operation_xyz
x,y,z
-x,1/2+y,-z
-x,-y,-z
x,1/2-y,z
loop_
_atom_site_type_symbol
_atom_site_label
_atom_site_fract_x
_atom_site_fract_y
_atom_site_fract_z
Si Si1 0.247154 0.382176 0.142996
Si Si2 0.967977 0.929487 0.528348
Si Si3 0.657629 0.356298 0.300908
Si Si4 0.556303 0.750000 0.158730
Si Si5 0.241172 0.750000 0.286450
Si Si6 0.135682 0.250000 0.258352
O O1 0.483326 0.391356 0.312093
O O2 0.203214 0.311465 0.172192
O O3 0.149965 0.417547 0.303422
O O4 0.150620 0.401911 0.802878
O O5 0.182191 0.897623 0.711239
O O6 0.000000 0.000000 0.500000
O O7 0.780835 0.311300 0.575456
O O8 0.530840 0.310077 0.031319
O O9 0.465346 0.750000 0.369976
O O10 0.785638 0.750000 0.393795
O O11 0.099310 0.750000 0.937958
#
# Coordination Sequence:
#
# PCOD9167214 Si02
#       6
#     4   4   4   2   2   2
#     4  12  26  46  77 109 151 190 246 310 377 447
#     4  12  29  50  74 107 148 204 261 303 358 436
#     4  11  25  44  72 105 150 192 242 305 381 437
#     4  11  22  41  67 111 152 185 237 303 388 467
#     4  11  21  41  67 109 147 186 230 305 377 458
#     4  12  21  42  74 110 145 183 235 302 387 439
#
# _framework density 22.744374000000001
#
# number of rings (size 3 to 8) (size 9 to 14) (size 15 to 20)
#    0.000    0.444    4.444    4.000    0.000    3.556 
#    0.000    0.000    0.000    0.000    0.000    0.000 
#    0.000    0.000    0.000    0.000    0.000    0.000 
#
# Total GULP energy -100734.417187 kJ/mol
# GULP energy per Si atom -5596.356510 kJ/mol
# Density = 2.269261 g / cm^3
# Si number density = 22.744374 Si / 1000 Ang^3
#
#
#
# Elastic Constant Matrix: (Units=GPa)
#
#
# Indices 1 2 3 4 5 6 
#
# 1 125.2605 10.9068 25.2402 0.0000 18.8756 0.0000
# 2 10.9068 82.4401 25.3084 0.0000 15.0852 0.0000
# 3 25.2402 25.3084 143.0126 0.0000 22.2756 0.0000
# 4 0.0000 0.0000 0.0000 23.5368 0.0000 -7.7324
# 5 18.8756 15.0852 22.2756 0.0000 38.3360 0.0000
# 6 0.0000 0.0000 0.0000 -7.7324 0.0000 13.4327
#
#
#
# Elastic Compliance Matrix: (Units=1/GPa)
#
#
# Indices 1 2 3 4 5 6 
#
# 1 0.008744 -0.000196 -0.000935 0.000000 -0.003685 0.000000
# 2 -0.000196 0.013445 -0.001689 0.000000 -0.004213 0.000000
# 3 -0.000935 -0.001689 0.008006 0.000000 -0.003527 0.000000
# 4 0.000000 0.000000 0.000000 0.052395 0.000000 0.030161
# 5 -0.003685 -0.004213 -0.003527 0.000000 0.031607 0.000000
# 6 0.000000 0.000000 0.000000 0.030161 0.000000 0.091807
#
#
# Mechanical properties :
#
#
# Convention : Reuss Voigt Hill
#
# Bulk Modulus (GPa) = 40.72107 52.62488 46.67298
# Shear Modulus (GPa) = 22.74512 34.34495 28.54504
#
# Velocity S-wave (km/s) = 3.16576 3.89014 3.54649
# Velocity P-wave (km/s) = 5.59512 6.58524 6.11027
#
# Compressibility (1/GPa) = 0.02455731
#
# Stress axis : x y z
#
# Youngs Moduli (GPa) = 114.36340 74.37586 124.91360
#
# Poissons Ratio (x) = 0.01455 0.11674
# Poissons Ratio (y) = 0.02237 0.21093
# Poissons Ratio (z) = 0.10688 0.12559
#
# Static dielectric constant tensor:
#      x y z
#    x 1.867510 0.000000 -0.025140 
#    y 0.000000 1.810610 0.000000 
#    z -0.025140 0.000000 1.862580 
# 
# From -- ./inp_files/2118.got.cif
#   From: 2010.05.17/outbox.cif.g08.bks.cpg/sg11_2_cif.got.tgz:2118.got - 2010.06.03 12:22:45.
