data_PCOD9167453
_publ_section_title
;
Structure prediction by ZEFSAII (Michael W. Deem and Ramdas Pophale) SiO2 
 PCOD9167453
Probable space group: P 21/M
;
_chemical_formula_sum "Si O2"
_cell_formula_units_Z 20
_cell_length_a 11.779909
_cell_length_b 8.655573
_cell_length_c 9.818995
_cell_angle_alpha 90.000000
_cell_angle_beta 111.053194
_cell_angle_gamma 90.000000
_cell_volume 934.332693
_symmetry_space_group_name_H-M "P 21/M"
_symmetry_group_IT_number 11
_symmetry_cell_setting 'monoclinic'
loop_
_space_group_symop_operation_xyz
x,y,z
-x,1/2+y,-z
-x,-y,-z
x,1/2-y,z
loop_
_atom_site_type_symbol
_atom_site_label
_atom_site_fract_x
_atom_site_fract_y
_atom_site_fract_z
Si Si1 0.520418 0.430307 0.858690
Si Si2 0.305276 0.932651 0.601188
Si Si3 0.191237 0.930469 0.044915
Si Si4 0.859650 0.933263 0.686487
Si Si5 0.889944 0.932585 0.273154
O O1 0.485140 0.250000 0.845968
O O2 0.435760 0.516420 0.714015
O O3 0.662554 0.441283 0.886046
O O4 0.500000 0.500000 0.000000
O O5 0.300563 0.750000 0.578850
O O6 0.261452 0.017010 0.445771
O O7 0.208444 0.983368 0.674902
O O8 0.158370 0.750000 0.009548
O O9 0.852801 0.970137 0.101803
O O10 0.139243 0.992096 0.163908
O O11 0.868419 0.750000 0.699185
O O12 0.974828 0.999973 0.653836
O O13 0.888370 0.750000 0.299538
#
# Coordination Sequence:
#
# PCOD9167453 Si02
#       5
#     4   4   4   4   4
#     4  11  23  41  68  97 129 167 215 265 318 381
#     4  12  25  43  67  96 131 170 216 267 321 382
#     4  11  24  43  67  97 131 170 215 264 319 380
#     4  12  26  44  65  94 132 171 215 266 325 384
#     4  12  24  42  68  96 130 171 217 264 319 384
#
# _framework density 21.405653000000001
#
# number of rings (size 3 to 8) (size 9 to 14) (size 15 to 20)
#    0.000    0.400    2.000    7.800    0.000    3.200 
#    0.000    0.000    0.000    0.000    0.000    0.000 
#    0.000    0.000    0.000    0.000    0.000    0.000 
#
# Total GULP energy -112092.822314 kJ/mol
# GULP energy per Si atom -5604.641116 kJ/mol
# Density = 2.135693 g / cm^3
# Si number density = 21.405653 Si / 1000 Ang^3
#
#
#
# Elastic Constant Matrix: (Units=GPa)
#
#
# Indices 1 2 3 4 5 6 
#
# 1 41.5692 22.8953 -7.6124 0.0000 3.9049 0.0000
# 2 22.8953 99.8918 -22.8580 0.0000 9.1646 0.0000
# 3 -7.6124 -22.8580 65.1827 0.0000 9.9875 0.0000
# 4 0.0000 0.0000 0.0000 39.1977 0.0000 5.6348
# 5 3.9049 9.1646 9.9875 0.0000 39.2478 0.0000
# 6 0.0000 0.0000 0.0000 5.6348 0.0000 29.4217
#
#
#
# Elastic Compliance Matrix: (Units=1/GPa)
#
#
# Indices 1 2 3 4 5 6 
#
# 1 0.027714 -0.005859 0.001452 0.000000 -0.001759 0.000000
# 2 -0.005859 0.012651 0.004283 0.000000 -0.003461 0.000000
# 3 0.001452 0.004283 0.017886 0.000000 -0.005696 0.000000
# 4 0.000000 0.000000 0.000000 0.026234 0.000000 -0.005024
# 5 -0.001759 -0.003461 -0.005696 0.000000 0.027912 0.000000
# 6 0.000000 0.000000 0.000000 -0.005024 0.000000 0.034951
#
#
# Mechanical properties :
#
#
# Convention : Reuss Voigt Hill
#
# Bulk Modulus (GPa) = 17.24080 21.27707 19.25893
# Shear Modulus (GPa) = 29.95270 35.85471 32.90371
#
# Velocity S-wave (km/s) = 3.74477 4.09713 3.92490
# Velocity P-wave (km/s) = 5.17393 5.68713 5.43659
#
# Compressibility (1/GPa) = 0.05800196
#
# Stress axis : x y z
#
# Youngs Moduli (GPa) = 36.08276 79.04445 55.91111
#
# Poissons Ratio (x) = 0.46309 -0.08116
# Poissons Ratio (y) = 0.21139 -0.23944
# Poissons Ratio (z) = -0.05238 -0.33851
#
# Static dielectric constant tensor:
#      x y z
#    x 1.762160 0.000000 0.017390 
#    y 0.000000 1.725110 0.000000 
#    z 0.017390 0.000000 1.778210 
# 
# From -- ./inp_files/33579.got.cif
#   From: 2010.05.17/outbox.cif.g08.bks.cpg/sg11_17_cif.got.tgz:33579.got - 2010.06.03 12:22:45.
