data_PCOD9167051
_publ_section_title
;
Structure prediction by ZEFSAII (Michael W. Deem and Ramdas Pophale) SiO2 
 PCOD9167051
Probable space group: P 21/M
;
_chemical_formula_sum "Si O2"
_cell_formula_units_Z 26
_cell_length_a 9.472802
_cell_length_b 7.493368
_cell_length_c 14.306474
_cell_angle_alpha 90.000000
_cell_angle_beta 73.017469
_cell_angle_gamma 90.000000
_cell_volume 971.236303
_symmetry_space_group_name_H-M "P 21/M"
_symmetry_group_IT_number 11
_symmetry_cell_setting 'monoclinic'
loop_
_space_group_symop_operation_xyz
x,y,z
-x,1/2+y,-z
-x,-y,-z
x,1/2-y,z
loop_
_atom_site_type_symbol
_atom_site_label
_atom_site_fract_x
_atom_site_fract_y
_atom_site_fract_z
Si Si1 0.479288 0.964765 0.128694
Si Si2 0.214121 0.046413 0.998953
Si Si3 0.445483 0.035744 0.671757
Si Si4 0.028203 0.250000 0.905275
Si Si5 0.174407 0.543449 0.246159
Si Si6 0.128771 0.545214 0.655860
Si Si7 0.762015 0.031874 0.558018
O O1 0.488024 0.750000 0.116604
O O2 0.618471 0.025829 0.040468
O O3 0.519758 0.011176 0.228022
O O4 0.308578 0.029381 0.157534
O O5 0.192694 0.250000 0.040859
O O6 0.103405 0.903864 0.062398
O O7 0.155232 0.092889 0.904338
O O8 0.437002 0.250000 0.668339
O O9 0.589883 0.979787 0.584968
O O10 0.291023 0.964115 0.666644
O O11 0.215915 0.750000 0.246888
O O12 0.185376 0.471082 0.350125
O O13 0.000053 0.545282 0.259602
O O14 0.083482 0.750000 0.660185
O O15 0.145290 0.466740 0.548221
O O16 0.768256 0.250000 0.553326
#
# Coordination Sequence:
#
# PCOD9167051 Si02
#       7
#     4   4   4   2   4   4   4
#     4   8  15  29  48  64  88 116 146 185 217 256
#     4   8  13  25  41  66  98 121 143 178 223 264
#     4   9  17  31  47  62  79 114 156 183 219 272
#     4   8  14  22  42  70  96 120 142 176 222 268
#     4   9  17  31  47  62  79 114 156 183 219 272
#     4  11  20  29  40  61  92 114 140 192 232 263
#     4   8  16  30  47  62  79 107 149 195 234 263
#
# _framework density 26.770005000000001
#
# number of rings (size 3 to 8) (size 9 to 14) (size 15 to 20)
#    0.462    2.769    0.000    3.231    0.000    0.000 
#    2.769    3.846    0.000    0.000    0.000    0.000 
#    0.000    7.385    0.000    0.462    0.000    0.000 
#
# Total GULP energy -144816.475495 kJ/mol
# GULP energy per Si atom -5569.864442 kJ/mol
# Density = 2.670908 g / cm^3
# Si number density = 26.770005 Si / 1000 Ang^3
#
#
#
# Elastic Constant Matrix: (Units=GPa)
#
#
# Indices 1 2 3 4 5 6 
#
# 1 162.4335 4.4539 27.4553 0.0000 -46.0971 0.0000
# 2 4.4539 90.6245 7.8404 0.0000 -8.7699 0.0000
# 3 27.4553 7.8404 140.7771 0.0000 -43.1316 0.0000
# 4 0.0000 0.0000 0.0000 -3.0093 0.0000 8.6560
# 5 -46.0971 -8.7699 -43.1316 0.0000 55.4923 0.0000
# 6 0.0000 0.0000 0.0000 8.6560 0.0000 36.3228
#
#
#
# Elastic Compliance Matrix: (Units=1/GPa)
#
#
# Indices 1 2 3 4 5 6 
#
# 1 0.008104 0.000250 0.000630 0.000000 0.007261 0.000000
# 2 0.000250 0.011215 -0.000088 0.000000 0.001912 0.000000
# 3 0.000630 -0.000088 0.009374 0.000000 0.007796 0.000000
# 4 0.000000 0.000000 0.000000 -0.197157 0.000000 0.046984
# 5 0.007261 0.001912 0.007796 0.000000 0.030413 0.000000
# 6 0.000000 0.000000 0.000000 0.046984 0.000000 0.016334
#
#
# Mechanical properties :
#
#
# Convention : Reuss Voigt Hill
#
# Bulk Modulus (GPa) = 33.02785 52.59270 42.81027
# Shear Modulus (GPa) = -44.16592 41.36686 -1.39953
#
# Velocity S-wave (km/s) = -4.06621 3.93526 -0.72383
# Velocity P-wave (km/s) = 3.11144 6.35115 3.91510
#
# Compressibility (1/GPa) = 0.03027747
#
# Stress axis : x y z
#
# Youngs Moduli (GPa) = 123.40228 89.16743 106.68024
#
# Poissons Ratio (x) = -0.02228 -0.06724
# Poissons Ratio (y) = -0.03083 0.00934
# Poissons Ratio (z) = -0.07778 0.00781
#
# Static dielectric constant tensor:
#      x y z
#    x 2.179490 0.000000 0.134080 
#    y 0.000000 1.969580 0.000000 
#    z 0.134080 0.000000 2.201050 
# 
# From -- ./inp_files/63060.got.cif
#   From: 2010.05.17/outbox.cif.g08.bks.cpg/sg11_32_cif.got.tgz:63060.got - 2010.06.03 12:22:45.
