data_PCOD9167999
_publ_section_title
;
Structure prediction by ZEFSAII (Michael W. Deem and Ramdas Pophale) SiO2 
 PCOD9167999
Probable space group: P 21/M
;
_chemical_formula_sum "Si O2"
_cell_formula_units_Z 32
_cell_length_a 21.000000
_cell_length_b 9.000000
_cell_length_c 27.000000
_cell_angle_alpha 90.000000
_cell_angle_beta 20.000000
_cell_angle_gamma 90.000000
_cell_volume 1745.328791
_symmetry_space_group_name_H-M "P 21/M"
_symmetry_group_IT_number 11
_symmetry_cell_setting 'monoclinic'
loop_
_space_group_symop_operation_xyz
x,y,z
-x,1/2+y,-z
-x,-y,-z
x,1/2-y,z
loop_
_atom_site_type_symbol
_atom_site_label
_atom_site_fract_x
_atom_site_fract_y
_atom_site_fract_z
Si Si1 0.009514 0.084629 0.197198
Si Si2 0.025348 0.074721 0.929188
Si Si3 0.698503 0.428155 0.846110
Si Si4 0.283644 0.424360 0.910851
Si Si5 0.296361 0.927409 0.411707
Si Si6 0.032179 0.077673 0.675225
Si Si7 0.309619 0.578057 0.652941
Si Si8 0.970314 0.571774 0.574231
O O1 0.004125 0.250000 0.224238
O O2 0.838688 0.074858 0.283695
O O3 0.994623 0.959261 0.248440
O O4 0.198681 0.071059 0.027794
O O5 0.035077 0.250000 0.925479
O O6 0.210232 0.009775 0.769316
O O7 0.000000 0.000000 0.000000
O O8 0.851710 0.023108 0.023001
O O9 0.685896 0.250000 0.851869
O O10 0.845739 0.467528 0.781906
O O11 0.790441 0.499104 0.730536
O O12 0.500000 0.500000 0.000000
O O13 0.268964 0.250000 0.905820
O O14 0.495041 0.475247 0.752331
O O15 0.298339 0.750000 0.412924
O O16 0.148436 0.969412 0.477720
O O17 0.210113 0.991206 0.524651
O O18 0.061091 0.250000 0.644463
O O19 0.500000 0.500000 0.500000
O O20 0.338677 0.750000 0.644913
O O21 0.955014 0.750000 0.583801
O O22 0.000000 0.500000 0.500000
#
# Coordination Sequence:
#
# PCOD9167999 Si02
#       8
#     4   4   4   4   4   4   4   4
#     4   9  19  35  55  78 107 141 175 213 262 316
#     4  11  22  37  57  81 109 143 180 222 269 318
#     4  10  21  37  55  78 107 141 180 225 271 318
#     4   9  19  37  57  79 106 137 177 223 265 315
#     4   9  19  36  57  78 105 141 178 215 264 320
#     4  10  21  35  53  79 109 138 175 220 264 311
#     4  10  21  38  58  82 110 142 180 222 266 317
#     4  10  20  35  55  81 110 143 180 220 266 319
#
# _framework density 18.334654
#
# number of rings (size 3 to 8) (size 9 to 14) (size 15 to 20)
#    0.000    2.250    0.000    3.375    0.000    7.000 
#    0.000    2.500    0.000    0.000    0.000    0.000 
#    0.000    0.000    0.000    0.000    0.000    0.000 
#
# Total GULP energy -178474.579164 kJ/mol
# GULP energy per Si atom -5577.330599 kJ/mol
# Density = 1.829292 g / cm^3
# Si number density = 18.334654 Si / 1000 Ang^3
#
#
#
# Elastic Constant Matrix: (Units=GPa)
#
#
# Indices 1 2 3 4 5 6 
#
# 1 33.6571 33.1456 43.5834 0.0000 23.2835 0.0000
# 2 33.1456 67.6555 64.7981 0.0000 7.3847 0.0000
# 3 43.5834 64.7981 182.6801 0.0000 2.4543 0.0000
# 4 0.0000 0.0000 0.0000 26.3195 0.0000 3.0621
# 5 23.2835 7.3847 2.4543 0.0000 11.0916 0.0000
# 6 0.0000 0.0000 0.0000 3.0621 0.0000 28.9162
#
#
#
# Elastic Compliance Matrix: (Units=1/GPa)
#
#
# Indices 1 2 3 4 5 6 
#
# 1 -0.042044 0.004444 0.007330 0.000000 0.083678 0.000000
# 2 0.004444 0.024020 -0.009268 0.000000 -0.023270 0.000000
# 3 0.007330 -0.009268 0.007158 0.000000 -0.010801 0.000000
# 4 0.000000 0.000000 0.000000 0.038469 0.000000 -0.004074
# 5 0.083678 -0.023270 -0.010801 0.000000 -0.067615 0.000000
# 6 0.000000 0.000000 0.000000 -0.004074 0.000000 0.035014
#
#
# Mechanical properties :
#
#
# Convention : Reuss Voigt Hill
#
# Bulk Modulus (GPa) = -170.83683 63.00521 -53.91581
# Shear Modulus (GPa) = -417.95246 22.76319 -197.59463
#
# Velocity S-wave (km/s) = -15.11465 3.52737 -10.39255
# Velocity P-wave (km/s) = 19.94950 7.14342 13.17107
#
# Compressibility (1/GPa) = -0.00585354
#
# Stress axis : x y z
#
# Youngs Moduli (GPa) = -23.78461 41.63250 139.71159
#
# Poissons Ratio (x) = -0.18501 -1.02412
# Poissons Ratio (y) = 0.10570 1.29478
# Poissons Ratio (z) = 0.17435 0.38583
#
# Static dielectric constant tensor:
#      x y z
#    x 1.629720 0.000000 -0.003750 
#    y 0.000000 1.597810 0.000000 
#    z -0.003750 0.000000 1.597330 
# 
# From -- ./inp_files/72112.got.cif
#   From: 2010.05.17/outbox.ucp.g08.bks.cvg/sg11_37_cif.got.tgz:72112.got - 2010.06.11 11:38:39.
