data_PCOD9167984
_publ_section_title
;
Structure prediction by ZEFSAII (Michael W. Deem and Ramdas Pophale) SiO2 
 PCOD9167984
Probable space group: P 21/M
;
_chemical_formula_sum "Si O2"
_cell_formula_units_Z 28
_cell_length_a 21.000000
_cell_length_b 9.000000
_cell_length_c 15.000000
_cell_angle_alpha 90.000000
_cell_angle_beta 30.000000
_cell_angle_gamma 90.000000
_cell_volume 1417.500000
_symmetry_space_group_name_H-M "P 21/M"
_symmetry_group_IT_number 11
_symmetry_cell_setting 'monoclinic'
loop_
_space_group_symop_operation_xyz
x,y,z
-x,1/2+y,-z
-x,-y,-z
x,1/2-y,z
loop_
_atom_site_type_symbol
_atom_site_label
_atom_site_fract_x
_atom_site_fract_y
_atom_site_fract_z
Si Si1 0.042285 0.570533 0.855720
Si Si2 0.492202 0.413508 0.133288
Si Si3 0.841417 0.929156 0.941888
Si Si4 0.450715 0.430014 0.651418
Si Si5 0.667289 0.072910 0.529989
Si Si6 0.699916 0.585858 0.796777
Si Si7 0.984809 0.927808 0.421416
O O1 0.044925 0.750000 0.860201
O O2 0.186773 0.518389 0.656722
O O3 0.935791 0.534459 0.910385
O O4 0.000000 0.500000 0.000000
O O5 0.496235 0.250000 0.170357
O O6 0.403939 0.524225 0.294814
O O7 0.412660 0.399357 0.138442
O O8 0.635442 0.473061 0.944303
O O9 0.840974 0.750000 0.930838
O O10 0.693696 0.973796 0.142074
O O11 0.913640 0.001548 0.769790
O O12 0.500000 0.500000 0.500000
O O13 0.448184 0.250000 0.647729
O O14 0.563934 0.474122 0.581587
O O15 0.675641 0.250000 0.516435
O O16 0.720623 0.750000 0.813040
O O17 0.832937 0.543747 0.588100
O O18 0.002739 0.750000 0.400943
O O19 0.000000 0.000000 0.500000
#
# Coordination Sequence:
#
# PCOD9167984 Si02
#       7
#     4   4   4   4   4   4   4
#     4  10  21  37  60  87 116 151 195 244 298 356
#     4  10  20  34  57  86 110 142 189 236 280 338
#     4  10  22  40  60  86 120 158 197 244 299 355
#     4  10  22  39  59  83 115 152 190 235 292 349
#     4  10  21  36  55  81 113 148 184 229 290 347
#     4   9  20  38  56  78 114 151 184 231 290 338
#     4  11  24  40  60  85 117 159 203 246 294 353
#
# _framework density 19.753086
#
# number of rings (size 3 to 8) (size 9 to 14) (size 15 to 20)
#    0.000    2.000    0.000    2.571    2.000    4.000 
#    0.000    0.000    0.000    0.000    0.000    0.000 
#    0.000    0.000    0.000    0.000    0.000    0.000 
#
# Total GULP energy -156063.244457 kJ/mol
# GULP energy per Si atom -5573.687302 kJ/mol
# Density = 1.970813 g / cm^3
# Si number density = 19.753086 Si / 1000 Ang^3
#
#
#
# Elastic Constant Matrix: (Units=GPa)
#
#
# Indices 1 2 3 4 5 6 
#
# 1 58.2268 27.8662 28.4533 0.0000 0.2121 0.0000
# 2 27.8662 -0.8996 25.5912 0.0000 -6.4071 0.0000
# 3 28.4533 25.5912 160.1421 0.0000 -12.2088 0.0000
# 4 0.0000 0.0000 0.0000 38.6393 0.0000 10.8263
# 5 0.2121 -6.4071 -12.2088 0.0000 34.6390 0.0000
# 6 0.0000 0.0000 0.0000 10.8263 0.0000 17.1045
#
#
#
# Elastic Compliance Matrix: (Units=1/GPa)
#
#
# Indices 1 2 3 4 5 6 
#
# 1 0.006530 0.027667 -0.005338 0.000000 0.003196 0.000000
# 2 0.027667 -0.062047 0.004225 0.000000 -0.010157 0.000000
# 3 -0.005338 0.004225 0.006761 0.000000 0.003197 0.000000
# 4 0.000000 0.000000 0.000000 0.031460 0.000000 -0.019912
# 5 0.003196 -0.010157 0.003197 0.000000 0.028098 0.000000
# 6 0.000000 0.000000 0.000000 -0.019912 0.000000 0.071068
#
#
# Mechanical properties :
#
#
# Convention : Reuss Voigt Hill
#
# Bulk Modulus (GPa) = 229.73216 42.36565 136.04891
# Shear Modulus (GPa) = 165.49950 27.11378 96.30664
#
# Velocity S-wave (km/s) = 9.16330 3.70893 6.99007
# Velocity P-wave (km/s) = 15.11652 6.31155 11.58328
#
# Compressibility (1/GPa) = 0.00435290
#
# Stress axis : x y z
#
# Youngs Moduli (GPa) = 153.13624 -16.11672 147.89843
#
# Poissons Ratio (x) = 0.44590 0.78946
# Poissons Ratio (y) = -4.23681 -0.62491
# Poissons Ratio (z) = 0.81742 0.06810
#
# Static dielectric constant tensor:
#      x y z
#    x 1.826310 0.000000 0.015500 
#    y 0.000000 1.704970 0.000000 
#    z 0.015500 0.000000 1.681590 
# 
# From -- ./inp_files/38419.got.cif
#   From: 2010.05.17/outbox.ucp.g08.bks.cvg/sg11_20_cif.got.tgz:38419.got - 2010.06.11 11:38:39.
