data_PCOD9167323
_publ_section_title
;
Structure prediction by ZEFSAII (Michael W. Deem and Ramdas Pophale) SiO2 
 PCOD9167323
Probable space group: P 21/M
;
_chemical_formula_sum "Si O2"
_cell_formula_units_Z 26
_cell_length_a 11.534083
_cell_length_b 14.999398
_cell_length_c 8.354910
_cell_angle_alpha 90.000000
_cell_angle_beta 72.088570
_cell_angle_gamma 90.000000
_cell_volume 1375.379554
_symmetry_space_group_name_H-M "P 21/M"
_symmetry_group_IT_number 11
_symmetry_cell_setting 'monoclinic'
loop_
_space_group_symop_operation_xyz
x,y,z
-x,1/2+y,-z
-x,-y,-z
x,1/2-y,z
loop_
_atom_site_type_symbol
_atom_site_label
_atom_site_fract_x
_atom_site_fract_y
_atom_site_fract_z
Si Si1 0.777473 0.356167 0.828360
Si Si2 0.418915 0.961682 0.892394
Si Si3 0.994145 0.895606 0.052474
Si Si4 0.265878 0.078731 0.717967
Si Si5 0.739883 0.096577 0.485080
Si Si6 0.101035 0.750000 0.759901
Si Si7 0.488405 0.148517 0.435456
O O1 0.767699 0.250000 0.811201
O O2 0.907365 0.379336 0.849739
O O3 0.758890 0.403494 0.666436
O O4 0.675279 0.389767 0.995866
O O5 0.501238 0.915743 0.721537
O O6 0.337899 0.036092 0.837850
O O7 0.500000 0.000000 0.000000
O O8 0.857874 0.877080 0.171044
O O9 0.033012 0.828771 0.895403
O O10 0.000000 0.000000 0.000000
O O11 0.361933 0.138118 0.581035
O O12 0.233547 0.996395 0.614133
O O13 0.823045 0.172413 0.371371
O O14 0.599397 0.119776 0.503593
O O15 0.508731 0.250000 0.376336
#
# Coordination Sequence:
#
# PCOD9167323 Si02
#       7
#     4   4   4   4   4   2   4
#     4  12  23  38  68  99 124 166 225 269 313 396
#     4  11  22  40  67  95 130 167 221 269 328 392
#     4  12  24  43  66  95 128 177 219 265 324 388
#     4  11  24  42  63  92 134 174 209 267 335 388
#     4  11  22  42  67  97 125 165 221 271 325 387
#     4  12  22  42  66  88 128 170 222 264 316 394
#     4  11  22  39  66  95 132 170 209 268 337 390
#
# _framework density 18.903873000000001
#
# number of rings (size 3 to 8) (size 9 to 14) (size 15 to 20)
#    0.000    0.615    5.385    5.077    1.077    0.615 
#    0.000    0.769    3.385    0.000    0.000    0.000 
#    0.000    0.000    0.000    0.000    0.000    0.000 
#
# Total GULP energy -144832.623574 kJ/mol
# GULP energy per Si atom -5570.485522 kJ/mol
# Density = 1.886085 g / cm^3
# Si number density = 18.903873 Si / 1000 Ang^3
#
#
#
# Elastic Constant Matrix: (Units=GPa)
#
#
# Indices 1 2 3 4 5 6 
#
# 1 60.2832 -7.8484 51.5054 0.0000 -0.7166 0.0000
# 2 -7.8484 43.5782 1.2368 0.0000 4.0413 0.0000
# 3 51.5054 1.2368 108.4816 0.0000 -19.9920 0.0000
# 4 0.0000 0.0000 0.0000 41.7677 0.0000 -14.0190
# 5 -0.7166 4.0413 -19.9920 0.0000 32.5576 0.0000
# 6 0.0000 0.0000 0.0000 -14.0190 0.0000 16.5902
#
#
#
# Elastic Compliance Matrix: (Units=1/GPa)
#
#
# Indices 1 2 3 4 5 6 
#
# 1 0.032304 0.007324 -0.017430 0.000000 -0.010901 0.000000
# 2 0.007324 0.024952 -0.004852 0.000000 -0.005915 0.000000
# 3 -0.017430 -0.004852 0.019834 0.000000 0.012397 0.000000
# 4 0.000000 0.000000 0.000000 0.033421 0.000000 0.028241
# 5 -0.010901 -0.005915 0.012397 0.000000 0.038822 0.000000
# 6 0.000000 0.000000 0.000000 0.028241 0.000000 0.084140
#
#
# Mechanical properties :
#
#
# Convention : Reuss Voigt Hill
#
# Bulk Modulus (GPa) = 21.19804 33.57008 27.38406
# Shear Modulus (GPa) = 17.91380 29.34640 23.63010
#
# Velocity S-wave (km/s) = 3.08169 3.94433 3.53939
# Velocity P-wave (km/s) = 4.88880 6.20810 5.58752
#
# Compressibility (1/GPa) = 0.04717416
#
# Stress axis : x y z
#
# Youngs Moduli (GPa) = 30.95562 40.07615 50.41925
#
# Poissons Ratio (x) = -0.29350 0.87881
# Poissons Ratio (y) = -0.22671 0.24462
# Poissons Ratio (z) = 0.53956 0.19444
#
# Static dielectric constant tensor:
#      x y z
#    x 1.641060 0.000000 -0.005890 
#    y 0.000000 1.651760 0.000000 
#    z -0.005890 0.000000 1.639290 
# 
# From -- ./inp_files/17643.got.cif
#   From: 2010.05.17/outbox.cif.g08.bks.cpg/sg11_9_cif.got.tgz:17643.got - 2010.06.03 12:22:45.
