data_PCOD9167879
_publ_section_title
;
Structure prediction by ZEFSAII (Michael W. Deem and Ramdas Pophale) SiO2 
 PCOD9167879
Probable space group: P 21/M
;
_chemical_formula_sum "Si O2"
_cell_formula_units_Z 24
_cell_length_a 15.000000
_cell_length_b 9.000000
_cell_length_c 9.000000
_cell_angle_alpha 90.000000
_cell_angle_beta 100.000000
_cell_angle_gamma 90.000000
_cell_volume 1196.541420
_symmetry_space_group_name_H-M "P 21/M"
_symmetry_group_IT_number 11
_symmetry_cell_setting 'monoclinic'
loop_
_space_group_symop_operation_xyz
x,y,z
-x,1/2+y,-z
-x,-y,-z
x,1/2-y,z
loop_
_atom_site_type_symbol
_atom_site_label
_atom_site_fract_x
_atom_site_fract_y
_atom_site_fract_z
Si Si1 0.746074 0.426808 0.406095
Si Si2 0.614088 0.572372 0.899568
Si Si3 0.113923 0.078892 0.745764
Si Si4 0.429732 0.427495 0.766202
Si Si5 0.823895 0.919204 0.902594
Si Si6 0.090383 0.926289 0.334699
O O1 0.733818 0.250000 0.416519
O O2 0.804750 0.472938 0.280298
O O3 0.647516 0.502442 0.362595
O O4 0.821022 0.480839 0.548641
O O5 0.602992 0.750000 0.878807
O O6 0.532014 0.492246 0.788299
O O7 0.717634 0.536366 0.885332
O O8 0.601188 0.539739 0.071943
O O9 0.126217 0.250000 0.692731
O O10 0.013703 0.022059 0.671254
O O11 0.127167 0.087447 0.925041
O O12 0.431224 0.250000 0.747043
O O13 0.825686 0.750000 0.841128
O O14 0.881245 0.031143 0.821670
O O15 0.086194 0.750000 0.357273
#
# Coordination Sequence:
#
# PCOD9167879 Si02
#       6
#     4   4   4   4   4   4
#     4  11  22  36  55  83 114 147 186 228 273 325
#     4   9  18  34  55  83 112 138 177 229 276 324
#     4  10  20  38  59  81 110 145 188 234 274 321
#     4  10  19  34  57  83 110 142 180 227 278 326
#     4  10  20  36  58  83 112 145 182 226 277 329
#     4  10  23  38  54  80 116 150 184 228 274 325
#
# _framework density 20.05781
#
# number of rings (size 3 to 8) (size 9 to 14) (size 15 to 20)
#    0.000    2.000    1.667    2.000    0.000    4.000 
#    0.000    0.833    0.000    0.000    0.000    0.000 
#    0.000    0.000    0.000    0.000    0.000    0.000 
#
# Total GULP energy -133744.333170 kJ/mol
# GULP energy per Si atom -5572.680549 kJ/mol
# Density = 2.001216 g / cm^3
# Si number density = 20.057810 Si / 1000 Ang^3
#
#
#
# Elastic Constant Matrix: (Units=GPa)
#
#
# Indices 1 2 3 4 5 6 
#
# 1 121.0803 20.0060 11.9816 0.0000 45.7226 0.0000
# 2 20.0060 14.1835 8.4959 0.0000 21.1435 0.0000
# 3 11.9816 8.4959 37.7369 0.0000 28.5845 0.0000
# 4 0.0000 0.0000 0.0000 19.5670 0.0000 5.4124
# 5 45.7226 21.1435 28.5845 0.0000 31.8649 0.0000
# 6 0.0000 0.0000 0.0000 5.4124 0.0000 0.8996
#
#
#
# Elastic Compliance Matrix: (Units=1/GPa)
#
#
# Indices 1 2 3 4 5 6 
#
# 1 0.007877 -0.031353 -0.008234 0.000000 0.016888 0.000000
# 2 -0.031353 0.012572 -0.064379 0.000000 0.094397 0.000000
# 3 -0.008234 -0.064379 0.007178 0.000000 0.048093 0.000000
# 4 0.000000 0.000000 0.000000 -0.076944 0.000000 0.462928
# 5 0.016888 0.094397 0.048093 0.000000 -0.098628 0.000000
# 6 0.000000 0.000000 0.000000 0.462928 0.000000 -1.673579
#
#
# Mechanical properties :
#
#
# Convention : Reuss Voigt Hill
#
# Bulk Modulus (GPa) = -5.54619 28.21865 11.33623
# Shear Modulus (GPa) = -2.98741 19.30076 8.15668
#
# Velocity S-wave (km/s) = -1.22173 3.10539 2.01877
# Velocity P-wave (km/s) = 2.18204 5.19203 3.33136
#
# Compressibility (1/GPa) = -0.18030393
#
# Stress axis : x y z
#
# Youngs Moduli (GPa) = 126.95072 79.53968 139.30687
#
# Poissons Ratio (x) = 2.49381 1.14708
# Poissons Ratio (y) = 3.98030 8.96838
# Poissons Ratio (z) = 1.04534 5.12065
#
# Static dielectric constant tensor:
#      x y z
#    x 1.691480 0.000000 -0.003400 
#    y 0.000000 1.773660 0.000000 
#    z -0.003400 0.000000 1.813820 
# 
# From -- ./inp_files/20415.got.cif
#   From: 2010.05.17/outbox.ucp.g08.bks.cvg/sg11_11_cif.got.tgz:20415.got - 2010.06.11 11:38:39.
