data_PCOD9167824
_publ_section_title
;
Structure prediction by ZEFSAII (Michael W. Deem and Ramdas Pophale) SiO2 
 PCOD9167824
Probable space group: P 21/M
;
_chemical_formula_sum "Si O2"
_cell_formula_units_Z 32
_cell_length_a 12.000000
_cell_length_b 9.000000
_cell_length_c 15.000000
_cell_angle_alpha 90.000000
_cell_angle_beta 90.000000
_cell_angle_gamma 90.000000
_cell_volume 1620.000000
_symmetry_space_group_name_H-M "P 21/M"
_symmetry_group_IT_number 11
_symmetry_cell_setting 'monoclinic'
loop_
_space_group_symop_operation_xyz
x,y,z
-x,1/2+y,-z
-x,-y,-z
x,1/2-y,z
loop_
_atom_site_type_symbol
_atom_site_label
_atom_site_fract_x
_atom_site_fract_y
_atom_site_fract_z
Si Si1 0.482292 0.427352 0.904717
Si Si2 0.324110 0.075131 0.453353
Si Si3 0.300500 0.578148 0.792792
Si Si4 0.559777 0.420572 0.386330
Si Si5 0.277884 0.571628 0.162977
Si Si6 0.055256 0.578045 0.742108
Si Si7 0.078767 0.078772 0.071268
Si Si8 0.145539 0.573518 0.343269
O O1 0.480722 0.250000 0.910147
O O2 0.366077 0.485025 0.865641
O O3 0.592867 0.470986 0.847675
O O4 0.500000 0.500000 0.000000
O O5 0.303969 0.250000 0.448170
O O6 0.429683 0.037121 0.389222
O O7 0.371044 0.026022 0.548684
O O8 0.212963 0.990168 0.426397
O O9 0.285151 0.750000 0.822607
O O10 0.383424 0.577361 0.708872
O O11 0.179764 0.521298 0.761443
O O12 0.565460 0.250000 0.421088
O O13 0.270874 0.750000 0.154865
O O14 0.197186 0.499717 0.088783
O O15 0.222297 0.530221 0.257532
O O16 0.065226 0.750000 0.713563
O O17 0.988766 0.573627 0.835524
O O18 0.977070 0.491552 0.673260
O O19 0.096458 0.250000 0.046635
O O20 0.000000 0.000000 0.000000
O O21 0.139856 0.750000 0.346987
#
# Coordination Sequence:
#
# PCOD9167824 Si02
#       8
#     4   4   4   4   4   4   4   4
#     4  11  24  39  56  80 110 144 183 226 274 329
#     4  10  19  32  55  85 116 144 178 225 272 322
#     4  10  21  39  60  80 110 147 182 223 276 331
#     4   9  19  35  56  84 113 146 183 221 269 327
#     4   9  20  37  54  75 105 139 178 224 271 320
#     4   9  20  37  55  77 106 143 181 223 274 326
#     4  10  20  33  53  78 104 136 177 225 274 322
#     4  10  19  34  57  82 108 141 182 228 273 320
#
# _framework density 19.753086
#
# number of rings (size 3 to 8) (size 9 to 14) (size 15 to 20)
#    0.000    2.250    0.000    2.250    1.750    3.500 
#    0.000    0.625    0.000    0.000    0.000    0.000 
#    0.000    0.000    0.000    0.000    0.000    0.000 
#
# Total GULP energy -178587.709089 kJ/mol
# GULP energy per Si atom -5580.865909 kJ/mol
# Density = 1.970813 g / cm^3
# Si number density = 19.753086 Si / 1000 Ang^3
#
#
#
# Elastic Constant Matrix: (Units=GPa)
#
#
# Indices 1 2 3 4 5 6 
#
# 1 115.2293 36.6618 20.3631 0.0000 38.5502 0.0000
# 2 36.6618 23.8462 21.2611 0.0000 17.0683 0.0000
# 3 20.3631 21.2611 27.2236 0.0000 19.5571 0.0000
# 4 0.0000 0.0000 0.0000 24.0310 0.0000 9.8332
# 5 38.5502 17.0683 19.5571 0.0000 34.0806 0.0000
# 6 0.0000 0.0000 0.0000 9.8332 0.0000 34.9236
#
#
#
# Elastic Compliance Matrix: (Units=1/GPa)
#
#
# Indices 1 2 3 4 5 6 
#
# 1 0.044462 -0.116888 0.088651 0.000000 -0.042625 0.000000
# 2 -0.116888 0.448515 -0.334262 0.000000 0.099406 0.000000
# 3 0.088651 -0.334262 0.311780 0.000000 -0.111785 0.000000
# 4 0.000000 0.000000 0.000000 0.047031 0.000000 -0.013242
# 5 -0.042625 0.099406 -0.111785 0.000000 0.091921 0.000000
# 6 0.000000 0.000000 0.000000 -0.013242 0.000000 0.032362
#
#
# Mechanical properties :
#
#
# Convention : Reuss Voigt Hill
#
# Bulk Modulus (GPa) = 12.53778 35.87458 24.20618
# Shear Modulus (GPa) = 2.89410 24.47459 13.68434
#
# Velocity S-wave (km/s) = 1.21174 3.52380 2.63491
# Velocity P-wave (km/s) = 2.88423 5.89552 4.64090
#
# Compressibility (1/GPa) = 0.07975896
#
# Stress axis : x y z
#
# Youngs Moduli (GPa) = 22.49115 2.22958 3.20739
#
# Poissons Ratio (x) = 0.26061 -0.28434
# Poissons Ratio (y) = 2.62894 1.07211
# Poissons Ratio (z) = -1.99387 0.74526
#
# Static dielectric constant tensor:
#      x y z
#    x 1.681560 0.000000 -0.016750 
#    y 0.000000 1.678340 0.000000 
#    z -0.016750 0.000000 1.712920 
# 
# From -- ./inp_files/42951.got.cif
#   From: 2010.05.17/outbox.ucp.g08.bks.cvg/sg11_22_cif.got.tgz:42951.got - 2010.06.11 11:38:39.
