data_PCOD9167747
_publ_section_title
;
Structure prediction by ZEFSAII (Michael W. Deem and Ramdas Pophale) SiO2 
 PCOD9167747
Probable space group: P 21/M
;
_chemical_formula_sum "Si O2"
_cell_formula_units_Z 32
_cell_length_a 21.000000
_cell_length_b 9.000000
_cell_length_c 27.000000
_cell_angle_alpha 90.000000
_cell_angle_beta 20.000000
_cell_angle_gamma 90.000000
_cell_volume 1745.328791
_symmetry_space_group_name_H-M "P 21/M"
_symmetry_group_IT_number 11
_symmetry_cell_setting 'monoclinic'
loop_
_space_group_symop_operation_xyz
x,y,z
-x,1/2+y,-z
-x,-y,-z
x,1/2-y,z
loop_
_atom_site_type_symbol
_atom_site_label
_atom_site_fract_x
_atom_site_fract_y
_atom_site_fract_z
Si Si1 0.933784 0.583889 0.774435
Si Si2 0.399647 0.576560 0.028106
Si Si3 0.896848 0.573783 0.501619
Si Si4 0.321415 0.572078 0.657376
Si Si5 0.239273 0.425347 0.290773
Si Si6 0.498910 0.421632 0.378395
Si Si7 0.693020 0.415172 0.563491
Si Si8 0.119505 0.421498 0.722918
O O1 0.865849 0.750000 0.832810
O O2 0.793898 0.496060 0.842601
O O3 0.129702 0.592325 0.602885
O O4 0.964992 0.497234 0.802322
O O5 0.378494 0.750000 0.052732
O O6 0.500000 0.500000 0.000000
O O7 0.544471 0.553080 0.877477
O O8 0.909078 0.750000 0.490410
O O9 0.813033 0.526767 0.615882
O O10 0.763827 0.515529 0.556202
O O11 0.104544 0.507120 0.350555
O O12 0.500000 0.500000 0.500000
O O13 0.333661 0.750000 0.644485
O O14 0.339517 0.531809 0.701757
O O15 0.152268 0.508986 0.749593
O O16 0.199681 0.250000 0.314703
O O17 0.522634 0.250000 0.347201
O O18 0.469109 0.518224 0.351779
O O19 0.309797 0.428295 0.550423
O O20 0.650280 0.250000 0.612362
O O21 0.081964 0.250000 0.759781
#
# Coordination Sequence:
#
# PCOD9167747 Si02
#       8
#     4   4   4   4   4   4   4   4
#     4  10  20  32  45  64  91 121 153 187 224 266
#     4  11  22  35  50  68  92 119 149 184 223 266
#     4  10  19  32  51  69  87 114 147 183 223 267
#     4   9  15  23  36  55  81 114 150 186 222 262
#     4   9  20  36  50  67  90 115 145 183 224 265
#     4   8  15  25  37  56  83 115 150 183 216 261
#     4  10  19  29  43  64  91 120 149 185 225 263
#     4   9  16  26  40  58  82 115 152 186 222 264
#
# _framework density 18.334654
#
# number of rings (size 3 to 8) (size 9 to 14) (size 15 to 20)
#    0.000    2.500    0.000    3.750    0.000    9.500 
#    0.000    0.000    0.000    0.000    0.000    0.000 
#    0.000    1.000    0.000    3.000    0.000    4.500 
#
# Total GULP energy -178213.217553 kJ/mol
# GULP energy per Si atom -5569.163049 kJ/mol
# Density = 1.829292 g / cm^3
# Si number density = 18.334654 Si / 1000 Ang^3
#
#
#
# Elastic Constant Matrix: (Units=GPa)
#
#
# Indices 1 2 3 4 5 6 
#
# 1 90.0643 28.2001 26.0598 0.0000 -0.6126 0.0000
# 2 28.2001 32.8324 27.1623 0.0000 9.3541 0.0000
# 3 26.0598 27.1623 -5.1248 0.0000 -12.0031 0.0000
# 4 0.0000 0.0000 0.0000 7.2415 0.0000 -1.5450
# 5 -0.6126 9.3541 -12.0031 0.0000 -1.4715 0.0000
# 6 0.0000 0.0000 0.0000 -1.5450 0.0000 27.9294
#
#
#
# Elastic Compliance Matrix: (Units=1/GPa)
#
#
# Indices 1 2 3 4 5 6 
#
# 1 0.018228 -0.011209 -0.012038 0.000000 0.019348 0.000000
# 2 -0.011209 0.021983 0.015394 0.000000 0.018837 0.000000
# 3 -0.012038 0.015394 0.022960 0.000000 -0.084414 0.000000
# 4 0.000000 0.000000 0.000000 0.139743 0.000000 0.007730
# 5 0.019348 0.018837 -0.084414 0.000000 0.120674 0.000000
# 6 0.000000 0.000000 0.000000 0.007730 0.000000 0.036232
#
#
# Mechanical properties :
#
#
# Convention : Reuss Voigt Hill
#
# Bulk Modulus (GPa) = 21.06805 31.17960 26.12383
# Shear Modulus (GPa) = 12.77639 9.16317 10.96978
#
# Velocity S-wave (km/s) = 2.64264 2.23799 2.44869
# Velocity P-wave (km/s) = 4.56368 4.87041 4.71954
#
# Compressibility (1/GPa) = 0.04746523
#
# Stress axis : x y z
#
# Youngs Moduli (GPa) = 54.86192 45.48987 43.55371
#
# Poissons Ratio (x) = 0.50991 0.52429
# Poissons Ratio (y) = 0.61496 -0.67048
# Poissons Ratio (z) = 0.66041 -0.70028
#
# Static dielectric constant tensor:
#      x y z
#    x 1.649880 0.000000 -0.001970 
#    y 0.000000 1.626180 0.000000 
#    z -0.001970 0.000000 1.659380 
# 
# From -- ./inp_files/72076.got.cif
#   From: 2010.05.17/outbox.ucp.g08.bks.cvg/sg11_37_cif.got.tgz:72076.got - 2010.06.11 11:38:39.
