data_PCOD9167303
_publ_section_title
;
Structure prediction by ZEFSAII (Michael W. Deem and Ramdas Pophale) SiO2 
 PCOD9167303
Probable space group: P 21/M
;
_chemical_formula_sum "Si O2"
_cell_formula_units_Z 20
_cell_length_a 8.943685
_cell_length_b 13.597610
_cell_length_c 12.046156
_cell_angle_alpha 90.000000
_cell_angle_beta 146.143799
_cell_angle_gamma 90.000000
_cell_volume 816.147899
_symmetry_space_group_name_H-M "P 21/M"
_symmetry_group_IT_number 11
_symmetry_cell_setting 'monoclinic'
loop_
_space_group_symop_operation_xyz
x,y,z
-x,1/2+y,-z
-x,-y,-z
x,1/2-y,z
loop_
_atom_site_type_symbol
_atom_site_label
_atom_site_fract_x
_atom_site_fract_y
_atom_site_fract_z
Si Si1 0.113644 0.072100 0.746751
Si Si2 0.402836 0.639383 0.673829
Si Si3 0.283883 0.640052 0.912449
Si Si4 0.649282 0.361854 0.607914
Si Si5 0.715976 0.459942 0.864582
O O1 0.911929 0.113529 0.528286
O O2 0.945601 0.104376 0.752191
O O3 0.141087 0.954007 0.767813
O O4 0.399375 0.123699 0.913421
O O5 0.448409 0.750000 0.742448
O O6 0.499885 0.635998 0.603109
O O7 0.550718 0.548207 0.819268
O O8 0.198246 0.750000 0.827325
O O9 0.245528 0.623738 0.020618
O O10 0.659068 0.250000 0.650595
O O11 0.559229 0.424318 0.657423
O O12 0.000000 0.500000 0.000000
#
# Coordination Sequence:
#
# PCOD9167303 Si02
#       5
#     4   4   4   4   4
#     4   9  20  42  61  83 114 156 200 237 288 358
#     4   9  20  39  62  81 114 161 198 236 291 352
#     4  11  22  38  62  89 121 152 192 249 294 340
#     4   9  18  37  59  80 113 155 193 234 291 349
#     4  12  22  36  53  92 121 148 195 248 291 344
#
# _framework density 24.505362999999999
#
# number of rings (size 3 to 8) (size 9 to 14) (size 15 to 20)
#    1.200    0.800    2.000    2.400    0.000    2.400 
#    0.000    3.000    0.000    0.000    0.000    0.000 
#    0.000    0.000    0.000    0.000    0.000    0.000 
#
# Total GULP energy -111703.342628 kJ/mol
# GULP energy per Si atom -5585.167131 kJ/mol
# Density = 2.444959 g / cm^3
# Si number density = 24.505363 Si / 1000 Ang^3
#
#
#
# Elastic Constant Matrix: (Units=GPa)
#
#
# Indices 1 2 3 4 5 6 
#
# 1 57.1400 1.0390 -0.6216 0.0000 -18.3430 0.0000
# 2 1.0390 198.1836 -2.9550 0.0000 6.9525 0.0000
# 3 -0.6216 -2.9550 19.9622 0.0000 -6.2097 0.0000
# 4 0.0000 0.0000 0.0000 23.6004 0.0000 1.6327
# 5 -18.3430 6.9525 -6.2097 0.0000 43.9623 0.0000
# 6 0.0000 0.0000 0.0000 1.6327 0.0000 22.3706
#
#
#
# Elastic Compliance Matrix: (Units=1/GPa)
#
#
# Indices 1 2 3 4 5 6 
#
# 1 0.020458 -0.000375 0.003405 0.000000 0.009076 0.000000
# 2 -0.000375 0.005086 0.000463 0.000000 -0.000895 0.000000
# 3 0.003405 0.000463 0.053018 0.000000 0.008836 0.000000
# 4 0.000000 0.000000 0.000000 0.042587 0.000000 -0.003108
# 5 0.009076 -0.000895 0.008836 0.000000 0.027924 0.000000
# 6 0.000000 0.000000 0.000000 -0.003108 0.000000 0.044928
#
#
# Mechanical properties :
#
#
# Convention : Reuss Voigt Hill
#
# Bulk Modulus (GPa) = 11.68938 30.02343 20.85641
# Shear Modulus (GPa) = 23.19843 36.50825 29.85334
#
# Velocity S-wave (km/s) = 3.08013 3.86399 3.49411
# Velocity P-wave (km/s) = 4.17494 5.67323 4.98075
#
# Compressibility (1/GPa) = 0.08554776
#
# Stress axis : x y z
#
# Youngs Moduli (GPa) = 48.87965 196.61421 18.86157
#
# Poissons Ratio (x) = 0.07371 -0.06422
# Poissons Ratio (y) = 0.01833 -0.00873
# Poissons Ratio (z) = -0.16643 -0.09097
#
# Static dielectric constant tensor:
#      x y z
#    x 1.920960 0.000000 -0.058010 
#    y 0.000000 1.924650 0.000000 
#    z -0.058010 0.000000 2.009090 
# 
# From -- ./inp_files/31589.got.cif
#   From: 2010.05.17/outbox.cif.g08.bks.cpg/sg11_16_cif.got.tgz:31589.got - 2010.06.03 12:22:45.
