data_PCOD9167535
_publ_section_title
;
Structure prediction by ZEFSAII (Michael W. Deem and Ramdas Pophale) SiO2 
 PCOD9167535
Probable space group: P 21/M
;
_chemical_formula_sum "Si O2"
_cell_formula_units_Z 32
_cell_length_a 7.952790
_cell_length_b 27.896582
_cell_length_c 11.692593
_cell_angle_alpha 90.000000
_cell_angle_beta 143.733975
_cell_angle_gamma 90.000000
_cell_volume 1534.482430
_symmetry_space_group_name_H-M "P 21/M"
_symmetry_group_IT_number 11
_symmetry_cell_setting 'monoclinic'
loop_
_space_group_symop_operation_xyz
x,y,z
-x,1/2+y,-z
-x,-y,-z
x,1/2-y,z
loop_
_atom_site_type_symbol
_atom_site_label
_atom_site_fract_x
_atom_site_fract_y
_atom_site_fract_z
Si Si1 0.294036 0.864802 0.523332
Si Si2 0.293435 0.954358 0.372815
Si Si3 0.641530 0.978580 0.963728
Si Si4 0.326167 0.644317 0.989996
Si Si5 0.154085 0.306053 0.132972
Si Si6 0.440782 0.065764 0.708903
Si Si7 0.831981 0.693848 0.132741
Si Si8 0.163690 0.903642 0.680088
O O1 0.300216 0.919978 0.486202
O O2 0.597631 0.839868 0.683988
O O3 0.180466 0.863631 0.591185
O O4 0.080428 0.836825 0.325138
O O5 0.407504 0.923768 0.327837
O O6 0.972027 0.970091 0.168631
O O7 0.500000 0.000000 0.500000
O O8 0.465752 0.930598 0.842351
O O9 0.500000 0.000000 0.000000
O O10 0.576164 0.016595 0.828878
O O11 0.133047 0.616217 0.791313
O O12 0.137034 0.676880 0.968668
O O13 0.492619 0.605796 0.159452
O O14 0.543908 0.674406 0.032163
O O15 0.206827 0.250000 0.186869
O O16 0.157238 0.312055 0.997778
O O17 0.104499 0.063282 0.499704
O O18 0.865224 0.750000 0.176694
#
# Coordination Sequence:
#
# PCOD9167535 Si02
#       8
#     4   4   4   4   4   4   4   4
#     4  12  24  45  72  99 142 184 234 289 362 420
#     4  12  27  44  69 106 143 192 239 300 352 425
#     4  12  24  43  67  96 141 186 242 285 348 413
#     4  12  24  44  72 104 139 182 235 290 359 423
#     4  11  26  45  72 104 137 183 233 292 358 430
#     4  12  25  43  67  98 144 185 238 293 349 419
#     4  11  24  48  73 102 140 182 233 295 361 428
#     4  12  24  43  69 102 137 190 231 293 349 420
#
# _framework density 20.853937999999999
#
# number of rings (size 3 to 8) (size 9 to 14) (size 15 to 20)
#    0.000    0.250    3.750    6.000    3.500    0.000 
#    0.000    0.000    0.000    0.000    0.000    0.000 
#    0.000    0.000    0.000    0.000    0.000    0.000 
#
# Total GULP energy -179121.690661 kJ/mol
# GULP energy per Si atom -5597.552833 kJ/mol
# Density = 2.080647 g / cm^3
# Si number density = 20.853938 Si / 1000 Ang^3
#
#
#
# Elastic Constant Matrix: (Units=GPa)
#
#
# Indices 1 2 3 4 5 6 
#
# 1 111.5521 27.2616 39.7975 0.0000 4.5707 0.0000
# 2 27.2616 94.4536 54.0077 0.0000 9.6707 0.0000
# 3 39.7975 54.0077 124.9672 0.0000 20.6577 0.0000
# 4 0.0000 0.0000 0.0000 169.7004 0.0000 -19.4579
# 5 4.5707 9.6707 20.6577 0.0000 35.6499 0.0000
# 6 0.0000 0.0000 0.0000 -19.4579 0.0000 38.1656
#
#
#
# Elastic Compliance Matrix: (Units=1/GPa)
#
#
# Indices 1 2 3 4 5 6 
#
# 1 0.010276 -0.001461 -0.002752 0.000000 0.000674 0.000000
# 2 -0.001461 0.014273 -0.005634 0.000000 -0.000420 0.000000
# 3 -0.002752 -0.005634 0.012168 0.000000 -0.005170 0.000000
# 4 0.000000 0.000000 0.000000 0.006259 0.000000 0.003191
# 5 0.000674 -0.000420 -0.005170 0.000000 0.031074 0.000000
# 6 0.000000 0.000000 0.000000 0.003191 0.000000 0.027828
#
#
# Mechanical properties :
#
#
# Convention : Reuss Voigt Hill
#
# Bulk Modulus (GPa) = 58.74564 63.67848 61.21206
# Shear Modulus (GPa) = 39.29376 62.69692 50.99534
#
# Velocity S-wave (km/s) = 4.34549 5.48908 4.95042
# Velocity P-wave (km/s) = 7.30814 8.41280 7.87985
#
# Compressibility (1/GPa) = 0.01702254
#
# Stress axis : x y z
#
# Youngs Moduli (GPa) = 97.31579 70.06099 82.18259
#
# Poissons Ratio (x) = 0.10236 0.22620
# Poissons Ratio (y) = 0.14218 0.46300
# Poissons Ratio (z) = 0.26786 0.39471
#
# Static dielectric constant tensor:
#      x y z
#    x 1.756180 0.000000 -0.018200 
#    y 0.000000 1.715930 0.000000 
#    z -0.018200 0.000000 1.741260 
# 
# From -- ./inp_files/33227.got.cif
#   From: 2010.05.17/outbox.cif.g08.bks.cpg/sg11_17_cif.got.tgz:33227.got - 2010.06.03 12:22:45.
