data_PCOD9167265
_publ_section_title
;
Structure prediction by ZEFSAII (Michael W. Deem and Ramdas Pophale) SiO2 
 PCOD9167265
Probable space group: P 21/M
;
_chemical_formula_sum "Si O2"
_cell_formula_units_Z 32
_cell_length_a 12.423390
_cell_length_b 19.757808
_cell_length_c 20.417778
_cell_angle_alpha 90.000000
_cell_angle_beta 21.469559
_cell_angle_gamma 90.000000
_cell_volume 1834.326197
_symmetry_space_group_name_H-M "P 21/M"
_symmetry_group_IT_number 11
_symmetry_cell_setting 'monoclinic'
loop_
_space_group_symop_operation_xyz
x,y,z
-x,1/2+y,-z
-x,-y,-z
x,1/2-y,z
loop_
_atom_site_type_symbol
_atom_site_label
_atom_site_fract_x
_atom_site_fract_y
_atom_site_fract_z
Si Si1 0.750747 0.029493 0.449911
Si Si2 0.696785 0.325521 0.542701
Si Si3 0.228518 0.828417 0.345007
Si Si4 0.000256 0.677495 0.041463
Si Si5 0.127382 0.042615 0.488420
Si Si6 0.116792 0.965628 0.772670
Si Si7 0.213392 0.534286 0.932998
Si Si8 0.074434 0.173112 0.071256
O O1 0.763795 0.109072 0.461193
O O2 0.891597 0.018274 0.299135
O O3 0.906901 0.990741 0.421046
O O4 0.413403 0.001213 0.633482
O O5 0.800839 0.250000 0.463084
O O6 0.792988 0.336993 0.563806
O O7 0.343510 0.322131 0.747154
O O8 0.156598 0.750000 0.370974
O O9 0.017018 0.883384 0.432468
O O10 0.571516 0.838913 0.130816
O O11 0.130234 0.750000 0.987346
O O12 0.132024 0.610745 0.996798
O O13 0.019933 0.670596 0.951662
O O14 0.471820 0.038855 0.277833
O O15 0.000000 0.000000 0.500000
O O16 0.104548 0.884742 0.790132
O O17 0.839615 0.991594 0.971640
O O18 0.000000 0.500000 0.000000
O O19 0.024998 0.250000 0.122845
#
# Coordination Sequence:
#
# PCOD9167265 Si02
#       8
#     4   4   4   4   4   4   4   4
#     4  11  22  36  53  86 118 150 187 237 286 332
#     4   9  16  32  56  80 109 145 184 227 277 333
#     4   9  19  35  58  85 112 143 187 240 286 332
#     4   9  16  28  52  80 104 135 183 230 268 319
#     4  12  22  35  60  85 112 145 190 233 283 337
#     4  11  22  35  55  83 121 149 185 238 284 331
#     4  12  20  35  57  80 111 149 190 228 275 333
#     4   9  17  33  55  81 109 147 191 232 282 338
#
# _framework density 17.445098000000002
#
# number of rings (size 3 to 8) (size 9 to 14) (size 15 to 20)
#    0.000    1.750    5.000    2.250    0.000    1.000 
#    0.000    3.125    0.000    1.500    0.000    0.000 
#    0.000    0.000    0.000    0.000    0.000    0.000 
#
# Total GULP energy -178322.616569 kJ/mol
# GULP energy per Si atom -5572.581768 kJ/mol
# Density = 1.740539 g / cm^3
# Si number density = 17.445098 Si / 1000 Ang^3
#
#
#
# Elastic Constant Matrix: (Units=GPa)
#
#
# Indices 1 2 3 4 5 6 
#
# 1 82.0677 51.7849 9.6812 0.0000 9.7443 0.0000
# 2 51.7849 143.4501 30.5271 0.0000 -1.5684 0.0000
# 3 9.6812 30.5271 21.1040 0.0000 2.8700 0.0000
# 4 0.0000 0.0000 0.0000 23.7743 0.0000 -12.9683
# 5 9.7443 -1.5684 2.8700 0.0000 21.6080 0.0000
# 6 0.0000 0.0000 0.0000 -12.9683 0.0000 11.5625
#
#
#
# Elastic Compliance Matrix: (Units=1/GPa)
#
#
# Indices 1 2 3 4 5 6 
#
# 1 0.017281 -0.007081 0.003508 0.000000 -0.008773 0.000000
# 2 -0.007081 0.013131 -0.016610 0.000000 0.006352 0.000000
# 3 0.003508 -0.016610 0.071472 0.000000 -0.012281 0.000000
# 4 0.000000 0.000000 0.000000 0.108352 0.000000 0.121526
# 5 -0.008773 0.006352 -0.012281 0.000000 0.052328 0.000000
# 6 0.000000 0.000000 0.000000 0.121526 0.000000 0.222789
#
#
# Mechanical properties :
#
#
# Convention : Reuss Voigt Hill
#
# Bulk Modulus (GPa) = 16.25529 47.84535 32.05032
# Shear Modulus (GPa) = 9.15372 21.69752 15.42562
#
# Velocity S-wave (km/s) = 2.29315 3.53052 2.97684
# Velocity P-wave (km/s) = 4.04346 6.64118 5.49795
#
# Compressibility (1/GPa) = 0.06151843
#
# Stress axis : x y z
#
# Youngs Moduli (GPa) = 57.86755 76.15301 13.99140
#
# Poissons Ratio (x) = 0.53922 -0.04908
# Poissons Ratio (y) = 0.40975 0.23240
# Poissons Ratio (z) = -0.20300 1.26494
#
# Static dielectric constant tensor:
#      x y z
#    x 1.586340 0.000000 -0.030340 
#    y 0.000000 1.647940 0.000000 
#    z -0.030340 0.000000 1.884470 
# 
# From -- ./inp_files/48251.got.cif
#   From: 2010.05.17/outbox.cif.g08.bks.cpg/sg11_25_cif.got.tgz:48251.got - 2010.06.03 12:22:45.
