data_PCOD9167948
_publ_section_title
;
Structure prediction by ZEFSAII (Michael W. Deem and Ramdas Pophale) SiO2 
 PCOD9167948
Probable space group: P 21/M
;
_chemical_formula_sum "Si O2"
_cell_formula_units_Z 32
_cell_length_a 12.000000
_cell_length_b 9.000000
_cell_length_c 18.000000
_cell_angle_alpha 90.000000
_cell_angle_beta 90.000000
_cell_angle_gamma 90.000000
_cell_volume 1944.000000
_symmetry_space_group_name_H-M "P 21/M"
_symmetry_group_IT_number 11
_symmetry_cell_setting 'monoclinic'
loop_
_space_group_symop_operation_xyz
x,y,z
-x,1/2+y,-z
-x,-y,-z
x,1/2-y,z
loop_
_atom_site_type_symbol
_atom_site_label
_atom_site_fract_x
_atom_site_fract_y
_atom_site_fract_z
Si Si1 0.348001 0.072416 0.035265
Si Si2 0.115304 0.426691 0.976593
Si Si3 0.560958 0.075376 0.112799
Si Si4 0.232970 0.427663 0.820172
Si Si5 0.118998 0.430268 0.520898
Si Si6 0.447936 0.419583 0.611093
Si Si7 0.344003 0.419841 0.444347
Si Si8 0.768752 0.427545 0.333794
O O1 0.361436 0.250000 0.016008
O O2 0.428097 0.046931 0.105923
O O3 0.216097 0.043551 0.035008
O O4 0.394243 0.969801 0.969017
O O5 0.099176 0.250000 0.974286
O O6 0.163175 0.469580 0.894703
O O7 0.000000 0.500000 0.000000
O O8 0.578696 0.250000 0.127383
O O9 0.639233 0.978753 0.165602
O O10 0.227907 0.250000 0.811880
O O11 0.193486 0.509217 0.745794
O O12 0.113951 0.250000 0.525262
O O13 0.216766 0.467624 0.460718
O O14 0.162158 0.496880 0.599146
O O15 0.000000 0.500000 0.500000
O O16 0.444264 0.250000 0.638668
O O17 0.399971 0.417815 0.526586
O O18 0.573542 0.481259 0.605272
O O19 0.360093 0.521935 0.654374
O O20 0.343968 0.250000 0.416820
O O21 0.777653 0.250000 0.337484
#
# Coordination Sequence:
#
# PCOD9167948 Si02
#       8
#     4   4   4   4   4   4   4   4
#     4   8  15  27  42  64  94 122 148 186 235 279
#     4   9  18  31  48  70  97 130 166 205 246 291
#     4   9  15  25  44  68  91 117 151 188 231 286
#     4  10  20  34  49  69  99 129 159 203 257 305
#     4  10  20  34  52  75 103 135 172 213 253 296
#     4   9  16  27  45  69  96 124 153 190 239 290
#     4   8  15  27  44  68  96 124 155 192 234 282
#     4  11  21  33  51  74  99 129 166 208 255 307
#
# _framework density 16.460905
#
# number of rings (size 3 to 8) (size 9 to 14) (size 15 to 20)
#    0.000    2.750    0.000    4.125    0.000    6.500 
#    0.000    0.000    0.000    1.500    0.000    5.250 
#    0.000    0.000    0.000    0.000    0.000    0.000 
#
# Total GULP energy -178137.587557 kJ/mol
# GULP energy per Si atom -5566.799611 kJ/mol
# Density = 1.642344 g / cm^3
# Si number density = 16.460905 Si / 1000 Ang^3
#
#
#
# Elastic Constant Matrix: (Units=GPa)
#
#
# Indices 1 2 3 4 5 6 
#
# 1 145.0098 47.3070 36.5198 0.0000 -0.4612 0.0000
# 2 47.3070 78.3197 27.9769 0.0000 -1.6655 0.0000
# 3 36.5198 27.9769 52.3580 0.0000 1.9482 0.0000
# 4 0.0000 0.0000 0.0000 22.2858 0.0000 -0.1683
# 5 -0.4612 -1.6655 1.9482 0.0000 14.7234 0.0000
# 6 0.0000 0.0000 0.0000 -0.1683 0.0000 31.8113
#
#
#
# Elastic Compliance Matrix: (Units=1/GPa)
#
#
# Indices 1 2 3 4 5 6 
#
# 1 0.009318 -0.004069 -0.004340 0.000000 0.000406 0.000000
# 2 -0.004069 0.017683 -0.006713 0.000000 0.002761 0.000000
# 3 -0.004340 -0.006713 0.025874 0.000000 -0.004319 0.000000
# 4 0.000000 0.000000 0.000000 0.044873 0.000000 0.000237
# 5 0.000406 0.002761 -0.004319 0.000000 0.068816 0.000000
# 6 0.000000 0.000000 0.000000 0.000237 0.000000 0.031437
#
#
# Mechanical properties :
#
#
# Convention : Reuss Voigt Hill
#
# Bulk Modulus (GPa) = 44.18851 55.47719 49.83285
# Shear Modulus (GPa) = 21.20544 24.68969 22.94756
#
# Velocity S-wave (km/s) = 3.59309 3.87705 3.73777
# Velocity P-wave (km/s) = 6.64202 7.33605 6.99765
#
# Compressibility (1/GPa) = 0.02263032
#
# Stress axis : x y z
#
# Youngs Moduli (GPa) = 107.32015 56.55198 38.64859
#
# Poissons Ratio (x) = 0.23013 0.16773
# Poissons Ratio (y) = 0.43672 0.25945
# Poissons Ratio (z) = 0.46577 0.37963
#
# Static dielectric constant tensor:
#      x y z
#    x 1.577450 0.000000 0.009680 
#    y 0.000000 1.553970 0.000000 
#    z 0.009680 0.000000 1.563910 
# 
# From -- ./inp_files/58716.got.cif
#   From: 2010.05.17/outbox.ucp.g08.bks.cvg/sg11_30_cif.got.tgz:58716.got - 2010.06.11 11:38:39.
