data_PCOD9167464
_publ_section_title
;
Structure prediction by ZEFSAII (Michael W. Deem and Ramdas Pophale) SiO2 
 PCOD9167464
Probable space group: P 21/M
;
_chemical_formula_sum "Si O2"
_cell_formula_units_Z 20
_cell_length_a 8.951932
_cell_length_b 19.130046
_cell_length_c 5.222019
_cell_angle_alpha 90.000000
_cell_angle_beta 78.175313
_cell_angle_gamma 90.000000
_cell_volume 875.298053
_symmetry_space_group_name_H-M "P 21/M"
_symmetry_group_IT_number 11
_symmetry_cell_setting 'monoclinic'
loop_
_space_group_symop_operation_xyz
x,y,z
-x,1/2+y,-z
-x,-y,-z
x,1/2-y,z
loop_
_atom_site_type_symbol
_atom_site_label
_atom_site_fract_x
_atom_site_fract_y
_atom_site_fract_z
Si Si1 0.628345 0.525676 0.643820
Si Si2 0.629998 0.396203 0.996214
Si Si3 0.471982 0.750000 0.160016
Si Si4 0.318474 0.250000 0.410712
Si Si5 0.894163 0.882457 0.425316
Si Si6 0.938454 0.423115 0.114076
O O1 0.500000 0.500000 0.500000
O O2 0.540411 0.583763 0.846056
O O3 0.769533 0.556158 0.442895
O O4 0.675330 0.460220 0.796973
O O5 0.621750 0.321356 0.861540
O O6 0.758805 0.404482 0.167877
O O7 0.552032 0.750000 0.410588
O O8 0.601016 0.750000 0.893110
O O9 0.208359 0.315742 0.481782
O O10 0.989236 0.874733 0.134362
O O11 0.994653 0.904375 0.633571
O O12 0.000000 0.500000 0.000000
#
# Coordination Sequence:
#
# PCOD9167464 Si02
#       6
#     4   4   2   2   4   4
#     4  11  23  42  72 101 133 189 239 291 340 425
#     4  11  26  42  70 103 141 183 238 292 358 412
#     4  12  26  46  70 106 140 185 235 308 348 422
#     4  12  26  48  72 102 144 187 241 290 354 432
#     4  12  26  45  73 100 142 191 233 287 360 420
#     4  12  26  46  71 107 145 184 233 301 353 424
#
# _framework density 22.849360999999998
#
# number of rings (size 3 to 8) (size 9 to 14) (size 15 to 20)
#    0.000    0.400    4.000    4.200    5.600    1.600 
#    0.000    0.000    0.000    0.000    0.000    0.000 
#    0.000    0.000    0.000    0.000    0.000    0.000 
#
# Total GULP energy -111960.240198 kJ/mol
# GULP energy per Si atom -5598.012010 kJ/mol
# Density = 2.279735 g / cm^3
# Si number density = 22.849361 Si / 1000 Ang^3
#
#
#
# Elastic Constant Matrix: (Units=GPa)
#
#
# Indices 1 2 3 4 5 6 
#
# 1 109.2784 30.6529 13.8741 0.0000 17.3061 0.0000
# 2 30.6529 84.5754 -29.2231 0.0000 -2.6139 0.0000
# 3 13.8741 -29.2231 57.8627 0.0000 -10.0730 0.0000
# 4 0.0000 0.0000 0.0000 9.5833 0.0000 -0.3237
# 5 17.3061 -2.6139 -10.0730 0.0000 54.7867 0.0000
# 6 0.0000 0.0000 0.0000 -0.3237 0.0000 34.4783
#
#
#
# Elastic Compliance Matrix: (Units=1/GPa)
#
#
# Indices 1 2 3 4 5 6 
#
# 1 0.013384 -0.007895 -0.008263 0.000000 -0.006124 0.000000
# 2 -0.007895 0.019214 0.012594 0.000000 0.005726 0.000000
# 3 -0.008263 0.012594 0.027048 0.000000 0.008184 0.000000
# 4 0.000000 0.000000 0.000000 0.104381 0.000000 0.000980
# 5 -0.006124 0.005726 0.008184 0.000000 0.021965 0.000000
# 6 0.000000 0.000000 0.000000 0.000980 0.000000 0.029013
#
#
# Mechanical properties :
#
#
# Convention : Reuss Voigt Hill
#
# Bulk Modulus (GPa) = 19.04112 31.36937 25.20524
# Shear Modulus (GPa) = 20.86461 35.53050 28.19755
#
# Velocity S-wave (km/s) = 3.02509 3.94761 3.51673
# Velocity P-wave (km/s) = 4.53354 5.87680 5.24832
#
# Compressibility (1/GPa) = 0.05251792
#
# Stress axis : x y z
#
# Youngs Moduli (GPa) = 74.71380 52.04632 36.97063
#
# Poissons Ratio (x) = 0.41092 0.30548
# Poissons Ratio (y) = 0.58988 -0.46559
# Poissons Ratio (z) = 0.61734 -0.65545
#
# Static dielectric constant tensor:
#      x y z
#    x 2.019070 0.000000 0.112780 
#    y 0.000000 1.879960 0.000000 
#    z 0.112780 0.000000 2.019240 
# 
# From -- ./inp_files/1906.got.cif
#   From: 2010.05.17/outbox.cif.g08.bks.cpg/sg11_1_cif.got.tgz:1906.got - 2010.06.03 12:22:45.
