data_PCOD9167338
_publ_section_title
;
Structure prediction by ZEFSAII (Michael W. Deem and Ramdas Pophale) SiO2 
 PCOD9167338
Probable space group: P 21/M
;
_chemical_formula_sum "Si O2"
_cell_formula_units_Z 22
_cell_length_a 12.101458
_cell_length_b 13.505402
_cell_length_c 6.094467
_cell_angle_alpha 90.000000
_cell_angle_beta 98.827624
_cell_angle_gamma 90.000000
_cell_volume 984.250852
_symmetry_space_group_name_H-M "P 21/M"
_symmetry_group_IT_number 11
_symmetry_cell_setting 'monoclinic'
loop_
_space_group_symop_operation_xyz
x,y,z
-x,1/2+y,-z
-x,-y,-z
x,1/2-y,z
loop_
_atom_site_type_symbol
_atom_site_label
_atom_site_fract_x
_atom_site_fract_y
_atom_site_fract_z
Si Si1 0.622951 0.534523 0.473077
Si Si2 0.302314 0.750000 0.178110
Si Si3 0.113973 0.250000 0.433867
Si Si4 0.134663 0.750000 0.513836
Si Si5 0.238681 0.921501 0.841990
Si Si6 0.192107 0.076561 0.146023
Si Si7 0.544425 0.750000 0.371723
Si Si8 0.289668 0.250000 0.890692
O O1 0.500000 0.500000 0.500000
O O2 0.670844 0.486829 0.264762
O O3 0.721698 0.517034 0.675040
O O4 0.604114 0.652015 0.470494
O O5 0.192973 0.750000 0.295959
O O6 0.412650 0.750000 0.362191
O O7 0.300932 0.846338 0.025016
O O8 0.121527 0.150493 0.283227
O O9 0.210341 0.250000 0.649334
O O10 0.998215 0.250000 0.528282
O O11 0.174948 0.847906 0.656968
O O12 0.155704 0.993731 0.956078
O O13 0.259038 0.154886 0.019993
O O14 0.579248 0.750000 0.126093
#
# Coordination Sequence:
#
# PCOD9167338 Si02
#       8
#     4   2   2   2   4   4   2   2
#     4  12  25  41  68 102 141 183 221 272 335 408
#     4  11  27  43  67  97 139 183 223 276 341 403
#     4  11  24  46  72  98 135 176 230 287 332 394
#     4  11  26  49  67  95 137 180 229 284 336 402
#     4  11  24  45  66  99 137 173 233 274 338 412
#     4  11  22  42  68 100 135 170 225 280 333 397
#     4  12  21  42  66  98 141 175 219 280 324 404
#     4  11  22  40  68 102 134 170 223 271 339 391
#
# _framework density 22.352025999999999
#
# number of rings (size 3 to 8) (size 9 to 14) (size 15 to 20)
#    0.000    0.727    3.636    3.818    2.545    5.818 
#    0.000    6.364    0.000    0.000    0.000    0.000 
#    0.000    0.000    0.000    0.000    0.000    0.000 
#
# Total GULP energy -122781.513699 kJ/mol
# GULP energy per Si atom -5580.977895 kJ/mol
# Density = 2.230115 g / cm^3
# Si number density = 22.352026 Si / 1000 Ang^3
#
#
#
# Elastic Constant Matrix: (Units=GPa)
#
#
# Indices 1 2 3 4 5 6 
#
# 1 115.1341 21.0201 25.0574 0.0000 -21.1448 0.0000
# 2 21.0201 125.2524 51.0842 0.0000 -11.6098 0.0000
# 3 25.0574 51.0842 80.5348 0.0000 -21.9652 0.0000
# 4 0.0000 0.0000 0.0000 634.0378 0.0000 -65.7347
# 5 -21.1448 -11.6098 -21.9652 0.0000 22.5109 0.0000
# 6 0.0000 0.0000 0.0000 -65.7347 0.0000 7.6722
#
#
#
# Elastic Compliance Matrix: (Units=1/GPa)
#
#
# Indices 1 2 3 4 5 6 
#
# 1 0.010594 -0.000817 -0.000243 0.000000 0.009292 0.000000
# 2 -0.000817 0.010871 -0.007251 0.000000 -0.002237 0.000000
# 3 -0.000243 -0.007251 0.021816 0.000000 0.017318 0.000000
# 4 0.000000 0.000000 0.000000 0.014119 0.000000 0.120973
# 5 0.009292 -0.002237 0.017318 0.000000 0.068896 0.000000
# 6 0.000000 0.000000 0.000000 0.120973 0.000000 1.166831
#
#
# Mechanical properties :
#
#
# Convention : Reuss Voigt Hill
#
# Bulk Modulus (GPa) = 37.51379 57.24941 47.38160
# Shear Modulus (GPa) = 3.79179 147.76148 75.77664
#
# Velocity S-wave (km/s) = 1.30387 8.13941 5.82881
# Velocity P-wave (km/s) = 4.36880 10.67715 8.15745
#
# Compressibility (1/GPa) = 0.02665686
#
# Stress axis : x y z
#
# Youngs Moduli (GPa) = 94.39050 91.98576 45.83813
#
# Poissons Ratio (x) = 0.07518 0.01116
# Poissons Ratio (y) = 0.07715 0.33239
# Poissons Ratio (z) = 0.02298 0.66703
#
# Static dielectric constant tensor:
#      x y z
#    x 1.809770 0.000000 -0.020480 
#    y 0.000000 1.714820 0.000000 
#    z -0.020480 0.000000 1.880620 
# 
# From -- ./inp_files/4345.got.cif
#   From: 2010.05.17/outbox.cif.g08.bks.cpg/sg11_3_cif.got.tgz:4345.got - 2010.06.03 12:22:45.
