data_PCOD9167258
_publ_section_title
;
Structure prediction by ZEFSAII (Michael W. Deem and Ramdas Pophale) SiO2 
 PCOD9167258
Probable space group: P 21/M
;
_chemical_formula_sum "Si O2"
_cell_formula_units_Z 28
_cell_length_a 9.580992
_cell_length_b 8.511752
_cell_length_c 30.110791
_cell_angle_alpha 90.000000
_cell_angle_beta 37.630354
_cell_angle_gamma 90.000000
_cell_volume 1499.282173
_symmetry_space_group_name_H-M "P 21/M"
_symmetry_group_IT_number 11
_symmetry_cell_setting 'monoclinic'
loop_
_space_group_symop_operation_xyz
x,y,z
-x,1/2+y,-z
-x,-y,-z
x,1/2-y,z
loop_
_atom_site_type_symbol
_atom_site_label
_atom_site_fract_x
_atom_site_fract_y
_atom_site_fract_z
Si Si1 0.241629 0.563358 0.066211
Si Si2 0.677689 0.441008 0.365319
Si Si3 0.924729 0.438881 0.067039
Si Si4 0.088004 0.440330 0.199518
Si Si5 0.993027 0.059976 0.367538
Si Si6 0.596707 0.559058 0.797649
Si Si7 0.842605 0.562022 0.500439
O O1 0.247512 0.750000 0.061358
O O2 0.131650 0.511786 0.140639
O O3 0.094356 0.497011 0.062501
O O4 0.500000 0.500000 0.000000
O O5 0.676055 0.250000 0.365356
O O6 0.798431 0.487302 0.381039
O O7 0.418416 0.496666 0.428127
O O8 0.847494 0.487687 0.282701
O O9 0.926124 0.250000 0.066324
O O10 0.663500 0.493450 0.141242
O O11 0.000000 0.500000 0.000000
O O12 0.091718 0.250000 0.195047
O O13 0.284706 0.486425 0.185542
O O14 0.993152 0.250000 0.370295
O O15 0.233492 0.010438 0.284764
O O16 0.940768 0.991393 0.428470
O O17 0.596864 0.750000 0.797471
O O18 0.837340 0.750000 0.503263
O O19 0.000000 0.500000 0.500000
#
# Coordination Sequence:
#
# PCOD9167258 Si02
#       7
#     4   4   4   4   4   4   4
#     4  12  25  40  57  82 113 148 186 229 276 326
#     4   8  17  34  58  81 106 141 182 222 272 332
#     4  11  22  38  59  85 114 147 183 226 276 333
#     4   9  17  36  62  85 107 139 181 227 273 328
#     4   9  17  35  59  81 103 137 181 225 269 324
#     4   8  17  34  59  84 108 138 176 218 272 334
#     4  11  22  35  50  76 110 146 183 225 272 321
#
# _framework density 18.675605000000001
#
# number of rings (size 3 to 8) (size 9 to 14) (size 15 to 20)
#    0.000    2.286    0.000    5.143    0.000    2.286 
#    0.000   12.857    0.000    0.000    0.000    0.000 
#    0.000    0.000    0.000    0.000    0.000    0.000 
#
# Total GULP energy -156330.746142 kJ/mol
# GULP energy per Si atom -5583.240934 kJ/mol
# Density = 1.863310 g / cm^3
# Si number density = 18.675605 Si / 1000 Ang^3
#
#
#
# Elastic Constant Matrix: (Units=GPa)
#
#
# Indices 1 2 3 4 5 6 
#
# 1 178.7294 43.7013 143.7055 0.0000 -5.0582 0.0000
# 2 43.7013 52.5082 42.6784 0.0000 0.4538 0.0000
# 3 143.7055 42.6784 176.6167 0.0000 -0.6129 0.0000
# 4 0.0000 0.0000 0.0000 31.2513 0.0000 7.2252
# 5 -5.0582 0.4538 -0.6129 0.0000 38.0477 0.0000
# 6 0.0000 0.0000 0.0000 7.2252 0.0000 29.1942
#
#
#
# Elastic Compliance Matrix: (Units=1/GPa)
#
#
# Indices 1 2 3 4 5 6 
#
# 1 0.016859 -0.003616 -0.012837 0.000000 0.002078 0.000000
# 2 -0.003616 0.024480 -0.002976 0.000000 -0.000821 0.000000
# 3 -0.012837 -0.002976 0.016821 0.000000 -0.001400 0.000000
# 4 0.000000 0.000000 0.000000 0.033941 0.000000 -0.008400
# 5 0.002078 -0.000821 -0.001400 0.000000 0.026546 0.000000
# 6 0.000000 0.000000 0.000000 -0.008400 0.000000 0.036332
#
#
# Mechanical properties :
#
#
# Convention : Reuss Voigt Hill
#
# Bulk Modulus (GPa) = 51.80593 96.44718 74.12655
# Shear Modulus (GPa) = 24.96617 31.54991 28.25804
#
# Velocity S-wave (km/s) = 3.66024 4.11465 3.89408
# Velocity P-wave (km/s) = 6.75746 8.62144 7.74573
#
# Compressibility (1/GPa) = 0.01930281
#
# Stress axis : x y z
#
# Youngs Moduli (GPa) = 59.31535 40.84926 59.45003
#
# Poissons Ratio (x) = 0.14771 0.76313
# Poissons Ratio (y) = 0.21448 0.17694
# Poissons Ratio (z) = 0.76140 0.12158
#
# Static dielectric constant tensor:
#      x y z
#    x 1.607930 0.000000 -0.020710 
#    y 0.000000 1.642820 0.000000 
#    z -0.020710 0.000000 1.639510 
# 
# From -- ./inp_files/70803.got.cif
#   From: 2010.05.17/outbox.cif.g08.bks.cpg/sg11_36_cif.got.tgz:70803.got - 2010.06.03 12:22:45.
