data_PCOD9167663
_publ_section_title
;
Structure prediction by ZEFSAII (Michael W. Deem and Ramdas Pophale) SiO2 
 PCOD9167663
Probable space group: P 21/M
;
_chemical_formula_sum "Si O2"
_cell_formula_units_Z 28
_cell_length_a 20.344439
_cell_length_b 9.239331
_cell_length_c 18.810463
_cell_angle_alpha 90.000000
_cell_angle_beta 20.165161
_cell_angle_gamma 90.000000
_cell_volume 1218.881917
_symmetry_space_group_name_H-M "P 21/M"
_symmetry_group_IT_number 11
_symmetry_cell_setting 'monoclinic'
loop_
_space_group_symop_operation_xyz
x,y,z
-x,1/2+y,-z
-x,-y,-z
x,1/2-y,z
loop_
_atom_site_type_symbol
_atom_site_label
_atom_site_fract_x
_atom_site_fract_y
_atom_site_fract_z
Si Si1 0.296419 0.074584 0.689539
Si Si2 0.654351 0.585008 0.664972
Si Si3 0.734793 0.085430 0.717881
Si Si4 0.810056 0.585149 0.781447
Si Si5 0.096992 0.586624 0.179309
Si Si6 0.389633 0.084457 0.445386
Si Si7 0.828277 0.083196 0.051374
O O1 0.309360 0.250000 0.679636
O O2 0.262201 0.032937 0.641351
O O3 0.500000 0.000000 0.500000
O O4 0.161792 0.013130 0.888142
O O5 0.581099 0.750000 0.749436
O O6 0.626233 0.485842 0.761810
O O7 0.600558 0.518078 0.642843
O O8 0.883620 0.596920 0.424930
O O9 0.676240 0.250000 0.790375
O O10 0.960814 0.087876 0.467684
O O11 0.722782 0.992629 0.801518
O O12 0.747239 0.750000 0.851847
O O13 0.787730 0.501242 0.878715
O O14 0.174788 0.750000 0.093352
O O15 0.083393 0.528456 0.112573
O O16 0.326706 0.250000 0.495197
O O17 0.603690 0.087435 0.257976
O O18 0.887445 0.250000 0.006315
#
# Coordination Sequence:
#
# PCOD9167663 Si02
#       7
#     4   4   4   4   4   4   4
#     4   9  16  28  46  66  86 112 147 183 215 251
#     4   9  16  28  45  64  86 114 145 176 213 257
#     4   9  16  26  41  63  89 114 142 178 216 252
#     4   9  16  26  42  63  87 115 146 177 211 254
#     4   9  17  28  44  65  89 114 142 178 217 254
#     4   8  15  28  46  64  84 112 145 177 212 256
#     4   9  17  30  46  65  88 115 145 177 215 257
#
# _framework density 22.971872000000001
#
# number of rings (size 3 to 8) (size 9 to 14) (size 15 to 20)
#    0.000    3.143    0.000    2.143    0.000    4.000 
#    0.000    4.286    0.000    0.857    0.000    0.000 
#    0.000    0.000    0.000    0.000    0.000    0.000 
#
# Total GULP energy -156310.188085 kJ/mol
# GULP energy per Si atom -5582.506717 kJ/mol
# Density = 2.291959 g / cm^3
# Si number density = 22.971872 Si / 1000 Ang^3
#
#
#
# Elastic Constant Matrix: (Units=GPa)
#
#
# Indices 1 2 3 4 5 6 
#
# 1 190.4840 79.7938 26.3400 0.0000 43.6692 0.0000
# 2 79.7938 102.0113 25.1952 0.0000 36.2595 0.0000
# 3 26.3400 25.1952 82.6449 0.0000 23.4089 0.0000
# 4 0.0000 0.0000 0.0000 19.4207 0.0000 16.6202
# 5 43.6692 36.2595 23.4089 0.0000 50.2474 0.0000
# 6 0.0000 0.0000 0.0000 16.6202 0.0000 30.1689
#
#
#
# Elastic Compliance Matrix: (Units=1/GPa)
#
#
# Indices 1 2 3 4 5 6 
#
# 1 0.008211 -0.005218 -0.000082 0.000000 -0.003332 0.000000
# 2 -0.005218 0.016670 -0.001493 0.000000 -0.006799 0.000000
# 3 -0.000082 -0.001493 0.014119 0.000000 -0.005429 0.000000
# 4 0.000000 0.000000 0.000000 0.097422 0.000000 -0.053670
# 5 -0.003332 -0.006799 -0.005429 0.000000 0.030233 0.000000
# 6 0.000000 0.000000 0.000000 -0.053670 0.000000 0.062714
#
#
# Mechanical properties :
#
#
# Convention : Reuss Voigt Hill
#
# Bulk Modulus (GPa) = 39.35013 70.86646 55.10829
# Shear Modulus (GPa) = 19.88656 36.22150 28.05403
#
# Velocity S-wave (km/s) = 2.94546 3.97517 3.49841
# Velocity P-wave (km/s) = 5.36046 7.21010 6.35295
#
# Compressibility (1/GPa) = 0.02541287
#
# Stress axis : x y z
#
# Youngs Moduli (GPa) = 121.79030 59.98945 70.82628
#
# Poissons Ratio (x) = 0.31301 0.00583
# Poissons Ratio (y) = 0.63547 0.10576
# Poissons Ratio (z) = 0.01003 0.08958
#
# Static dielectric constant tensor:
#      x y z
#    x 1.901250 0.000000 -0.041990 
#    y 0.000000 1.781610 0.000000 
#    z -0.041990 0.000000 1.975660 
# 
# From -- ./inp_files/42216.got.cif
#   From: 2010.05.17/outbox.cif.g08.bks.cpg/sg11_22_cif.got.tgz:42216.got - 2010.06.03 12:22:45.
