data_PCOD9167233
_publ_section_title
;
Structure prediction by ZEFSAII (Michael W. Deem and Ramdas Pophale) SiO2 
 PCOD9167233
Probable space group: P 21/M
;
_chemical_formula_sum "Si O2"
_cell_formula_units_Z 24
_cell_length_a 11.183728
_cell_length_b 13.334721
_cell_length_c 14.788147
_cell_angle_alpha 90.000000
_cell_angle_beta 29.094146
_cell_angle_gamma 90.000000
_cell_volume 1072.359546
_symmetry_space_group_name_H-M "P 21/M"
_symmetry_group_IT_number 11
_symmetry_cell_setting 'monoclinic'
loop_
_space_group_symop_operation_xyz
x,y,z
-x,1/2+y,-z
-x,-y,-z
x,1/2-y,z
loop_
_atom_site_type_symbol
_atom_site_label
_atom_site_fract_x
_atom_site_fract_y
_atom_site_fract_z
Si Si1 0.752427 0.750000 0.528928
Si Si2 0.409585 0.434903 0.800458
Si Si3 0.071192 0.020437 0.555263
Si Si4 0.499376 0.750000 0.500616
Si Si5 0.742720 0.250000 0.033112
Si Si6 0.707656 0.955659 0.302375
Si Si7 0.803344 0.039276 0.906983
Si Si8 0.026938 0.250000 0.041006
O O1 0.872088 0.639931 0.466970
O O2 0.659344 0.750000 0.486952
O O3 0.523044 0.750000 0.747355
O O4 0.695686 0.445547 0.581734
O O5 0.290954 0.501979 0.798344
O O6 0.407262 0.480467 0.901591
O O7 0.217566 0.342511 0.929480
O O8 0.862237 0.002604 0.768398
O O9 0.000000 0.000000 0.500000
O O10 0.601528 0.842493 0.373638
O O11 0.213313 0.750000 0.729482
O O12 0.766466 0.155927 0.951012
O O13 0.915685 0.250000 0.010630
O O14 0.954731 0.976705 0.191432
O O15 0.500000 0.000000 0.500000
#
# Coordination Sequence:
#
# PCOD9167233 Si02
#       8
#     2   4   4   2   2   4   4   2
#     4  11  21  49  69 101 135 176 237 290 330 412
#     4  12  25  43  64 103 144 176 232 283 347 409
#     4  12  28  48  75  97 133 190 243 293 337 398
#     4  11  22  39  67 103 143 188 227 264 351 429
#     4  11  22  39  71 107 138 177 224 276 346 428
#     4  12  21  36  66 102 137 180 214 278 347 416
#     4  12  23  42  71 103 135 180 232 282 351 409
#     4  11  25  37  65 107 152 185 214 278 357 427
#
# _framework density 22.380552999999999
#
# number of rings (size 3 to 8) (size 9 to 14) (size 15 to 20)
#    0.000    0.333    6.667    3.000    2.333    1.333 
#    0.000    0.833    0.000    0.000    0.000    0.000 
#    0.000    0.000    0.000    0.000    0.000    0.000 
#
# Total GULP energy -133694.915734 kJ/mol
# GULP energy per Si atom -5570.621489 kJ/mol
# Density = 2.232961 g / cm^3
# Si number density = 22.380553 Si / 1000 Ang^3
#
#
#
# Elastic Constant Matrix: (Units=GPa)
#
#
# Indices 1 2 3 4 5 6 
#
# 1 86.3732 -2.8950 11.2152 0.0000 33.2393 0.0000
# 2 -2.8950 74.0638 10.6411 0.0000 6.1129 0.0000
# 3 11.2152 10.6411 121.6551 0.0000 41.6099 0.0000
# 4 0.0000 0.0000 0.0000 31.6413 0.0000 7.2153
# 5 33.2393 6.1129 41.6099 0.0000 40.1553 0.0000
# 6 0.0000 0.0000 0.0000 7.2153 0.0000 13.2163
#
#
#
# Elastic Compliance Matrix: (Units=1/GPa)
#
#
# Indices 1 2 3 4 5 6 
#
# 1 0.019464 0.001784 0.005659 0.000000 -0.022247 0.000000
# 2 0.001784 0.013881 -0.000234 0.000000 -0.003348 0.000000
# 3 0.005659 -0.000234 0.014419 0.000000 -0.019590 0.000000
# 4 0.000000 0.000000 0.000000 0.036098 0.000000 -0.019707
# 5 -0.022247 -0.003348 -0.019590 0.000000 0.064129 0.000000
# 6 0.000000 0.000000 0.000000 -0.019707 0.000000 0.086423
#
#
# Mechanical properties :
#
#
# Convention : Reuss Voigt Hill
#
# Bulk Modulus (GPa) = 16.08145 35.55720 25.81932
# Shear Modulus (GPa) = 20.77067 34.54463 27.65765
#
# Velocity S-wave (km/s) = 3.04973 3.93302 3.51919
# Velocity P-wave (km/s) = 4.42743 6.04540 5.29854
#
# Compressibility (1/GPa) = 0.06218344
#
# Stress axis : x y z
#
# Youngs Moduli (GPa) = 51.37640 72.03841 69.35200
#
# Poissons Ratio (x) = -0.12852 -0.39245
# Poissons Ratio (y) = -0.09166 0.01620
# Poissons Ratio (z) = -0.29073 0.01683
#
# Static dielectric constant tensor:
#      x y z
#    x 1.839790 0.000000 0.045230 
#    y 0.000000 2.312340 0.000000 
#    z 0.045230 0.000000 1.847510 
# 
# From -- ./inp_files/50349.got.cif
#   From: 2010.05.17/outbox.cif.g08.bks.cpg/sg11_26_cif.got.tgz:50349.got - 2010.06.03 12:22:45.
