data_PCOD9167994
_publ_section_title
;
Structure prediction by ZEFSAII (Michael W. Deem and Ramdas Pophale) SiO2 
 PCOD9167994
Probable space group: P 21/M
;
_chemical_formula_sum "Si O2"
_cell_formula_units_Z 28
_cell_length_a 12.000000
_cell_length_b 9.000000
_cell_length_c 15.000000
_cell_angle_alpha 90.000000
_cell_angle_beta 120.000000
_cell_angle_gamma 90.000000
_cell_volume 1402.961154
_symmetry_space_group_name_H-M "P 21/M"
_symmetry_group_IT_number 11
_symmetry_cell_setting 'monoclinic'
loop_
_space_group_symop_operation_xyz
x,y,z
-x,1/2+y,-z
-x,-y,-z
x,1/2-y,z
loop_
_atom_site_type_symbol
_atom_site_label
_atom_site_fract_x
_atom_site_fract_y
_atom_site_fract_z
Si Si1 0.234040 0.574791 0.772735
Si Si2 0.305254 0.423309 0.981135
Si Si3 0.286820 0.424606 0.432872
Si Si4 0.508133 0.081967 0.209909
Si Si5 0.543243 0.078153 0.642332
Si Si6 0.024490 0.571990 0.289037
Si Si7 0.949367 0.427485 0.070009
O O1 0.216408 0.750000 0.787887
O O2 0.300898 0.486506 0.880404
O O3 0.338719 0.566179 0.737042
O O4 0.096891 0.496953 0.706511
O O5 0.264045 0.250000 0.964576
O O6 0.199813 0.525367 0.986712
O O7 0.438538 0.430042 0.086830
O O8 0.255823 0.250000 0.419813
O O9 0.359666 0.473934 0.372067
O O10 0.397361 0.451959 0.550735
O O11 0.157346 0.519160 0.385959
O O12 0.480421 0.250000 0.231856
O O13 0.451080 0.961039 0.252495
O O14 0.572324 0.250000 0.634386
O O15 0.016705 0.750000 0.280787
O O16 0.011298 0.500940 0.184050
O O17 0.967052 0.250000 0.078962
O O18 0.000000 0.500000 0.000000
#
# Coordination Sequence:
#
# PCOD9167994 Si02
#       7
#     4   4   4   4   4   4   4
#     4  10  20  37  57  82 114 152 192 232 279 334
#     4  10  20  35  54  80 113 151 190 231 279 331
#     4  10  21  40  62  84 114 148 183 231 287 341
#     4  10  22  37  57  83 116 152 189 233 283 333
#     4  10  22  38  60  88 114 144 187 234 281 337
#     4  11  22  37  59  84 110 147 189 231 283 340
#     4  11  22  36  53  78 113 150 187 233 277 332
#
# _framework density 19.957787
#
# number of rings (size 3 to 8) (size 9 to 14) (size 15 to 20)
#    0.000    1.714    0.000    6.429    2.000    4.000 
#    0.000    0.714    0.000    0.000    0.000    0.000 
#    0.000    0.000    0.000    0.000    0.000    0.000 
#
# Total GULP energy -156259.395273 kJ/mol
# GULP energy per Si atom -5580.692688 kJ/mol
# Density = 1.991236 g / cm^3
# Si number density = 19.957787 Si / 1000 Ang^3
#
#
#
# Elastic Constant Matrix: (Units=GPa)
#
#
# Indices 1 2 3 4 5 6 
#
# 1 19.5052 10.5847 12.8919 0.0000 7.0227 0.0000
# 2 10.5847 106.3847 13.6615 0.0000 6.4976 0.0000
# 3 12.8919 13.6615 13.6867 0.0000 15.1146 0.0000
# 4 0.0000 0.0000 0.0000 28.3361 0.0000 6.5759
# 5 7.0227 6.4976 15.1146 0.0000 20.7869 0.0000
# 6 0.0000 0.0000 0.0000 6.5759 0.0000 22.8477
#
#
#
# Elastic Compliance Matrix: (Units=1/GPa)
#
#
# Indices 1 2 3 4 5 6 
#
# 1 -0.106356 -0.024780 0.389188 0.000000 -0.239309 0.000000
# 2 -0.024780 0.007607 0.046333 0.000000 -0.027696 0.000000
# 3 0.389188 0.046333 -0.906363 0.000000 0.513066 0.000000
# 4 0.000000 0.000000 0.000000 0.037817 0.000000 -0.010884
# 5 -0.239309 -0.027696 0.513066 0.000000 -0.235447 0.000000
# 6 0.000000 0.000000 0.000000 -0.010884 0.000000 0.046901
#
#
# Mechanical properties :
#
#
# Convention : Reuss Voigt Hill
#
# Bulk Modulus (GPa) = -5.44576 23.76141 9.15783
# Shear Modulus (GPa) = -2.45274 21.22338 9.38532
#
# Velocity S-wave (km/s) = -1.10979 3.26454 2.17090
# Velocity P-wave (km/s) = 2.09207 5.11286 3.29883
#
# Compressibility (1/GPa) = -0.18362911
#
# Stress axis : x y z
#
# Youngs Moduli (GPa) = -9.40242 131.45846 -1.10331
#
# Poissons Ratio (x) = 3.25755 0.42940
# Poissons Ratio (y) = -0.23299 0.05112
# Poissons Ratio (z) = 3.65931 -6.09089
#
# Static dielectric constant tensor:
#      x y z
#    x 1.746690 0.000000 -0.009510 
#    y 0.000000 0.871500 0.000000 
#    z -0.009510 0.000000 1.715340 
# 
# From -- ./inp_files/49488.got.cif
#   From: 2010.05.17/outbox.ucp.g08.bks.cvg/sg11_25_cif.got.tgz:49488.got - 2010.06.11 11:38:39.
