data_PCOD9167157
_publ_section_title
;
Structure prediction by ZEFSAII (Michael W. Deem and Ramdas Pophale) SiO2 
 PCOD9167157
Probable space group: P 21/M
;
_chemical_formula_sum "Si O2"
_cell_formula_units_Z 28
_cell_length_a 18.591054
_cell_length_b 8.959970
_cell_length_c 22.898893
_cell_angle_alpha 90.000000
_cell_angle_beta 26.396767
_cell_angle_gamma 90.000000
_cell_volume 1695.819038
_symmetry_space_group_name_H-M "P 21/M"
_symmetry_group_IT_number 11
_symmetry_cell_setting 'monoclinic'
loop_
_space_group_symop_operation_xyz
x,y,z
-x,1/2+y,-z
-x,-y,-z
x,1/2-y,z
loop_
_atom_site_type_symbol
_atom_site_label
_atom_site_fract_x
_atom_site_fract_y
_atom_site_fract_z
Si Si1 0.525296 0.075429 0.624980
Si Si2 0.346532 0.070216 0.645390
Si Si3 0.284930 0.428432 0.415587
Si Si4 0.153111 0.924838 0.690438
Si Si5 0.178761 0.069423 0.365443
Si Si6 0.328575 0.929646 0.140314
Si Si7 0.974520 0.071208 0.719090
O O1 0.506750 0.250000 0.651087
O O2 0.377001 0.027762 0.690968
O O3 0.685600 0.058476 0.467498
O O4 0.567947 0.991603 0.653294
O O5 0.353875 0.250000 0.636075
O O6 0.500000 0.000000 0.500000
O O7 0.193052 0.008494 0.721786
O O8 0.291486 0.250000 0.413480
O O9 0.272707 0.471264 0.356902
O O10 0.117048 0.473883 0.569914
O O11 0.129307 0.750000 0.718141
O O12 0.012361 0.993675 0.753038
O O13 0.169010 0.250000 0.368971
O O14 0.264264 0.001140 0.246918
O O15 0.000000 0.000000 0.500000
O O16 0.337705 0.750000 0.139068
O O17 0.196030 0.963773 0.186550
O O18 0.500000 0.000000 0.000000
O O19 0.986210 0.250000 0.718113
#
# Coordination Sequence:
#
# PCOD9167157 Si02
#       7
#     4   4   4   4   4   4   4
#     4   8  15  24  35  56  85 118 155 193 236 285
#     4   9  15  23  34  52  81 118 156 192 235 286
#     4   9  17  29  45  67  93 123 161 201 245 293
#     4   9  16  24  37  59  84 116 158 196 237 288
#     4  11  21  35  54  77 102 133 171 214 256 305
#     4  11  23  39  55  76 102 134 171 212 262 310
#     4   9  17  31  47  65  93 125 161 202 246 296
#
# _framework density 16.511196000000002
#
# number of rings (size 3 to 8) (size 9 to 14) (size 15 to 20)
#    0.000    2.571    1.429    2.571    0.000    6.286 
#    0.000    0.000    0.000    0.000    0.000    0.000 
#    0.000    1.143    0.000    3.714    0.000    5.714 
#
# Total GULP energy -155942.735702 kJ/mol
# GULP energy per Si atom -5569.383418 kJ/mol
# Density = 1.647362 g / cm^3
# Si number density = 16.511196 Si / 1000 Ang^3
#
#
#
# Elastic Constant Matrix: (Units=GPa)
#
#
# Indices 1 2 3 4 5 6 
#
# 1 206.4171 76.0461 46.7103 0.0000 -4.9639 0.0000
# 2 76.0461 58.5633 26.9106 0.0000 -2.6450 0.0000
# 3 46.7103 26.9106 55.1955 0.0000 -0.8202 0.0000
# 4 0.0000 0.0000 0.0000 15.2749 0.0000 -0.4198
# 5 -4.9639 -2.6450 -0.8202 0.0000 9.2345 0.0000
# 6 0.0000 0.0000 0.0000 -0.4198 0.0000 35.8006
#
#
#
# Elastic Compliance Matrix: (Units=1/GPa)
#
#
# Indices 1 2 3 4 5 6 
#
# 1 0.009602 -0.011171 -0.002654 0.000000 0.001726 0.000000
# 2 -0.011171 0.035270 -0.007691 0.000000 0.003414 0.000000
# 3 -0.002654 -0.007691 0.024091 0.000000 -0.001490 0.000000
# 4 0.000000 0.000000 0.000000 0.065488 0.000000 0.000768
# 5 0.001726 0.003414 -0.001490 0.000000 0.110063 0.000000
# 6 0.000000 0.000000 0.000000 0.000768 0.000000 0.027942
#
#
# Mechanical properties :
#
#
# Convention : Reuss Voigt Hill
#
# Bulk Modulus (GPa) = 38.56457 68.83442 53.69950
# Shear Modulus (GPa) = 15.42578 23.42925 19.42752
#
# Velocity S-wave (km/s) = 3.05989 3.77104 3.43392
# Velocity P-wave (km/s) = 5.99093 7.79365 6.95098
#
# Compressibility (1/GPa) = 0.02593053
#
# Stress axis : x y z
#
# Youngs Moduli (GPa) = 104.14238 28.35244 41.50911
#
# Poissons Ratio (x) = 0.31673 0.11016
# Poissons Ratio (y) = 1.16341 0.31926
# Poissons Ratio (z) = 0.27638 0.21807
#
# Static dielectric constant tensor:
#      x y z
#    x 1.598100 0.000000 -0.007910 
#    y 0.000000 1.522990 0.000000 
#    z -0.007910 0.000000 1.524220 
# 
# From -- ./inp_files/65992.got.cif
#   From: 2010.05.17/outbox.cif.g08.bks.cpg/sg11_33_cif.got.tgz:65992.got - 2010.06.03 12:22:45.
