data_PCOD9167677
_publ_section_title
;
Structure prediction by ZEFSAII (Michael W. Deem and Ramdas Pophale) SiO2 
 PCOD9167677
Probable space group: P 21/M
;
_chemical_formula_sum "Si O2"
_cell_formula_units_Z 32
_cell_length_a 17.977609
_cell_length_b 14.066569
_cell_length_c 15.820484
_cell_angle_alpha 90.000000
_cell_angle_beta 151.643931
_cell_angle_gamma 90.000000
_cell_volume 1900.147917
_symmetry_space_group_name_H-M "P 21/M"
_symmetry_group_IT_number 11
_symmetry_cell_setting 'monoclinic'
loop_
_space_group_symop_operation_xyz
x,y,z
-x,1/2+y,-z
-x,-y,-z
x,1/2-y,z
loop_
_atom_site_type_symbol
_atom_site_label
_atom_site_fract_x
_atom_site_fract_y
_atom_site_fract_z
Si Si1 0.183972 0.639635 0.846153
Si Si2 0.101963 0.479540 0.388725
Si Si3 0.316026 0.139635 0.478209
Si Si4 0.965596 0.641820 0.928834
Si Si5 0.465595 0.858180 0.002358
Si Si6 0.099028 0.037585 0.968733
Si Si7 0.601963 0.479540 0.815201
Si Si8 0.599026 0.037586 0.229321
O O1 0.145793 0.750000 0.822566
O O2 0.294583 0.632143 0.874834
O O3 0.029331 0.575614 0.689353
O O4 0.289696 0.598039 0.028172
O O5 0.210303 0.401961 0.448780
O O6 0.221594 0.542428 0.562027
O O7 0.011185 0.536157 0.224035
O O8 0.354207 0.250000 0.530981
O O9 0.205415 0.132144 0.285668
O O10 0.470668 0.075614 0.630692
O O11 0.018289 0.750000 0.968645
O O12 0.072561 0.564565 0.988378
O O13 0.951126 0.614221 0.012187
O O14 0.518287 0.750000 0.067932
O O15 0.451127 0.885778 0.890066
O O16 0.572558 0.935436 0.156742
O O17 0.278407 0.042427 0.118841
O O18 0.511187 0.536158 0.798337
#
# Coordination Sequence:
#
# PCOD9167677 Si02
#       8
#     4   4   4   4   4   4   4   4
#     4   9  16  26  43  67  91 116 148 188 231 269
#     4   9  17  28  45  66  91 119 148 186 226 265
#     4   9  16  26  43  67  91 116 148 188 231 269
#     4   9  18  32  48  66  91 121 150 184 226 269
#     4   9  18  32  48  66  91 121 150 184 226 269
#     4   9  18  32  48  67  91 119 151 185 224 268
#     4   9  17  28  45  66  91 119 148 186 226 265
#     4   9  18  32  48  67  91 119 151 185 224 268
#
# _framework density 16.840793999999999
#
# number of rings (size 3 to 8) (size 9 to 14) (size 15 to 20)
#    0.000    3.000    0.000    0.750    0.000    8.000 
#    0.000    1.250    0.000    0.000    0.000    0.000 
#    0.000    0.000    0.000    0.000    0.000    0.000 
#
# Total GULP energy -178254.122048 kJ/mol
# GULP energy per Si atom -5570.441314 kJ/mol
# Density = 1.680246 g / cm^3
# Si number density = 16.840794 Si / 1000 Ang^3
#
#
#
# Elastic Constant Matrix: (Units=GPa)
#
#
# Indices 1 2 3 4 5 6 
#
# 1 38.8243 -0.1052 14.0552 0.0000 -2.2086 0.0000
# 2 -0.1052 18.9886 -1.5741 0.0000 -1.5028 0.0000
# 3 14.0552 -1.5741 43.5567 0.0000 7.0504 0.0000
# 4 0.0000 0.0000 0.0000 11.3288 0.0000 -0.1855
# 5 -2.2086 -1.5028 7.0504 0.0000 20.7722 0.0000
# 6 0.0000 0.0000 0.0000 -0.1855 0.0000 11.5100
#
#
#
# Elastic Compliance Matrix: (Units=1/GPa)
#
#
# Indices 1 2 3 4 5 6 
#
# 1 0.030063 -0.000188 -0.010817 0.000000 0.006854 0.000000
# 2 -0.000188 0.053045 0.001439 0.000000 0.003329 0.000000
# 3 -0.010817 0.001439 0.028221 0.000000 -0.010625 0.000000
# 4 0.000000 0.000000 0.000000 0.088294 0.000000 0.001423
# 5 0.006854 0.003329 -0.010625 0.000000 0.052717 0.000000
# 6 0.000000 0.000000 0.000000 0.001423 0.000000 0.086904
#
#
# Mechanical properties :
#
#
# Convention : Reuss Voigt Hill
#
# Bulk Modulus (GPa) = 10.84646 14.01349 12.42997
# Shear Modulus (GPa) = 12.84991 14.65511 13.75251
#
# Velocity S-wave (km/s) = 2.76528 2.95314 2.86075
# Velocity P-wave (km/s) = 4.08048 4.46848 4.27888
#
# Compressibility (1/GPa) = 0.09219601
#
# Stress axis : x y z
#
# Youngs Moduli (GPa) = 33.26400 18.85198 35.43474
#
# Poissons Ratio (x) = 0.00354 0.38330
# Poissons Ratio (y) = 0.00625 -0.05098
# Poissons Ratio (z) = 0.35982 -0.02712
#
# Static dielectric constant tensor:
#      x y z
#    x 1.576510 0.000000 -0.006770 
#    y 0.000000 1.547260 0.000000 
#    z -0.006770 0.000000 1.569890 
# 
# From -- ./inp_files/21873.got.cif
#   From: 2010.05.17/outbox.cif.g08.bks.cpg/sg11_11_cif.got.tgz:21873.got - 2010.06.03 12:22:45.
