data_PCOD9167011
_publ_section_title
;
Structure prediction by ZEFSAII (Michael W. Deem and Ramdas Pophale) SiO2 
 PCOD9167011
Probable space group: P 21/M
;
_chemical_formula_sum "Si O2"
_cell_formula_units_Z 26
_cell_length_a 10.028537
_cell_length_b 20.390606
_cell_length_c 9.696327
_cell_angle_alpha 90.000000
_cell_angle_beta 136.188833
_cell_angle_gamma 90.000000
_cell_volume 1372.647921
_symmetry_space_group_name_H-M "P 21/M"
_symmetry_group_IT_number 11
_symmetry_cell_setting 'monoclinic'
loop_
_space_group_symop_operation_xyz
x,y,z
-x,1/2+y,-z
-x,-y,-z
x,1/2-y,z
loop_
_atom_site_type_symbol
_atom_site_label
_atom_site_fract_x
_atom_site_fract_y
_atom_site_fract_z
Si Si1 0.033251 0.032709 0.672754
Si Si2 0.518476 0.104671 0.741707
Si Si3 0.940856 0.440239 0.055174
Si Si4 0.333345 0.364889 0.335364
Si Si5 0.603461 0.045726 0.358827
Si Si6 0.366872 0.250000 0.130971
Si Si7 0.591729 0.877252 0.031893
O O1 0.824820 0.061926 0.557893
O O2 0.202323 0.085864 0.801710
O O3 0.000000 0.000000 0.500000
O O4 0.085651 0.975027 0.817344
O O5 0.415829 0.147945 0.548920
O O6 0.494841 0.129186 0.879960
O O7 0.420540 0.032417 0.663874
O O8 0.740626 0.093517 0.868744
O O9 0.115182 0.389461 0.184358
O O10 0.000000 0.500000 0.000000
O O11 0.460310 0.424199 0.365143
O O12 0.352060 0.306811 0.241281
O O13 0.540565 0.076706 0.165354
O O14 0.384787 0.308367 0.026936
#
# Coordination Sequence:
#
# PCOD9167011 Si02
#       7
#     4   4   4   4   4   2   4
#     4  12  21  34  62  98 128 155 198 254 324 370
#     4  12  21  36  65  97 126 155 201 259 320 359
#     4  12  21  34  61  97 127 155 196 251 320 368
#     4  11  23  41  59  88 127 161 205 254 294 376
#     4  11  20  36  61  97 131 156 195 252 325 368
#     4  10  26  48  62  76 124 182 212 246 308 360
#     4  11  23  42  61  91 131 166 205 256 301 382
#
# _framework density 18.941490999999999
#
# number of rings (size 3 to 8) (size 9 to 14) (size 15 to 20)
#    0.000    0.615    6.154    3.692    0.000    0.615 
#    0.000    7.692    0.000    0.000    0.000    0.000 
#    0.000    0.000    0.000    0.000    0.000    0.000 
#
# Total GULP energy -144828.877460 kJ/mol
# GULP energy per Si atom -5570.341441 kJ/mol
# Density = 1.889838 g / cm^3
# Si number density = 18.941491 Si / 1000 Ang^3
#
#
#
# Elastic Constant Matrix: (Units=GPa)
#
#
# Indices 1 2 3 4 5 6 
#
# 1 90.5074 31.3170 42.2517 0.0000 -1.6260 0.0000
# 2 31.3170 94.2025 25.8090 0.0000 -11.4517 0.0000
# 3 42.2517 25.8090 92.0044 0.0000 1.6898 0.0000
# 4 0.0000 0.0000 0.0000 5.1877 0.0000 -6.5096
# 5 -1.6260 -11.4517 1.6898 0.0000 59.3805 0.0000
# 6 0.0000 0.0000 0.0000 -6.5096 0.0000 7.4423
#
#
#
# Elastic Compliance Matrix: (Units=1/GPa)
#
#
# Indices 1 2 3 4 5 6 
#
# 1 0.014982 -0.003363 -0.005936 0.000000 -0.000069 0.000000
# 2 -0.003363 0.012580 -0.002028 0.000000 0.002392 0.000000
# 3 -0.005936 -0.002028 0.014182 0.000000 -0.000957 0.000000
# 4 0.000000 0.000000 0.000000 -1.975816 0.000000 -1.728197
# 5 -0.000069 0.002392 -0.000957 0.000000 0.017327 0.000000
# 6 0.000000 0.000000 0.000000 -1.728197 0.000000 -1.377244
#
#
# Mechanical properties :
#
#
# Convention : Reuss Voigt Hill
#
# Bulk Modulus (GPa) = 52.38502 52.82997 52.60749
# Shear Modulus (GPa) = -1.53141 26.22454 12.34657
#
# Velocity S-wave (km/s) = -0.90014 3.72493 2.55586
# Velocity P-wave (km/s) = 5.16100 6.81556 6.04515
#
# Compressibility (1/GPa) = 0.01908943
#
# Stress axis : x y z
#
# Youngs Moduli (GPa) = 66.74591 79.49181 70.51417
#
# Poissons Ratio (x) = 0.26733 0.41855
# Poissons Ratio (y) = 0.22446 0.14304
# Poissons Ratio (z) = 0.39618 0.16125
#
# Static dielectric constant tensor:
#      x y z
#    x 1.714170 0.000000 -0.017390 
#    y 0.000000 1.611850 0.000000 
#    z -0.017390 0.000000 1.701230 
# 
# From -- ./inp_files/14416.got.cif
#   From: 2010.05.17/outbox.cif.g08.bks.cpg/sg11_8_cif.got.tgz:14416.got - 2010.06.03 12:22:45.
