data_PCOD9167525
_publ_section_title
;
Structure prediction by ZEFSAII (Michael W. Deem and Ramdas Pophale) SiO2 
 PCOD9167525
Probable space group: P 21/M
;
_chemical_formula_sum "Si O2"
_cell_formula_units_Z 28
_cell_length_a 5.276771
_cell_length_b 31.270895
_cell_length_c 8.882082
_cell_angle_alpha 90.000000
_cell_angle_beta 55.290707
_cell_angle_gamma 90.000000
_cell_volume 1204.820829
_symmetry_space_group_name_H-M "P 21/M"
_symmetry_group_IT_number 11
_symmetry_cell_setting 'monoclinic'
loop_
_space_group_symop_operation_xyz
x,y,z
-x,1/2+y,-z
-x,-y,-z
x,1/2-y,z
loop_
_atom_site_type_symbol
_atom_site_label
_atom_site_fract_x
_atom_site_fract_y
_atom_site_fract_z
Si Si1 0.459776 0.530825 0.657446
Si Si2 0.825588 0.497263 0.810691
Si Si3 0.248898 0.612870 0.591509
Si Si4 0.238537 0.343446 0.021060
Si Si5 0.243809 0.331338 0.678800
Si Si6 0.842465 0.750000 0.813921
Si Si7 0.398771 0.250000 0.443116
Si Si8 0.194886 0.597054 0.280015
O O1 0.500000 0.500000 0.500000
O O2 0.722222 0.518540 0.687194
O O3 0.451445 0.581150 0.625920
O O4 0.903001 0.479488 0.189815
O O5 0.891665 0.446907 0.772270
O O6 0.500000 0.500000 0.000000
O O7 0.404418 0.653618 0.458724
O O8 0.208228 0.585753 0.452167
O O9 0.983894 0.631894 0.787353
O O10 0.283824 0.295008 0.071379
O O11 0.125349 0.332282 0.889560
O O12 0.507289 0.378512 0.892592
O O13 0.246718 0.288724 0.585226
O O14 0.060878 0.367606 0.655569
O O15 0.720661 0.750000 0.685644
O O16 0.222409 0.750000 0.687928
#
# Coordination Sequence:
#
# PCOD9167525 Si02
#       8
#     4   4   4   4   4   2   2   4
#     4  12  25  45  72 102 141 199 243 302 360 427
#     4  12  27  46  70 104 148 191 250 303 364 425
#     4  11  24  45  70 103 147 189 248 299 366 428
#     4  11  26  46  74 109 142 191 239 298 359 443
#     4  11  26  45  75 104 148 186 240 299 366 430
#     4  12  27  51  80 109 146 188 246 284 373 438
#     4  12  27  51  78 107 146 190 230 300 365 434
#     4  11  26  44  70 106 146 195 241 308 361 430
#
# _framework density 23.239968000000001
#
# number of rings (size 3 to 8) (size 9 to 14) (size 15 to 20)
#    0.000    0.571    2.857    3.857   10.000    1.714 
#    0.000    0.000    0.000    0.000    0.000    0.000 
#    0.000    0.000    0.000    0.000    0.000    0.000 
#
# Total GULP energy -156163.718056 kJ/mol
# GULP energy per Si atom -5577.275645 kJ/mol
# Density = 2.318707 g / cm^3
# Si number density = 23.239968 Si / 1000 Ang^3
#
#
#
# Elastic Constant Matrix: (Units=GPa)
#
#
# Indices 1 2 3 4 5 6 
#
# 1 52.3626 6.0834 9.7583 0.0000 -9.6602 0.0000
# 2 6.0834 140.4114 17.9776 0.0000 -4.0462 0.0000
# 3 9.7583 17.9776 115.9891 0.0000 -21.6522 0.0000
# 4 0.0000 0.0000 0.0000 40.9246 0.0000 1.6700
# 5 -9.6602 -4.0462 -21.6522 0.0000 24.5435 0.0000
# 6 0.0000 0.0000 0.0000 1.6700 0.0000 24.2444
#
#
#
# Elastic Compliance Matrix: (Units=1/GPa)
#
#
# Indices 1 2 3 4 5 6 
#
# 1 0.020657 -0.000647 -0.000167 0.000000 0.007876 0.000000
# 2 -0.000647 0.007288 -0.001075 0.000000 -0.000002 0.000000
# 3 -0.000167 -0.001075 0.010483 0.000000 0.009005 0.000000
# 4 0.000000 0.000000 0.000000 0.024504 0.000000 -0.001688
# 5 0.007876 -0.000002 0.009005 0.000000 0.051788 0.000000
# 6 0.000000 0.000000 0.000000 -0.001688 0.000000 0.041363
#
#
# Mechanical properties :
#
#
# Convention : Reuss Voigt Hill
#
# Bulk Modulus (GPa) = 28.86089 41.82242 35.34165
# Shear Modulus (GPa) = 29.16958 36.27208 32.72083
#
# Velocity S-wave (km/s) = 3.54665 3.95494 3.75634
# Velocity P-wave (km/s) = 5.40530 6.23621 5.83556
#
# Compressibility (1/GPa) = 0.03464897
#
# Stress axis : x y z
#
# Youngs Moduli (GPa) = 48.40979 137.21963 95.38974
#
# Poissons Ratio (x) = 0.08872 0.01597
# Poissons Ratio (y) = 0.03130 0.10259
# Poissons Ratio (z) = 0.00810 0.14758
#
# Static dielectric constant tensor:
#      x y z
#    x 2.011430 0.000000 -0.061980 
#    y 0.000000 1.831140 0.000000 
#    z -0.061980 0.000000 1.990890 
# 
# From -- ./inp_files/10816.got.cif
#   From: 2010.05.17/outbox.cif.g08.bks.cpg/sg11_6_cif.got.tgz:10816.got - 2010.06.03 12:22:45.
