data_PCOD9167153
_publ_section_title
;
Structure prediction by ZEFSAII (Michael W. Deem and Ramdas Pophale) SiO2 
 PCOD9167153
Probable space group: P 21/M
;
_chemical_formula_sum "Si O2"
_cell_formula_units_Z 16
_cell_length_a 10.296207
_cell_length_b 10.822626
_cell_length_c 6.549474
_cell_angle_alpha 90.000000
_cell_angle_beta 67.382014
_cell_angle_gamma 90.000000
_cell_volume 673.690101
_symmetry_space_group_name_H-M "P 21/M"
_symmetry_group_IT_number 11
_symmetry_cell_setting 'monoclinic'
loop_
_space_group_symop_operation_xyz
x,y,z
-x,1/2+y,-z
-x,-y,-z
x,1/2-y,z
loop_
_atom_site_type_symbol
_atom_site_label
_atom_site_fract_x
_atom_site_fract_y
_atom_site_fract_z
Si Si1 0.574287 0.616521 0.054175
Si Si2 0.834046 0.385146 0.547005
Si Si3 0.116989 0.055299 0.145661
Si Si4 0.741624 0.606944 0.341039
O O1 0.508998 0.750000 0.048062
O O2 0.735948 0.619658 0.881791
O O3 0.500000 0.500000 0.000000
O O4 0.603745 0.601215 0.279103
O O5 0.771808 0.250000 0.560151
O O6 0.863341 0.420109 0.765106
O O7 0.746508 0.496047 0.497675
O O8 0.983740 0.388781 0.339481
O O9 0.129411 0.073954 0.895089
O O10 0.757004 0.750000 0.398581
#
# Coordination Sequence:
#
# PCOD9167153 Si02
#       4
#     4   4   4   4
#     4   9  19  37  58  79 107 147 188 228 276 325
#     4  11  21  34  58  90 115 143 186 228 275 334
#     4   9  21  37  54  81 119 150 177 223 282 332
#     4   9  20  37  57  81 113 150 182 225 284 333
#
# _framework density 23.749791999999999
#
# number of rings (size 3 to 8) (size 9 to 14) (size 15 to 20)
#    1.500    1.000    0.000    2.250    0.000    9.000 
#    0.000    1.250    0.000    0.000    0.000    0.000 
#    0.000    0.000    0.000    0.000    0.000    0.000 
#
# Total GULP energy -89124.008438 kJ/mol
# GULP energy per Si atom -5570.250527 kJ/mol
# Density = 2.369574 g / cm^3
# Si number density = 23.749792 Si / 1000 Ang^3
#
#
#
# Elastic Constant Matrix: (Units=GPa)
#
#
# Indices 1 2 3 4 5 6 
#
# 1 72.3337 47.5296 11.6873 0.0000 1.1793 0.0000
# 2 47.5296 242.6893 47.5325 0.0000 44.7102 0.0000
# 3 11.6873 47.5325 72.7559 0.0000 15.0389 0.0000
# 4 0.0000 0.0000 0.0000 15.5566 0.0000 14.4909
# 5 1.1793 44.7102 15.0389 0.0000 37.4634 0.0000
# 6 0.0000 0.0000 0.0000 14.4909 0.0000 25.3770
#
#
#
# Elastic Compliance Matrix: (Units=1/GPa)
#
#
# Indices 1 2 3 4 5 6 
#
# 1 0.016447 -0.003841 -0.001061 0.000000 0.004492 0.000000
# 2 -0.003841 0.006572 -0.002269 0.000000 -0.006812 0.000000
# 3 -0.001061 -0.002269 0.016173 0.000000 -0.003751 0.000000
# 4 0.000000 0.000000 0.000000 0.137328 0.000000 -0.078418
# 5 0.004492 -0.006812 -0.003751 0.000000 0.036186 0.000000
# 6 0.000000 0.000000 0.000000 -0.078418 0.000000 0.084184
#
#
# Mechanical properties :
#
#
# Convention : Reuss Voigt Hill
#
# Bulk Modulus (GPa) = 40.24129 66.80863 53.52496
# Shear Modulus (GPa) = 15.64878 34.41470 25.03174
#
# Velocity S-wave (km/s) = 2.56969 3.81077 3.25002
# Velocity P-wave (km/s) = 5.07790 6.89593 6.05553
#
# Compressibility (1/GPa) = 0.02485010
#
# Stress axis : x y z
#
# Youngs Moduli (GPa) = 60.80239 152.16359 61.83305
#
# Poissons Ratio (x) = 0.58442 0.06562
# Poissons Ratio (y) = 0.23352 0.14027
# Poissons Ratio (z) = 0.06453 0.34520
#
# Static dielectric constant tensor:
#      x y z
#    x 1.991750 0.000000 0.043190 
#    y 0.000000 1.835480 0.000000 
#    z 0.043190 0.000000 1.995280 
# 
# From -- ./inp_files/15648.got.cif
#   From: 2010.05.17/outbox.cif.g08.bks.cpg/sg11_8_cif.got.tgz:15648.got - 2010.06.03 12:22:45.
