data_PCOD9167073
_publ_section_title
;
Structure prediction by ZEFSAII (Michael W. Deem and Ramdas Pophale) SiO2 
 PCOD9167073
Probable space group: P 21/M
;
_chemical_formula_sum "Si O2"
_cell_formula_units_Z 24
_cell_length_a 10.530983
_cell_length_b 8.026922
_cell_length_c 21.015823
_cell_angle_alpha 90.000000
_cell_angle_beta 48.759850
_cell_angle_gamma 90.000000
_cell_volume 1335.842136
_symmetry_space_group_name_H-M "P 21/M"
_symmetry_group_IT_number 11
_symmetry_cell_setting 'monoclinic'
loop_
_space_group_symop_operation_xyz
x,y,z
-x,1/2+y,-z
-x,-y,-z
x,1/2-y,z
loop_
_atom_site_type_symbol
_atom_site_label
_atom_site_fract_x
_atom_site_fract_y
_atom_site_fract_z
Si Si1 0.559191 0.055835 0.084245
Si Si2 0.323840 0.045956 0.267151
Si Si3 0.194791 0.050992 0.443681
Si Si4 0.687424 0.447384 0.455972
Si Si5 0.254828 0.949509 0.094316
Si Si6 0.985333 0.548529 0.723497
O O1 0.595057 0.250000 0.083973
O O2 0.488304 0.984474 0.173923
O O3 0.396001 0.038110 0.091686
O O4 0.710647 0.991368 0.989447
O O5 0.328632 0.250000 0.265189
O O6 0.298315 0.989534 0.347730
O O7 0.157257 0.998725 0.281450
O O8 0.201821 0.250000 0.440511
O O9 0.265909 0.992018 0.487279
O O10 0.000000 0.000000 0.500000
O O11 0.500000 0.500000 0.500000
O O12 0.695926 0.250000 0.447490
O O13 0.834448 0.514469 0.360718
O O14 0.285003 0.750000 0.086593
O O15 0.078948 0.986498 0.186884
O O16 0.985678 0.750000 0.725280
#
# Coordination Sequence:
#
# PCOD9167073 Si02
#       6
#     4   4   4   4   4   4
#     4   8  14  25  38  58  93 129 156 191 240 291
#     4   8  14  27  46  67  94 130 163 192 239 297
#     4  11  20  33  53  77 103 135 172 210 250 300
#     4  11  23  39  54  73 100 134 172 213 259 306
#     4   9  15  22  38  64  91 121 160 199 237 284
#     4   9  17  31  47  64  94 131 162 196 247 304
#
# _framework density 17.966194999999999
#
# number of rings (size 3 to 8) (size 9 to 14) (size 15 to 20)
#    0.000    2.667    1.667    2.500    0.000    2.000 
#    0.000    0.833    0.000    0.000    0.000    1.167 
#    0.000    0.000    0.000    0.000    0.000    0.000 
#
# Total GULP energy -133612.649242 kJ/mol
# GULP energy per Si atom -5567.193718 kJ/mol
# Density = 1.792530 g / cm^3
# Si number density = 17.966195 Si / 1000 Ang^3
#
#
#
# Elastic Constant Matrix: (Units=GPa)
#
#
# Indices 1 2 3 4 5 6 
#
# 1 66.1954 5.2538 62.0360 0.0000 -1.3467 0.0000
# 2 5.2538 21.5323 9.3584 0.0000 -2.8192 0.0000
# 3 62.0360 9.3584 229.7846 0.0000 14.5548 0.0000
# 4 0.0000 0.0000 0.0000 23.5939 0.0000 0.0064
# 5 -1.3467 -2.8192 14.5548 0.0000 13.3374 0.0000
# 6 0.0000 0.0000 0.0000 0.0064 0.0000 18.0512
#
#
#
# Elastic Compliance Matrix: (Units=1/GPa)
#
#
# Indices 1 2 3 4 5 6 
#
# 1 0.021220 -0.001341 -0.006222 0.000000 0.008649 0.000000
# 2 -0.001341 0.049557 -0.002483 0.000000 0.013049 0.000000
# 3 -0.006222 -0.002483 0.006667 0.000000 -0.008428 0.000000
# 4 0.000000 0.000000 0.000000 0.042384 0.000000 -0.000015
# 5 0.008649 0.013049 -0.008428 0.000000 0.087806 0.000000
# 6 0.000000 0.000000 0.000000 -0.000015 0.000000 0.055398
#
#
# Mechanical properties :
#
#
# Convention : Reuss Voigt Hill
#
# Bulk Modulus (GPa) = 17.43627 52.31210 34.87418
# Shear Modulus (GPa) = 16.54309 27.05412 21.79860
#
# Velocity S-wave (km/s) = 3.03774 3.88472 3.48704
# Velocity P-wave (km/s) = 4.69361 7.02151 5.97208
#
# Compressibility (1/GPa) = 0.05735173
#
# Stress axis : x y z
#
# Youngs Moduli (GPa) = 47.12443 20.17895 149.99889
#
# Poissons Ratio (x) = 0.02706 0.93333
# Poissons Ratio (y) = 0.06319 0.37241
# Poissons Ratio (z) = 0.29322 0.05010
#
# Static dielectric constant tensor:
#      x y z
#    x 1.552590 0.000000 0.013540 
#    y 0.000000 1.636190 0.000000 
#    z 0.013540 0.000000 1.719520 
# 
# From -- ./inp_files/63169.got.cif
#   From: 2010.05.17/outbox.cif.g08.bks.cpg/sg11_32_cif.got.tgz:63169.got - 2010.06.03 12:22:45.
