data_PCOD9167158
_publ_section_title
;
Structure prediction by ZEFSAII (Michael W. Deem and Ramdas Pophale) SiO2 
 PCOD9167158
Probable space group: P 21/M
;
_chemical_formula_sum "Si O2"
_cell_formula_units_Z 32
_cell_length_a 14.400506
_cell_length_b 8.409759
_cell_length_c 12.712489
_cell_angle_alpha 90.000000
_cell_angle_beta 89.260031
_cell_angle_gamma 90.000000
_cell_volume 1539.414854
_symmetry_space_group_name_H-M "P 21/M"
_symmetry_group_IT_number 11
_symmetry_cell_setting 'monoclinic'
loop_
_space_group_symop_operation_xyz
x,y,z
-x,1/2+y,-z
-x,-y,-z
x,1/2-y,z
loop_
_atom_site_type_symbol
_atom_site_label
_atom_site_fract_x
_atom_site_fract_y
_atom_site_fract_z
Si Si1 0.633118 0.434731 0.213980
Si Si2 0.460559 0.563932 0.111771
Si Si3 0.259633 0.437793 0.171317
Si Si4 0.813613 0.059100 0.603880
Si Si5 0.012500 0.055177 0.662288
Si Si6 0.972019 0.931639 0.111457
Si Si7 0.792379 0.066759 0.049522
Si Si8 0.223779 0.060427 0.614877
O O1 0.607522 0.250000 0.227100
O O2 0.541408 0.537073 0.196591
O O3 0.692938 0.448728 0.105565
O O4 0.701598 0.485206 0.307103
O O5 0.438196 0.750000 0.100948
O O6 0.500000 0.500000 0.000000
O O7 0.631718 0.527276 0.850944
O O8 0.241766 0.250000 0.168223
O O9 0.227119 0.507633 0.283081
O O10 0.209686 0.520137 0.072278
O O11 0.810965 0.250000 0.596367
O O12 0.922609 0.006252 0.597208
O O13 0.759454 0.984123 0.506842
O O14 0.014420 0.250000 0.661194
O O15 0.991330 0.996331 0.781370
O O16 0.117336 0.002484 0.636604
O O17 0.999522 0.750000 0.112008
O O18 0.861223 0.953379 0.112395
O O19 0.000000 0.000000 0.000000
O O20 0.822495 0.250000 0.061774
O O21 0.225639 0.250000 0.628993
#
# Coordination Sequence:
#
# PCOD9167158 Si02
#       8
#     4   4   4   4   4   4   4   4
#     4  11  23  40  64  95 127 163 207 257 312 373
#     4  12  24  41  67  98 130 166 205 256 314 380
#     4  12  25  42  65  94 128 168 211 260 318 382
#     4  11  23  42  64  91 127 168 214 266 319 374
#     4   9  20  37  60  87 122 165 212 263 311 366
#     4  11  21  35  54  83 123 167 211 258 316 378
#     4  11  22  37  59  88 125 164 205 256 315 375
#     4  11  22  41  65  92 126 168 217 266 315 373
#
# _framework density 20.787119000000001
#
# number of rings (size 3 to 8) (size 9 to 14) (size 15 to 20)
#    0.000    1.000    2.500    5.250    0.000    2.000 
#    0.000    4.375    0.000    0.000    0.000    0.000 
#    0.000    0.000    0.000    0.000    0.000    0.000 
#
# Total GULP energy -178876.803296 kJ/mol
# GULP energy per Si atom -5589.900103 kJ/mol
# Density = 2.073981 g / cm^3
# Si number density = 20.787119 Si / 1000 Ang^3
#
#
#
# Elastic Constant Matrix: (Units=GPa)
#
#
# Indices 1 2 3 4 5 6 
#
# 1 65.3108 -12.7147 15.9785 0.0000 11.7143 0.0000
# 2 -12.7147 47.3154 1.4974 0.0000 0.4312 0.0000
# 3 15.9785 1.4974 114.8159 0.0000 19.1975 0.0000
# 4 0.0000 0.0000 0.0000 29.7955 0.0000 1.5513
# 5 11.7143 0.4312 19.1975 0.0000 29.5598 0.0000
# 6 0.0000 0.0000 0.0000 1.5513 0.0000 28.7900
#
#
#
# Elastic Compliance Matrix: (Units=1/GPa)
#
#
# Indices 1 2 3 4 5 6 
#
# 1 0.017725 0.004866 -0.001508 0.000000 -0.006116 0.000000
# 2 0.004866 0.022480 -0.000665 0.000000 -0.001824 0.000000
# 3 -0.001508 -0.000665 0.009902 0.000000 -0.005824 0.000000
# 4 0.000000 0.000000 0.000000 0.033656 0.000000 -0.001814
# 5 -0.006116 -0.001824 -0.005824 0.000000 0.040062 0.000000
# 6 0.000000 0.000000 0.000000 -0.001814 0.000000 0.034832
#
#
# Mechanical properties :
#
#
# Convention : Reuss Voigt Hill
#
# Bulk Modulus (GPa) = 18.02008 26.32938 22.17473
# Shear Modulus (GPa) = 29.10904 32.47448 30.79176
#
# Velocity S-wave (km/s) = 3.74617 3.95681 3.85293
# Velocity P-wave (km/s) = 5.23445 5.79386 5.52124
#
# Compressibility (1/GPa) = 0.05549365
#
# Stress axis : x y z
#
# Youngs Moduli (GPa) = 56.41875 44.48363 100.99199
#
# Poissons Ratio (x) = -0.21648 0.15225
# Poissons Ratio (y) = -0.27456 0.06720
# Poissons Ratio (z) = 0.08505 0.02960
#
# Static dielectric constant tensor:
#      x y z
#    x 1.784250 0.000000 -0.008250 
#    y 0.000000 1.716710 0.000000 
#    z -0.008250 0.000000 1.747120 
# 
# From -- ./inp_files/40635.got.cif
#   From: 2010.05.17/outbox.cif.g08.bks.cpg/sg11_21_cif.got.tgz:40635.got - 2010.06.03 12:22:45.
