data_PCOD9167369
_publ_section_title
;
Structure prediction by ZEFSAII (Michael W. Deem and Ramdas Pophale) SiO2 
 PCOD9167369
Probable space group: P 21/M
;
_chemical_formula_sum "Si O2"
_cell_formula_units_Z 24
_cell_length_a 11.646508
_cell_length_b 17.140838
_cell_length_c 10.946337
_cell_angle_alpha 90.000000
_cell_angle_beta 152.324654
_cell_angle_gamma 90.000000
_cell_volume 1014.952854
_symmetry_space_group_name_H-M "P 21/M"
_symmetry_group_IT_number 11
_symmetry_cell_setting 'monoclinic'
loop_
_space_group_symop_operation_xyz
x,y,z
-x,1/2+y,-z
-x,-y,-z
x,1/2-y,z
loop_
_atom_site_type_symbol
_atom_site_label
_atom_site_fract_x
_atom_site_fract_y
_atom_site_fract_z
Si Si1 0.804921 0.161366 0.679822
Si Si2 0.408286 0.938421 0.315063
Si Si3 0.879897 0.114396 0.305686
Si Si4 0.855943 0.538557 0.141958
Si Si5 0.608058 0.662727 0.311779
Si Si6 0.537609 0.161402 0.187728
O O1 0.904531 0.250000 0.777267
O O2 0.736795 0.128359 0.747803
O O3 0.573191 0.163508 0.367740
O O4 0.971658 0.097892 0.769088
O O5 0.620974 0.896858 0.437037
O O6 0.500000 0.000000 0.500000
O O7 0.254479 0.985724 0.070830
O O8 0.787740 0.134429 0.354898
O O9 0.134334 0.158012 0.516751
O O10 0.635944 0.141509 0.997921
O O11 0.934892 0.025799 0.315435
O O12 0.656567 0.593840 0.020011
O O13 0.572393 0.750000 0.324432
O O14 0.476294 0.250000 0.090349
#
# Coordination Sequence:
#
# PCOD9167369 Si02
#       6
#     4   4   4   4   4   4
#     4  11  24  42  67 100 135 177 226 282 347 409
#     4  11  22  44  66  95 133 175 228 284 338 406
#     4  11  26  44  73 101 137 180 229 281 341 407
#     4  11  24  43  69  97 135 180 229 281 340 408
#     4  11  24  45  70 101 135 179 228 283 343 406
#     4  11  24  43  66 100 139 178 223 283 343 408
#
# _framework density 23.646418000000001
#
# number of rings (size 3 to 8) (size 9 to 14) (size 15 to 20)
#    0.000    1.000    1.667    4.500    4.667    2.000 
#    0.000    3.333    0.000    0.000    0.000    0.000 
#    0.000    0.000    0.000    0.000    0.000    0.000 
#
# Total GULP energy -134188.925451 kJ/mol
# GULP energy per Si atom -5591.205227 kJ/mol
# Density = 2.359260 g / cm^3
# Si number density = 23.646418 Si / 1000 Ang^3
#
#
#
# Elastic Constant Matrix: (Units=GPa)
#
#
# Indices 1 2 3 4 5 6 
#
# 1 112.3524 33.2455 26.8316 0.0000 -5.6160 0.0000
# 2 33.2455 166.7462 25.7480 0.0000 -5.3831 0.0000
# 3 26.8316 25.7480 60.6108 0.0000 1.9202 0.0000
# 4 0.0000 0.0000 0.0000 78.5753 0.0000 22.8052
# 5 -5.6160 -5.3831 1.9202 0.0000 40.6868 0.0000
# 6 0.0000 0.0000 0.0000 22.8052 0.0000 46.9948
#
#
#
# Elastic Compliance Matrix: (Units=1/GPa)
#
#
# Indices 1 2 3 4 5 6 
#
# 1 0.010348 -0.001394 -0.004034 0.000000 0.001434 0.000000
# 2 -0.001394 0.006645 -0.002231 0.000000 0.000792 0.000000
# 3 -0.004034 -0.002231 0.019288 0.000000 -0.001762 0.000000
# 4 0.000000 0.000000 0.000000 0.014813 0.000000 -0.007188
# 5 0.001434 0.000792 -0.001762 0.000000 0.024964 0.000000
# 6 0.000000 0.000000 0.000000 -0.007188 0.000000 0.024767
#
#
# Mechanical properties :
#
#
# Convention : Reuss Voigt Hill
#
# Bulk Modulus (GPa) = 47.70265 56.81773 52.26019
# Shear Modulus (GPa) = 40.60697 50.17700 45.39199
#
# Velocity S-wave (km/s) = 4.14848 4.61148 4.38609
# Velocity P-wave (km/s) = 6.56990 7.24117 6.91369
#
# Compressibility (1/GPa) = 0.02096320
#
# Stress axis : x y z
#
# Youngs Moduli (GPa) = 96.63527 150.48642 51.84518
#
# Poissons Ratio (x) = 0.20977 0.20916
# Poissons Ratio (y) = 0.13470 0.11566
# Poissons Ratio (z) = 0.38985 0.33572
#
# Static dielectric constant tensor:
#      x y z
#    x 1.912920 0.000000 -0.018680 
#    y 0.000000 1.895390 0.000000 
#    z -0.018680 0.000000 1.976690 
# 
# From -- ./inp_files/36172.got.cif
#   From: 2010.05.17/outbox.cif.g08.bks.cpg/sg11_19_cif.got.tgz:36172.got - 2010.06.03 12:22:45.
