data_PCOD9167864
_publ_section_title
;
Structure prediction by ZEFSAII (Michael W. Deem and Ramdas Pophale) SiO2 
 PCOD9167864
Probable space group: P 21/M
;
_chemical_formula_sum "Si O2"
_cell_formula_units_Z 28
_cell_length_a 30.000000
_cell_length_b 9.000000
_cell_length_c 30.000000
_cell_angle_alpha 90.000000
_cell_angle_beta 10.000000
_cell_angle_gamma 90.000000
_cell_volume 1406.550239
_symmetry_space_group_name_H-M "P 21/M"
_symmetry_group_IT_number 11
_symmetry_cell_setting 'monoclinic'
loop_
_space_group_symop_operation_xyz
x,y,z
-x,1/2+y,-z
-x,-y,-z
x,1/2-y,z
loop_
_atom_site_type_symbol
_atom_site_label
_atom_site_fract_x
_atom_site_fract_y
_atom_site_fract_z
Si Si1 0.623441 0.571540 0.123503
Si Si2 0.243383 0.586918 0.743388
Si Si3 0.524186 0.430444 0.024194
Si Si4 0.898192 0.929268 0.398133
Si Si5 0.809446 0.082053 0.309540
Si Si6 0.049733 0.070900 0.549734
Si Si7 0.327851 0.928009 0.827938
O O1 0.623119 0.750000 0.123087
O O2 0.361787 0.503805 0.362266
O O3 0.648179 0.505993 0.148200
O O4 0.862123 0.503758 0.861917
O O5 0.500000 0.500000 0.500000
O O6 0.253919 0.750000 0.753910
O O7 0.216869 0.599431 0.716918
O O8 0.000000 0.500000 0.000000
O O9 0.522963 0.250000 0.022977
O O10 0.785777 0.482294 0.789123
O O11 0.500000 0.500000 0.000000
O O12 0.289116 0.482297 0.285783
O O13 0.894664 0.750000 0.394684
O O14 0.924358 0.962650 0.424365
O O15 0.819530 0.250000 0.319590
O O16 0.567587 0.989605 0.564473
O O17 0.064298 0.989559 0.067784
O O18 0.048070 0.250000 0.548076
O O19 0.329462 0.750000 0.829456
#
# Coordination Sequence:
#
# PCOD9167864 Si02
#       7
#     4   4   4   4   4   4   4
#     4  12  25  42  62  90 127 161 192 245 311 363
#     4  11  24  41  64  92 126 164 205 250 303 361
#     4  10  19  34  54  80 110 146 187 232 287 345
#     4  11  22  41  66  90 116 157 208 251 290 355
#     4  11  24  43  64  91 126 164 201 250 311 361
#     4   9  19  35  57  80 109 147 190 237 288 342
#     4  12  25  42  65  93 121 159 208 253 294 357
#
# _framework density 19.906860999999999
#
# number of rings (size 3 to 8) (size 9 to 14) (size 15 to 20)
#    0.000    1.143    0.000    6.857    0.000    8.000 
#    0.000    4.286    0.000    0.000    0.000    0.000 
#    0.000    0.000    0.000    0.000    0.000    0.000 
#
# Total GULP energy -156458.591662 kJ/mol
# GULP energy per Si atom -5587.806845 kJ/mol
# Density = 1.986155 g / cm^3
# Si number density = 19.906861 Si / 1000 Ang^3
#
#
#
# Elastic Constant Matrix: (Units=GPa)
#
#
# Indices 1 2 3 4 5 6 
#
# 1 118.0751 61.5805 91.8165 0.0000 -2.6415 0.0000
# 2 61.5805 164.2177 91.0317 0.0000 -2.5390 0.0000
# 3 91.8165 91.0317 226.6553 0.0000 -6.8333 0.0000
# 4 0.0000 0.0000 0.0000 -218.0621 0.0000 21.9053
# 5 -2.6415 -2.5390 -6.8333 0.0000 28.6613 0.0000
# 6 0.0000 0.0000 0.0000 21.9053 0.0000 29.7720
#
#
#
# Elastic Compliance Matrix: (Units=1/GPa)
#
#
# Indices 1 2 3 4 5 6 
#
# 1 0.013141 -0.002543 -0.004303 0.000000 -0.000040 0.000000
# 2 -0.002543 0.008326 -0.002315 0.000000 -0.000049 0.000000
# 3 -0.004303 -0.002315 0.007118 0.000000 0.001095 0.000000
# 4 0.000000 0.000000 0.000000 -0.004270 0.000000 0.003142
# 5 -0.000040 -0.000049 0.001095 0.000000 0.035143 0.000000
# 6 0.000000 0.000000 0.000000 0.003142 0.000000 0.031277
#
#
# Mechanical properties :
#
#
# Convention : Reuss Voigt Hill
#
# Bulk Modulus (GPa) = 97.44740 110.86727 104.15734
# Shear Modulus (GPa) = 44.45337 -14.29112 15.08112
#
# Velocity S-wave (km/s) = 4.73066 -2.68227 2.75541
# Velocity P-wave (km/s) = 8.88239 6.79861 7.90942
#
# Compressibility (1/GPa) = 0.01026195
#
# Stress axis : x y z
#
# Youngs Moduli (GPa) = 76.09980 120.10996 140.48850
#
# Poissons Ratio (x) = 0.30543 0.60453
# Poissons Ratio (y) = 0.19352 0.32526
# Poissons Ratio (z) = 0.32746 0.27808
#
# Static dielectric constant tensor:
#      x y z
#    x 1.730380 0.000000 0.003340 
#    y 0.000000 1.721700 0.000000 
#    z 0.003340 0.000000 1.693210 
# 
# From -- ./inp_files/73860.got.cif
#   From: 2010.05.17/outbox.ucp.g08.bks.cvg/sg11_37_cif.got.tgz:73860.got - 2010.06.11 11:38:39.
