data_PCOD9167616
_publ_section_title
;
Structure prediction by ZEFSAII (Michael W. Deem and Ramdas Pophale) SiO2 
 PCOD9167616
Probable space group: P 21/M
;
_chemical_formula_sum "Si O2"
_cell_formula_units_Z 32
_cell_length_a 11.593956
_cell_length_b 22.881490
_cell_length_c 7.043852
_cell_angle_alpha 90.000000
_cell_angle_beta 38.955215
_cell_angle_gamma 90.000000
_cell_volume 1174.839221
_symmetry_space_group_name_H-M "P 21/M"
_symmetry_group_IT_number 11
_symmetry_cell_setting 'monoclinic'
loop_
_space_group_symop_operation_xyz
x,y,z
-x,1/2+y,-z
-x,-y,-z
x,1/2-y,z
loop_
_atom_site_type_symbol
_atom_site_label
_atom_site_fract_x
_atom_site_fract_y
_atom_site_fract_z
Si Si1 0.486271 0.062332 0.765707
Si Si2 0.890443 0.439182 0.377171
Si Si3 0.481837 0.938708 0.721933
Si Si4 0.596442 0.187672 0.186425
Si Si5 0.096404 0.438176 0.712171
Si Si6 0.530421 0.687016 0.225060
Si Si7 0.981990 0.687840 0.222241
Si Si8 0.898067 0.313330 0.360378
O O1 0.670571 0.061121 0.651605
O O2 0.549512 0.064859 0.464010
O O3 0.387371 0.123792 0.930009
O O4 0.391347 0.999346 0.907035
O O5 0.952600 0.504817 0.348358
O O6 0.943296 0.375972 0.395759
O O7 0.962024 0.435685 0.066022
O O8 0.436527 0.875135 0.863393
O O9 0.698497 0.947213 0.473020
O O10 0.556837 0.250000 0.138878
O O11 0.483222 0.187646 0.527818
O O12 0.808762 0.188267 0.973618
O O13 0.096053 0.374436 0.621496
O O14 0.610467 0.750000 0.068673
O O15 0.318322 0.685892 0.421746
O O16 0.895371 0.750000 0.386096
O O17 0.993026 0.687779 0.978040
O O18 0.931394 0.250000 0.412997
#
# Coordination Sequence:
#
# PCOD9167616 Si02
#       8
#     4   4   4   4   4   4   4   4
#     4   8  13  19  23  27  35  43  47  48  52  61
#     4   8  13  19  23  27  35  43  47  48  52  61
#     4   9  14  17  22  30  36  39  43  52  58  57
#     4   8  13  20  26  28  31  39  46  49  54  64
#     4   9  14  17  22  30  36  39  43  52  58  57
#     4   7   9  14  23  29  30  35  46  52  50  53
#     4   8  13  20  26  28  31  39  46  49  54  64
#     4   7   9  14  23  29  30  35  46  52  50  53
#
# _framework density 27.237767000000002
#
# number of rings (size 3 to 8) (size 9 to 14) (size 15 to 20)
#    0.000    4.000    0.000    3.750    0.000    1.500 
#    0.000    0.000    0.000    0.000    0.000    0.000 
#    0.000    0.000    0.000    0.000    0.000    0.000 
#
# Total GULP energy -178579.264035 kJ/mol
# GULP energy per Si atom -5580.602001 kJ/mol
# Density = 2.717577 g / cm^3
# Si number density = 27.237767 Si / 1000 Ang^3
#
#
#
# Elastic Constant Matrix: (Units=GPa)
#
#
# Indices 1 2 3 4 5 6 
#
# 1 75.0526 21.6640 36.0260 0.0000 17.2985 0.0000
# 2 21.6640 399.2812 17.7767 0.0000 11.2256 0.0000
# 3 36.0260 17.7767 65.7167 0.0000 9.9279 0.0000
# 4 0.0000 0.0000 0.0000 4.4863 0.0000 -21.4013
# 5 17.2985 11.2256 9.9279 0.0000 34.1254 0.0000
# 6 0.0000 0.0000 0.0000 -21.4013 0.0000 -4.1155
#
#
#
# Elastic Compliance Matrix: (Units=1/GPa)
#
#
# Indices 1 2 3 4 5 6 
#
# 1 0.019686 -0.000442 -0.009609 0.000000 -0.007038 0.000000
# 2 -0.000442 0.002559 -0.000373 0.000000 -0.000509 0.000000
# 3 -0.009609 -0.000373 0.020743 0.000000 -0.001041 0.000000
# 4 0.000000 0.000000 0.000000 0.008637 0.000000 -0.044916
# 5 -0.007038 -0.000509 -0.001041 0.000000 0.033342 0.000000
# 6 0.000000 0.000000 0.000000 -0.044916 0.000000 -0.009415
#
#
# Mechanical properties :
#
#
# Convention : Reuss Voigt Hill
#
# Bulk Modulus (GPa) = 45.16804 76.77601 60.97202
# Shear Modulus (GPa) = 48.17839 37.87148 43.02494
#
# Velocity S-wave (km/s) = 4.21028 3.73286 3.97874
# Velocity P-wave (km/s) = 6.34462 6.84306 6.59855
#
# Compressibility (1/GPa) = 0.02213955
#
# Stress axis : x y z
#
# Youngs Moduli (GPa) = 50.79654 390.71317 48.20972
#
# Poissons Ratio (x) = 0.17287 0.46326
# Poissons Ratio (y) = 0.02247 0.01798
# Poissons Ratio (z) = 0.48811 0.14568
#
# Static dielectric constant tensor:
#      x y z
#    x 2.056530 0.000000 -0.003780 
#    y 0.000000 2.221450 0.000000 
#    z -0.003780 0.000000 2.033500 
# 
# From -- ./inp_files/55158.got.cif
#   From: 2010.05.17/outbox.cif.g08.bks.cpg/sg11_28_cif.got.tgz:55158.got - 2010.06.03 12:22:45.
