data_PCOD9167324
_publ_section_title
;
Structure prediction by ZEFSAII (Michael W. Deem and Ramdas Pophale) SiO2 
 PCOD9167324
Probable space group: P 21/M
;
_chemical_formula_sum "Si O2"
_cell_formula_units_Z 26
_cell_length_a 8.555695
_cell_length_b 22.967342
_cell_length_c 8.555684
_cell_angle_alpha 90.000000
_cell_angle_beta 53.986997
_cell_angle_gamma 90.000000
_cell_volume 1359.899412
_symmetry_space_group_name_H-M "P 21/M"
_symmetry_group_IT_number 11
_symmetry_cell_setting 'monoclinic'
loop_
_space_group_symop_operation_xyz
x,y,z
-x,1/2+y,-z
-x,-y,-z
x,1/2-y,z
loop_
_atom_site_type_symbol
_atom_site_label
_atom_site_fract_x
_atom_site_fract_y
_atom_site_fract_z
Si Si1 0.928178 0.566023 0.518394
Si Si2 0.481606 0.066023 0.071822
Si Si3 0.817894 0.565356 0.225912
Si Si4 0.433375 0.346240 0.817612
Si Si5 0.817611 0.153759 0.433376
Si Si6 0.774087 0.065356 0.182107
Si Si7 0.126156 0.250000 0.126157
O O1 0.727738 0.572699 0.727738
O O2 0.889999 0.576580 0.358434
O O3 0.000000 0.500000 0.500000
O O4 0.078296 0.610856 0.504432
O O5 0.641565 0.076579 0.110002
O O6 0.495569 0.110856 0.921703
O O7 0.500000 0.000000 0.000000
O O8 0.669986 0.612934 0.250475
O O9 0.733265 0.500000 0.266735
O O10 0.002675 0.566730 0.002674
O O11 0.627183 0.320597 0.627184
O O12 0.278831 0.300550 0.973235
O O13 0.749523 0.112933 0.330016
O O14 0.973233 0.199450 0.278831
#
# Coordination Sequence:
#
# PCOD9167324 Si02
#       7
#     4   4   4   4   4   4   2
#     4  12  23  39  66 106 142 177 225 284 354 418
#     4  12  23  39  66 106 142 177 225 284 354 418
#     4  11  22  39  67 105 141 175 219 282 351 412
#     4  12  25  46  73 100 136 186 231 285 344 410
#     4  12  25  46  73 100 136 186 231 285 344 410
#     4  11  22  39  67 105 141 175 219 282 351 412
#     4  12  26  52  70  94 138 190 242 280 336 414
#
# _framework density 19.119060000000001
#
# number of rings (size 3 to 8) (size 9 to 14) (size 15 to 20)
#    0.000    0.308    6.154    4.154    0.000    1.231 
#    0.000    1.538    0.000    0.000    0.000    0.000 
#    0.000    0.000    0.000    0.000    0.000    0.000 
#
# Total GULP energy -144909.568672 kJ/mol
# GULP energy per Si atom -5573.444949 kJ/mol
# Density = 1.907554 g / cm^3
# Si number density = 19.119060 Si / 1000 Ang^3
#
#
#
# Elastic Constant Matrix: (Units=GPa)
#
#
# Indices 1 2 3 4 5 6 
#
# 1 111.5494 62.3581 30.4807 0.0000 16.1053 0.0000
# 2 62.3581 147.1803 63.6557 0.0000 -0.7745 0.0000
# 3 30.4807 63.6557 132.4856 0.0000 -28.5834 0.0000
# 4 0.0000 0.0000 0.0000 26.7984 0.0000 -14.5352
# 5 16.1053 -0.7745 -28.5834 0.0000 53.6487 0.0000
# 6 0.0000 0.0000 0.0000 -14.5352 0.0000 2.4064
#
#
#
# Elastic Compliance Matrix: (Units=1/GPa)
#
#
# Indices 1 2 3 4 5 6 
#
# 1 0.012747 -0.004681 -0.001721 0.000000 -0.004811 0.000000
# 2 -0.004681 0.010564 -0.004138 0.000000 -0.000647 0.000000
# 3 -0.001721 -0.004138 0.011334 0.000000 0.006496 0.000000
# 4 0.000000 0.000000 0.000000 -0.016394 0.000000 -0.099024
# 5 -0.004811 -0.000647 0.006496 0.000000 0.023535 0.000000
# 6 0.000000 0.000000 0.000000 -0.099024 0.000000 -0.182571
#
#
# Mechanical properties :
#
#
# Convention : Reuss Voigt Hill
#
# Bulk Modulus (GPa) = 73.73298 78.24494 75.98896
# Shear Modulus (GPa) = -43.40981 32.21874 -5.59553
#
# Velocity S-wave (km/s) = -4.77014 4.10953 -1.71261
# Velocity P-wave (km/s) = 2.88268 7.97067 5.99339
#
# Compressibility (1/GPa) = 0.01356245
#
# Stress axis : x y z
#
# Youngs Moduli (GPa) = 78.45235 94.65850 88.23179
#
# Poissons Ratio (x) = 0.44313 0.15187
# Poissons Ratio (y) = 0.36727 0.36514
# Poissons Ratio (z) = 0.13504 0.39174
#
# Static dielectric constant tensor:
#      x y z
#    x 1.636420 0.000000 -0.021670 
#    y 0.000000 1.628270 0.000000 
#    z -0.021670 0.000000 1.672780 
# 
# From -- ./inp_files/14497.got.cif
#   From: 2010.05.17/outbox.cif.g08.bks.cpg/sg11_8_cif.got.tgz:14497.got - 2010.06.03 12:22:45.
