data_PCOD9167469
_publ_section_title
;
Structure prediction by ZEFSAII (Michael W. Deem and Ramdas Pophale) SiO2 
 PCOD9167469
Probable space group: P 21/M
;
_chemical_formula_sum "Si O2"
_cell_formula_units_Z 22
_cell_length_a 13.628788
_cell_length_b 13.491485
_cell_length_c 21.479590
_cell_angle_alpha 90.000000
_cell_angle_beta 162.128983
_cell_angle_gamma 90.000000
_cell_volume 1212.006064
_symmetry_space_group_name_H-M "P 21/M"
_symmetry_group_IT_number 11
_symmetry_cell_setting 'monoclinic'
loop_
_space_group_symop_operation_xyz
x,y,z
-x,1/2+y,-z
-x,-y,-z
x,1/2-y,z
loop_
_atom_site_type_symbol
_atom_site_label
_atom_site_fract_x
_atom_site_fract_y
_atom_site_fract_z
Si Si1 0.961512 0.584838 0.926614
Si Si2 0.850060 0.030214 0.733373
Si Si3 0.489136 0.250000 0.747889
Si Si4 0.324678 0.750000 0.383118
Si Si5 0.130598 0.250000 0.397465
Si Si6 0.561794 0.250000 0.397464
Si Si7 0.254528 0.250000 0.747888
Si Si8 0.318329 0.584838 0.926613
O O1 0.907931 0.522506 0.832715
O O2 0.653541 0.655095 0.750364
O O3 0.000000 0.500000 0.000000
O O4 0.271466 0.655507 0.108330
O O5 0.867085 0.148864 0.744723
O O6 0.500000 0.000000 0.500000
O O7 0.090212 0.977493 0.832715
O O8 0.294994 0.250000 0.564943
O O9 0.290611 0.250000 0.693741
O O10 0.617983 0.750000 0.509700
O O11 0.411122 0.750000 0.509702
O O12 0.902448 0.155095 0.249636
O O13 0.899835 0.250000 0.564943
O O14 0.446474 0.155507 0.891670
O O15 0.500000 0.500000 0.000000
#
# Coordination Sequence:
#
# PCOD9167469 Si02
#       8
#     4   4   2   2   2   2   2   4
#     4  11  24  42  66  99 129 174 224 276 330 395
#     4  12  22  40  68  93 128 165 218 280 331 378
#     4  11  24  45  67  93 139 186 217 268 344 406
#     4  12  22  36  72 100 118 168 224 284 332 374
#     4  11  23  43  69  97 134 171 230 274 332 404
#     4  11  23  43  69  97 134 171 230 274 332 404
#     4  11  24  45  67  93 139 186 217 268 344 406
#     4  11  24  42  66  99 129 174 224 276 330 395
#
# _framework density 18.151724999999999
#
# number of rings (size 3 to 8) (size 9 to 14) (size 15 to 20)
#    0.000    0.727    5.455    2.182    2.545    1.455 
#    3.273    1.818    4.000    0.000    0.000    0.000 
#    0.000    0.000    0.000    0.000    0.000    0.000 
#
# Total GULP energy -122790.741806 kJ/mol
# GULP energy per Si atom -5581.397355 kJ/mol
# Density = 1.811041 g / cm^3
# Si number density = 18.151725 Si / 1000 Ang^3
#
#
#
# Elastic Constant Matrix: (Units=GPa)
#
#
# Indices 1 2 3 4 5 6 
#
# 1 179.2920 85.6235 108.2839 0.0000 -0.4603 0.0000
# 2 85.6235 202.2019 85.4226 0.0000 -0.0191 0.0000
# 3 108.2839 85.4226 131.7341 0.0000 -3.8937 0.0000
# 4 0.0000 0.0000 0.0000 34.7663 0.0000 0.3885
# 5 -0.4603 -0.0191 -3.8937 0.0000 32.6806 0.0000
# 6 0.0000 0.0000 0.0000 0.3885 0.0000 30.5198
#
#
#
# Elastic Compliance Matrix: (Units=1/GPa)
#
#
# Indices 1 2 3 4 5 6 
#
# 1 0.011302 -0.001171 -0.008556 0.000000 -0.000861 0.000000
# 2 -0.001171 0.006942 -0.003551 0.000000 -0.000436 0.000000
# 3 -0.008556 -0.003551 0.016983 0.000000 0.001901 0.000000
# 4 0.000000 0.000000 0.000000 0.028768 0.000000 -0.000366
# 5 -0.000861 -0.000436 0.001901 0.000000 0.030813 0.000000
# 6 0.000000 0.000000 0.000000 -0.000366 0.000000 0.032770
#
#
# Mechanical properties :
#
#
# Convention : Reuss Voigt Hill
#
# Bulk Modulus (GPa) = 115.34916 119.09868 117.22392
# Shear Modulus (GPa) = 31.84183 35.18654 33.51418
#
# Velocity S-wave (km/s) = 4.19287 4.40758 4.30156
# Velocity P-wave (km/s) = 9.33410 9.57380 9.45471
#
# Compressibility (1/GPa) = 0.00866933
#
# Stress axis : x y z
#
# Youngs Moduli (GPa) = 88.47837 144.05280 58.88187
#
# Poissons Ratio (x) = 0.16875 0.50380
# Poissons Ratio (y) = 0.10365 0.20911
# Poissons Ratio (z) = 0.75703 0.51159
#
# Static dielectric constant tensor:
#      x y z
#    x 1.563220 0.000000 0.003270 
#    y 0.000000 1.604300 0.000000 
#    z 0.003270 0.000000 1.598980 
# 
# From -- ./inp_files/12309.got.cif
#   From: 2010.05.17/outbox.cif.g08.bks.cpg/sg11_7_cif.got.tgz:12309.got - 2010.06.03 12:22:45.
