data_PCOD9167436
_publ_section_title
;
Structure prediction by ZEFSAII (Michael W. Deem and Ramdas Pophale) SiO2 
 PCOD9167436
Probable space group: P 21/M
;
_chemical_formula_sum "Si O2"
_cell_formula_units_Z 28
_cell_length_a 11.374927
_cell_length_b 22.655507
_cell_length_c 5.124519
_cell_angle_alpha 90.000000
_cell_angle_beta 106.969100
_cell_angle_gamma 90.000000
_cell_volume 1263.116376
_symmetry_space_group_name_H-M "P 21/M"
_symmetry_group_IT_number 11
_symmetry_cell_setting 'monoclinic'
loop_
_space_group_symop_operation_xyz
x,y,z
-x,1/2+y,-z
-x,-y,-z
x,1/2-y,z
loop_
_atom_site_type_symbol
_atom_site_label
_atom_site_fract_x
_atom_site_fract_y
_atom_site_fract_z
Si Si1 0.589810 0.035093 0.360448
Si Si2 0.607378 0.684404 0.388511
Si Si3 0.966536 0.681379 0.477326
Si Si4 0.354376 0.424956 0.952233
Si Si5 0.323843 0.816320 0.097856
Si Si6 0.780886 0.128620 0.484212
Si Si7 0.193264 0.347929 0.120516
O O1 0.707788 0.070657 0.539141
O O2 0.500000 0.000000 0.500000
O O3 0.641333 0.987595 0.188010
O O4 0.488556 0.078697 0.170312
O O5 0.631599 0.750000 0.293569
O O6 0.655207 0.628500 0.258269
O O7 0.461477 0.675950 0.296419
O O8 0.678191 0.682052 0.708958
O O9 0.007696 0.750000 0.538905
O O10 0.894907 0.661039 0.689881
O O11 0.076500 0.635566 0.492665
O O12 0.876355 0.678801 0.171027
O O13 0.241939 0.413501 0.076532
O O14 0.313666 0.750000 0.990309
O O15 0.238385 0.825947 0.291869
O O16 0.286822 0.856606 0.831748
#
# Coordination Sequence:
#
# PCOD9167436 Si02
#       7
#     4   4   4   4   4   4   4
#     4  11  25  45  78 106 144 189 243 301 371 434
#     4  11  23  40  70 107 143 180 232 302 376 437
#     4  12  26  44  69 100 145 199 240 291 354 433
#     4  11  23  45  72 106 142 185 239 305 367 428
#     4  11  23  40  67 104 143 178 226 301 375 434
#     4  12  25  46  69 103 142 191 244 292 357 434
#     4  12  25  44  69 103 142 190 243 288 355 426
#
# _framework density 22.167397000000001
#
# number of rings (size 3 to 8) (size 9 to 14) (size 15 to 20)
#    0.000    0.571    2.857    6.000    2.000    1.143 
#    0.000    1.429    0.000    0.000    0.000    0.000 
#    0.000    0.000    0.000    0.000    0.000    0.000 
#
# Total GULP energy -156350.144504 kJ/mol
# GULP energy per Si atom -5583.933732 kJ/mol
# Density = 2.211694 g / cm^3
# Si number density = 22.167397 Si / 1000 Ang^3
#
#
#
# Elastic Constant Matrix: (Units=GPa)
#
#
# Indices 1 2 3 4 5 6 
#
# 1 90.1056 41.0738 34.1571 0.0000 -10.2304 0.0000
# 2 41.0738 71.4173 18.2304 0.0000 4.1959 0.0000
# 3 34.1571 18.2304 93.8298 0.0000 -7.1157 0.0000
# 4 0.0000 0.0000 0.0000 9.0184 0.0000 -15.0227
# 5 -10.2304 4.1959 -7.1157 0.0000 34.1703 0.0000
# 6 0.0000 0.0000 0.0000 -15.0227 0.0000 29.1966
#
#
#
# Elastic Compliance Matrix: (Units=1/GPa)
#
#
# Indices 1 2 3 4 5 6 
#
# 1 0.017576 -0.009374 -0.004156 0.000000 0.005548 0.000000
# 2 -0.009374 0.019936 -0.000873 0.000000 -0.005436 0.000000
# 3 -0.004156 -0.000873 0.012451 0.000000 0.001456 0.000000
# 4 0.000000 0.000000 0.000000 0.775973 0.000000 0.399265
# 5 0.005548 -0.005436 0.001456 0.000000 0.031897 0.000000
# 6 0.000000 0.000000 0.000000 0.399265 0.000000 0.239686
#
#
# Mechanical properties :
#
#
# Convention : Reuss Voigt Hill
#
# Bulk Modulus (GPa) = 47.26783 49.14168 48.20476
# Shear Modulus (GPa) = 4.41159 25.26982 14.84071
#
# Velocity S-wave (km/s) = 1.41225 3.37998 2.59024
# Velocity P-wave (km/s) = 4.90191 6.11956 5.54426
#
# Compressibility (1/GPa) = 0.02115604
#
# Stress axis : x y z
#
# Youngs Moduli (GPa) = 56.89429 50.16177 80.31647
#
# Poissons Ratio (x) = 0.47020 0.33383
# Poissons Ratio (y) = 0.53330 0.07014
# Poissons Ratio (z) = 0.23648 0.04381
#
# Static dielectric constant tensor:
#      x y z
#    x 1.838800 0.000000 -0.027710 
#    y 0.000000 1.434790 0.000000 
#    z -0.027710 0.000000 1.869330 
# 
# From -- ./inp_files/5096.got.cif
#   From: 2010.05.17/outbox.cif.g08.bks.cpg/sg11_3_cif.got.tgz:5096.got - 2010.06.03 12:22:45.
