data_PCOD9167313
_publ_section_title
;
Structure prediction by ZEFSAII (Michael W. Deem and Ramdas Pophale) SiO2 
 PCOD9167313
Probable space group: P 21/M
;
_chemical_formula_sum "Si O2"
_cell_formula_units_Z 24
_cell_length_a 13.682213
_cell_length_b 14.541725
_cell_length_c 7.919832
_cell_angle_alpha 90.000000
_cell_angle_beta 44.907546
_cell_angle_gamma 90.000000
_cell_volume 1112.426497
_symmetry_space_group_name_H-M "P 21/M"
_symmetry_group_IT_number 11
_symmetry_cell_setting 'monoclinic'
loop_
_space_group_symop_operation_xyz
x,y,z
-x,1/2+y,-z
-x,-y,-z
x,1/2-y,z
loop_
_atom_site_type_symbol
_atom_site_label
_atom_site_fract_x
_atom_site_fract_y
_atom_site_fract_z
Si Si1 0.117661 0.934335 0.791837
Si Si2 0.915643 0.561835 0.734155
Si Si3 0.643952 0.556599 0.618282
Si Si4 0.210202 0.250000 0.639722
Si Si5 0.915612 0.750000 0.570249
Si Si6 0.921331 0.250000 0.144968
Si Si7 0.328207 0.548883 0.060052
Si Si8 0.223558 0.750000 0.310086
O O1 0.121834 0.842647 0.893869
O O2 0.035707 0.909589 0.718352
O O3 0.261592 0.983214 0.594034
O O4 0.000000 0.000000 0.000000
O O5 0.862768 0.657495 0.722991
O O6 0.785256 0.495275 0.928494
O O7 0.000000 0.500000 0.500000
O O8 0.700401 0.656443 0.488672
O O9 0.669211 0.522718 0.782628
O O10 0.480429 0.550553 0.794476
O O11 0.122304 0.250000 0.576653
O O12 0.091951 0.250000 0.932458
O O13 0.079579 0.750000 0.387861
O O14 0.821942 0.250000 0.435317
O O15 0.297064 0.652777 0.168648
#
# Coordination Sequence:
#
# PCOD9167313 Si02
#       8
#     4   4   4   2   2   2   4   2
#     4  12  23  40  64  89 124 163 206 253 305 369
#     4  12  20  39  60  91 120 156 211 256 302 356
#     4  11  22  39  58  93 123 161 203 251 311 356
#     4  12  23  36  62  94 123 154 208 253 296 371
#     4  12  20  34  62  92 119 152 208 260 291 352
#     4  12  22  36  60  92 122 158 196 254 306 364
#     4  11  23  37  62  89 127 158 201 259 307 359
#     4  12  21  38  60  90 122 160 200 249 319 353
#
# _framework density 21.574459999999998
#
# number of rings (size 3 to 8) (size 9 to 14) (size 15 to 20)
#    0.000    0.333   10.000    0.500    0.000    0.000 
#    0.000    1.667    0.000    0.000    0.000    0.000 
#    0.000    0.000    0.000    0.000    0.000    0.000 
#
# Total GULP energy -133710.455660 kJ/mol
# GULP energy per Si atom -5571.268986 kJ/mol
# Density = 2.152536 g / cm^3
# Si number density = 21.574460 Si / 1000 Ang^3
#
#
#
# Elastic Constant Matrix: (Units=GPa)
#
#
# Indices 1 2 3 4 5 6 
#
# 1 31.3562 16.1627 14.5645 0.0000 -21.5415 0.0000
# 2 16.1627 202.4183 72.9540 0.0000 -27.6741 0.0000
# 3 14.5645 72.9540 139.9342 0.0000 -46.1622 0.0000
# 4 0.0000 0.0000 0.0000 38.0711 0.0000 -4.1976
# 5 -21.5415 -27.6741 -46.1622 0.0000 41.5134 0.0000
# 6 0.0000 0.0000 0.0000 -4.1976 0.0000 22.8981
#
#
#
# Elastic Compliance Matrix: (Units=1/GPa)
#
#
# Indices 1 2 3 4 5 6 
#
# 1 0.052789 -0.002020 0.006556 0.000000 0.033336 0.000000
# 2 -0.002020 0.006179 -0.003156 0.000000 -0.000438 0.000000
# 3 0.006556 -0.003156 0.013483 0.000000 0.016292 0.000000
# 4 0.000000 0.000000 0.000000 0.026809 0.000000 0.004914
# 5 0.033336 -0.000438 0.016292 0.000000 0.059210 0.000000
# 6 0.000000 0.000000 0.000000 0.004914 0.000000 0.044573
#
#
# Mechanical properties :
#
#
# Convention : Reuss Voigt Hill
#
# Bulk Modulus (GPa) = 13.29581 64.56345 38.92963
# Shear Modulus (GPa) = 22.18728 38.49836 30.34282
#
# Velocity S-wave (km/s) = 3.21035 4.22885 3.75430
# Velocity P-wave (km/s) = 4.46295 7.33724 6.07260
#
# Compressibility (1/GPa) = 0.07521166
#
# Stress axis : x y z
#
# Youngs Moduli (GPa) = 18.94316 161.83799 74.16505
#
# Poissons Ratio (x) = 0.32698 -0.48622
# Poissons Ratio (y) = 0.03827 0.23405
# Poissons Ratio (z) = -0.12419 0.51072
#
# Static dielectric constant tensor:
#      x y z
#    x 1.904820 0.000000 0.107290 
#    y 0.000000 1.441800 0.000000 
#    z 0.107290 0.000000 1.838350 
# 
# From -- ./inp_files/22072.got.cif
#   From: 2010.05.17/outbox.cif.g08.bks.cpg/sg11_12_cif.got.tgz:22072.got - 2010.06.03 12:22:45.
