data_PCOD9167294
_publ_section_title
;
Structure prediction by ZEFSAII (Michael W. Deem and Ramdas Pophale) SiO2 
 PCOD9167294
Probable space group: P 21/M
;
_chemical_formula_sum "Si O2"
_cell_formula_units_Z 28
_cell_length_a 16.725990
_cell_length_b 8.652695
_cell_length_c 23.121189
_cell_angle_alpha 90.000000
_cell_angle_beta 25.041229
_cell_angle_gamma 90.000000
_cell_volume 1416.352010
_symmetry_space_group_name_H-M "P 21/M"
_symmetry_group_IT_number 11
_symmetry_cell_setting 'monoclinic'
loop_
_space_group_symop_operation_xyz
x,y,z
-x,1/2+y,-z
-x,-y,-z
x,1/2-y,z
loop_
_atom_site_type_symbol
_atom_site_label
_atom_site_fract_x
_atom_site_fract_y
_atom_site_fract_z
Si Si1 0.677546 0.929775 0.122686
Si Si2 0.704854 0.435787 0.348297
Si Si3 0.092294 0.566767 0.130441
Si Si4 0.732931 0.431332 0.661604
Si Si5 0.928899 0.933825 0.638739
Si Si6 0.303707 0.063169 0.101861
Si Si7 0.199155 0.565130 0.846534
O O1 0.735904 0.750000 0.087429
O O2 0.477969 0.940951 0.221930
O O3 0.658992 0.998236 0.198707
O O4 0.826027 0.020467 0.985917
O O5 0.500000 0.500000 0.500000
O O6 0.703861 0.250000 0.352629
O O7 0.749281 0.480745 0.252446
O O8 0.879781 0.499117 0.271763
O O9 0.087346 0.750000 0.140129
O O10 0.234915 0.495979 0.084644
O O11 0.776610 0.250000 0.644330
O O12 0.770813 0.523642 0.695151
O O13 0.877543 0.490245 0.517469
O O14 0.945864 0.750000 0.632643
O O15 0.859581 0.989698 0.746087
O O16 0.315941 0.250000 0.092155
O O17 0.500000 0.000000 0.000000
O O18 0.194725 0.750000 0.851722
O O19 0.000000 0.500000 0.000000
#
# Coordination Sequence:
#
# PCOD9167294 Si02
#       7
#     4   4   4   4   4   4   4
#     4  11  22  37  61  91 122 157 204 257 312 373
#     4  11  25  45  68  96 131 170 215 266 325 388
#     4  12  25  41  63  90 124 166 211 261 319 382
#     4   9  19  35  56  83 114 151 194 244 300 360
#     4   9  19  36  56  80 113 153 195 244 302 361
#     4  11  23  39  60  87 123 163 208 258 313 378
#     4  11  23  40  65  93 124 161 205 255 311 375
#
# _framework density 19.769096999999999
#
# number of rings (size 3 to 8) (size 9 to 14) (size 15 to 20)
#    0.000    1.429    1.429    3.857    0.000    7.429 
#    0.000    1.429    0.000    0.000    0.000    0.000 
#    0.000    0.000    0.000    0.000    0.000    0.000 
#
# Total GULP energy -156388.767661 kJ/mol
# GULP energy per Si atom -5585.313131 kJ/mol
# Density = 1.972410 g / cm^3
# Si number density = 19.769097 Si / 1000 Ang^3
#
#
#
# Elastic Constant Matrix: (Units=GPa)
#
#
# Indices 1 2 3 4 5 6 
#
# 1 96.7971 30.6868 46.5378 0.0000 3.5824 0.0000
# 2 30.6868 63.2123 37.6109 0.0000 -1.9675 0.0000
# 3 46.5378 37.6109 77.5105 0.0000 3.8195 0.0000
# 4 0.0000 0.0000 0.0000 28.1974 0.0000 -3.6238
# 5 3.5824 -1.9675 3.8195 0.0000 32.3957 0.0000
# 6 0.0000 0.0000 0.0000 -3.6238 0.0000 33.5017
#
#
#
# Elastic Compliance Matrix: (Units=1/GPa)
#
#
# Indices 1 2 3 4 5 6 
#
# 1 0.014865 -0.002758 -0.007541 0.000000 -0.000922 0.000000
# 2 -0.002758 0.022979 -0.009634 0.000000 0.002836 0.000000
# 3 -0.007541 -0.009634 0.022221 0.000000 -0.002371 0.000000
# 4 0.000000 0.000000 0.000000 0.035964 0.000000 0.003890
# 5 -0.000922 0.002836 -0.002371 0.000000 0.031422 0.000000
# 6 0.000000 0.000000 0.000000 0.003890 0.000000 0.030270
#
#
# Mechanical properties :
#
#
# Convention : Reuss Voigt Hill
#
# Bulk Modulus (GPa) = 49.50933 51.91010 50.70971
# Shear Modulus (GPa) = 24.47123 26.99790 25.73456
#
# Velocity S-wave (km/s) = 3.52213 3.69950 3.61190
# Velocity P-wave (km/s) = 6.45281 6.67559 6.56515
#
# Compressibility (1/GPa) = 0.02019821
#
# Stress axis : x y z
#
# Youngs Moduli (GPa) = 67.27174 43.51768 45.00229
#
# Poissons Ratio (x) = 0.12002 0.33938
# Poissons Ratio (y) = 0.18553 0.43356
# Poissons Ratio (z) = 0.50732 0.41926
#
# Static dielectric constant tensor:
#      x y z
#    x 1.717610 0.000000 -0.000600 
#    y 0.000000 1.674310 0.000000 
#    z -0.000600 0.000000 1.714320 
# 
# From -- ./inp_files/65347.got.cif
#   From: 2010.05.17/outbox.cif.g08.bks.cpg/sg11_33_cif.got.tgz:65347.got - 2010.06.03 12:22:45.
