data_PCOD9167428
_publ_section_title
;
Structure prediction by ZEFSAII (Michael W. Deem and Ramdas Pophale) SiO2 
 PCOD9167428
Probable space group: P 21/M
;
_chemical_formula_sum "Si O2"
_cell_formula_units_Z 28
_cell_length_a 9.637772
_cell_length_b 8.973237
_cell_length_c 26.083431
_cell_angle_alpha 90.000000
_cell_angle_beta 142.200035
_cell_angle_gamma 90.000000
_cell_volume 1382.562527
_symmetry_space_group_name_H-M "P 21/M"
_symmetry_group_IT_number 11
_symmetry_cell_setting 'monoclinic'
loop_
_space_group_symop_operation_xyz
x,y,z
-x,1/2+y,-z
-x,-y,-z
x,1/2-y,z
loop_
_atom_site_type_symbol
_atom_site_label
_atom_site_fract_x
_atom_site_fract_y
_atom_site_fract_z
Si Si1 0.750086 0.428308 0.575132
Si Si2 0.858044 0.576599 0.503165
Si Si3 0.479152 0.928196 0.879177
Si Si4 0.036873 0.427706 0.262003
Si Si5 0.414895 0.426878 0.207574
Si Si6 0.411871 0.578194 0.307768
Si Si7 0.076144 0.926717 0.968826
O O1 0.500000 0.500000 0.500000
O O2 0.733464 0.250000 0.571201
O O3 0.874454 0.486759 0.560545
O O4 0.878733 0.488796 0.662443
O O5 0.920717 0.750000 0.528655
O O6 0.600013 0.571651 0.407197
O O7 0.000000 0.500000 0.500000
O O8 0.514563 0.750000 0.890943
O O9 0.502715 0.971365 0.825445
O O10 0.226861 0.962377 0.823913
O O11 0.678596 0.004489 0.969779
O O12 0.057024 0.250000 0.275356
O O13 0.201093 0.480808 0.264920
O O14 0.456375 0.250000 0.224947
O O15 0.512709 0.514941 0.284208
O O16 0.142641 0.453627 0.130199
O O17 0.345980 0.750000 0.281596
O O18 0.097484 0.750000 0.980997
O O19 0.000000 0.000000 0.000000
#
# Coordination Sequence:
#
# PCOD9167428 Si02
#       7
#     4   4   4   4   4   4   4
#     4  12  24  41  64  89 117 156 200 241 292 351
#     4  11  25  43  62  88 120 155 198 247 297 349
#     4   9  20  37  59  89 117 148 193 240 289 346
#     4  11  23  40  62  87 118 157 196 241 295 348
#     4   9  19  36  58  85 117 152 190 237 292 346
#     4  11  24  40  58  85 118 154 196 241 293 350
#     4   9  17  32  56  85 116 152 191 235 288 343
#
# _framework density 20.252248999999999
#
# number of rings (size 3 to 8) (size 9 to 14) (size 15 to 20)
#    0.000    1.714    1.429    3.857    2.000    5.714 
#    0.000    0.714    0.000    0.000    0.000    0.000 
#    0.000    0.000    0.000    0.000    0.000    0.000 
#
# Total GULP energy -156423.463288 kJ/mol
# GULP energy per Si atom -5586.552260 kJ/mol
# Density = 2.020615 g / cm^3
# Si number density = 20.252249 Si / 1000 Ang^3
#
#
#
# Elastic Constant Matrix: (Units=GPa)
#
#
# Indices 1 2 3 4 5 6 
#
# 1 70.5574 17.8006 -5.0473 0.0000 9.8780 0.0000
# 2 17.8006 82.1491 17.2788 0.0000 9.0105 0.0000
# 3 -5.0473 17.2788 24.5219 0.0000 9.0796 0.0000
# 4 0.0000 0.0000 0.0000 31.0512 0.0000 0.0269
# 5 9.8780 9.0105 9.0796 0.0000 36.7446 0.0000
# 6 0.0000 0.0000 0.0000 0.0269 0.0000 27.2701
#
#
#
# Elastic Compliance Matrix: (Units=1/GPa)
#
#
# Indices 1 2 3 4 5 6 
#
# 1 0.016836 -0.004932 0.008991 0.000000 -0.005538 0.000000
# 2 -0.004932 0.015778 -0.012318 0.000000 0.000500 0.000000
# 3 0.008991 -0.012318 0.056231 0.000000 -0.013291 0.000000
# 4 0.000000 0.000000 0.000000 0.032205 0.000000 -0.000032
# 5 -0.005538 0.000500 -0.013291 0.000000 0.031865 0.000000
# 6 0.000000 0.000000 0.000000 -0.000032 0.000000 0.036670
#
#
# Mechanical properties :
#
#
# Convention : Reuss Voigt Hill
#
# Bulk Modulus (GPa) = 13.82610 26.36584 20.09597
# Shear Modulus (GPa) = 21.71926 28.82627 25.27276
#
# Velocity S-wave (km/s) = 3.27836 3.77684 3.53639
# Velocity P-wave (km/s) = 4.60130 5.66271 5.15937
#
# Compressibility (1/GPa) = 0.07232698
#
# Stress axis : x y z
#
# Youngs Moduli (GPa) = 59.39817 63.38121 17.78379
#
# Poissons Ratio (x) = 0.31257 -0.15989
# Poissons Ratio (y) = 0.29293 0.21905
# Poissons Ratio (z) = -0.53404 0.78071
#
# Static dielectric constant tensor:
#      x y z
#    x 1.726540 0.000000 0.031700 
#    y 0.000000 1.675620 0.000000 
#    z 0.031700 0.000000 1.704120 
# 
# From -- ./inp_files/57512.got.cif
#   From: 2010.05.17/outbox.cif.g08.bks.cpg/sg11_29_cif.got.tgz:57512.got - 2010.06.03 12:22:45.
