data_PCOD9167456
_publ_section_title
;
Structure prediction by ZEFSAII (Michael W. Deem and Ramdas Pophale) SiO2 
 PCOD9167456
Probable space group: P 21/M
;
_chemical_formula_sum "Si O2"
_cell_formula_units_Z 20
_cell_length_a 5.257331
_cell_length_b 18.486747
_cell_length_c 8.696789
_cell_angle_alpha 90.000000
_cell_angle_beta 78.117420
_cell_angle_gamma 90.000000
_cell_volume 827.136859
_symmetry_space_group_name_H-M "P 21/M"
_symmetry_group_IT_number 11
_symmetry_cell_setting 'monoclinic'
loop_
_space_group_symop_operation_xyz
x,y,z
-x,1/2+y,-z
-x,-y,-z
x,1/2-y,z
loop_
_atom_site_type_symbol
_atom_site_label
_atom_site_fract_x
_atom_site_fract_y
_atom_site_fract_z
Si Si1 0.859919 0.457098 0.359705
Si Si2 0.281330 0.169664 0.279825
Si Si3 0.360445 0.929004 0.949585
Si Si4 0.533504 0.355568 0.566332
Si Si5 0.976058 0.116419 0.723892
O O1 0.763554 0.453196 0.195503
O O2 0.623119 0.435051 0.499883
O O3 0.065869 0.390766 0.345167
O O4 0.978580 0.536718 0.358083
O O5 0.176741 0.250000 0.260368
O O6 0.441299 0.134934 0.120035
O O7 0.466880 0.176167 0.407137
O O8 0.152963 0.899443 0.096664
O O9 0.500000 0.000000 0.000000
O O10 0.773916 0.336636 0.647260
O O11 0.264703 0.351558 0.691603
#
# Coordination Sequence:
#
# PCOD9167456 Si02
#       5
#     4   4   4   4   4
#     4  11  23  41  72 105 144 184 233 287 358 431
#     4  11  26  48  70  98 142 198 240 284 357 445
#     4  11  24  43  71 109 144 185 238 299 358 424
#     4  11  25  42  69 104 139 180 228 290 351 418
#     4  12  23  40  72 109 140 169 230 304 358 397
#
# _framework density 24.179796
#
# number of rings (size 3 to 8) (size 9 to 14) (size 15 to 20)
#    0.000    0.800    4.000    3.000    5.600    3.200 
#    0.000    2.000    0.000    0.000    0.000    0.000 
#    0.000    0.000    0.000    0.000    0.000    0.000 
#
# Total GULP energy -111774.271078 kJ/mol
# GULP energy per Si atom -5588.713554 kJ/mol
# Density = 2.412476 g / cm^3
# Si number density = 24.179796 Si / 1000 Ang^3
#
#
#
# Elastic Constant Matrix: (Units=GPa)
#
#
# Indices 1 2 3 4 5 6 
#
# 1 145.9192 29.0018 40.2892 0.0000 -1.5114 0.0000
# 2 29.0018 115.9500 -12.7449 0.0000 7.8406 0.0000
# 3 40.2892 -12.7449 93.5598 0.0000 -18.7528 0.0000
# 4 0.0000 0.0000 0.0000 -20.3703 0.0000 3.7327
# 5 -1.5114 7.8406 -18.7528 0.0000 60.3001 0.0000
# 6 0.0000 0.0000 0.0000 3.7327 0.0000 5.3204
#
#
#
# Elastic Compliance Matrix: (Units=1/GPa)
#
#
# Indices 1 2 3 4 5 6 
#
# 1 0.008495 -0.002531 -0.004153 0.000000 -0.000750 0.000000
# 2 -0.002531 0.009547 0.002270 0.000000 -0.000599 0.000000
# 3 -0.004153 0.002270 0.013551 0.000000 0.003815 0.000000
# 4 0.000000 0.000000 0.000000 -0.043499 0.000000 0.030518
# 5 -0.000750 -0.000599 0.003815 0.000000 0.017829 0.000000
# 6 0.000000 0.000000 0.000000 0.030518 0.000000 0.166544
#
#
# Mechanical properties :
#
#
# Convention : Reuss Voigt Hill
#
# Bulk Modulus (GPa) = 43.92475 52.05788 47.99131
# Shear Modulus (GPa) = 26.47141 28.97558 27.72349
#
# Velocity S-wave (km/s) = 3.31233 3.46546 3.38976
# Velocity P-wave (km/s) = 5.73010 6.13097 5.93392
#
# Compressibility (1/GPa) = 0.02276621
#
# Stress axis : x y z
#
# Youngs Moduli (GPa) = 117.71608 104.74048 73.79689
#
# Poissons Ratio (x) = 0.26506 0.30649
# Poissons Ratio (y) = 0.29789 -0.16754
# Poissons Ratio (z) = 0.48889 -0.23779
#
# Static dielectric constant tensor:
#      x y z
#    x 1.993820 0.000000 0.026080 
#    y 0.000000 1.920510 0.000000 
#    z 0.026080 0.000000 1.940460 
# 
# From -- ./inp_files/10058.got.cif
#   From: 2010.05.17/outbox.cif.g08.bks.cpg/sg11_6_cif.got.tgz:10058.got - 2010.06.03 12:22:45.
