data_PCOD9167721
_publ_section_title
;
Structure prediction by ZEFSAII (Michael W. Deem and Ramdas Pophale) SiO2 
 PCOD9167721
Probable space group: P 21/M
;
_chemical_formula_sum "Si O2"
_cell_formula_units_Z 32
_cell_length_a 12.000000
_cell_length_b 9.000000
_cell_length_c 30.000000
_cell_angle_alpha 90.000000
_cell_angle_beta 30.000000
_cell_angle_gamma 90.000000
_cell_volume 1620.000000
_symmetry_space_group_name_H-M "P 21/M"
_symmetry_group_IT_number 11
_symmetry_cell_setting 'monoclinic'
loop_
_space_group_symop_operation_xyz
x,y,z
-x,1/2+y,-z
-x,-y,-z
x,1/2-y,z
loop_
_atom_site_type_symbol
_atom_site_label
_atom_site_fract_x
_atom_site_fract_y
_atom_site_fract_z
Si Si1 0.140458 0.427296 0.809230
Si Si2 0.175941 0.090003 0.224733
Si Si3 0.468989 0.927522 0.628857
Si Si4 0.756043 0.578176 0.379169
Si Si5 0.889547 0.928711 0.430277
Si Si6 0.277905 0.083386 0.088740
Si Si7 0.368262 0.079461 0.251457
Si Si8 0.153908 0.072221 0.907596
O O1 0.158335 0.250000 0.798575
O O2 0.361135 0.499068 0.710107
O O3 0.084679 0.460863 0.880285
O O4 0.937883 0.492805 0.851089
O O5 0.048661 0.250000 0.274915
O O6 0.280814 0.094848 0.140680
O O7 0.347187 0.084793 0.205304
O O8 0.019253 0.947619 0.281190
O O9 0.438203 0.750000 0.641874
O O10 0.728777 0.959028 0.527931
O O11 0.345648 0.988624 0.627076
O O12 0.687627 0.750000 0.400383
O O13 0.748882 0.526750 0.433793
O O14 0.921417 0.750000 0.415700
O O15 0.129836 0.008411 0.348713
O O16 0.266226 0.250000 0.073799
O O17 0.500000 0.000000 0.000000
O O18 0.386805 0.250000 0.261646
O O19 0.590947 0.986519 0.182133
O O20 0.149505 0.250000 0.915534
O O21 0.000000 0.000000 0.000000
#
# Coordination Sequence:
#
# PCOD9167721 Si02
#       8
#     4   4   4   4   4   4   4   4
#     4  11  25  44  64  90 124 160 205 256 305 362
#     4   9  19  35  55  83 120 159 195 242 299 353
#     4  11  21  35  57  86 124 165 205 251 304 363
#     4  10  18  30  52  82 120 164 205 244 292 353
#     4   9  20  36  56  87 125 165 207 251 301 358
#     4  11  23  38  59  88 125 161 198 244 302 367
#     4  10  21  39  64  92 123 158 205 257 303 358
#     4  11  26  47  70  93 120 155 201 257 309 364
#
# _framework density 19.753086
#
# number of rings (size 3 to 8) (size 9 to 14) (size 15 to 20)
#    0.000    1.750    1.250    2.625    1.750    4.500 
#    0.000    0.625    0.000    0.000    0.000    0.000 
#    0.000    0.000    0.000    0.000    0.000    0.000 
#
# Total GULP energy -178331.092723 kJ/mol
# GULP energy per Si atom -5572.846648 kJ/mol
# Density = 1.970813 g / cm^3
# Si number density = 19.753086 Si / 1000 Ang^3
#
#
#
# Elastic Constant Matrix: (Units=GPa)
#
#
# Indices 1 2 3 4 5 6 
#
# 1 -4.8528 13.5023 29.4983 0.0000 6.7114 0.0000
# 2 13.5023 69.3940 39.5966 0.0000 16.7257 0.0000
# 3 29.4983 39.5966 99.1482 0.0000 24.9059 0.0000
# 4 0.0000 0.0000 0.0000 34.6169 0.0000 0.9931
# 5 6.7114 16.7257 24.9059 0.0000 25.9076 0.0000
# 6 0.0000 0.0000 0.0000 0.9931 0.0000 16.9689
#
#
#
# Elastic Compliance Matrix: (Units=1/GPa)
#
#
# Indices 1 2 3 4 5 6 
#
# 1 -0.072838 0.002790 0.021449 0.000000 -0.003551 0.000000
# 2 0.002790 0.019408 -0.006924 0.000000 -0.006596 0.000000
# 3 0.021449 -0.006924 0.008889 0.000000 -0.009632 0.000000
# 4 0.000000 0.000000 0.000000 0.028936 0.000000 -0.001694
# 5 -0.003551 -0.006596 -0.009632 0.000000 0.053037 0.000000
# 6 0.000000 0.000000 0.000000 -0.001694 0.000000 0.059030
#
#
# Mechanical properties :
#
#
# Convention : Reuss Voigt Hill
#
# Bulk Modulus (GPa) = -100.88538 36.54262 -32.17138
# Shear Modulus (GPa) = 85.42623 20.90484 53.16553
#
# Velocity S-wave (km/s) = 6.58338 3.25669 5.19360
# Velocity P-wave (km/s) = 2.56978 5.71675 4.43199
#
# Compressibility (1/GPa) = -0.00991224
#
# Stress axis : x y z
#
# Youngs Moduli (GPa) = -13.72900 51.52387 112.49389
#
# Poissons Ratio (x) = -0.14374 -2.41284
# Poissons Ratio (y) = 0.03830 0.77892
# Poissons Ratio (z) = 0.29447 0.35676
#
# Static dielectric constant tensor:
#      x y z
#    x 1.639240 0.000000 0.010130 
#    y 0.000000 1.762990 0.000000 
#    z 0.010130 0.000000 1.703520 
# 
# From -- ./inp_files/73108.got.cif
#   From: 2010.05.17/outbox.ucp.g08.bks.cvg/sg11_37_cif.got.tgz:73108.got - 2010.06.11 11:38:39.
