data_PCOD9167437
_publ_section_title
;
Structure prediction by ZEFSAII (Michael W. Deem and Ramdas Pophale) SiO2 
 PCOD9167437
Probable space group: P 21/M
;
_chemical_formula_sum "Si O2"
_cell_formula_units_Z 26
_cell_length_a 8.640622
_cell_length_b 15.593667
_cell_length_c 14.210728
_cell_angle_alpha 90.000000
_cell_angle_beta 137.899775
_cell_angle_gamma 90.000000
_cell_volume 1283.697591
_symmetry_space_group_name_H-M "P 21/M"
_symmetry_group_IT_number 11
_symmetry_cell_setting 'monoclinic'
loop_
_space_group_symop_operation_xyz
x,y,z
-x,1/2+y,-z
-x,-y,-z
x,1/2-y,z
loop_
_atom_site_type_symbol
_atom_site_label
_atom_site_fract_x
_atom_site_fract_y
_atom_site_fract_z
Si Si1 0.378322 0.502852 0.675253
Si Si2 0.825607 0.567732 0.970503
Si Si3 0.808020 0.750000 0.655994
Si Si4 0.983155 0.111005 0.557727
Si Si5 0.981548 0.655528 0.219460
Si Si6 0.705185 0.750000 0.834016
Si Si7 0.499248 0.906969 0.447209
Si Si8 0.151474 0.750000 0.648921
O O1 0.571665 0.533634 0.832703
O O2 0.279843 0.576434 0.561509
O O3 0.465131 0.428841 0.646337
O O4 0.156911 0.468139 0.629040
O O5 0.824714 0.662506 0.924128
O O6 0.000000 0.500000 0.000000
O O7 0.873802 0.583976 0.102434
O O8 0.754602 0.750000 0.743911
O O9 0.686274 0.838316 0.566683
O O10 0.061088 0.750000 0.716698
O O11 0.065265 0.153514 0.690632
O O12 0.968735 0.170671 0.459899
O O13 0.919336 0.750000 0.155878
O O14 0.253732 0.638813 0.340961
O O15 0.430386 0.750000 0.747518
O O16 0.500000 0.000000 0.500000
#
# Coordination Sequence:
#
# PCOD9167437 Si02
#       8
#     4   4   2   4   4   2   4   2
#     4  11  23  41  64 100 136 172 226 300 348 415
#     4  12  26  45  70  98 142 194 234 285 357 430
#     4  12  26  41  73 111 135 179 238 300 362 424
#     4  11  23  40  68 100 136 171 232 297 357 411
#     4  12  24  40  68  96 132 190 232 280 354 425
#     4  12  26  48  70 102 152 184 235 298 361 430
#     4  12  22  39  67 101 135 172 228 292 352 411
#     4  12  22  43  73 107 139 177 235 304 363 414
#
# _framework density 20.253990999999999
#
# number of rings (size 3 to 8) (size 9 to 14) (size 15 to 20)
#    0.000    0.308    8.462    1.846    0.000    0.615 
#    0.000    2.308    0.000    0.000    0.000    0.000 
#    0.000    0.000    0.000    0.000    0.000    0.000 
#
# Total GULP energy -144796.787788 kJ/mol
# GULP energy per Si atom -5569.107223 kJ/mol
# Density = 2.020789 g / cm^3
# Si number density = 20.253991 Si / 1000 Ang^3
#
#
#
# Elastic Constant Matrix: (Units=GPa)
#
#
# Indices 1 2 3 4 5 6 
#
# 1 73.9873 19.2884 39.6999 0.0000 -6.5767 0.0000
# 2 19.2884 100.2491 27.4304 0.0000 8.2089 0.0000
# 3 39.6999 27.4304 84.1342 0.0000 -2.4029 0.0000
# 4 0.0000 0.0000 0.0000 46.7193 0.0000 -2.9500
# 5 -6.5767 8.2089 -2.4029 0.0000 25.2028 0.0000
# 6 0.0000 0.0000 0.0000 -2.9500 0.0000 18.5081
#
#
#
# Elastic Compliance Matrix: (Units=1/GPa)
#
#
# Indices 1 2 3 4 5 6 
#
# 1 0.018763 -0.001766 -0.008144 0.000000 0.004695 0.000000
# 2 -0.001766 0.011518 -0.003051 0.000000 -0.004503 0.000000
# 3 -0.008144 -0.003051 0.016736 0.000000 0.000464 0.000000
# 4 0.000000 0.000000 0.000000 0.021622 0.000000 0.003446
# 5 0.004695 -0.004503 0.000464 0.000000 0.042414 0.000000
# 6 0.000000 0.000000 0.000000 0.003446 0.000000 0.054580
#
#
# Mechanical properties :
#
#
# Convention : Reuss Voigt Hill
#
# Bulk Modulus (GPa) = 47.40025 47.91199 47.65612
# Shear Modulus (GPa) = 25.17777 29.54952 27.36365
#
# Velocity S-wave (km/s) = 3.52959 3.82376 3.67962
# Velocity P-wave (km/s) = 6.32964 6.57281 6.45237
#
# Compressibility (1/GPa) = 0.02109694
#
# Stress axis : x y z
#
# Youngs Moduli (GPa) = 53.29517 86.81715 59.75017
#
# Poissons Ratio (x) = 0.15335 0.48659
# Poissons Ratio (y) = 0.09414 0.18227
# Poissons Ratio (z) = 0.43403 0.26484
#
# Static dielectric constant tensor:
#      x y z
#    x 1.823470 0.000000 -0.033160 
#    y 0.000000 1.783810 0.000000 
#    z -0.033160 0.000000 1.714470 
# 
# From -- ./inp_files/17888.got.cif
#   From: 2010.05.17/outbox.cif.g08.bks.cpg/sg11_9_cif.got.tgz:17888.got - 2010.06.03 12:22:45.
