data_PCOD9167268
_publ_section_title
;
Structure prediction by ZEFSAII (Michael W. Deem and Ramdas Pophale) SiO2 
 PCOD9167268
Probable space group: P 21/M
;
_chemical_formula_sum "Si O2"
_cell_formula_units_Z 24
_cell_length_a 21.732781
_cell_length_b 8.000185
_cell_length_c 11.130112
_cell_angle_alpha 90.000000
_cell_angle_beta 33.975094
_cell_angle_gamma 90.000000
_cell_volume 1081.425246
_symmetry_space_group_name_H-M "P 21/M"
_symmetry_group_IT_number 11
_symmetry_cell_setting 'monoclinic'
loop_
_space_group_symop_operation_xyz
x,y,z
-x,1/2+y,-z
-x,-y,-z
x,1/2-y,z
loop_
_atom_site_type_symbol
_atom_site_label
_atom_site_fract_x
_atom_site_fract_y
_atom_site_fract_z
Si Si1 0.125506 0.950398 0.311418
Si Si2 0.875446 0.444024 0.218399
Si Si3 0.331024 0.951093 0.838271
Si Si4 0.537018 0.046996 0.130968
Si Si5 0.322681 0.054002 0.590699
Si Si6 0.744332 0.045020 0.659614
O O1 0.131288 0.750000 0.301692
O O2 0.179846 0.003483 0.349414
O O3 0.207235 0.007749 0.073416
O O4 0.000000 0.000000 0.500000
O O5 0.882812 0.250000 0.232613
O O6 0.796084 0.471831 0.233618
O O7 0.805708 0.520186 0.442148
O O8 0.000000 0.500000 0.000000
O O9 0.333965 0.750000 0.820015
O O10 0.402463 0.991597 0.840303
O O11 0.365282 0.028579 0.656904
O O12 0.531452 0.250000 0.132108
O O13 0.413038 0.983494 0.350351
O O14 0.619709 0.987649 0.892667
O O15 0.309937 0.250000 0.589927
O O16 0.739537 0.250000 0.664139
#
# Coordination Sequence:
#
# PCOD9167268 Si02
#       6
#     4   4   4   4   4   4
#     4   9  18  32  53  80 106 139 181 226 277 328
#     4  11  24  41  59  80 110 149 190 233 277 330
#     4   9  18  34  55  82 115 148 182 227 278 332
#     4   8  16  34  59  85 113 143 182 230 282 333
#     4  11  22  35  56  85 115 150 187 227 275 332
#     4   8  17  36  58  78 106 144 182 226 279 330
#
# _framework density 22.192936
#
# number of rings (size 3 to 8) (size 9 to 14) (size 15 to 20)
#    0.000    2.667    0.000    3.500    2.333    1.333 
#    0.000    1.667    0.000    7.000    0.000    0.000 
#    0.000    0.000    0.000    0.000    0.000    0.000 
#
# Total GULP energy -133940.041956 kJ/mol
# GULP energy per Si atom -5580.835082 kJ/mol
# Density = 2.214242 g / cm^3
# Si number density = 22.192936 Si / 1000 Ang^3
#
#
#
# Elastic Constant Matrix: (Units=GPa)
#
#
# Indices 1 2 3 4 5 6 
#
# 1 40.9546 0.1864 37.2897 0.0000 -0.1797 0.0000
# 2 0.1864 16.8469 19.5671 0.0000 -2.1516 0.0000
# 3 37.2897 19.5671 153.2963 0.0000 -13.3674 0.0000
# 4 0.0000 0.0000 0.0000 21.2097 0.0000 0.9708
# 5 -0.1797 -2.1516 -13.3674 0.0000 44.3234 0.0000
# 6 0.0000 0.0000 0.0000 0.9708 0.0000 14.4965
#
#
#
# Elastic Compliance Matrix: (Units=1/GPa)
#
#
# Indices 1 2 3 4 5 6 
#
# 1 0.033083 0.010474 -0.009580 0.000000 -0.002247 0.000000
# 2 0.010474 0.073028 -0.011869 0.000000 0.000008 0.000000
# 3 -0.009580 -0.011869 0.010594 0.000000 0.002580 0.000000
# 4 0.000000 0.000000 0.000000 0.047293 0.000000 -0.003167
# 5 -0.002247 0.000008 0.002580 0.000000 0.023331 0.000000
# 6 0.000000 0.000000 0.000000 -0.003167 0.000000 0.069194
#
#
# Mechanical properties :
#
#
# Convention : Reuss Voigt Hill
#
# Bulk Modulus (GPa) = 10.55352 36.13159 23.34255
# Shear Modulus (GPa) = 16.12602 26.27621 21.20112
#
# Velocity S-wave (km/s) = 2.69853 3.44465 3.09416
# Velocity P-wave (km/s) = 3.80461 5.66893 4.82762
#
# Compressibility (1/GPa) = 0.09475511
#
# Stress axis : x y z
#
# Youngs Moduli (GPa) = 30.22724 13.69332 94.39598
#
# Poissons Ratio (x) = -0.14343 0.90434
# Poissons Ratio (y) = -0.31661 1.12036
# Poissons Ratio (z) = 0.28959 0.16252
#
# Static dielectric constant tensor:
#      x y z
#    x 1.838240 0.000000 0.019890 
#    y 0.000000 1.804430 0.000000 
#    z 0.019890 0.000000 1.881770 
# 
# From -- ./inp_files/43877.got.cif
#   From: 2010.05.17/outbox.cif.g08.bks.cpg/sg11_22_cif.got.tgz:43877.got - 2010.06.03 12:22:45.
