data_PCOD9167706
_publ_section_title
;
Structure prediction by ZEFSAII (Michael W. Deem and Ramdas Pophale) SiO2 
 PCOD9167706
Probable space group: P 21/M
;
_chemical_formula_sum "Si O2"
_cell_formula_units_Z 32
_cell_length_a 21.000000
_cell_length_b 9.000000
_cell_length_c 27.000000
_cell_angle_alpha 90.000000
_cell_angle_beta 20.000000
_cell_angle_gamma 90.000000
_cell_volume 1745.328791
_symmetry_space_group_name_H-M "P 21/M"
_symmetry_group_IT_number 11
_symmetry_cell_setting 'monoclinic'
loop_
_space_group_symop_operation_xyz
x,y,z
-x,1/2+y,-z
-x,-y,-z
x,1/2-y,z
loop_
_atom_site_type_symbol
_atom_site_label
_atom_site_fract_x
_atom_site_fract_y
_atom_site_fract_z
Si Si1 0.615507 0.421815 0.204731
Si Si2 0.040291 0.575807 0.108051
Si Si3 0.327571 0.575068 0.598530
Si Si4 0.665529 0.428043 0.020630
Si Si5 0.375103 0.923990 0.298315
Si Si6 0.672997 0.071232 0.901181
Si Si7 0.080317 0.428060 0.576295
Si Si8 0.677575 0.924298 0.503453
O O1 0.567080 0.250000 0.224890
O O2 0.509399 0.534220 0.246325
O O3 0.528902 0.439453 0.321983
O O4 0.830645 0.438358 0.034839
O O5 0.990009 0.750000 0.150567
O O6 0.860979 0.475429 0.236997
O O7 0.168574 0.534051 0.062058
O O8 0.500000 0.500000 0.500000
O O9 0.350814 0.750000 0.582017
O O10 0.307021 0.516593 0.557381
O O11 0.650831 0.250000 0.033688
O O12 0.694825 0.472952 0.942747
O O13 0.476100 0.499745 0.178634
O O14 0.360484 0.750000 0.302153
O O15 0.183337 0.995877 0.455544
O O16 0.655254 0.250000 0.913132
O O17 0.866240 0.029992 0.734367
O O18 0.500000 0.000000 0.000000
O O19 0.097740 0.250000 0.559628
O O20 0.181963 0.466574 0.554413
O O21 0.711698 0.750000 0.467511
#
# Coordination Sequence:
#
# PCOD9167706 Si02
#       8
#     4   4   4   4   4   4   4   4
#     4   8  16  32  55  80 107 138 168 204 258 318
#     4   9  17  34  59  82 103 132 173 215 255 307
#     4  12  25  38  52  74 106 142 177 214 258 306
#     4   9  18  35  57  78 104 140 175 208 258 320
#     4  10  18  28  49  82 111 132 166 218 262 298
#     4  10  21  36  54  76 104 140 179 218 262 312
#     4   9  18  35  57  78 104 140 175 208 258 320
#     4   9  17  34  59  82 103 132 173 215 255 307
#
# _framework density 18.334654
#
# number of rings (size 3 to 8) (size 9 to 14) (size 15 to 20)
#    0.000    2.500    0.000    4.500    0.000    7.000 
#    0.000    2.500    0.000    0.000    0.000    0.000 
#    0.000    0.000    0.000    0.000    0.000    0.000 
#
# Total GULP energy -178385.629834 kJ/mol
# GULP energy per Si atom -5574.550932 kJ/mol
# Density = 1.829292 g / cm^3
# Si number density = 18.334654 Si / 1000 Ang^3
#
#
#
# Elastic Constant Matrix: (Units=GPa)
#
#
# Indices 1 2 3 4 5 6 
#
# 1 -2.7347 10.0911 22.7509 0.0000 -15.6145 0.0000
# 2 10.0911 36.3813 44.9766 0.0000 -9.9910 0.0000
# 3 22.7509 44.9766 131.0911 0.0000 -9.7577 0.0000
# 4 0.0000 0.0000 0.0000 25.2950 0.0000 -4.5345
# 5 -15.6145 -9.9910 -9.7577 0.0000 14.1733 0.0000
# 6 0.0000 0.0000 0.0000 -4.5345 0.0000 18.5301
#
#
#
# Elastic Compliance Matrix: (Units=1/GPa)
#
#
# Indices 1 2 3 4 5 6 
#
# 1 -0.044867 -0.011661 0.007901 0.000000 -0.052209 0.000000
# 2 -0.011661 0.053568 -0.015284 0.000000 0.014392 0.000000
# 3 0.007901 -0.015284 0.011960 0.000000 0.006164 0.000000
# 4 0.000000 0.000000 0.000000 0.041347 0.000000 0.010118
# 5 -0.052209 0.014392 0.006164 0.000000 0.027427 0.000000
# 6 0.000000 0.000000 0.000000 0.010118 0.000000 0.056442
#
#
# Mechanical properties :
#
#
# Convention : Reuss Voigt Hill
#
# Bulk Modulus (GPa) = -57.38664 35.59723 -10.89470
# Shear Modulus (GPa) = 28.06535 17.39431 22.72983
#
# Velocity S-wave (km/s) = 3.91670 3.08346 3.52479
# Velocity P-wave (km/s) = 3.30356 5.66872 3.25737
#
# Compressibility (1/GPa) = -0.01742566
#
# Stress axis : x y z
#
# Youngs Moduli (GPa) = -22.28821 18.66779 83.61408
#
# Poissons Ratio (x) = 0.21768 -0.66065
# Poissons Ratio (y) = -0.25989 1.27795
# Poissons Ratio (z) = 0.17610 0.28532
#
# Static dielectric constant tensor:
#      x y z
#    x 1.601530 0.000000 0.019470 
#    y 0.000000 1.609350 0.000000 
#    z 0.019470 0.000000 1.679140 
# 
# From -- ./inp_files/72078.got.cif
#   From: 2010.05.17/outbox.ucp.g08.bks.cvg/sg11_37_cif.got.tgz:72078.got - 2010.06.11 11:38:39.
