data_PCOD9167681
_publ_section_title
;
Structure prediction by ZEFSAII (Michael W. Deem and Ramdas Pophale) SiO2 
 PCOD9167681
Probable space group: P 21/M
;
_chemical_formula_sum "Si O2"
_cell_formula_units_Z 24
_cell_length_a 14.287312
_cell_length_b 7.578226
_cell_length_c 24.749723
_cell_angle_alpha 90.000000
_cell_angle_beta 150.000002
_cell_angle_gamma 90.000000
_cell_volume 1339.856854
_symmetry_space_group_name_H-M "P 21/M"
_symmetry_group_IT_number 11
_symmetry_cell_setting 'monoclinic'
loop_
_space_group_symop_operation_xyz
x,y,z
-x,1/2+y,-z
-x,-y,-z
x,1/2-y,z
loop_
_atom_site_type_symbol
_atom_site_label
_atom_site_fract_x
_atom_site_fract_y
_atom_site_fract_z
Si Si1 0.223825 0.460505 0.552091
Si Si2 0.788599 0.963169 0.333123
Si Si3 0.209860 0.038117 0.332044
Si Si4 0.576412 0.538117 0.454228
Si Si5 0.422172 0.463169 0.877648
Si Si6 0.208623 0.539495 0.880357
O O1 0.253356 0.250000 0.569310
O O2 0.258522 0.529584 0.630112
O O3 0.349501 0.530602 0.565968
O O4 0.004971 0.490965 0.430175
O O5 0.777269 0.750000 0.328428
O O6 0.656951 0.027500 0.218984
O O7 0.197030 0.250000 0.330531
O O8 0.298299 0.971138 0.432766
O O9 0.001099 0.969398 0.217566
O O10 0.362136 0.000000 0.362136
O O11 0.597534 0.750000 0.464033
O O12 0.430747 0.250000 0.879588
O O13 0.280583 0.509035 0.855379
O O14 0.626708 0.529584 0.998298
O O15 0.201219 0.750000 0.885265
#
# Coordination Sequence:
#
# PCOD9167681 Si02
#       6
#     4   4   4   4   4   4
#     4   9  17  29  44  62  85 112 139 168 205 247
#     4   9  17  28  43  64  87 110 137 169 205 245
#     4   9  17  28  42  60  81 106 136 169 205 244
#     4   9  17  28  42  60  81 106 136 169 205 244
#     4   9  17  28  43  64  87 110 137 169 205 245
#     4   9  17  29  44  62  85 112 139 168 205 247
#
# _framework density 17.912362000000002
#
# number of rings (size 3 to 8) (size 9 to 14) (size 15 to 20)
#    0.000    3.000    0.000    1.000    0.000    3.333 
#    0.000    3.333    0.000    1.000    0.000    0.000 
#    0.000    0.000    0.000    0.000    0.000    0.000 
#
# Total GULP energy -133777.881818 kJ/mol
# GULP energy per Si atom -5574.078409 kJ/mol
# Density = 1.787159 g / cm^3
# Si number density = 17.912362 Si / 1000 Ang^3
#
#
#
# Elastic Constant Matrix: (Units=GPa)
#
#
# Indices 1 2 3 4 5 6 
#
# 1 159.4895 -2.5994 112.1479 0.0000 8.2411 0.0000
# 2 -2.5994 33.6832 -0.6203 0.0000 -1.7868 0.0000
# 3 112.1479 -0.6203 149.9870 0.0000 0.3387 0.0000
# 4 0.0000 0.0000 0.0000 11.1675 0.0000 2.2523
# 5 8.2411 -1.7868 0.3387 0.0000 26.2420 0.0000
# 6 0.0000 0.0000 0.0000 2.2523 0.0000 13.6621
#
#
#
# Elastic Compliance Matrix: (Units=1/GPa)
#
#
# Indices 1 2 3 4 5 6 
#
# 1 0.013675 0.000649 -0.010213 0.000000 -0.004118 0.000000
# 2 0.000649 0.029829 -0.000366 0.000000 0.001832 0.000000
# 3 -0.010213 -0.000366 0.014295 0.000000 0.002998 0.000000
# 4 0.000000 0.000000 0.000000 0.092625 0.000000 -0.015270
# 5 -0.004118 0.001832 0.002998 0.000000 0.039486 0.000000
# 6 0.000000 0.000000 0.000000 -0.015270 0.000000 0.075713
#
#
# Mechanical properties :
#
#
# Convention : Reuss Voigt Hill
#
# Bulk Modulus (GPa) = 26.35812 62.33512 44.34662
# Shear Modulus (GPa) = 16.77126 25.82976 21.30051
#
# Velocity S-wave (km/s) = 3.06321 3.80150 3.45215
# Velocity P-wave (km/s) = 5.22092 7.35827 6.37974
#
# Compressibility (1/GPa) = 0.03793898
#
# Stress axis : x y z
#
# Youngs Moduli (GPa) = 73.12762 33.52458 69.95319
#
# Poissons Ratio (x) = -0.02175 0.71442
# Poissons Ratio (y) = -0.04744 0.02559
# Poissons Ratio (z) = 0.74684 0.01227
#
# Static dielectric constant tensor:
#      x y z
#    x 1.605070 0.000000 -0.013890 
#    y 0.000000 1.656220 0.000000 
#    z -0.013890 0.000000 1.620460 
# 
# From -- ./inp_files/34214.got.cif
#   From: 2010.05.17/outbox.cif.g08.bks.cpg/sg11_18_cif.got.tgz:34214.got - 2010.06.03 12:22:45.
