data_PCOD9167271
_publ_section_title
;
Structure prediction by ZEFSAII (Michael W. Deem and Ramdas Pophale) SiO2 
 PCOD9167271
Probable space group: P 21/M
;
_chemical_formula_sum "Si O2"
_cell_formula_units_Z 28
_cell_length_a 13.727567
_cell_length_b 7.971276
_cell_length_c 12.509815
_cell_angle_alpha 90.000000
_cell_angle_beta 124.211972
_cell_angle_gamma 90.000000
_cell_volume 1132.031317
_symmetry_space_group_name_H-M "P 21/M"
_symmetry_group_IT_number 11
_symmetry_cell_setting 'monoclinic'
loop_
_space_group_symop_operation_xyz
x,y,z
-x,1/2+y,-z
-x,-y,-z
x,1/2-y,z
loop_
_atom_site_type_symbol
_atom_site_label
_atom_site_fract_x
_atom_site_fract_y
_atom_site_fract_z
Si Si1 0.626254 0.455185 0.200291
Si Si2 0.195239 0.545183 0.515415
Si Si3 0.714637 0.445307 0.038913
Si Si4 0.903028 0.065291 0.860717
Si Si5 0.325879 0.547979 0.381892
Si Si6 0.040167 0.060749 0.721978
Si Si7 0.575275 0.554729 0.765123
O O1 0.620130 0.250000 0.191395
O O2 0.746789 0.498798 0.336600
O O3 0.632202 0.517760 0.082722
O O4 0.523434 0.516555 0.214956
O O5 0.188079 0.750000 0.505516
O O6 0.286903 0.492559 0.477062
O O7 0.061292 0.483919 0.416446
O O8 0.690501 0.250000 0.007539
O O9 0.844288 0.463871 0.169205
O O10 0.691311 0.531390 0.911139
O O11 0.868428 0.250000 0.879521
O O12 0.782547 0.974494 0.756683
O O13 0.966092 0.078135 0.785828
O O14 0.000000 0.000000 0.000000
O O15 0.321401 0.750000 0.386428
O O16 0.428334 0.513236 0.358342
O O17 0.073011 0.250000 0.707700
O O18 0.550694 0.750000 0.737257
#
# Coordination Sequence:
#
# PCOD9167271 Si02
#       7
#     4   4   4   4   4   4   4
#     4   9  20  37  56  78 106 143 183 223 266 315
#     4   8  16  35  59  81 109 143 175 211 266 328
#     4  11  22  36  55  79 108 142 182 225 268 314
#     4   9  17  28  44  69 100 134 168 204 252 309
#     4   9  18  33  54  79 106 137 173 214 264 322
#     4   9  18  33  54  79 106 137 173 214 264 322
#     4  11  22  36  55  79 108 142 182 225 268 314
#
# _framework density 24.734297000000002
#
# number of rings (size 3 to 8) (size 9 to 14) (size 15 to 20)
#    0.000    2.571    0.000    3.857    0.000    4.571 
#    0.000    4.286    0.000    5.143    0.000    0.000 
#    0.000    0.000    0.000    0.000    0.000    0.000 
#
# Total GULP energy -156128.433778 kJ/mol
# GULP energy per Si atom -5576.015492 kJ/mol
# Density = 2.467800 g / cm^3
# Si number density = 24.734297 Si / 1000 Ang^3
#
#
#
# Elastic Constant Matrix: (Units=GPa)
#
#
# Indices 1 2 3 4 5 6 
#
# 1 82.0720 -3.5403 23.8829 0.0000 -25.5631 0.0000
# 2 -3.5403 26.8581 -2.1912 0.0000 -5.5877 0.0000
# 3 23.8829 -2.1912 101.7966 0.0000 -27.9621 0.0000
# 4 0.0000 0.0000 0.0000 5.8812 0.0000 0.2837
# 5 -25.5631 -5.5877 -27.9621 0.0000 45.2499 0.0000
# 6 0.0000 0.0000 0.0000 0.2837 0.0000 20.8131
#
#
#
# Elastic Compliance Matrix: (Units=1/GPa)
#
#
# Indices 1 2 3 4 5 6 
#
# 1 0.015294 0.003651 -0.001219 0.000000 0.008337 0.000000
# 2 0.003651 0.039644 0.002298 0.000000 0.008378 0.000000
# 3 -0.001219 0.002298 0.012102 0.000000 0.007073 0.000000
# 4 0.000000 0.000000 0.000000 0.170145 0.000000 -0.002319
# 5 0.008337 0.008378 0.007073 0.000000 0.032215 0.000000
# 6 0.000000 0.000000 0.000000 -0.002319 0.000000 0.048078
#
#
# Mechanical properties :
#
#
# Convention : Reuss Voigt Hill
#
# Bulk Modulus (GPa) = 13.07198 27.44773 20.25985
# Shear Modulus (GPa) = 14.99166 27.22718 21.10942
#
# Velocity S-wave (km/s) = 2.46460 3.32141 2.92455
# Velocity P-wave (km/s) = 3.65998 5.08234 4.42863
#
# Compressibility (1/GPa) = 0.07649950
#
# Stress axis : x y z
#
# Youngs Moduli (GPa) = 65.38713 25.22419 82.63082
#
# Poissons Ratio (x) = -0.09209 0.10076
# Poissons Ratio (y) = -0.23873 -0.18990
# Poissons Ratio (z) = 0.07973 -0.05797
#
# Static dielectric constant tensor:
#      x y z
#    x 2.080290 0.000000 0.115500 
#    y 0.000000 1.940900 0.000000 
#    z 0.115500 0.000000 2.086690 
# 
# From -- ./inp_files/51798.got.cif
#   From: 2010.05.17/outbox.cif.g08.bks.cpg/sg11_26_cif.got.tgz:51798.got - 2010.06.03 12:22:45.
