data_PCOD9167752
_publ_section_title
;
Structure prediction by ZEFSAII (Michael W. Deem and Ramdas Pophale) SiO2 
 PCOD9167752
Probable space group: P 21/M
;
_chemical_formula_sum "Si O2"
_cell_formula_units_Z 28
_cell_length_a 27.000000
_cell_length_b 9.000000
_cell_length_c 9.000000
_cell_angle_alpha 90.000000
_cell_angle_beta 40.000000
_cell_angle_gamma 90.000000
_cell_volume 1405.776502
_symmetry_space_group_name_H-M "P 21/M"
_symmetry_group_IT_number 11
_symmetry_cell_setting 'monoclinic'
loop_
_space_group_symop_operation_xyz
x,y,z
-x,1/2+y,-z
-x,-y,-z
x,1/2-y,z
loop_
_atom_site_type_symbol
_atom_site_label
_atom_site_fract_x
_atom_site_fract_y
_atom_site_fract_z
Si Si1 0.196145 0.426373 0.816037
Si Si2 0.549421 0.071136 0.159153
Si Si3 0.806849 0.090629 0.592069
Si Si4 0.079872 0.421691 0.829523
Si Si5 0.755348 0.414733 0.044273
Si Si6 0.327182 0.577512 0.340070
Si Si7 0.602456 0.574894 0.344006
O O1 0.195258 0.250000 0.833692
O O2 0.132962 0.475325 0.842528
O O3 0.180283 0.515373 0.000886
O O4 0.279699 0.480297 0.564954
O O5 0.558159 0.250000 0.140417
O O6 0.460269 0.032532 0.387082
O O7 0.586024 0.008386 0.226934
O O8 0.592739 0.018703 0.911557
O O9 0.843248 0.250000 0.465117
O O10 0.730232 0.075583 0.670259
O O11 0.865737 0.958750 0.433243
O O12 0.782648 0.095888 0.815361
O O13 0.067498 0.250000 0.877212
O O14 0.000000 0.500000 0.000000
O O15 0.732350 0.250000 0.147502
O O16 0.685256 0.527939 0.206351
O O17 0.334970 0.750000 0.369380
O O18 0.595673 0.750000 0.333060
#
# Coordination Sequence:
#
# PCOD9167752 Si02
#       7
#     4   4   4   4   4   4   4
#     4  10  22  37  54  81 111 138 174 221 268 315
#     4   9  17  31  49  74 105 140 185 228 272 320
#     4   9  18  33  56  81 106 138 179 220 259 310
#     4  10  21  38  61  86 112 138 171 213 259 314
#     4  11  21  36  55  78 109 146 183 219 267 325
#     4   9  16  32  54  75 102 139 182 225 266 317
#     4  10  19  29  48  76 108 142 178 229 277 315
#
# _framework density 19.917818
#
# number of rings (size 3 to 8) (size 9 to 14) (size 15 to 20)
#    0.000    2.286    1.429    1.714    0.000    4.000 
#    0.000    1.429    0.000    0.000    0.000    0.000 
#    0.000    0.000    0.000    0.000    0.000    0.000 
#
# Total GULP energy -155897.368830 kJ/mol
# GULP energy per Si atom -5567.763173 kJ/mol
# Density = 1.987248 g / cm^3
# Si number density = 19.917818 Si / 1000 Ang^3
#
#
#
# Elastic Constant Matrix: (Units=GPa)
#
#
# Indices 1 2 3 4 5 6 
#
# 1 18.5950 -0.4103 31.2753 0.0000 11.7322 0.0000
# 2 -0.4103 -31.4584 -18.2653 0.0000 6.3601 0.0000
# 3 31.2753 -18.2653 9.7566 0.0000 1.5685 0.0000
# 4 0.0000 0.0000 0.0000 24.4886 0.0000 -1.4953
# 5 11.7322 6.3601 1.5685 0.0000 23.5215 0.0000
# 6 0.0000 0.0000 0.0000 -1.4953 0.0000 15.2938
#
#
#
# Elastic Compliance Matrix: (Units=1/GPa)
#
#
# Indices 1 2 3 4 5 6 
#
# 1 -0.025479 -0.020372 0.041049 0.000000 0.015480 0.000000
# 2 -0.020372 -0.030704 0.004906 0.000000 0.018136 0.000000
# 3 0.041049 0.004906 -0.016578 0.000000 -0.020696 0.000000
# 4 0.000000 0.000000 0.000000 0.041081 0.000000 0.004016
# 5 0.015480 0.018136 -0.020696 0.000000 0.031269 0.000000
# 6 0.000000 0.000000 0.000000 0.004016 0.000000 0.065779
#
#
# Mechanical properties :
#
#
# Convention : Reuss Voigt Hill
#
# Bulk Modulus (GPa) = -46.30606 2.45474 -21.92566
# Shear Modulus (GPa) = 714.06317 11.61368 362.83842
#
# Velocity S-wave (km/s) = 18.95476 2.41732 13.51160
# Velocity P-wave (km/s) = 21.34818 3.00439 15.24420
#
# Compressibility (1/GPa) = -0.02159545
#
# Stress axis : x y z
#
# Youngs Moduli (GPa) = -39.24734 -32.56892 -60.32067
#
# Poissons Ratio (x) = -0.66349 2.47610
# Poissons Ratio (y) = -0.79954 0.29593
# Poissons Ratio (z) = 1.61106 0.15978
#
# Static dielectric constant tensor:
#      x y z
#    x 2.218770 0.000000 -0.202270 
#    y 0.000000 1.613630 0.000000 
#    z -0.202270 0.000000 1.845560 
# 
# From -- ./inp_files/28433.got.cif
#   From: 2010.05.17/outbox.ucp.g08.bks.cvg/sg11_15_cif.got.tgz:28433.got - 2010.06.11 11:38:39.
