data_PCOD9167860
_publ_section_title
;
Structure prediction by ZEFSAII (Michael W. Deem and Ramdas Pophale) SiO2 
 PCOD9167860
Probable space group: P 21/M
;
_chemical_formula_sum "Si O2"
_cell_formula_units_Z 28
_cell_length_a 30.000000
_cell_length_b 9.000000
_cell_length_c 30.000000
_cell_angle_alpha 90.000000
_cell_angle_beta 10.000000
_cell_angle_gamma 90.000000
_cell_volume 1406.550239
_symmetry_space_group_name_H-M "P 21/M"
_symmetry_group_IT_number 11
_symmetry_cell_setting 'monoclinic'
loop_
_space_group_symop_operation_xyz
x,y,z
-x,1/2+y,-z
-x,-y,-z
x,1/2-y,z
loop_
_atom_site_type_symbol
_atom_site_label
_atom_site_fract_x
_atom_site_fract_y
_atom_site_fract_z
Si Si1 0.325810 0.428143 0.476867
Si Si2 0.192512 0.422435 0.145539
Si Si3 0.886295 0.429854 0.067696
Si Si4 0.636258 0.570408 0.459303
Si Si5 0.738363 0.069648 0.738546
Si Si6 0.289375 0.070575 0.331816
Si Si7 0.195465 0.420383 0.037032
O O1 0.335649 0.250000 0.462073
O O2 0.405428 0.470634 0.448642
O O3 0.530721 0.506086 0.243100
O O4 0.037593 0.485231 0.753584
O O5 0.205458 0.250000 0.148920
O O6 0.959556 0.510787 0.397268
O O7 0.454376 0.509772 0.897300
O O8 0.153317 0.418104 0.131370
O O9 0.884784 0.250000 0.072768
O O10 0.599454 0.482193 0.338912
O O11 0.000000 0.500000 0.000000
O O12 0.085427 0.473533 0.832686
O O13 0.630796 0.750000 0.463211
O O14 0.739429 0.250000 0.739646
O O15 0.715020 0.008487 0.711679
O O16 0.000000 0.000000 0.500000
O O17 0.500000 0.000000 0.000000
O O18 0.288919 0.250000 0.328940
O O19 0.190595 0.250000 0.025517
#
# Coordination Sequence:
#
# PCOD9167860 Si02
#       7
#     4   4   4   4   4   4   4
#     4  11  22  39  64  89 115 156 207 246 289 357
#     4  11  24  43  64  88 123 167 204 241 302 370
#     4  10  19  34  54  77 107 142 183 230 285 343
#     4   9  19  35  55  78 108 146 185 232 286 344
#     4  12  25  44  67  94 128 166 207 252 305 363
#     4  12  25  42  65  95 126 159 205 258 304 351
#     4  11  24  41  61  89 126 160 194 247 311 358
#
# _framework density 19.906860999999999
#
# number of rings (size 3 to 8) (size 9 to 14) (size 15 to 20)
#    0.000    1.143    0.000    6.857    0.000    8.000 
#    0.000    4.286    0.000    0.000    0.000    0.000 
#    0.000    0.000    0.000    0.000    0.000    0.000 
#
# Total GULP energy -156531.377389 kJ/mol
# GULP energy per Si atom -5590.406335 kJ/mol
# Density = 1.986155 g / cm^3
# Si number density = 19.906861 Si / 1000 Ang^3
#
#
#
# Elastic Constant Matrix: (Units=GPa)
#
#
# Indices 1 2 3 4 5 6 
#
# 1 54.0642 17.4894 -1.8727 0.0000 -1.5980 0.0000
# 2 17.4894 139.2158 33.7035 0.0000 1.6429 0.0000
# 3 -1.8727 33.7035 103.8348 0.0000 -3.7867 0.0000
# 4 0.0000 0.0000 0.0000 49.1042 0.0000 -17.6386
# 5 -1.5980 1.6429 -3.7867 0.0000 38.8077 0.0000
# 6 0.0000 0.0000 0.0000 -17.6386 0.0000 28.6456
#
#
#
# Elastic Compliance Matrix: (Units=1/GPa)
#
#
# Indices 1 2 3 4 5 6 
#
# 1 0.019468 -0.002770 0.001288 0.000000 0.001045 0.000000
# 2 -0.002770 0.008203 -0.002739 0.000000 -0.000729 0.000000
# 3 0.001288 -0.002739 0.010587 0.000000 0.001202 0.000000
# 4 0.000000 0.000000 0.000000 0.026148 0.000000 0.016101
# 5 0.001045 -0.000729 0.001202 0.000000 0.025959 0.000000
# 6 0.000000 0.000000 0.000000 0.016101 0.000000 0.044824
#
#
# Mechanical properties :
#
#
# Convention : Reuss Voigt Hill
#
# Bulk Modulus (GPa) = 33.53875 43.97283 38.75579
# Shear Modulus (GPa) = 32.55860 39.83112 36.19486
#
# Velocity S-wave (km/s) = 4.04858 4.47797 4.26867
# Velocity P-wave (km/s) = 6.22407 6.99096 6.61863
#
# Compressibility (1/GPa) = 0.02981626
#
# Stress axis : x y z
#
# Youngs Moduli (GPa) = 51.36613 121.90977 94.45711
#
# Poissons Ratio (x) = 0.33769 -0.12169
# Poissons Ratio (y) = 0.14228 0.25872
# Poissons Ratio (z) = -0.06617 0.33392
#
# Static dielectric constant tensor:
#      x y z
#    x 1.719450 0.000000 0.007870 
#    y 0.000000 1.670700 0.000000 
#    z 0.007870 0.000000 1.690620 
# 
# From -- ./inp_files/73855.got.cif
#   From: 2010.05.17/outbox.ucp.g08.bks.cvg/sg11_37_cif.got.tgz:73855.got - 2010.06.11 11:38:39.
