data_PCOD9167557
_publ_section_title
;
Structure prediction by ZEFSAII (Michael W. Deem and Ramdas Pophale) SiO2 
 PCOD9167557
Probable space group: P 21/M
;
_chemical_formula_sum "Si O2"
_cell_formula_units_Z 16
_cell_length_a 5.530498
_cell_length_b 22.444491
_cell_length_c 6.798657
_cell_angle_alpha 90.000000
_cell_angle_beta 128.253856
_cell_angle_gamma 90.000000
_cell_volume 662.703172
_symmetry_space_group_name_H-M "P 21/M"
_symmetry_group_IT_number 11
_symmetry_cell_setting 'monoclinic'
loop_
_space_group_symop_operation_xyz
x,y,z
-x,1/2+y,-z
-x,-y,-z
x,1/2-y,z
loop_
_atom_site_type_symbol
_atom_site_label
_atom_site_fract_x
_atom_site_fract_y
_atom_site_fract_z
Si Si1 0.634766 0.250000 0.540985
Si Si2 0.911531 0.349598 0.420999
Si Si3 0.111622 0.534742 0.802460
Si Si4 0.406567 0.065649 0.691768
Si Si5 0.080679 0.750000 0.894451
O O1 0.789247 0.310667 0.537142
O O2 0.291928 0.250000 0.277257
O O3 0.709939 0.250000 0.808753
O O4 0.767575 0.413296 0.288783
O O5 0.269648 0.367913 0.634029
O O6 0.862317 0.307898 0.209184
O O7 0.235483 0.473204 0.777353
O O8 0.748357 0.542528 0.587102
O O9 0.241821 0.553532 0.079294
#
# Coordination Sequence:
#
# PCOD9167557 Si02
#       5
#     2   4   4   4   2
#     4  11  26  37  54  86 108 145 196 221 262 330
#     4   9  21  38  62  72 119 147 172 232 282 301
#     4   8  15  28  55  83 100 138 181 211 274 333
#     4   8  15  28  55  83 100 138 181 211 274 333
#     4  11  26  37  54  86 108 145 196 221 262 330
#
# _framework density 24.143536999999998
#
# number of rings (size 3 to 8) (size 9 to 14) (size 15 to 20)
#    1.500    1.500    0.000    0.000    7.000    2.000 
#    0.000    0.000    0.000   12.000    0.000    0.000 
#    0.000    0.000    0.000    0.000    0.000    0.000 
#
# Total GULP energy -89099.411022 kJ/mol
# GULP energy per Si atom -5568.713189 kJ/mol
# Density = 2.408859 g / cm^3
# Si number density = 24.143537 Si / 1000 Ang^3
#
#
#
# Elastic Constant Matrix: (Units=GPa)
#
#
# Indices 1 2 3 4 5 6 
#
# 1 31.7997 12.2269 14.2284 0.0000 6.3530 0.0000
# 2 12.2269 102.8676 17.7464 0.0000 -17.3190 0.0000
# 3 14.2284 17.7464 142.5752 0.0000 29.3457 0.0000
# 4 0.0000 0.0000 0.0000 -8.4947 0.0000 36.3402
# 5 6.3530 -17.3190 29.3457 0.0000 35.9885 0.0000
# 6 0.0000 0.0000 0.0000 36.3402 0.0000 3.9407
#
#
#
# Elastic Compliance Matrix: (Units=1/GPa)
#
#
# Indices 1 2 3 4 5 6 
#
# 1 0.035630 -0.005327 -0.001286 0.000000 -0.007804 0.000000
# 2 -0.005327 0.012428 -0.002932 0.000000 0.009312 0.000000
# 3 -0.001286 -0.002932 0.009314 0.000000 -0.008779 0.000000
# 4 0.000000 0.000000 0.000000 -0.002910 0.000000 0.026837
# 5 -0.007804 0.009312 -0.008779 0.000000 0.040804 0.000000
# 6 0.000000 0.000000 0.000000 0.026837 0.000000 0.006273
#
#
# Mechanical properties :
#
#
# Convention : Reuss Voigt Hill
#
# Bulk Modulus (GPa) = 26.12242 40.62733 33.37488
# Shear Modulus (GPa) = 37.48406 21.82293 29.65350
#
# Velocity S-wave (km/s) = 3.94452 3.00973 3.50839
# Velocity P-wave (km/s) = 5.62039 5.37977 5.50139
#
# Compressibility (1/GPa) = 0.03828129
#
# Stress axis : x y z
#
# Youngs Moduli (GPa) = 28.06637 80.46353 107.36473
#
# Poissons Ratio (x) = 0.42863 0.13810
# Poissons Ratio (y) = 0.14951 0.31479
# Poissons Ratio (z) = 0.03610 0.23591
#
# Static dielectric constant tensor:
#      x y z
#    x 1.981630 0.000000 0.067900 
#    y 0.000000 1.893580 0.000000 
#    z 0.067900 0.000000 2.001570 
# 
# From -- ./inp_files/582.got.cif
#   From: 2010.05.17/outbox.cif.g08.bks.cpg/sg11_1_cif.got.tgz:582.got - 2010.06.03 12:22:45.
