data_PCOD9167682
_publ_section_title
;
Structure prediction by ZEFSAII (Michael W. Deem and Ramdas Pophale) SiO2 
 PCOD9167682
Probable space group: P 21/M
;
_chemical_formula_sum "Si O2"
_cell_formula_units_Z 24
_cell_length_a 9.400132
_cell_length_b 18.652917
_cell_length_c 9.400132
_cell_angle_alpha 90.000000
_cell_angle_beta 85.687504
_cell_angle_gamma 90.000000
_cell_volume 1643.551530
_symmetry_space_group_name_H-M "P 21/M"
_symmetry_group_IT_number 11
_symmetry_cell_setting 'monoclinic'
loop_
_space_group_symop_operation_xyz
x,y,z
-x,1/2+y,-z
-x,-y,-z
x,1/2-y,z
loop_
_atom_site_type_symbol
_atom_site_label
_atom_site_fract_x
_atom_site_fract_y
_atom_site_fract_z
Si Si1 0.115261 0.937948 0.656941
Si Si2 0.078071 0.334011 0.150992
Si Si3 0.867449 0.447335 0.675523
Si Si4 0.849008 0.334011 0.921929
Si Si5 0.324477 0.052665 0.132551
Si Si6 0.343059 0.937948 0.884739
O O1 0.151414 0.930437 0.488703
O O2 0.252186 0.943703 0.747814
O O3 0.019866 0.871994 0.722061
O O4 0.014618 0.008000 0.681403
O O5 0.098089 0.250000 0.176623
O O6 0.224501 0.377918 0.131628
O O7 0.988545 0.342475 0.011455
O O8 0.868372 0.377918 0.775499
O O9 0.744588 0.500000 0.744588
O O10 0.823377 0.250000 0.901911
O O11 0.722062 0.371994 0.019866
O O12 0.488703 0.069563 0.151414
O O13 0.318597 0.008000 0.985382
#
# Coordination Sequence:
#
# PCOD9167682 Si02
#       6
#     4   4   4   4   4   4
#     4   9  17  29  45  65  88 113 143 178 214 253
#     4   9  17  29  45  64  85 111 143 177 213 253
#     4   9  17  29  45  65  87 113 143 176 214 253
#     4   9  17  29  45  64  85 111 143 177 213 253
#     4   9  17  29  45  65  87 113 143 176 214 253
#     4   9  17  29  45  65  88 113 143 178 214 253
#
# _framework density 14.602524000000001
#
# number of rings (size 3 to 8) (size 9 to 14) (size 15 to 20)
#    0.000    3.000    0.000    1.000    0.000    6.000 
#    0.000    0.000    0.000    0.000    0.000    0.000 
#    0.000    0.000    0.000    0.000    0.000    0.000 
#
# Total GULP energy -133684.020386 kJ/mol
# GULP energy per Si atom -5570.167516 kJ/mol
# Density = 1.456929 g / cm^3
# Si number density = 14.602524 Si / 1000 Ang^3
#
#
#
# Elastic Constant Matrix: (Units=GPa)
#
#
# Indices 1 2 3 4 5 6 
#
# 1 128.2060 70.2052 71.1206 0.0000 3.7064 0.0000
# 2 70.2052 116.1946 70.2051 0.0000 8.0269 0.0000
# 3 71.1206 70.2051 128.2056 0.0000 3.7064 0.0000
# 4 0.0000 0.0000 0.0000 13.8889 0.0000 4.8841
# 5 3.7064 8.0269 3.7064 0.0000 12.5284 0.0000
# 6 0.0000 0.0000 0.0000 4.8841 0.0000 13.8888
#
#
#
# Elastic Compliance Matrix: (Units=1/GPa)
#
#
# Indices 1 2 3 4 5 6 
#
# 1 0.013134 -0.005345 -0.004383 0.000000 0.000836 0.000000
# 2 -0.005345 0.015534 -0.005345 0.000000 -0.006790 0.000000
# 3 -0.004383 -0.005345 0.013134 0.000000 0.000836 0.000000
# 4 0.000000 0.000000 0.000000 0.082160 0.000000 -0.028892
# 5 0.000836 -0.006790 0.000836 0.000000 0.083675 0.000000
# 6 0.000000 0.000000 0.000000 -0.028892 0.000000 0.082161
#
#
# Mechanical properties :
#
#
# Convention : Reuss Voigt Hill
#
# Bulk Modulus (GPa) = 85.79294 88.40757 87.10026
# Shear Modulus (GPa) = 15.44015 18.79956 17.11985
#
# Velocity S-wave (km/s) = 3.25524 3.59195 3.42773
# Velocity P-wave (km/s) = 8.54450 8.82479 8.68578
#
# Compressibility (1/GPa) = 0.01165597
#
# Stress axis : x y z
#
# Youngs Moduli (GPa) = 76.13615 64.37306 76.13596
#
# Poissons Ratio (x) = 0.34408 0.33373
# Poissons Ratio (y) = 0.40696 0.40696
# Poissons Ratio (z) = 0.33373 0.34408
#
# Static dielectric constant tensor:
#      x y z
#    x 1.465430 0.000000 -0.004410 
#    y 0.000000 1.467290 0.000000 
#    z -0.004410 0.000000 1.465430 
# 
# From -- ./inp_files/13180.got.cif
#   From: 2010.05.17/outbox.cif.g08.bks.cpg/sg11_7_cif.got.tgz:13180.got - 2010.06.03 12:22:45.
