data_PCOD9167692
_publ_section_title
;
Structure prediction by ZEFSAII (Michael W. Deem and Ramdas Pophale) SiO2 
 PCOD9167692
Probable space group: P 21/M
;
_chemical_formula_sum "Si O2"
_cell_formula_units_Z 32
_cell_length_a 15.000000
_cell_length_b 9.000000
_cell_length_c 15.000000
_cell_angle_alpha 90.000000
_cell_angle_beta 80.000000
_cell_angle_gamma 90.000000
_cell_volume 1994.235700
_symmetry_space_group_name_H-M "P 21/M"
_symmetry_group_IT_number 11
_symmetry_cell_setting 'monoclinic'
loop_
_space_group_symop_operation_xyz
x,y,z
-x,1/2+y,-z
-x,-y,-z
x,1/2-y,z
loop_
_atom_site_type_symbol
_atom_site_label
_atom_site_fract_x
_atom_site_fract_y
_atom_site_fract_z
Si Si1 0.401739 0.928817 0.707538
Si Si2 0.754826 0.570482 0.733461
Si Si3 0.371913 0.071978 0.086540
Si Si4 0.702896 0.926676 0.426347
Si Si5 0.935039 0.420366 0.638150
Si Si6 0.111817 0.580698 0.564190
Si Si7 0.601812 0.930477 0.617298
Si Si8 0.423730 0.572167 0.902156
O O1 0.400293 0.750000 0.699955
O O2 0.502162 0.981129 0.661190
O O3 0.388539 0.969252 0.812028
O O4 0.326932 0.000124 0.659421
O O5 0.764461 0.750000 0.726830
O O6 0.708536 0.528650 0.834458
O O7 0.849931 0.493847 0.700838
O O8 0.681164 0.525204 0.671433
O O9 0.372178 0.250000 0.081272
O O10 0.470267 0.027854 0.108958
O O11 0.368936 0.001927 0.990467
O O12 0.699254 0.750000 0.422332
O O13 0.632049 0.978148 0.514310
O O14 0.801705 0.978699 0.437037
O O15 0.948935 0.250000 0.663122
O O16 0.911779 0.420212 0.536646
O O17 0.025869 0.515646 0.630955
O O18 0.131324 0.750000 0.587077
O O19 0.599974 0.750000 0.620686
O O20 0.421277 0.750000 0.911792
#
# Coordination Sequence:
#
# PCOD9167692 Si02
#       8
#     4   4   4   4   4   4   4   4
#     4  10  19  33  49  66  94 134 172 202 238 287
#     4  10  17  30  50  71  97 132 163 192 240 295
#     4   9  17  29  48  70  94 125 161 200 243 288
#     4  11  21  32  48  70  96 129 167 208 243 275
#     4  10  20  32  49  73  98 123 157 202 244 283
#     4  10  20  34  50  69  94 128 163 197 240 290
#     4   9  17  30  47  66  95 132 168 199 232 280
#     4   9  17  30  47  67  93 127 163 202 244 283
#
# _framework density 16.046247999999999
#
# number of rings (size 3 to 8) (size 9 to 14) (size 15 to 20)
#    0.000    2.250    2.500    1.500    0.000    2.000 
#    0.000    1.250    0.000    0.000    0.000    0.875 
#    0.000    0.000    0.000    0.000    0.000    0.000 
#
# Total GULP energy -178371.752427 kJ/mol
# GULP energy per Si atom -5574.117263 kJ/mol
# Density = 1.600973 g / cm^3
# Si number density = 16.046248 Si / 1000 Ang^3
#
#
#
# Elastic Constant Matrix: (Units=GPa)
#
#
# Indices 1 2 3 4 5 6 
#
# 1 -10.6940 -1.6891 10.2251 0.0000 -1.3345 0.0000
# 2 -1.6891 12.0417 33.5744 0.0000 -2.0140 0.0000
# 3 10.2251 33.5744 62.1616 0.0000 -2.0959 0.0000
# 4 0.0000 0.0000 0.0000 18.4108 0.0000 -3.8536
# 5 -1.3345 -2.0140 -2.0959 0.0000 19.3098 0.0000
# 6 0.0000 0.0000 0.0000 -3.8536 0.0000 22.5008
#
#
#
# Elastic Compliance Matrix: (Units=1/GPa)
#
#
# Indices 1 2 3 4 5 6 
#
# 1 -0.260473 0.308229 -0.123608 0.000000 0.000731 0.000000
# 2 0.308229 -0.527798 0.234089 0.000000 -0.008340 0.000000
# 3 -0.123608 0.234089 -0.089809 0.000000 0.006125 0.000000
# 4 0.000000 0.000000 0.000000 0.056336 0.000000 0.009648
# 5 0.000731 -0.008340 0.006125 0.000000 0.051632 0.000000
# 6 0.000000 0.000000 0.000000 0.009648 0.000000 0.046095
#
#
# Mechanical properties :
#
#
# Convention : Reuss Voigt Hill
#
# Bulk Modulus (GPa) = -24.59365 16.41446 -4.08960
# Shear Modulus (GPa) = -3.17463 13.47087 5.14812
#
# Velocity S-wave (km/s) = -1.40809 2.90056 1.79312
# Velocity P-wave (km/s) = 4.24307 4.63350 1.31638
#
# Compressibility (1/GPa) = -0.04066091
#
# Stress axis : x y z
#
# Youngs Moduli (GPa) = -3.83917 -1.89467 -11.13480
#
# Poissons Ratio (x) = 0.58399 -1.37635
# Poissons Ratio (y) = 1.18334 2.60653
# Poissons Ratio (z) = -0.47455 0.44352
#
# Static dielectric constant tensor:
#      x y z
#    x 1.512740 0.000000 0.003590 
#    y 0.000000 1.540200 0.000000 
#    z 0.003590 0.000000 1.538950 
# 
# From -- ./inp_files/51215.got.cif
#   From: 2010.05.17/outbox.ucp.g08.bks.cvg/sg11_26_cif.got.tgz:51215.got - 2010.06.11 11:38:39.
