data_PCOD9167280
_publ_section_title
;
Structure prediction by ZEFSAII (Michael W. Deem and Ramdas Pophale) SiO2 
 PCOD9167280
Probable space group: P 21/M
;
_chemical_formula_sum "Si O2"
_cell_formula_units_Z 28
_cell_length_a 14.530616
_cell_length_b 14.470001
_cell_length_c 7.226179
_cell_angle_alpha 90.000000
_cell_angle_beta 131.308315
_cell_angle_gamma 90.000000
_cell_volume 1141.296747
_symmetry_space_group_name_H-M "P 21/M"
_symmetry_group_IT_number 11
_symmetry_cell_setting 'monoclinic'
loop_
_space_group_symop_operation_xyz
x,y,z
-x,1/2+y,-z
-x,-y,-z
x,1/2-y,z
loop_
_atom_site_type_symbol
_atom_site_label
_atom_site_fract_x
_atom_site_fract_y
_atom_site_fract_z
Si Si1 0.182341 0.144344 0.894443
Si Si2 0.713144 0.141890 0.648444
Si Si3 0.092035 0.637999 0.548225
Si Si4 0.660996 0.465699 0.254870
Si Si5 0.614456 0.009341 0.787026
Si Si6 0.229767 0.354454 0.512419
Si Si7 0.965618 0.138547 0.098172
O O1 0.200813 0.250000 0.986237
O O2 0.200933 0.147810 0.695205
O O3 0.038468 0.119926 0.726323
O O4 0.283917 0.072238 0.100299
O O5 0.713839 0.250000 0.646105
O O6 0.628685 0.107089 0.369852
O O7 0.671314 0.104614 0.789455
O O8 0.854211 0.107536 0.822212
O O9 0.116661 0.750000 0.561363
O O10 0.206046 0.574943 0.639008
O O11 0.066230 0.617112 0.730502
O O12 0.676282 0.563005 0.379145
O O13 0.588772 0.480912 0.970233
O O14 0.500000 0.000000 0.500000
O O15 0.265085 0.250000 0.506898
O O16 0.105416 0.386062 0.246011
O O17 0.967866 0.250000 0.091889
#
# Coordination Sequence:
#
# PCOD9167280 Si02
#       7
#     4   4   4   4   4   4   4
#     4   8  17  35  60  89 121 159 205 256 312 371
#     4  11  24  40  60  93 127 157 202 257 306 362
#     4   9  16  31  58  91 126 159 194 244 308 379
#     4  11  22  36  64  92 122 163 202 245 309 378
#     4  11  25  43  65  88 119 165 215 262 305 359
#     4   8  16  31  53  84 123 164 197 241 300 364
#     4   8  15  30  52  81 121 158 193 237 293 358
#
# _framework density 24.533497000000001
#
# number of rings (size 3 to 8) (size 9 to 14) (size 15 to 20)
#    0.000    2.571    1.429    2.143    2.000    4.000 
#    0.000    0.714    0.000    0.000    0.000    0.000 
#    0.000    0.000    0.000    0.000    0.000    0.000 
#
# Total GULP energy -156500.674791 kJ/mol
# GULP energy per Si atom -5589.309814 kJ/mol
# Density = 2.447766 g / cm^3
# Si number density = 24.533497 Si / 1000 Ang^3
#
#
#
# Elastic Constant Matrix: (Units=GPa)
#
#
# Indices 1 2 3 4 5 6 
#
# 1 45.2706 17.4758 27.2735 0.0000 -4.5275 0.0000
# 2 17.4758 123.4910 52.8480 0.0000 2.9630 0.0000
# 3 27.2735 52.8480 189.5443 0.0000 -5.4867 0.0000
# 4 0.0000 0.0000 0.0000 37.5310 0.0000 -4.7056
# 5 -4.5275 2.9630 -5.4867 0.0000 32.3856 0.0000
# 6 0.0000 0.0000 0.0000 -4.7056 0.0000 5.4078
#
#
#
# Elastic Compliance Matrix: (Units=1/GPa)
#
#
# Indices 1 2 3 4 5 6 
#
# 1 0.025054 -0.002408 -0.002840 0.000000 0.003242 0.000000
# 2 -0.002408 0.009480 -0.002343 0.000000 -0.001601 0.000000
# 3 -0.002840 -0.002343 0.006364 0.000000 0.000895 0.000000
# 4 0.000000 0.000000 0.000000 0.029908 0.000000 0.026024
# 5 0.003242 -0.001601 0.000895 0.000000 0.031629 0.000000
# 6 0.000000 0.000000 0.000000 0.026024 0.000000 0.207562
#
#
# Mechanical properties :
#
#
# Convention : Reuss Voigt Hill
#
# Bulk Modulus (GPa) = 38.88664 61.50006 50.19335
# Shear Modulus (GPa) = 14.98131 32.44545 23.71338
#
# Velocity S-wave (km/s) = 2.47381 3.64056 3.11235
# Velocity P-wave (km/s) = 4.90352 6.54169 5.78093
#
# Compressibility (1/GPa) = 0.02571577
#
# Stress axis : x y z
#
# Youngs Moduli (GPa) = 39.91373 105.48983 157.14395
#
# Poissons Ratio (x) = 0.25402 0.44626
# Poissons Ratio (y) = 0.09611 0.36817
# Poissons Ratio (z) = 0.11335 0.24715
#
# Static dielectric constant tensor:
#      x y z
#    x 2.037770 0.000000 0.053780 
#    y 0.000000 1.910210 0.000000 
#    z 0.053780 0.000000 1.987800 
# 
# From -- ./inp_files/24958.got.cif
#   From: 2010.05.17/outbox.cif.g08.bks.cpg/sg11_13_cif.got.tgz:24958.got - 2010.06.03 12:22:45.
