data_PCOD9167097
_publ_section_title
;
Structure prediction by ZEFSAII (Michael W. Deem and Ramdas Pophale) SiO2 
 PCOD9167097
Probable space group: P 21/M
;
_chemical_formula_sum "Si O2"
_cell_formula_units_Z 32
_cell_length_a 17.285236
_cell_length_b 14.643238
_cell_length_c 12.065668
_cell_angle_alpha 90.000000
_cell_angle_beta 35.782919
_cell_angle_gamma 90.000000
_cell_volume 1785.700728
_symmetry_space_group_name_H-M "P 21/M"
_symmetry_group_IT_number 11
_symmetry_cell_setting 'monoclinic'
loop_
_space_group_symop_operation_xyz
x,y,z
-x,1/2+y,-z
-x,-y,-z
x,1/2-y,z
loop_
_atom_site_type_symbol
_atom_site_label
_atom_site_fract_x
_atom_site_fract_y
_atom_site_fract_z
Si Si1 0.411523 0.138832 0.641939
Si Si2 0.397725 0.139266 0.403023
Si Si3 0.120637 0.145155 0.635985
Si Si4 0.939601 0.021967 0.689005
Si Si5 0.146656 0.355440 0.062386
Si Si6 0.300133 0.860805 0.966705
Si Si7 0.012710 0.892360 0.975217
Si Si8 0.298749 0.641593 0.710937
O O1 0.408434 0.250000 0.646672
O O2 0.382034 0.110669 0.549624
O O3 0.559855 0.106067 0.495734
O O4 0.294571 0.111543 0.858766
O O5 0.392742 0.250000 0.410410
O O6 0.270248 0.110087 0.481821
O O7 0.545531 0.116347 0.191205
O O8 0.122980 0.250000 0.592779
O O9 0.039310 0.081343 0.648603
O O10 0.049953 0.146501 0.838824
O O11 0.805101 0.082181 0.841072
O O12 0.000000 0.000000 0.500000
O O13 0.911934 0.926895 0.783721
O O14 0.149537 0.250000 0.097281
O O15 0.064062 0.358704 0.043560
O O16 0.282960 0.750000 0.997369
O O17 0.275633 0.886633 0.865497
O O18 0.169108 0.874531 0.790562
O O19 0.000000 0.000000 0.000000
O O20 0.316237 0.750000 0.698321
#
# Coordination Sequence:
#
# PCOD9167097 Si02
#       8
#     4   4   4   4   4   4   4   4
#     4   8  15  29  51  80 114 146 175 213 270 343
#     4   8  15  29  56  89 114 140 175 220 283 348
#     4  11  20  36  61  86 114 148 185 233 284 340
#     4  12  26  41  55  80 109 150 207 246 276 322
#     4  11  22  38  56  80 118 153 182 228 288 341
#     4   9  17  35  59  83 112 144 183 233 280 329
#     4  12  20  32  53  89 123 146 177 222 283 352
#     4   9  16  29  52  83 115 146 178 214 269 341
#
# _framework density 17.920135999999999
#
# number of rings (size 3 to 8) (size 9 to 14) (size 15 to 20)
#    0.000    2.000    3.750    3.000    0.000    1.000 
#    2.250    2.500    0.000    0.000    0.000    3.500 
#    0.000    0.000    0.000    0.000    0.000    0.000 
#
# Total GULP energy -178567.262071 kJ/mol
# GULP energy per Si atom -5580.226940 kJ/mol
# Density = 1.787935 g / cm^3
# Si number density = 17.920136 Si / 1000 Ang^3
#
#
#
# Elastic Constant Matrix: (Units=GPa)
#
#
# Indices 1 2 3 4 5 6 
#
# 1 56.2945 13.9679 68.7568 0.0000 -8.3040 0.0000
# 2 13.9679 71.5930 32.0208 0.0000 9.6870 0.0000
# 3 68.7568 32.0208 125.4828 0.0000 -6.1669 0.0000
# 4 0.0000 0.0000 0.0000 -5.0715 0.0000 33.2816
# 5 -8.3040 9.6870 -6.1669 0.0000 30.2963 0.0000
# 6 0.0000 0.0000 0.0000 33.2816 0.0000 -46.9239
#
#
#
# Elastic Compliance Matrix: (Units=1/GPa)
#
#
# Indices 1 2 3 4 5 6 
#
# 1 0.056303 0.001644 -0.030846 0.000000 0.008628 0.000000
# 2 0.001644 0.016942 -0.005523 0.000000 -0.006091 0.000000
# 3 -0.030846 -0.005523 0.026214 0.000000 -0.001353 0.000000
# 4 0.000000 0.000000 0.000000 0.053955 0.000000 0.038268
# 5 0.008628 -0.006091 -0.001353 0.000000 0.037044 0.000000
# 6 0.000000 0.000000 0.000000 0.038268 0.000000 0.005831
#
#
# Mechanical properties :
#
#
# Convention : Reuss Voigt Hill
#
# Bulk Modulus (GPa) = 33.32453 53.65125 43.48789
# Shear Modulus (GPa) = 18.13281 4.90183 11.51732
#
# Velocity S-wave (km/s) = 3.18444 1.65569 2.53791
# Velocity P-wave (km/s) = 5.67075 5.80165 5.73657
#
# Compressibility (1/GPa) = 0.03000792
#
# Stress axis : x y z
#
# Youngs Moduli (GPa) = 17.76093 59.02643 38.14750
#
# Poissons Ratio (x) = -0.09705 1.17671
# Poissons Ratio (y) = -0.02920 0.21070
# Poissons Ratio (z) = 0.54786 0.32602
#
# Static dielectric constant tensor:
#      x y z
#    x 1.564210 0.000000 -0.021170 
#    y 0.000000 1.641980 0.000000 
#    z -0.021170 0.000000 1.611240 
# 
# From -- ./inp_files/41656.got.cif
#   From: 2010.05.17/outbox.cif.g08.bks.cpg/sg11_21_cif.got.tgz:41656.got - 2010.06.03 12:22:45.
