data_PCOD9167575
_publ_section_title
;
Structure prediction by ZEFSAII (Michael W. Deem and Ramdas Pophale) SiO2 
 PCOD9167575
Probable space group: P 21/M
;
_chemical_formula_sum "Si O2"
_cell_formula_units_Z 16
_cell_length_a 9.594941
_cell_length_b 5.274057
_cell_length_c 14.051663
_cell_angle_alpha 90.000000
_cell_angle_beta 91.091792
_cell_angle_gamma 90.000000
_cell_volume 710.944995
_symmetry_space_group_name_H-M "P 21/M"
_symmetry_group_IT_number 11
_symmetry_cell_setting 'monoclinic'
loop_
_space_group_symop_operation_xyz
x,y,z
-x,1/2+y,-z
-x,-y,-z
x,1/2-y,z
loop_
_atom_site_type_symbol
_atom_site_label
_atom_site_fract_x
_atom_site_fract_y
_atom_site_fract_z
Si Si1 0.093382 0.250000 0.498644
Si Si2 0.276364 0.250000 0.690246
Si Si3 0.849407 0.750000 0.706031
Si Si4 0.468495 0.750000 0.436421
Si Si5 0.091029 0.750000 0.979836
Si Si6 0.842325 0.250000 0.235904
Si Si7 0.700109 0.250000 0.749756
Si Si8 0.579412 0.250000 0.955023
O O1 0.180821 0.250000 0.595602
O O2 0.190012 0.250000 0.406247
O O3 0.000000 0.500000 0.500000
O O4 0.426821 0.250000 0.649824
O O5 0.245515 0.501599 0.746480
O O6 0.791997 0.504032 0.758808
O O7 0.016529 0.750000 0.701175
O O8 0.500000 0.500000 0.500000
O O9 0.333409 0.750000 0.366331
O O10 0.105587 0.750000 0.868320
O O11 0.252773 0.750000 0.018834
O O12 0.000000 0.500000 0.000000
O O13 0.588975 0.250000 0.837429
O O14 0.500000 0.500000 0.000000
#
# Coordination Sequence:
#
# PCOD9167575 Si02
#       8
#     2   2   2   2   2   2   2   2
#     4  12  21  38  60  96 135 176 220 281 338 413
#     4  12  24  42  65 100 136 176 231 279 348 410
#     4  12  23  43  68 102 139 181 230 280 349 411
#     4  12  27  47  68  97 138 186 233 281 340 414
#     4  12  26  49  77 108 147 187 244 305 368 438
#     4  12  25  41  71 103 136 177 224 291 351 420
#     4  12  26  45  73  99 141 185 232 285 343 424
#     4  12  28  49  78 111 148 194 246 304 373 436
#
# _framework density 22.505258000000001
#
# number of rings (size 3 to 8) (size 9 to 14) (size 15 to 20)
#    0.000    0.000    2.500    8.250    3.500    0.000 
#    0.000    0.000    0.000    0.000    0.000    0.000 
#    0.000    0.000    0.000    0.000    0.000    0.000 
#
# Total GULP energy -89369.971585 kJ/mol
# GULP energy per Si atom -5585.623224 kJ/mol
# Density = 2.245404 g / cm^3
# Si number density = 22.505258 Si / 1000 Ang^3
#
#
#
# Elastic Constant Matrix: (Units=GPa)
#
#
# Indices 1 2 3 4 5 6 
#
# 1 74.2014 51.8802 2.1424 0.0000 -9.3021 0.0000
# 2 51.8802 242.6803 75.0056 0.0000 -36.9020 0.0000
# 3 2.1424 75.0056 143.6325 0.0000 -33.6200 0.0000
# 4 0.0000 0.0000 0.0000 45.7527 0.0000 -19.2977
# 5 -9.3021 -36.9020 -33.6200 0.0000 46.6784 0.0000
# 6 0.0000 0.0000 0.0000 -19.2977 0.0000 31.9943
#
#
#
# Elastic Compliance Matrix: (Units=1/GPa)
#
#
# Indices 1 2 3 4 5 6 
#
# 1 0.016372 -0.003916 0.002213 0.000000 0.001760 0.000000
# 2 -0.003916 0.006095 -0.002621 0.000000 0.002150 0.000000
# 3 0.002213 -0.002621 0.009521 0.000000 0.005227 0.000000
# 4 0.000000 0.000000 0.000000 0.029314 0.000000 0.017681
# 5 0.001760 0.002150 0.005227 0.000000 0.027238 0.000000
# 6 0.000000 0.000000 0.000000 0.017681 0.000000 0.041920
#
#
# Mechanical properties :
#
#
# Convention : Reuss Voigt Hill
#
# Bulk Modulus (GPa) = 42.84629 79.84117 61.34373
# Shear Modulus (GPa) = 34.03929 46.98415 40.51172
#
# Velocity S-wave (km/s) = 3.89331 4.57409 4.24736
# Velocity P-wave (km/s) = 6.26819 7.96556 7.16730
#
# Compressibility (1/GPa) = 0.02333924
#
# Stress axis : x y z
#
# Youngs Moduli (GPa) = 61.08069 164.07115 105.02721
#
# Poissons Ratio (x) = 0.64254 -0.23242
# Poissons Ratio (y) = 0.23921 0.27529
# Poissons Ratio (z) = -0.13517 0.43005
#
# Static dielectric constant tensor:
#      x y z
#    x 1.796990 0.000000 0.078850 
#    y 0.000000 1.604690 0.000000 
#    z 0.078850 0.000000 1.847210 
# 
# From -- ./inp_files/46365.got.cif
#   From: 2010.05.17/outbox.cif.g08.bks.cpg/sg11_24_cif.got.tgz:46365.got - 2010.06.03 12:22:45.
