data_PCOD9167778
_publ_section_title
;
Structure prediction by ZEFSAII (Michael W. Deem and Ramdas Pophale) SiO2 
 PCOD9167778
Probable space group: P 21/M
;
_chemical_formula_sum "Si O2"
_cell_formula_units_Z 28
_cell_length_a 30.000000
_cell_length_b 9.000000
_cell_length_c 30.000000
_cell_angle_alpha 90.000000
_cell_angle_beta 10.000000
_cell_angle_gamma 90.000000
_cell_volume 1406.550239
_symmetry_space_group_name_H-M "P 21/M"
_symmetry_group_IT_number 11
_symmetry_cell_setting 'monoclinic'
loop_
_space_group_symop_operation_xyz
x,y,z
-x,1/2+y,-z
-x,-y,-z
x,1/2-y,z
loop_
_atom_site_type_symbol
_atom_site_label
_atom_site_fract_x
_atom_site_fract_y
_atom_site_fract_z
Si Si1 0.505035 0.570822 0.744550
Si Si2 0.659434 0.425663 0.683200
Si Si3 0.973424 0.430644 0.925010
Si Si4 0.982041 0.570426 0.217998
Si Si5 0.757352 0.415186 0.757500
Si Si6 0.507119 0.070977 0.444854
Si Si7 0.821054 0.082308 0.800157
O O1 0.515616 0.750000 0.742080
O O2 0.621306 0.481111 0.670617
O O3 0.694302 0.537755 0.516903
O O4 0.211260 0.525877 0.025219
O O5 0.691305 0.250000 0.655154
O O6 0.905322 0.510746 0.459871
O O7 0.404679 0.481282 0.958778
O O8 0.955672 0.250000 0.940881
O O9 0.954186 0.486793 0.893742
O O10 0.248751 0.468058 0.673439
O O11 0.749689 0.482371 0.177677
O O12 0.997286 0.750000 0.201489
O O13 0.747776 0.250000 0.747665
O O14 0.784653 0.406507 0.783444
O O15 0.000000 0.500000 0.500000
O O16 0.500000 0.500000 0.000000
O O17 0.519365 0.250000 0.436676
O O18 0.500000 0.000000 0.500000
O O19 0.806260 0.250000 0.834079
#
# Coordination Sequence:
#
# PCOD9167778 Si02
#       7
#     4   4   4   4   4   4   4
#     4  10  19  33  55  80 107 141 179 225 276 333
#     4  12  25  40  61  90 122 157 196 243 295 348
#     4   9  17  30  49  74 100 129 170 221 265 306
#     4   9  17  30  52  79 102 131 178 225 268 321
#     4  11  24  41  64  92 123 158 197 244 296 349
#     4  10  19  31  49  71  99 132 167 212 264 315
#     4  11  24  43  64  88 120 160 203 244 288 344
#
# _framework density 19.906860999999999
#
# number of rings (size 3 to 8) (size 9 to 14) (size 15 to 20)
#    0.000    1.714    0.000    5.143    0.000   10.286 
#    0.000    0.000    0.000    5.143    0.000    0.000 
#    0.000    0.000    0.000    0.000    0.000    0.000 
#
# Total GULP energy -156345.641485 kJ/mol
# GULP energy per Si atom -5583.772910 kJ/mol
# Density = 1.986155 g / cm^3
# Si number density = 19.906861 Si / 1000 Ang^3
#
#
#
# Elastic Constant Matrix: (Units=GPa)
#
#
# Indices 1 2 3 4 5 6 
#
# 1 62.3395 18.3668 13.6840 0.0000 0.2562 0.0000
# 2 18.3668 59.5710 18.4549 0.0000 -9.0427 0.0000
# 3 13.6840 18.4549 104.8749 0.0000 0.0957 0.0000
# 4 0.0000 0.0000 0.0000 17.1106 0.0000 6.2537
# 5 0.2562 -9.0427 0.0957 0.0000 32.8169 0.0000
# 6 0.0000 0.0000 0.0000 6.2537 0.0000 14.2180
#
#
#
# Elastic Compliance Matrix: (Units=1/GPa)
#
#
# Indices 1 2 3 4 5 6 
#
# 1 0.017927 -0.005338 -0.001398 0.000000 -0.001607 0.000000
# 2 -0.005338 0.020169 -0.002858 0.000000 0.005608 0.000000
# 3 -0.001398 -0.002858 0.010221 0.000000 -0.000806 0.000000
# 4 0.000000 0.000000 0.000000 0.069638 0.000000 -0.030630
# 5 -0.001607 0.005608 -0.000806 0.000000 0.032032 0.000000
# 6 0.000000 0.000000 0.000000 -0.030630 0.000000 0.083806
#
#
# Mechanical properties :
#
#
# Convention : Reuss Voigt Hill
#
# Bulk Modulus (GPa) = 34.32959 36.42188 35.37573
# Shear Modulus (GPa) = 19.03368 24.58107 21.80738
#
# Velocity S-wave (km/s) = 3.09550 3.51779 3.31338
# Velocity P-wave (km/s) = 5.48258 5.90217 5.69624
#
# Compressibility (1/GPa) = 0.02912939
#
# Stress axis : x y z
#
# Youngs Moduli (GPa) = 55.78031 49.58089 97.83542
#
# Poissons Ratio (x) = 0.26467 0.13681
# Poissons Ratio (y) = 0.29776 0.27959
# Poissons Ratio (z) = 0.07800 0.14169
#
# Static dielectric constant tensor:
#      x y z
#    x 1.709630 0.000000 0.014860 
#    y 0.000000 1.685460 0.000000 
#    z 0.014860 0.000000 1.672620 
# 
# From -- ./inp_files/9591.got.cif
#   From: 2010.05.17/outbox.ucp.g08.bks.cvg/sg11_5_cif.got.tgz:9591.got - 2010.06.11 11:38:39.
