data_PCOD9167550
_publ_section_title
;
Structure prediction by ZEFSAII (Michael W. Deem and Ramdas Pophale) SiO2 
 PCOD9167550
Probable space group: P 21/M
;
_chemical_formula_sum "Si O2"
_cell_formula_units_Z 20
_cell_length_a 4.764987
_cell_length_b 13.554110
_cell_length_c 11.000543
_cell_angle_alpha 90.000000
_cell_angle_beta 103.384607
_cell_angle_gamma 90.000000
_cell_volume 691.174046
_symmetry_space_group_name_H-M "P 21/M"
_symmetry_group_IT_number 11
_symmetry_cell_setting 'monoclinic'
loop_
_space_group_symop_operation_xyz
x,y,z
-x,1/2+y,-z
-x,-y,-z
x,1/2-y,z
loop_
_atom_site_type_symbol
_atom_site_label
_atom_site_fract_x
_atom_site_fract_y
_atom_site_fract_z
Si Si1 0.221588 0.250000 0.256194
Si Si2 0.675800 0.948618 0.235561
Si Si3 0.184104 0.750000 0.567326
Si Si4 0.518714 0.250000 0.884442
Si Si5 0.741851 0.060644 0.593091
Si Si6 0.113542 0.589106 0.929845
Si Si7 0.016926 0.250000 0.878604
O O1 0.109067 0.250000 0.384980
O O2 0.088365 0.152731 0.178919
O O3 0.564498 0.250000 0.305174
O O4 0.757351 0.839413 0.183579
O O5 0.392887 0.939910 0.285287
O O6 0.937893 0.978164 0.348974
O O7 0.658174 0.032486 0.132093
O O8 0.213000 0.657172 0.482428
O O9 0.714735 0.250000 0.774861
O O10 0.314167 0.250000 0.990732
O O11 0.500000 0.000000 0.500000
O O12 0.213296 0.666497 0.044196
O O13 0.000000 0.500000 0.000000
#
# Coordination Sequence:
#
# PCOD9167550 Si02
#       7
#     2   4   2   2   4   4   2
#     4  11  26  47  72 107 137 195 233 291 357 429
#     4  12  25  43  70 105 137 184 232 289 355 413
#     4  12  24  50  72  99 147 180 238 296 360 415
#     4  12  24  44  66  97 140 175 246 278 342 415
#     4  12  25  44  71 103 136 181 234 293 353 420
#     4  11  25  47  72 104 149 187 238 292 350 427
#     4  11  26  45  66 101 134 194 227 285 347 407
#
# _framework density 28.936273
#
# number of rings (size 3 to 8) (size 9 to 14) (size 15 to 20)
#    0.000    0.400    2.000    6.600    0.000    5.600 
#    0.000    0.000    0.000    0.000    0.000    0.000 
#    0.000    0.000    0.000    0.000    0.000    0.000 
#
# Total GULP energy -111791.917071 kJ/mol
# GULP energy per Si atom -5589.595854 kJ/mol
# Density = 2.887041 g / cm^3
# Si number density = 28.936273 Si / 1000 Ang^3
#
#
#
# Elastic Constant Matrix: (Units=GPa)
#
#
# Indices 1 2 3 4 5 6 
#
# 1 248.7138 14.1638 14.2478 0.0000 -19.4947 0.0000
# 2 14.1638 183.0155 49.5351 0.0000 -20.9775 0.0000
# 3 14.2478 49.5351 121.6408 0.0000 -1.9287 0.0000
# 4 0.0000 0.0000 0.0000 68.7085 0.0000 -0.9335
# 5 -19.4947 -20.9775 -1.9287 0.0000 66.6375 0.0000
# 6 0.0000 0.0000 0.0000 -0.9335 0.0000 38.6397
#
#
#
# Elastic Compliance Matrix: (Units=1/GPa)
#
#
# Indices 1 2 3 4 5 6 
#
# 1 0.004142 -0.000067 -0.000439 0.000000 0.001178 0.000000
# 2 -0.000067 0.006382 -0.002561 0.000000 0.001915 0.000000
# 3 -0.000439 -0.002561 0.009305 0.000000 -0.000665 0.000000
# 4 0.000000 0.000000 0.000000 0.014559 0.000000 0.000352
# 5 0.001178 0.001915 -0.000665 0.000000 0.015935 0.000000
# 6 0.000000 0.000000 0.000000 0.000352 0.000000 0.025889
#
#
# Mechanical properties :
#
#
# Convention : Reuss Voigt Hill
#
# Bulk Modulus (GPa) = 73.01853 78.80708 75.91280
# Shear Modulus (GPa) = 57.53133 66.49203 62.01168
#
# Velocity S-wave (km/s) = 4.46377 4.79882 4.63432
# Velocity P-wave (km/s) = 7.20111 7.61569 7.41130
#
# Compressibility (1/GPa) = 0.01369515
#
# Stress axis : x y z
#
# Youngs Moduli (GPa) = 241.43014 156.69600 107.47380
#
# Poissons Ratio (x) = 0.01044 0.04722
# Poissons Ratio (y) = 0.01608 0.27520
# Poissons Ratio (z) = 0.10607 0.40124
#
# Static dielectric constant tensor:
#      x y z
#    x 2.657110 0.000000 -0.176910 
#    y 0.000000 2.543490 0.000000 
#    z -0.176910 0.000000 2.246190 
# 
# From -- ./inp_files/29584.got.cif
#   From: 2010.05.17/outbox.cif.g08.bks.cpg/sg11_15_cif.got.tgz:29584.got - 2010.06.03 12:22:45.
