data_PCOD9167804
_publ_section_title
;
Structure prediction by ZEFSAII (Michael W. Deem and Ramdas Pophale) SiO2 
 PCOD9167804
Probable space group: P 21/M
;
_chemical_formula_sum "Si O2"
_cell_formula_units_Z 24
_cell_length_a 21.000000
_cell_length_b 9.000000
_cell_length_c 9.000000
_cell_angle_alpha 90.000000
_cell_angle_beta 50.000000
_cell_angle_gamma 90.000000
_cell_volume 1303.041598
_symmetry_space_group_name_H-M "P 21/M"
_symmetry_group_IT_number 11
_symmetry_cell_setting 'monoclinic'
loop_
_space_group_symop_operation_xyz
x,y,z
-x,1/2+y,-z
-x,-y,-z
x,1/2-y,z
loop_
_atom_site_type_symbol
_atom_site_label
_atom_site_fract_x
_atom_site_fract_y
_atom_site_fract_z
Si Si1 0.086488 0.578099 0.337576
Si Si2 0.766930 0.087891 0.654159
Si Si3 0.477084 0.430433 0.193628
Si Si4 0.782773 0.926094 0.071312
Si Si5 0.639748 0.080684 0.117297
Si Si6 0.708209 0.924593 0.474438
O O1 0.072606 0.750000 0.322193
O O2 0.146611 0.571462 0.390657
O O3 0.142306 0.503897 0.126319
O O4 0.000000 0.500000 0.500000
O O5 0.764639 0.250000 0.581861
O O6 0.693898 0.088417 0.885244
O O7 0.748357 0.957012 0.571306
O O8 0.476965 0.250000 0.178500
O O9 0.385975 0.483737 0.380257
O O10 0.500000 0.500000 0.000000
O O11 0.547817 0.466824 0.208164
O O12 0.795580 0.750000 0.042990
O O13 0.693443 0.969636 0.135136
O O14 0.770654 0.982219 0.256414
O O15 0.638526 0.250000 0.180438
O O16 0.700096 0.750000 0.458279
#
# Coordination Sequence:
#
# PCOD9167804 Si02
#       6
#     4   4   4   4   4   4
#     4  10  21  39  62  86 107 133 172 216 263 322
#     4   9  18  33  54  79 106 137 175 216 263 318
#     4  10  19  32  50  75 107 142 186 231 266 307
#     4  10  21  36  53  78 111 143 177 219 267 318
#     4   9  18  33  51  74 105 143 186 229 267 310
#     4  10  21  34  51  78 111 144 180 223 267 312
#
# _framework density 18.418444999999998
#
# number of rings (size 3 to 8) (size 9 to 14) (size 15 to 20)
#    0.000    2.333    1.667    2.000    0.000    6.000 
#    0.000    0.833    0.000    0.000    0.000    0.000 
#    0.000    0.000    0.000    0.000    0.000    0.000 
#
# Total GULP energy -133679.816313 kJ/mol
# GULP energy per Si atom -5569.992346 kJ/mol
# Density = 1.837652 g / cm^3
# Si number density = 18.418445 Si / 1000 Ang^3
#
#
#
# Elastic Constant Matrix: (Units=GPa)
#
#
# Indices 1 2 3 4 5 6 
#
# 1 30.2636 18.8344 28.3388 0.0000 -20.7290 0.0000
# 2 18.8344 36.1336 22.3152 0.0000 -14.7584 0.0000
# 3 28.3388 22.3152 45.6731 0.0000 -21.8096 0.0000
# 4 0.0000 0.0000 0.0000 11.2496 0.0000 -1.3224
# 5 -20.7290 -14.7584 -21.8096 0.0000 22.9765 0.0000
# 6 0.0000 0.0000 0.0000 -1.3224 0.0000 25.7222
#
#
#
# Elastic Compliance Matrix: (Units=1/GPa)
#
#
# Indices 1 2 3 4 5 6 
#
# 1 0.120979 -0.013359 -0.037524 0.000000 0.064946 0.000000
# 2 -0.013359 0.043332 -0.009779 0.000000 0.006498 0.000000
# 3 -0.037524 -0.009779 0.056316 0.000000 0.013321 0.000000
# 4 0.000000 0.000000 0.000000 0.089433 0.000000 0.004598
# 5 0.064946 0.006498 0.013321 0.000000 0.118935 0.000000
# 6 0.000000 0.000000 0.000000 0.004598 0.000000 0.039113
#
#
# Mechanical properties :
#
#
# Convention : Reuss Voigt Hill
#
# Bulk Modulus (GPa) = 10.07026 27.89412 18.98219
# Shear Modulus (GPa) = 8.03168 14.82845 11.43007
#
# Velocity S-wave (km/s) = 2.09049 2.84048 2.49384
# Velocity P-wave (km/s) = 3.36247 5.09268 4.31518
#
# Compressibility (1/GPa) = 0.09930232
#
# Stress axis : x y z
#
# Youngs Moduli (GPa) = 8.26587 23.07759 17.75684
#
# Poissons Ratio (x) = 0.30830 0.66631
# Poissons Ratio (y) = 0.11043 0.17365
# Poissons Ratio (z) = 0.31017 0.22569
#
# Static dielectric constant tensor:
#      x y z
#    x 1.632740 0.000000 0.023220 
#    y 0.000000 1.637280 0.000000 
#    z 0.023220 0.000000 1.635110 
# 
# From -- ./inp_files/23714.got.cif
#   From: 2010.05.17/outbox.ucp.g08.bks.cvg/sg11_12_cif.got.tgz:23714.got - 2010.06.11 11:38:39.
