data_PCOD9167421
_publ_section_title
;
Structure prediction by ZEFSAII (Michael W. Deem and Ramdas Pophale) SiO2 
 PCOD9167421
Probable space group: P 21/M
;
_chemical_formula_sum "Si O2"
_cell_formula_units_Z 32
_cell_length_a 13.349679
_cell_length_b 19.424214
_cell_length_c 10.927772
_cell_angle_alpha 90.000000
_cell_angle_beta 144.974723
_cell_angle_gamma 90.000000
_cell_volume 1626.337602
_symmetry_space_group_name_H-M "P 21/M"
_symmetry_group_IT_number 11
_symmetry_cell_setting 'monoclinic'
loop_
_space_group_symop_operation_xyz
x,y,z
-x,1/2+y,-z
-x,-y,-z
x,1/2-y,z
loop_
_atom_site_type_symbol
_atom_site_label
_atom_site_fract_x
_atom_site_fract_y
_atom_site_fract_z
Si Si1 0.036710 0.168210 0.627597
Si Si2 0.870628 0.330022 0.896240
Si Si3 0.778237 0.581102 0.791278
Si Si4 0.626762 0.523751 0.390992
Si Si5 0.659006 0.671822 0.886088
Si Si6 0.715568 0.363851 0.481134
Si Si7 0.056458 0.055724 0.454810
Si Si8 0.230688 0.549031 0.043698
O O1 0.045357 0.250000 0.621390
O O2 0.866794 0.148130 0.534894
O O3 0.037872 0.128968 0.501365
O O4 0.200984 0.145529 0.875747
O O5 0.897364 0.250000 0.957177
O O6 0.775563 0.332556 0.670072
O O7 0.765442 0.376136 0.888488
O O8 0.049940 0.373057 0.058456
O O9 0.685813 0.564499 0.571517
O O10 0.662751 0.625654 0.769042
O O11 0.809407 0.509071 0.893527
O O12 0.678725 0.444397 0.462215
O O13 0.746905 0.546955 0.398020
O O14 0.418574 0.531954 0.172271
O O15 0.709272 0.750000 0.904861
O O16 0.464754 0.669216 0.742768
O O17 0.000000 0.000000 0.500000
O O18 0.924594 0.047726 0.209575
#
# Coordination Sequence:
#
# PCOD9167421 Si02
#       8
#     4   4   4   4   4   4   4   4
#     4  11  25  45  65  91 129 174 220 268 322 378
#     4  12  24  40  68 102 135 173 212 262 330 396
#     4  12  21  42  68  98 135 169 207 263 327 392
#     4  12  25  42  69 102 128 171 216 264 330 392
#     4  11  23  39  66 101 132 168 214 267 326 386
#     4  12  22  41  68  99 134 163 214 273 326 385
#     4  12  26  44  66  94 127 171 222 273 315 376
#     4  12  25  44  69  99 133 170 217 268 325 391
#
# _framework density 19.676110999999999
#
# number of rings (size 3 to 8) (size 9 to 14) (size 15 to 20)
#    0.000    0.250    6.250    4.500    0.000    2.000 
#    0.000    1.250    0.000    0.000    0.000    0.000 
#    0.000    0.000    0.000    0.000    0.000    0.000 
#
# Total GULP energy -179004.216577 kJ/mol
# GULP energy per Si atom -5593.881768 kJ/mol
# Density = 1.963133 g / cm^3
# Si number density = 19.676111 Si / 1000 Ang^3
#
#
#
# Elastic Constant Matrix: (Units=GPa)
#
#
# Indices 1 2 3 4 5 6 
#
# 1 64.6959 20.1404 33.5606 0.0000 12.7746 0.0000
# 2 20.1404 105.7291 13.5301 0.0000 5.8442 0.0000
# 3 33.5606 13.5301 24.7572 0.0000 27.8800 0.0000
# 4 0.0000 0.0000 0.0000 24.3460 0.0000 -3.5177
# 5 12.7746 5.8442 27.8800 0.0000 28.3100 0.0000
# 6 0.0000 0.0000 0.0000 -3.5177 0.0000 20.8775
#
#
#
# Elastic Compliance Matrix: (Units=1/GPa)
#
#
# Indices 1 2 3 4 5 6 
#
# 1 0.005742 -0.003526 0.034476 0.000000 -0.035816 0.000000
# 2 -0.003526 0.010044 0.001525 0.000000 -0.001984 0.000000
# 3 0.034476 0.001525 -0.098113 0.000000 0.080751 0.000000
# 4 0.000000 0.000000 0.000000 0.042099 0.000000 0.007093
# 5 -0.035816 -0.001984 0.080751 0.000000 -0.027630 0.000000
# 6 0.000000 0.000000 0.000000 0.007093 0.000000 0.049094
#
#
# Mechanical properties :
#
#
# Convention : Reuss Voigt Hill
#
# Bulk Modulus (GPa) = -57.54805 36.62715 -10.46045
# Shear Modulus (GPa) = -55.86341 23.23677 -16.31332
#
# Velocity S-wave (km/s) = -5.33415 3.44024 -2.88252
# Velocity P-wave (km/s) = 8.20053 5.86820 4.05049
#
# Compressibility (1/GPa) = -0.01737678
#
# Stress axis : x y z
#
# Youngs Moduli (GPa) = 174.14271 99.55829 -10.19237
#
# Poissons Ratio (x) = 0.35105 0.35139
# Poissons Ratio (y) = 0.61403 0.01554
# Poissons Ratio (z) = -6.00374 -0.15178
#
# Static dielectric constant tensor:
#      x y z
#    x 1.705340 0.000000 0.031860 
#    y 0.000000 1.709880 0.000000 
#    z 0.031860 0.000000 1.682330 
# 
# From -- ./inp_files/39948.got.cif
#   From: 2010.05.17/outbox.cif.g08.bks.cpg/sg11_20_cif.got.tgz:39948.got - 2010.06.03 12:22:45.
