data_PCOD9167606
_publ_section_title
;
Structure prediction by ZEFSAII (Michael W. Deem and Ramdas Pophale) SiO2 
 PCOD9167606
Probable space group: P 21/M
;
_chemical_formula_sum "Si O2"
_cell_formula_units_Z 16
_cell_length_a 8.791450
_cell_length_b 14.726391
_cell_length_c 5.013785
_cell_angle_alpha 90.000000
_cell_angle_beta 71.751283
_cell_angle_gamma 90.000000
_cell_volume 616.469777
_symmetry_space_group_name_H-M "P 21/M"
_symmetry_group_IT_number 11
_symmetry_cell_setting 'monoclinic'
loop_
_space_group_symop_operation_xyz
x,y,z
-x,1/2+y,-z
-x,-y,-z
x,1/2-y,z
loop_
_atom_site_type_symbol
_atom_site_label
_atom_site_fract_x
_atom_site_fract_y
_atom_site_fract_z
Si Si1 0.906750 0.642013 0.107978
Si Si2 0.669213 0.554425 0.887937
Si Si3 0.120627 0.597762 0.491355
Si Si4 0.628122 0.250000 0.530645
Si Si5 0.430816 0.250000 0.140839
O O1 0.881825 0.750000 0.067574
O O2 0.997114 0.633361 0.337364
O O3 0.748041 0.582992 0.129049
O O4 0.031748 0.602178 0.821842
O O5 0.797229 0.492882 0.663361
O O6 0.650158 0.653272 0.759836
O O7 0.500000 0.500000 0.000000
O O8 0.268983 0.664293 0.445884
O O9 0.586285 0.250000 0.243971
O O10 0.476064 0.250000 0.805672
#
# Coordination Sequence:
#
# PCOD9167606 Si02
#       5
#     4   4   4   2   2
#     4  12  25  50  76 112 150 195 248 309 367 439
#     4  12  28  50  77 112 153 197 250 305 374 446
#     4  12  26  48  80 109 148 198 252 305 369 440
#     4  12  24  46  78 110 148 197 249 304 374 434
#     4  12  28  48  72 112 154 195 245 312 370 440
#
# _framework density 25.954232999999999
#
# number of rings (size 3 to 8) (size 9 to 14) (size 15 to 20)
#    0.000    0.000    6.250    3.000    0.000    5.000 
#    0.000    0.000    0.000    0.000    0.000    0.000 
#    0.000    0.000    0.000    0.000    0.000    0.000 
#
# Total GULP energy -89726.414867 kJ/mol
# GULP energy per Si atom -5607.900929 kJ/mol
# Density = 2.589516 g / cm^3
# Si number density = 25.954233 Si / 1000 Ang^3
#
#
#
# Elastic Constant Matrix: (Units=GPa)
#
#
# Indices 1 2 3 4 5 6 
#
# 1 130.7779 58.6749 20.9096 0.0000 -0.1179 0.0000
# 2 58.6749 186.1385 2.1688 0.0000 -9.0073 0.0000
# 3 20.9096 2.1688 84.4024 0.0000 0.5403 0.0000
# 4 0.0000 0.0000 0.0000 23.3489 0.0000 -2.1418
# 5 -0.1179 -9.0073 0.5403 0.0000 46.6582 0.0000
# 6 0.0000 0.0000 0.0000 -2.1418 0.0000 67.8123
#
#
#
# Elastic Compliance Matrix: (Units=1/GPa)
#
#
# Indices 1 2 3 4 5 6 
#
# 1 0.009320 -0.002937 -0.002230 0.000000 -0.000518 0.000000
# 2 -0.002937 0.006350 0.000557 0.000000 0.001212 0.000000
# 3 -0.002230 0.000557 0.012386 0.000000 -0.000042 0.000000
# 4 0.000000 0.000000 0.000000 0.042953 0.000000 0.001357
# 5 -0.000518 0.001212 -0.000042 0.000000 0.021666 0.000000
# 6 0.000000 0.000000 0.000000 0.001357 0.000000 0.014789
#
#
# Mechanical properties :
#
#
# Convention : Reuss Voigt Hill
#
# Bulk Modulus (GPa) = 53.08978 62.75837 57.92407
# Shear Modulus (GPa) = 40.66191 48.86824 44.76507
#
# Velocity S-wave (km/s) = 3.96242 4.34390 4.15754
# Velocity P-wave (km/s) = 6.43692 7.02796 6.73892
#
# Compressibility (1/GPa) = 0.01883602
#
# Stress axis : x y z
#
# Youngs Moduli (GPa) = 107.29146 157.47207 80.73320
#
# Poissons Ratio (x) = 0.46250 0.18005
# Poissons Ratio (y) = 0.31512 -0.04494
# Poissons Ratio (z) = 0.23928 -0.08766
#
# Static dielectric constant tensor:
#      x y z
#    x 2.027560 0.000000 -0.004790 
#    y 0.000000 2.082680 0.000000 
#    z -0.004790 0.000000 2.001070 
# 
# From -- ./inp_files/1511.got.cif
#   From: 2010.05.17/outbox.cif.g08.bks.cpg/sg11_1_cif.got.tgz:1511.got - 2010.06.03 12:22:45.
