data_PCOD9167309
_publ_section_title
;
Structure prediction by ZEFSAII (Michael W. Deem and Ramdas Pophale) SiO2 
 PCOD9167309
Probable space group: P 21/M
;
_chemical_formula_sum "Si O2"
_cell_formula_units_Z 24
_cell_length_a 7.323948
_cell_length_b 15.113203
_cell_length_c 9.539905
_cell_angle_alpha 90.000000
_cell_angle_beta 107.334756
_cell_angle_gamma 90.000000
_cell_volume 1007.994716
_symmetry_space_group_name_H-M "P 21/M"
_symmetry_group_IT_number 11
_symmetry_cell_setting 'monoclinic'
loop_
_space_group_symop_operation_xyz
x,y,z
-x,1/2+y,-z
-x,-y,-z
x,1/2-y,z
loop_
_atom_site_type_symbol
_atom_site_label
_atom_site_fract_x
_atom_site_fract_y
_atom_site_fract_z
Si Si1 0.519619 0.250000 0.051643
Si Si2 0.982921 0.750000 0.389744
Si Si3 0.490930 0.555187 0.852788
Si Si4 0.427247 0.070927 0.592897
Si Si5 0.933710 0.578137 0.886337
Si Si6 0.507934 0.750000 0.276595
Si Si7 0.982202 0.590659 0.578544
Si Si8 0.053007 0.250000 0.940861
O O1 0.577996 0.156409 0.135787
O O2 0.569814 0.250000 0.899054
O O3 0.286473 0.250000 0.993331
O O4 0.745465 0.750000 0.327041
O O5 0.062963 0.667029 0.496817
O O6 0.027506 0.750000 0.234862
O O7 0.385354 0.488743 0.721195
O O8 0.703230 0.568656 0.835843
O O9 0.500000 0.500000 0.000000
O O10 0.547919 0.156887 0.664902
O O11 0.242779 0.112002 0.477357
O O12 0.500000 0.000000 0.500000
O O13 0.021577 0.579013 0.751290
O O14 0.998477 0.665128 0.981703
O O15 0.000000 0.500000 0.000000
O O16 0.000000 0.500000 0.500000
#
# Coordination Sequence:
#
# PCOD9167309 Si02
#       8
#     2   2   4   4   4   2   4   2
#     4   9  18  34  58  90 114 158 200 239 295 361
#     4   9  19  37  61  87 115 159 200 241 300 368
#     4  11  22  38  65  88 122 159 204 250 300 362
#     4  11  22  40  61  91 121 159 203 248 303 357
#     4  11  23  39  62  90 120 158 204 249 299 357
#     4   9  18  34  60  84 120 157 196 241 298 361
#     4  11  23  39  63  87 123 160 200 248 302 359
#     4   9  19  37  61  87 117 154 204 245 293 368
#
# _framework density 23.809650000000001
#
# number of rings (size 3 to 8) (size 9 to 14) (size 15 to 20)
#    0.000    1.667    3.333    1.500    4.667    0.667 
#    0.000    3.333    0.000    0.000    0.000    0.000 
#    0.000    0.000    0.000    0.000    0.000    0.000 
#
# Total GULP energy -134035.923823 kJ/mol
# GULP energy per Si atom -5584.830159 kJ/mol
# Density = 2.375546 g / cm^3
# Si number density = 23.809650 Si / 1000 Ang^3
#
#
#
# Elastic Constant Matrix: (Units=GPa)
#
#
# Indices 1 2 3 4 5 6 
#
# 1 51.3319 5.1787 21.3258 0.0000 -2.8099 0.0000
# 2 5.1787 230.4742 102.9453 0.0000 -21.3225 0.0000
# 3 21.3258 102.9453 223.9956 0.0000 -35.3522 0.0000
# 4 0.0000 0.0000 0.0000 37.3748 0.0000 -9.6674
# 5 -2.8099 -21.3225 -35.3522 0.0000 34.5180 0.0000
# 6 0.0000 0.0000 0.0000 -9.6674 0.0000 27.3930
#
#
#
# Elastic Compliance Matrix: (Units=1/GPa)
#
#
# Indices 1 2 3 4 5 6 
#
# 1 0.020334 0.000505 -0.002216 0.000000 -0.000302 0.000000
# 2 0.000505 0.005499 -0.002425 0.000000 0.000955 0.000000
# 3 -0.002216 -0.002425 0.006590 0.000000 0.005071 0.000000
# 4 0.000000 0.000000 0.000000 0.029444 0.000000 0.010391
# 5 -0.000302 0.000955 0.005071 0.000000 0.034729 0.000000
# 6 0.000000 0.000000 0.000000 0.010391 0.000000 0.040173
#
#
# Mechanical properties :
#
#
# Convention : Reuss Voigt Hill
#
# Bulk Modulus (GPa) = 41.40424 84.96681 63.18553
# Shear Modulus (GPa) = 32.66048 44.94728 38.80388
#
# Velocity S-wave (km/s) = 3.70771 4.34957 4.04140
# Velocity P-wave (km/s) = 5.97971 7.80950 6.95504
#
# Compressibility (1/GPa) = 0.02415212
#
# Stress axis : x y z
#
# Youngs Moduli (GPa) = 49.17852 181.85657 151.74560
#
# Poissons Ratio (x) = -0.09180 0.33621
# Poissons Ratio (y) = -0.02482 0.36792
# Poissons Ratio (z) = 0.10896 0.44093
#
# Static dielectric constant tensor:
#      x y z
#    x 2.088720 0.000000 0.091210 
#    y 0.000000 1.939560 0.000000 
#    z 0.091210 0.000000 1.943990 
# 
# From -- ./inp_files/12592.got.cif
#   From: 2010.05.17/outbox.cif.g08.bks.cpg/sg11_7_cif.got.tgz:12592.got - 2010.06.03 12:22:45.
