data_PCOD9167988
_publ_section_title
;
Structure prediction by ZEFSAII (Michael W. Deem and Ramdas Pophale) SiO2 
 PCOD9167988
Probable space group: P 21/M
;
_chemical_formula_sum "Si O2"
_cell_formula_units_Z 32
_cell_length_a 21.000000
_cell_length_b 9.000000
_cell_length_c 27.000000
_cell_angle_alpha 90.000000
_cell_angle_beta 160.000000
_cell_angle_gamma 90.000000
_cell_volume 1745.328791
_symmetry_space_group_name_H-M "P 21/M"
_symmetry_group_IT_number 11
_symmetry_cell_setting 'monoclinic'
loop_
_space_group_symop_operation_xyz
x,y,z
-x,1/2+y,-z
-x,-y,-z
x,1/2-y,z
loop_
_atom_site_type_symbol
_atom_site_label
_atom_site_fract_x
_atom_site_fract_y
_atom_site_fract_z
Si Si1 0.529647 0.072382 0.256327
Si Si2 0.082571 0.930382 0.403566
Si Si3 0.170248 0.427149 0.063451
Si Si4 0.428457 0.924931 0.497197
Si Si5 0.764609 0.421266 0.787415
Si Si6 0.680390 0.429412 0.105850
Si Si7 0.337126 0.573279 0.024674
Si Si8 0.919419 0.571105 0.706994
O O1 0.538784 0.250000 0.258467
O O2 0.729974 0.027731 0.427641
O O3 0.344309 0.040125 0.154344
O O4 0.480609 0.004429 0.166753
O O5 0.071256 0.750000 0.395000
O O6 0.105828 0.993917 0.364983
O O7 0.878198 0.998631 0.268249
O O8 0.187959 0.250000 0.090215
O O9 0.182946 0.543251 0.117744
O O10 0.949632 0.441211 0.888462
O O11 0.396990 0.750000 0.470072
O O12 0.500000 0.000000 0.500000
O O13 0.599255 0.963388 0.657943
O O14 0.244853 0.008959 0.380067
O O15 0.702310 0.250000 0.736025
O O16 0.689491 0.250000 0.118995
O O17 0.500000 0.500000 0.000000
O O18 0.650776 0.458868 0.025295
O O19 0.358308 0.750000 0.046438
O O20 0.121164 0.533096 0.877516
O O21 0.912880 0.750000 0.696185
#
# Coordination Sequence:
#
# PCOD9167988 Si02
#       8
#     4   4   4   4   4   4   4   4
#     4  10  21  35  55  84 117 151 193 237 281 338
#     4  10  20  36  60  91 122 156 193 233 280 338
#     4   9  19  35  54  77 107 144 186 235 285 342
#     4  12  25  38  53  74 105 144 189 244 300 353
#     4  10  20  35  53  76 104 140 188 238 293 351
#     4  10  21  40  65  92 121 155 195 238 281 341
#     4   9  21  38  58  87 120 149 186 235 288 344
#     4  10  21  39  59  83 112 148 196 247 294 352
#
# _framework density 18.334654
#
# number of rings (size 3 to 8) (size 9 to 14) (size 15 to 20)
#    0.000    2.000    0.000    4.125    1.750    6.000 
#    0.000    0.625    0.000    0.000    0.000    0.000 
#    0.000    0.000    0.000    0.000    0.000    0.000 
#
# Total GULP energy -178347.336279 kJ/mol
# GULP energy per Si atom -5573.354259 kJ/mol
# Density = 1.829292 g / cm^3
# Si number density = 18.334654 Si / 1000 Ang^3
#
#
#
# Elastic Constant Matrix: (Units=GPa)
#
#
# Indices 1 2 3 4 5 6 
#
# 1 71.3137 29.5751 60.6045 0.0000 20.8250 0.0000
# 2 29.5751 72.2499 45.4866 0.0000 5.7250 0.0000
# 3 60.6045 45.4866 134.5379 0.0000 7.3775 0.0000
# 4 0.0000 0.0000 0.0000 36.3094 0.0000 -1.5001
# 5 20.8250 5.7250 7.3775 0.0000 36.6755 0.0000
# 6 0.0000 0.0000 0.0000 -1.5001 0.0000 28.3592
#
#
#
# Elastic Compliance Matrix: (Units=1/GPa)
#
#
# Indices 1 2 3 4 5 6 
#
# 1 0.028929 -0.003848 -0.010984 0.000000 -0.013616 0.000000
# 2 -0.003848 0.018185 -0.004428 0.000000 0.000237 0.000000
# 3 -0.010984 -0.004428 0.013648 0.000000 0.004183 0.000000
# 4 0.000000 0.000000 0.000000 0.027601 0.000000 0.001460
# 5 -0.013616 0.000237 0.004183 0.000000 0.034119 0.000000
# 6 0.000000 0.000000 0.000000 0.001460 0.000000 0.035339
#
#
# Mechanical properties :
#
#
# Convention : Reuss Voigt Hill
#
# Bulk Modulus (GPa) = 44.95791 61.04820 53.00306
# Shear Modulus (GPa) = 24.53919 29.76449 27.15184
#
# Velocity S-wave (km/s) = 3.66239 4.03352 3.85242
# Velocity P-wave (km/s) = 6.51599 7.42033 6.98281
#
# Compressibility (1/GPa) = 0.02224303
#
# Stress axis : x y z
#
# Youngs Moduli (GPa) = 34.56743 54.99082 73.26886
#
# Poissons Ratio (x) = 0.21160 0.80477
# Poissons Ratio (y) = 0.13301 0.32443
# Poissons Ratio (z) = 0.37968 0.24349
#
# Static dielectric constant tensor:
#      x y z
#    x 1.564540 0.000000 0.100220 
#    y 0.000000 1.609860 0.000000 
#    z 0.100220 0.000000 1.493690 
# 
# From -- ./inp_files/72216.got.cif
#   From: 2010.05.17/outbox.ucp.g08.bks.cvg/sg11_37_cif.got.tgz:72216.got - 2010.06.11 11:38:39.
