data_PCOD9167070
_publ_section_title
;
Structure prediction by ZEFSAII (Michael W. Deem and Ramdas Pophale) SiO2 
 PCOD9167070
Probable space group: P 21/M
;
_chemical_formula_sum "Si O2"
_cell_formula_units_Z 32
_cell_length_a 17.437198
_cell_length_b 21.841949
_cell_length_c 16.351946
_cell_angle_alpha 90.000000
_cell_angle_beta 16.983999
_cell_angle_gamma 90.000000
_cell_volume 1819.181232
_symmetry_space_group_name_H-M "P 21/M"
_symmetry_group_IT_number 11
_symmetry_cell_setting 'monoclinic'
loop_
_space_group_symop_operation_xyz
x,y,z
-x,1/2+y,-z
-x,-y,-z
x,1/2-y,z
loop_
_atom_site_type_symbol
_atom_site_label
_atom_site_fract_x
_atom_site_fract_y
_atom_site_fract_z
Si Si1 0.397244 0.989562 0.235975
Si Si2 0.660172 0.121689 0.153542
Si Si3 0.743236 0.081103 0.246886
Si Si4 0.419845 0.600925 0.063833
Si Si5 0.828598 0.680927 0.427898
Si Si6 0.139490 0.490588 0.116957
Si Si7 0.777158 0.557974 0.142111
Si Si8 0.094069 0.322019 0.457652
O O1 0.344171 0.940593 0.218624
O O2 0.139964 0.997100 0.553995
O O3 0.642513 0.968911 0.040915
O O4 0.482769 0.052768 0.104536
O O5 0.670170 0.119321 0.241367
O O6 0.373948 0.136088 0.410265
O O7 0.875479 0.169444 0.902746
O O8 0.759021 0.056598 0.017950
O O9 0.513004 0.083318 0.548189
O O10 0.764888 0.011340 0.190761
O O11 0.017228 0.094130 0.011360
O O12 0.173100 0.640718 0.285574
O O13 0.664158 0.645246 0.834287
O O14 0.745351 0.750000 0.493702
O O15 0.830158 0.673441 0.523835
O O16 0.133053 0.448482 0.042840
O O17 0.064248 0.250000 0.468434
#
# Coordination Sequence:
#
# PCOD9167070 Si02
#       8
#     4   4   4   4   4   4   4   4
#     4  11  22  34  52  76 107 142 169 208 259 314
#     4  11  20  32  51  71 101 138 170 201 244 306
#     4   9  17  29  45  68  96 130 159 189 235 278
#     4  11  22  37  53  75 107 137 173 212 256 314
#     4  11  22  34  49  72 100 131 171 215 248 284
#     4  11  20  32  51  75 102 137 172 201 248 305
#     4   9  17  29  45  68 100 126 157 198 228 279
#     4  11  22  37  56  75 101 137 176 217 256 298
#
# _framework density 17.590332
#
# number of rings (size 3 to 8) (size 9 to 14) (size 15 to 20)
#    0.000    1.500    0.000    7.500    0.000    8.000 
#    0.000    0.000    0.000    0.000    0.000    0.000 
#    0.000   70.000    0.000    0.000    0.000    0.000 
#
# Total GULP energy -178701.151268 kJ/mol
# GULP energy per Si atom -5584.410977 kJ/mol
# Density = 1.755030 g / cm^3
# Si number density = 17.590332 Si / 1000 Ang^3
#
#
#
# Elastic Constant Matrix: (Units=GPa)
#
#
# Indices 1 2 3 4 5 6 
#
# 1 69.6594 16.0142 11.8453 0.0000 0.6638 0.0000
# 2 16.0142 47.3145 -9.4510 0.0000 -3.0175 0.0000
# 3 11.8453 -9.4510 47.4036 0.0000 -10.3450 0.0000
# 4 0.0000 0.0000 0.0000 16.7406 0.0000 -7.5704
# 5 0.6638 -3.0175 -10.3450 0.0000 31.8140 0.0000
# 6 0.0000 0.0000 0.0000 -7.5704 0.0000 14.6678
#
#
#
# Elastic Compliance Matrix: (Units=1/GPa)
#
#
# Indices 1 2 3 4 5 6 
#
# 1 0.017154 -0.007289 -0.006425 0.000000 -0.003138 0.000000
# 2 -0.007289 0.025541 0.008047 0.000000 0.005191 0.000000
# 3 -0.006425 0.008047 0.026372 0.000000 0.009473 0.000000
# 4 0.000000 0.000000 0.000000 0.077921 0.000000 0.040217
# 5 -0.003138 0.005191 0.009473 0.000000 0.035071 0.000000
# 6 0.000000 0.000000 0.000000 0.040217 0.000000 0.088933
#
#
# Mechanical properties :
#
#
# Convention : Reuss Voigt Hill
#
# Bulk Modulus (GPa) = 17.32147 22.35495 19.83821
# Shear Modulus (GPa) = 16.57984 22.37577 19.47781
#
# Velocity S-wave (km/s) = 3.07344 3.57045 3.33122
# Velocity P-wave (km/s) = 4.73954 5.45286 5.10867
#
# Compressibility (1/GPa) = 0.05773181
#
# Stress axis : x y z
#
# Youngs Moduli (GPa) = 58.29630 39.15315 37.91846
#
# Poissons Ratio (x) = 0.28540 0.24361
# Poissons Ratio (y) = 0.42494 -0.30511
# Poissons Ratio (z) = 0.37453 -0.31505
#
# Static dielectric constant tensor:
#      x y z
#    x 1.604030 0.000000 0.002680 
#    y 0.000000 1.606600 0.000000 
#    z 0.002680 0.000000 1.598310 
# 
# From -- ./inp_files/52700.got.cif
#   From: 2010.05.17/outbox.cif.g08.bks.cpg/sg11_27_cif.got.tgz:52700.got - 2010.06.03 12:22:45.
