data_PCOD9167066
_publ_section_title
;
Structure prediction by ZEFSAII (Michael W. Deem and Ramdas Pophale) SiO2 
 PCOD9167066
Probable space group: P 21/M
;
_chemical_formula_sum "Si O2"
_cell_formula_units_Z 24
_cell_length_a 14.255295
_cell_length_b 8.727814
_cell_length_c 15.672014
_cell_angle_alpha 90.000000
_cell_angle_beta 138.149494
_cell_angle_gamma 90.000000
_cell_volume 1300.935020
_symmetry_space_group_name_H-M "P 21/M"
_symmetry_group_IT_number 11
_symmetry_cell_setting 'monoclinic'
loop_
_space_group_symop_operation_xyz
x,y,z
-x,1/2+y,-z
-x,-y,-z
x,1/2-y,z
loop_
_atom_site_type_symbol
_atom_site_label
_atom_site_fract_x
_atom_site_fract_y
_atom_site_fract_z
Si Si1 0.454198 0.568604 0.226473
Si Si2 0.423091 0.932977 0.864363
Si Si3 0.816094 0.569577 0.019405
Si Si4 0.161689 0.568510 0.788741
Si Si5 0.082621 0.934298 0.290752
Si Si6 0.594901 0.433587 0.489334
O O1 0.465158 0.750000 0.240326
O O2 0.523897 0.510885 0.185737
O O3 0.289598 0.520505 0.112284
O O4 0.532381 0.489646 0.357744
O O5 0.446520 0.750000 0.875344
O O6 0.256710 0.959231 0.770756
O O7 0.500000 0.000000 0.000000
O O8 0.800484 0.750000 0.994308
O O9 0.771975 0.524892 0.086594
O O10 0.982177 0.529952 0.140619
O O11 0.168281 0.750000 0.811985
O O12 0.000959 0.512065 0.686976
O O13 0.076892 0.750000 0.297557
O O14 0.242426 0.983322 0.391114
O O15 0.500000 0.500000 0.500000
O O16 0.592509 0.250000 0.491293
#
# Coordination Sequence:
#
# PCOD9167066 Si02
#       6
#     4   4   4   4   4   4
#     4  12  24  37  57  90 122 157 202 247 289 348
#     4  11  20  31  52  85 123 162 195 239 290 346
#     4   9  17  33  57  84 116 154 190 236 290 340
#     4   9  17  29  52  83 116 151 191 230 280 341
#     4   8  18  36  60  84 114 153 192 235 294 354
#     4  11  24  45  66  87 114 151 196 247 302 359
#
# _framework density 18.448270000000001
#
# number of rings (size 3 to 8) (size 9 to 14) (size 15 to 20)
#    1.000    1.000    1.667    3.000    0.000    3.333 
#    0.000    1.667    0.000    0.000    0.000    0.000 
#    0.000    0.000    0.000    0.000    0.000    0.000 
#
# Total GULP energy -133626.498832 kJ/mol
# GULP energy per Si atom -5567.770785 kJ/mol
# Density = 1.840628 g / cm^3
# Si number density = 18.448270 Si / 1000 Ang^3
#
#
#
# Elastic Constant Matrix: (Units=GPa)
#
#
# Indices 1 2 3 4 5 6 
#
# 1 103.1762 31.4996 71.1867 0.0000 22.2589 0.0000
# 2 31.4996 61.7869 35.8785 0.0000 6.1917 0.0000
# 3 71.1867 35.8785 140.1046 0.0000 -5.0963 0.0000
# 4 0.0000 0.0000 0.0000 22.9753 0.0000 -3.7653
# 5 22.2589 6.1917 -5.0963 0.0000 51.7430 0.0000
# 6 0.0000 0.0000 0.0000 -3.7653 0.0000 24.3019
#
#
#
# Elastic Compliance Matrix: (Units=1/GPa)
#
#
# Indices 1 2 3 4 5 6 
#
# 1 0.018790 -0.003523 -0.008956 0.000000 -0.008544 0.000000
# 2 -0.003523 0.020075 -0.003395 0.000000 -0.001221 0.000000
# 3 -0.008956 -0.003395 0.012758 0.000000 0.005515 0.000000
# 4 0.000000 0.000000 0.000000 0.044659 0.000000 0.006919
# 5 -0.008544 -0.001221 0.005515 0.000000 0.023691 0.000000
# 6 0.000000 0.000000 0.000000 0.006919 0.000000 0.042221
#
#
# Mechanical properties :
#
#
# Convention : Reuss Voigt Hill
#
# Bulk Modulus (GPa) = 50.31467 64.68861 57.50164
# Shear Modulus (GPa) = 24.92947 30.90422 27.91685
#
# Velocity S-wave (km/s) = 3.68001 4.09734 3.89427
# Velocity P-wave (km/s) = 6.73716 7.58454 7.17337
#
# Compressibility (1/GPa) = 0.01987492
#
# Stress axis : x y z
#
# Youngs Moduli (GPa) = 53.22030 49.81439 78.38211
#
# Poissons Ratio (x) = 0.17548 0.70197
# Poissons Ratio (y) = 0.18748 0.26613
# Poissons Ratio (z) = 0.47663 0.16914
#
# Static dielectric constant tensor:
#      x y z
#    x 1.666970 0.000000 0.043120 
#    y 0.000000 1.611700 0.000000 
#    z 0.043120 0.000000 1.664510 
# 
# From -- ./inp_files/51833.got.cif
#   From: 2010.05.17/outbox.cif.g08.bks.cpg/sg11_26_cif.got.tgz:51833.got - 2010.06.03 12:22:45.
