data_PCOD9167919
_publ_section_title
;
Structure prediction by ZEFSAII (Michael W. Deem and Ramdas Pophale) SiO2 
 PCOD9167919
Probable space group: P 21/M
;
_chemical_formula_sum "Si O2"
_cell_formula_units_Z 32
_cell_length_a 24.000000
_cell_length_b 15.000000
_cell_length_c 9.000000
_cell_angle_alpha 90.000000
_cell_angle_beta 150.000000
_cell_angle_gamma 90.000000
_cell_volume 1620.000000
_symmetry_space_group_name_H-M "P 21/M"
_symmetry_group_IT_number 11
_symmetry_cell_setting 'monoclinic'
loop_
_space_group_symop_operation_xyz
x,y,z
-x,1/2+y,-z
-x,-y,-z
x,1/2-y,z
loop_
_atom_site_type_symbol
_atom_site_label
_atom_site_fract_x
_atom_site_fract_y
_atom_site_fract_z
Si Si1 0.629437 0.647965 0.155065
Si Si2 0.767912 0.485033 0.609178
Si Si3 0.192709 0.648795 0.567626
Si Si4 0.602773 0.112136 0.758176
Si Si5 0.103229 0.140214 0.672475
Si Si6 0.646860 0.600380 0.848701
Si Si7 0.630276 0.149570 0.477247
Si Si8 0.999624 0.535142 0.281007
O O1 0.659340 0.750000 0.265789
O O2 0.696176 0.570552 0.393183
O O3 0.651290 0.636500 0.028311
O O4 0.496492 0.636466 0.872740
O O5 0.775694 0.410914 0.499792
O O6 0.708968 0.430649 0.606336
O O7 0.892256 0.516568 0.932470
O O8 0.156312 0.750000 0.448889
O O9 0.097287 0.593615 0.433648
O O10 0.305115 0.653219 0.923653
O O11 0.472687 0.129906 0.496597
O O12 0.620810 0.145667 0.632858
O O13 0.630588 0.006343 0.822306
O O14 0.081329 0.250000 0.606934
O O15 0.050768 0.097275 0.701816
O O16 0.238000 0.126915 0.967212
O O17 0.049429 0.064325 0.436363
O O18 0.667703 0.250000 0.519821
#
# Coordination Sequence:
#
# PCOD9167919 Si02
#       8
#     4   4   4   4   4   4   4   4
#     4  10  21  39  64  93 131 172 208 255 320 381
#     4  12  24  43  65  91 129 169 217 260 312 375
#     4  12  25  43  66  95 130 169 214 261 317 379
#     4  10  20  39  68  97 129 165 204 262 323 376
#     4  11  23  42  68  96 126 165 217 267 313 374
#     4  10  19  38  67  98 127 162 211 264 320 373
#     4  10  22  39  63  97 131 168 210 257 317 379
#     4  11  26  45  62  91 131 171 211 266 320 368
#
# _framework density 19.753086
#
# number of rings (size 3 to 8) (size 9 to 14) (size 15 to 20)
#    0.000    1.250    2.500    3.000    1.750    3.500 
#    2.250    0.000    0.000    0.000    0.000    0.000 
#    0.000    0.000    0.000    0.000    0.000    0.000 
#
# Total GULP energy -178597.785858 kJ/mol
# GULP energy per Si atom -5581.180808 kJ/mol
# Density = 1.970813 g / cm^3
# Si number density = 19.753086 Si / 1000 Ang^3
#
#
#
# Elastic Constant Matrix: (Units=GPa)
#
#
# Indices 1 2 3 4 5 6 
#
# 1 41.1545 2.2458 4.0031 0.0000 17.1032 0.0000
# 2 2.2458 157.0583 37.0534 0.0000 -0.0667 0.0000
# 3 4.0031 37.0534 97.3022 0.0000 8.7988 0.0000
# 4 0.0000 0.0000 0.0000 -83.4822 0.0000 149.7788
# 5 17.1032 -0.0667 8.7988 0.0000 26.1692 0.0000
# 6 0.0000 0.0000 0.0000 149.7788 0.0000 -184.5277
#
#
#
# Elastic Compliance Matrix: (Units=1/GPa)
#
#
# Indices 1 2 3 4 5 6 
#
# 1 0.033465 -0.000699 0.000895 0.000000 -0.022174 0.000000
# 2 -0.000699 0.007033 -0.002777 0.000000 0.001408 0.000000
# 3 0.000895 -0.002777 0.011707 0.000000 -0.004528 0.000000
# 4 0.000000 0.000000 0.000000 0.026253 0.000000 0.021309
# 5 -0.022174 0.001408 -0.004528 0.000000 0.054231 0.000000
# 6 0.000000 0.000000 0.000000 0.021309 0.000000 0.011877
#
#
# Mechanical properties :
#
#
# Convention : Reuss Voigt Hill
#
# Bulk Modulus (GPa) = 21.25733 42.45776 31.85754
# Shear Modulus (GPa) = 30.22816 -31.55396 -0.66290
#
# Velocity S-wave (km/s) = 3.91615 -4.00111 -0.57993
# Velocity P-wave (km/s) = 5.58867 0.44242 3.96415
#
# Compressibility (1/GPa) = 0.04704260
#
# Stress axis : x y z
#
# Youngs Moduli (GPa) = 29.88204 142.19208 85.41678
#
# Poissons Ratio (x) = 0.09939 -0.07641
# Poissons Ratio (y) = 0.02089 0.23718
# Poissons Ratio (z) = -0.02673 0.39483
#
# Static dielectric constant tensor:
#      x y z
#    x 1.702790 0.000000 -0.020780 
#    y 0.000000 1.705730 0.000000 
#    z -0.020780 0.000000 1.695480 
# 
# From -- ./inp_files/27801.got.cif
#   From: 2010.05.17/outbox.ucp.g08.bks.cvg/sg11_14_cif.got.tgz:27801.got - 2010.06.11 11:38:39.
