data_PCOD9167284
_publ_section_title
;
Structure prediction by ZEFSAII (Michael W. Deem and Ramdas Pophale) SiO2 
 PCOD9167284
Probable space group: P 21/M
;
_chemical_formula_sum "Si O2"
_cell_formula_units_Z 28
_cell_length_a 10.086362
_cell_length_b 8.807154
_cell_length_c 28.692693
_cell_angle_alpha 90.000000
_cell_angle_beta 142.503298
_cell_angle_gamma 90.000000
_cell_volume 1551.515077
_symmetry_space_group_name_H-M "P 21/M"
_symmetry_group_IT_number 11
_symmetry_cell_setting 'monoclinic'
loop_
_space_group_symop_operation_xyz
x,y,z
-x,1/2+y,-z
-x,-y,-z
x,1/2-y,z
loop_
_atom_site_type_symbol
_atom_site_label
_atom_site_fract_x
_atom_site_fract_y
_atom_site_fract_z
Si Si1 0.858565 0.432806 0.503086
Si Si2 0.052146 0.066742 0.371429
Si Si3 0.780795 0.070001 0.958478
Si Si4 0.652102 0.070456 0.192755
Si Si5 0.644194 0.934447 0.628849
Si Si6 0.026581 0.931097 0.803933
Si Si7 0.724732 0.930529 0.044406
O O1 0.866626 0.250000 0.502833
O O2 0.939495 0.489071 0.576181
O O3 0.603262 0.481447 0.431035
O O4 0.000000 0.500000 0.500000
O O5 0.067263 0.250000 0.380951
O O6 0.246436 0.017597 0.389960
O O7 0.826336 0.033814 0.281543
O O8 0.794072 0.250000 0.964704
O O9 0.569783 0.021686 0.869821
O O10 0.756206 0.999311 0.002574
O O11 0.000000 0.000000 0.000000
O O12 0.603130 0.250000 0.181911
O O13 0.780510 0.045213 0.179963
O O14 0.648881 0.750000 0.628999
O O15 0.807132 0.979565 0.715973
O O16 0.015031 0.750000 0.809879
O O17 0.087089 0.018594 0.867413
O O18 0.709393 0.750000 0.038019
O O19 0.500000 0.000000 0.000000
#
# Coordination Sequence:
#
# PCOD9167284 Si02
#       7
#     4   4   4   4   4   4   4
#     4  11  22  37  56  82 117 155 191 232 282 341
#     4   9  18  36  62  88 111 144 187 235 289 344
#     4  12  25  41  60  84 117 156 197 242 291 347
#     4   9  18  35  60  86 115 148 189 237 290 346
#     4   8  17  35  60  86 112 146 190 235 283 339
#     4   9  17  34  60  87 113 146 191 243 289 338
#     4  12  23  37  59  88 119 154 195 241 291 343
#
# _framework density 18.046876999999999
#
# number of rings (size 3 to 8) (size 9 to 14) (size 15 to 20)
#    0.000    2.000    1.429    5.143    0.000    0.571 
#    2.571    4.286    0.000    0.000    0.000    0.000 
#    0.000    0.000    0.000    0.000    0.000    0.000 
#
# Total GULP energy -156303.344417 kJ/mol
# GULP energy per Si atom -5582.262301 kJ/mol
# Density = 1.800580 g / cm^3
# Si number density = 18.046877 Si / 1000 Ang^3
#
#
#
# Elastic Constant Matrix: (Units=GPa)
#
#
# Indices 1 2 3 4 5 6 
#
# 1 142.4894 57.6932 85.4635 0.0000 6.3439 0.0000
# 2 57.6932 82.3154 61.9546 0.0000 12.5693 0.0000
# 3 85.4635 61.9546 127.6433 0.0000 3.1611 0.0000
# 4 0.0000 0.0000 0.0000 32.3138 0.0000 -3.8945
# 5 6.3439 12.5693 3.1611 0.0000 19.7442 0.0000
# 6 0.0000 0.0000 0.0000 -3.8945 0.0000 27.5498
#
#
#
# Elastic Compliance Matrix: (Units=1/GPa)
#
#
# Indices 1 2 3 4 5 6 
#
# 1 0.012469 -0.003747 -0.006515 0.000000 -0.000578 0.000000
# 2 -0.003747 0.022841 -0.008280 0.000000 -0.012011 0.000000
# 3 -0.006515 -0.008280 0.016097 0.000000 0.004787 0.000000
# 4 0.000000 0.000000 0.000000 0.031483 0.000000 0.004450
# 5 -0.000578 -0.012011 0.004787 0.000000 0.057713 0.000000
# 6 0.000000 0.000000 0.000000 0.004450 0.000000 0.036927
#
#
# Mechanical properties :
#
#
# Convention : Reuss Voigt Hill
#
# Bulk Modulus (GPa) = 69.82482 84.74119 77.28301
# Shear Modulus (GPa) = 22.79066 25.74402 24.26734
#
# Velocity S-wave (km/s) = 3.55753 3.78101 3.67097
# Velocity P-wave (km/s) = 7.45986 8.13139 7.80285
#
# Compressibility (1/GPa) = 0.01432155
#
# Stress axis : x y z
#
# Youngs Moduli (GPa) = 80.19964 43.78187 62.12330
#
# Poissons Ratio (x) = 0.16406 0.40476
# Poissons Ratio (y) = 0.30052 0.51437
# Poissons Ratio (z) = 0.52254 0.36251
#
# Static dielectric constant tensor:
#      x y z
#    x 1.583330 0.000000 0.005770 
#    y 0.000000 1.603220 0.000000 
#    z 0.005770 0.000000 1.630660 
# 
# From -- ./inp_files/70727.got.cif
#   From: 2010.05.17/outbox.cif.g08.bks.cpg/sg11_36_cif.got.tgz:70727.got - 2010.06.03 12:22:45.
