data_PCOD9167000
_publ_section_title
;
Structure prediction by ZEFSAII (Michael W. Deem and Ramdas Pophale) SiO2 
 PCOD9167000
Probable space group: P 21/M
;
_chemical_formula_sum "Si O2"
_cell_formula_units_Z 28
_cell_length_a 12.377600
_cell_length_b 8.827439
_cell_length_c 15.642590
_cell_angle_alpha 90.000000
_cell_angle_beta 128.070404
_cell_angle_gamma 90.000000
_cell_volume 1345.533490
_symmetry_space_group_name_H-M "P 21/M"
_symmetry_group_IT_number 11
_symmetry_cell_setting 'monoclinic'
loop_
_space_group_symop_operation_xyz
x,y,z
-x,1/2+y,-z
-x,-y,-z
x,1/2-y,z
loop_
_atom_site_type_symbol
_atom_site_label
_atom_site_fract_x
_atom_site_fract_y
_atom_site_fract_z
Si Si1 0.788647 0.428545 0.473148
Si Si2 0.779236 0.421578 0.794663
Si Si3 0.652557 0.571510 0.255893
Si Si4 0.775414 0.927512 0.131333
Si Si5 0.933013 0.571321 0.707746
Si Si6 0.648302 0.929234 0.884785
Si Si7 0.472312 0.077592 0.575869
O O1 0.812627 0.250000 0.480022
O O2 0.776646 0.500406 0.372766
O O3 0.883776 0.499696 0.593362
O O4 0.636664 0.470673 0.432075
O O5 0.832683 0.250000 0.830447
O O6 0.854157 0.501359 0.751597
O O7 0.766031 0.506921 0.878619
O O8 0.619216 0.413825 0.691337
O O9 0.646739 0.750000 0.273513
O O10 0.685464 0.550480 0.172233
O O11 0.502401 0.502040 0.200076
O O12 0.818793 0.750000 0.151491
O O13 0.694135 0.956877 0.004555
O O14 0.908529 0.031034 0.202362
O O15 0.909070 0.750000 0.693734
O O16 0.635978 0.750000 0.863654
O O17 0.418127 0.250000 0.541950
O O18 0.500000 0.000000 0.500000
#
# Coordination Sequence:
#
# PCOD9167000 Si02
#       7
#     4   4   4   4   4   4   4
#     4  12  24  39  63  94 130 167 206 259 317 378
#     4  11  23  39  63  94 131 169 207 258 316 376
#     4  11  23  42  68  97 128 165 211 265 318 372
#     4  10  25  47  67  90 127 171 216 263 313 373
#     4  12  26  43  66  94 128 170 214 259 314 382
#     4  11  23  41  68  99 128 164 211 265 319 372
#     4  11  21  34  58  91 126 165 206 255 314 375
#
# _framework density 20.809591000000001
#
# number of rings (size 3 to 8) (size 9 to 14) (size 15 to 20)
#    0.000    0.857    2.857    4.714    0.000    4.571 
#    0.000    0.000    0.000    0.000    0.000    0.000 
#    0.000    0.000    0.000    0.000    0.000    0.000 
#
# Total GULP energy -156463.556952 kJ/mol
# GULP energy per Si atom -5587.984177 kJ/mol
# Density = 2.076223 g / cm^3
# Si number density = 20.809591 Si / 1000 Ang^3
#
#
#
# Elastic Constant Matrix: (Units=GPa)
#
#
# Indices 1 2 3 4 5 6 
#
# 1 48.3065 44.5959 31.6222 0.0000 -7.0133 0.0000
# 2 44.5959 145.4252 74.9167 0.0000 -12.4897 0.0000
# 3 31.6222 74.9167 103.9772 0.0000 -30.6144 0.0000
# 4 0.0000 0.0000 0.0000 30.2271 0.0000 0.8589
# 5 -7.0133 -12.4897 -30.6144 0.0000 36.4855 0.0000
# 6 0.0000 0.0000 0.0000 0.8589 0.0000 30.5108
#
#
#
# Elastic Compliance Matrix: (Units=1/GPa)
#
#
# Indices 1 2 3 4 5 6 
#
# 1 0.029862 -0.007121 -0.003956 0.000000 -0.000017 0.000000
# 2 -0.007121 0.013047 -0.008397 0.000000 -0.003949 0.000000
# 3 -0.003956 -0.008397 0.020985 0.000000 0.013973 0.000000
# 4 0.000000 0.000000 0.000000 0.033109 0.000000 -0.000932
# 5 -0.000017 -0.003949 0.013973 0.000000 0.037778 0.000000
# 6 0.000000 0.000000 0.000000 -0.000932 0.000000 0.032802
#
#
# Mechanical properties :
#
#
# Convention : Reuss Voigt Hill
#
# Bulk Modulus (GPa) = 40.08738 66.66426 53.37582
# Shear Modulus (GPa) = 23.27227 29.21629 26.24428
#
# Velocity S-wave (km/s) = 3.34779 3.75104 3.55514
# Velocity P-wave (km/s) = 5.85229 7.13199 6.52360
#
# Compressibility (1/GPa) = 0.02494551
#
# Stress axis : x y z
#
# Youngs Moduli (GPa) = 33.48684 76.64634 47.65236
#
# Poissons Ratio (x) = 0.54580 0.18852
# Poissons Ratio (y) = 0.23846 0.40016
# Poissons Ratio (z) = 0.13248 0.64363
#
# Static dielectric constant tensor:
#      x y z
#    x 1.720750 0.000000 -0.021220 
#    y 0.000000 1.740220 0.000000 
#    z -0.021220 0.000000 1.765950 
# 
# From -- ./inp_files/49472.got.cif
#   From: 2010.05.17/outbox.cif.g08.bks.cpg/sg11_25_cif.got.tgz:49472.got - 2010.06.03 12:22:45.
