data_PCOD9167291
_publ_section_title
;
Structure prediction by ZEFSAII (Michael W. Deem and Ramdas Pophale) SiO2 
 PCOD9167291
Probable space group: P 21/M
;
_chemical_formula_sum "Si O2"
_cell_formula_units_Z 24
_cell_length_a 22.229809
_cell_length_b 8.565693
_cell_length_c 11.264137
_cell_angle_alpha 90.000000
_cell_angle_beta 32.808897
_cell_angle_gamma 90.000000
_cell_volume 1162.160750
_symmetry_space_group_name_H-M "P 21/M"
_symmetry_group_IT_number 11
_symmetry_cell_setting 'monoclinic'
loop_
_space_group_symop_operation_xyz
x,y,z
-x,1/2+y,-z
-x,-y,-z
x,1/2-y,z
loop_
_atom_site_type_symbol
_atom_site_label
_atom_site_fract_x
_atom_site_fract_y
_atom_site_fract_z
Si Si1 0.375114 0.935099 0.708346
Si Si2 0.835358 0.560092 0.336006
Si Si3 0.172977 0.436578 0.913408
Si Si4 0.621060 0.563152 0.822208
Si Si5 0.253032 0.061136 0.142767
Si Si6 0.961764 0.938311 0.365875
O O1 0.379190 0.750000 0.690528
O O2 0.500000 0.000000 0.500000
O O3 0.296313 0.005320 0.737017
O O4 0.311108 0.983574 0.934706
O O5 0.840295 0.750000 0.327123
O O6 0.863206 0.505598 0.157759
O O7 0.710007 0.512072 0.576100
O O8 0.908192 0.510608 0.327993
O O9 0.172008 0.250000 0.916078
O O10 0.085387 0.495812 0.156509
O O11 0.617182 0.750000 0.824808
O O12 0.673267 0.522607 0.863261
O O13 0.500000 0.500000 0.000000
O O14 0.253317 0.250000 0.126808
O O15 0.126686 0.013597 0.386607
O O16 0.966146 0.750000 0.360523
#
# Coordination Sequence:
#
# PCOD9167291 Si02
#       6
#     4   4   4   4   4   4
#     4  12  27  45  63  84 115 155 201 248 298 354
#     4   8  17  34  56  85 122 157 190 235 292 348
#     4  11  22  37  60  90 123 159 199 241 291 352
#     4   9  18  33  55  84 115 151 194 240 293 347
#     4   9  20  40  62  85 118 155 197 247 296 347
#     4   9  18  37  63  90 122 157 194 242 295 347
#
# _framework density 20.651188000000001
#
# number of rings (size 3 to 8) (size 9 to 14) (size 15 to 20)
#    0.000    2.333    0.000    4.500    2.333    2.000 
#    0.000    4.167    0.000    0.000    0.000    0.000 
#    0.000    0.000    0.000    0.000    0.000    0.000 
#
# Total GULP energy -133991.754721 kJ/mol
# GULP energy per Si atom -5582.989780 kJ/mol
# Density = 2.060418 g / cm^3
# Si number density = 20.651188 Si / 1000 Ang^3
#
#
#
# Elastic Constant Matrix: (Units=GPa)
#
#
# Indices 1 2 3 4 5 6 
#
# 1 43.5438 9.7161 38.7539 0.0000 0.6388 0.0000
# 2 9.7161 32.5935 20.9378 0.0000 1.4922 0.0000
# 3 38.7539 20.9378 132.2327 0.0000 -9.2537 0.0000
# 4 0.0000 0.0000 0.0000 35.2609 0.0000 -4.6962
# 5 0.6388 1.4922 -9.2537 0.0000 39.7706 0.0000
# 6 0.0000 0.0000 0.0000 -4.6962 0.0000 24.8661
#
#
#
# Elastic Compliance Matrix: (Units=1/GPa)
#
#
# Indices 1 2 3 4 5 6 
#
# 1 0.031728 -0.003633 -0.008894 0.000000 -0.002443 0.000000
# 2 -0.003633 0.034834 -0.004614 0.000000 -0.002322 0.000000
# 3 -0.008894 -0.004614 0.011103 0.000000 0.002899 0.000000
# 4 0.000000 0.000000 0.000000 0.029092 0.000000 0.005494
# 5 -0.002443 -0.002322 0.002899 0.000000 0.025945 0.000000
# 6 0.000000 0.000000 0.000000 0.005494 0.000000 0.041253
#
#
# Mechanical properties :
#
#
# Convention : Reuss Voigt Hill
#
# Bulk Modulus (GPa) = 23.05032 38.57617 30.81324
# Shear Modulus (GPa) = 22.45216 29.24367 25.84792
#
# Velocity S-wave (km/s) = 3.30086 3.76716 3.54169
# Velocity P-wave (km/s) = 5.07085 6.13534 5.62832
#
# Compressibility (1/GPa) = 0.04338335
#
# Stress axis : x y z
#
# Youngs Moduli (GPa) = 31.51820 28.70773 90.06973
#
# Poissons Ratio (x) = 0.10428 0.80111
# Poissons Ratio (y) = 0.11449 0.41554
# Poissons Ratio (z) = 0.28033 0.13244
#
# Static dielectric constant tensor:
#      x y z
#    x 1.777510 0.000000 0.004610 
#    y 0.000000 1.694500 0.000000 
#    z 0.004610 0.000000 1.748740 
# 
# From -- ./inp_files/43893.got.cif
#   From: 2010.05.17/outbox.cif.g08.bks.cpg/sg11_22_cif.got.tgz:43893.got - 2010.06.03 12:22:45.
