data_PCOD9167899
_publ_section_title
;
Structure prediction by ZEFSAII (Michael W. Deem and Ramdas Pophale) SiO2 
 PCOD9167899
Probable space group: P 21/M
;
_chemical_formula_sum "Si O2"
_cell_formula_units_Z 32
_cell_length_a 27.000000
_cell_length_b 9.000000
_cell_length_c 21.000000
_cell_angle_alpha 90.000000
_cell_angle_beta 160.000000
_cell_angle_gamma 90.000000
_cell_volume 1745.328791
_symmetry_space_group_name_H-M "P 21/M"
_symmetry_group_IT_number 11
_symmetry_cell_setting 'monoclinic'
loop_
_space_group_symop_operation_xyz
x,y,z
-x,1/2+y,-z
-x,-y,-z
x,1/2-y,z
loop_
_atom_site_type_symbol
_atom_site_label
_atom_site_fract_x
_atom_site_fract_y
_atom_site_fract_z
Si Si1 0.381751 0.069924 0.049947
Si Si2 0.480427 0.425766 0.407817
Si Si3 0.810199 0.418360 0.972189
Si Si4 0.475442 0.073155 0.901397
Si Si5 0.082913 0.578921 0.259673
Si Si6 0.176640 0.920167 0.521132
Si Si7 0.379735 0.930421 0.554095
Si Si8 0.101643 0.577891 0.772329
O O1 0.376530 0.250000 0.040611
O O2 0.229019 0.001522 0.887274
O O3 0.500332 0.027248 0.247852
O O4 0.431093 0.003093 0.041888
O O5 0.500000 0.500000 0.500000
O O6 0.501396 0.250000 0.439090
O O7 0.578542 0.480364 0.466717
O O8 0.318256 0.465880 0.191162
O O9 0.765972 0.250000 0.901999
O O10 0.853413 0.419117 0.098719
O O11 0.944931 0.472383 0.092613
O O12 0.499180 0.250000 0.931283
O O13 0.310031 0.031364 0.686238
O O14 0.500000 0.000000 0.000000
O O15 0.047112 0.750000 0.198388
O O16 0.130318 0.583699 0.391106
O O17 0.220294 0.525460 0.384961
O O18 0.215612 0.750000 0.585954
O O19 0.045603 0.982806 0.405260
O O20 0.381001 0.750000 0.555244
O O21 0.081266 0.750000 0.727863
#
# Coordination Sequence:
#
# PCOD9167899 Si02
#       8
#     4   4   4   4   4   4   4   4
#     4  11  20  37  61  88 116 151 197 242 287 343
#     4  11  22  38  58  82 114 154 192 235 289 346
#     4  10  20  34  53  83 117 149 187 233 283 339
#     4  12  25  41  60  86 120 158 194 238 291 347
#     4   9  17  33  57  84 111 144 186 234 284 338
#     4  10  19  35  59  86 116 153 193 236 288 347
#     4   9  18  34  58  85 112 145 190 237 284 338
#     4  10  20  34  55  88 122 151 189 241 291 339
#
# _framework density 18.334654
#
# number of rings (size 3 to 8) (size 9 to 14) (size 15 to 20)
#    0.000    1.750    2.500    3.000    0.000    1.500 
#    0.000    2.500    0.000    0.000    0.000    0.000 
#    0.000    0.000    0.000    0.000    0.000    0.000 
#
# Total GULP energy -178549.009224 kJ/mol
# GULP energy per Si atom -5579.656538 kJ/mol
# Density = 1.829292 g / cm^3
# Si number density = 18.334654 Si / 1000 Ang^3
#
#
#
# Elastic Constant Matrix: (Units=GPa)
#
#
# Indices 1 2 3 4 5 6 
#
# 1 151.6321 50.0613 35.8960 0.0000 36.0119 0.0000
# 2 50.0613 91.8004 10.7751 0.0000 7.3307 0.0000
# 3 35.8960 10.7751 23.6214 0.0000 29.1792 0.0000
# 4 0.0000 0.0000 0.0000 27.1731 0.0000 2.2417
# 5 36.0119 7.3307 29.1792 0.0000 37.5958 0.0000
# 6 0.0000 0.0000 0.0000 2.2417 0.0000 30.9593
#
#
#
# Elastic Compliance Matrix: (Units=1/GPa)
#
#
# Indices 1 2 3 4 5 6 
#
# 1 0.019114 -0.000473 -0.153364 0.000000 0.100813 0.000000
# 2 -0.000473 0.015677 -0.077941 0.000000 0.057889 0.000000
# 3 -0.153364 -0.077941 2.682944 0.000000 -1.920207 0.000000
# 4 0.000000 0.000000 0.000000 0.037022 0.000000 -0.002681
# 5 0.100813 0.057889 -1.920207 0.000000 1.409072 0.000000
# 6 0.000000 0.000000 0.000000 -0.002681 0.000000 0.032495
#
#
# Mechanical properties :
#
#
# Convention : Reuss Voigt Hill
#
# Bulk Modulus (GPa) = 0.44362 51.16877 25.80620
# Shear Modulus (GPa) = 0.92400 30.50041 15.71220
#
# Velocity S-wave (km/s) = 0.71067 4.08307 2.93058
# Velocity P-wave (km/s) = 0.95702 7.08502 5.05536
#
# Compressibility (1/GPa) = 2.25417962
#
# Stress axis : x y z
#
# Youngs Moduli (GPa) = 52.31670 63.78856 0.37272
#
# Poissons Ratio (x) = 0.03016 0.05716
# Poissons Ratio (y) = 0.02474 0.02905
# Poissons Ratio (z) = 8.02348 4.97177
#
# Static dielectric constant tensor:
#      x y z
#    x 1.621860 0.000000 -0.005520 
#    y 0.000000 1.623970 0.000000 
#    z -0.005520 0.000000 1.655750 
# 
# From -- ./inp_files/67284.got.cif
#   From: 2010.05.17/outbox.ucp.g08.bks.cvg/sg11_34_cif.got.tgz:67284.got - 2010.06.11 11:38:39.
