data_PCOD9167506
_publ_section_title
;
Structure prediction by ZEFSAII (Michael W. Deem and Ramdas Pophale) SiO2 
 PCOD9167506
Probable space group: P 21/M
;
_chemical_formula_sum "Si O2"
_cell_formula_units_Z 28
_cell_length_a 5.196524
_cell_length_b 30.555770
_cell_length_c 8.456711
_cell_angle_alpha 90.000000
_cell_angle_beta 62.312235
_cell_angle_gamma 90.000000
_cell_volume 1189.029766
_symmetry_space_group_name_H-M "P 21/M"
_symmetry_group_IT_number 11
_symmetry_cell_setting 'monoclinic'
loop_
_space_group_symop_operation_xyz
x,y,z
-x,1/2+y,-z
-x,-y,-z
x,1/2-y,z
loop_
_atom_site_type_symbol
_atom_site_label
_atom_site_fract_x
_atom_site_fract_y
_atom_site_fract_z
Si Si1 0.268001 0.750000 0.249041
Si Si2 0.652470 0.325131 0.236746
Si Si3 0.243371 0.488302 0.805123
Si Si4 0.319969 0.174155 0.004047
Si Si5 0.415611 0.914875 0.140041
Si Si6 0.056612 0.050975 0.534304
Si Si7 0.586835 0.418792 0.227746
Si Si8 0.418283 0.250000 0.523229
O O1 0.448279 0.708078 0.134874
O O2 0.336069 0.750000 0.413745
O O3 0.918963 0.750000 0.321189
O O4 0.682754 0.374984 0.286254
O O5 0.492904 0.292463 0.398859
O O6 0.436443 0.328921 0.149455
O O7 0.982539 0.311330 0.095297
O O8 0.469465 0.463222 0.851865
O O9 0.194693 0.457353 0.669750
O O10 0.315284 0.536245 0.719992
O O11 0.000000 0.500000 0.000000
O O12 0.363757 0.125892 0.915677
O O13 0.180187 0.912869 0.345668
O O14 0.320016 0.916254 0.982909
O O15 0.243860 0.073653 0.344424
O O16 0.000000 0.000000 0.500000
#
# Coordination Sequence:
#
# PCOD9167506 Si02
#       8
#     2   4   4   4   4   4   4   2
#     4  12  26  46  76 112 142 182 226 296 356 428
#     4  11  25  48  73 103 140 189 233 290 353 434
#     4  12  22  41  65  91 136 184 233 293 345 414
#     4  11  25  47  75 101 140 189 237 281 362 426
#     4  11  25  43  66  96 136 182 236 293 347 424
#     4  12  25  41  63  97 135 187 236 295 355 414
#     4  11  24  43  66  99 135 183 240 287 358 414
#     4  12  26  46  74 112 146 176 230 296 358 418
#
# _framework density 23.548611000000001
#
# number of rings (size 3 to 8) (size 9 to 14) (size 15 to 20)
#    0.000    0.571    2.857    5.143    4.000    2.286 
#    0.000    0.000    0.000    0.000    0.000    0.000 
#    0.000    0.000    0.000    0.000    0.000    0.000 
#
# Total GULP energy -156168.301392 kJ/mol
# GULP energy per Si atom -5577.439335 kJ/mol
# Density = 2.349501 g / cm^3
# Si number density = 23.548611 Si / 1000 Ang^3
#
#
#
# Elastic Constant Matrix: (Units=GPa)
#
#
# Indices 1 2 3 4 5 6 
#
# 1 50.8375 -5.7779 -2.1275 0.0000 -9.6888 0.0000
# 2 -5.7779 107.0557 12.3200 0.0000 -5.3510 0.0000
# 3 -2.1275 12.3200 71.0065 0.0000 -22.0222 0.0000
# 4 0.0000 0.0000 0.0000 -783.1150 0.0000 -255.0379
# 5 -9.6888 -5.3510 -22.0222 0.0000 44.4081 0.0000
# 6 0.0000 0.0000 0.0000 -255.0379 0.0000 -46.7941
#
#
#
# Elastic Compliance Matrix: (Units=1/GPa)
#
#
# Indices 1 2 3 4 5 6 
#
# 1 0.021009 0.001168 0.002236 0.000000 0.005833 0.000000
# 2 0.001168 0.009602 -0.001410 0.000000 0.000713 0.000000
# 3 0.002236 -0.001410 0.017128 0.000000 0.008812 0.000000
# 4 0.000000 0.000000 0.000000 0.001648 0.000000 -0.008980
# 5 0.005833 0.000713 0.008812 0.000000 0.028247 0.000000
# 6 0.000000 0.000000 0.000000 -0.008980 0.000000 0.027575
#
#
# Mechanical properties :
#
#
# Convention : Reuss Voigt Hill
#
# Bulk Modulus (GPa) = 19.33257 26.41432 22.87344
# Shear Modulus (GPa) = 42.20773 -142.13451 -49.96339
#
# Velocity S-wave (km/s) = 4.23823 -7.77746 -4.61120
# Velocity P-wave (km/s) = 5.67253 8.33131 4.31469
#
# Compressibility (1/GPa) = 0.05172618
#
# Stress axis : x y z
#
# Youngs Moduli (GPa) = 47.59971 104.14660 58.38489
#
# Poissons Ratio (x) = -0.12165 -0.13054
# Poissons Ratio (y) = -0.05560 0.08232
# Poissons Ratio (z) = -0.10643 0.14684
#
# Static dielectric constant tensor:
#      x y z
#    x 2.061120 0.000000 -0.091690 
#    y 0.000000 1.944410 0.000000 
#    z -0.091690 0.000000 1.856270 
# 
# From -- ./inp_files/10817.got.cif
#   From: 2010.05.17/outbox.cif.g08.bks.cpg/sg11_6_cif.got.tgz:10817.got - 2010.06.03 12:22:45.
