data_PCOD9167045
_publ_section_title
;
Structure prediction by ZEFSAII (Michael W. Deem and Ramdas Pophale) SiO2 
 PCOD9167045
Probable space group: P 21/M
;
_chemical_formula_sum "Si O2"
_cell_formula_units_Z 32
_cell_length_a 11.482734
_cell_length_b 20.067841
_cell_length_c 8.646870
_cell_angle_alpha 90.000000
_cell_angle_beta 123.647067
_cell_angle_gamma 90.000000
_cell_volume 1658.714265
_symmetry_space_group_name_H-M "P 21/M"
_symmetry_group_IT_number 11
_symmetry_cell_setting 'monoclinic'
loop_
_space_group_symop_operation_xyz
x,y,z
-x,1/2+y,-z
-x,-y,-z
x,1/2-y,z
loop_
_atom_site_type_symbol
_atom_site_label
_atom_site_fract_x
_atom_site_fract_y
_atom_site_fract_z
Si Si1 0.246461 0.408363 0.256269
Si Si2 0.614034 0.557083 0.334343
Si Si3 0.989905 0.098142 0.613771
Si Si4 0.297126 0.958798 0.139285
Si Si5 0.026619 0.946446 0.752126
Si Si6 0.693280 0.084488 0.492910
Si Si7 0.432196 0.323438 0.224490
Si Si8 0.266151 0.326635 0.791084
O O1 0.363632 0.423863 0.470919
O O2 0.266456 0.462735 0.136933
O O3 0.292255 0.338654 0.220395
O O4 0.099154 0.420762 0.230904
O O5 0.449986 0.551483 0.180348
O O6 0.685532 0.484065 0.385143
O O7 0.687047 0.615176 0.291899
O O8 0.986810 0.085336 0.427035
O O9 0.836427 0.120726 0.553049
O O10 0.114634 0.149131 0.739531
O O11 0.013732 0.026331 0.714706
O O12 0.298126 0.932451 0.317568
O O13 0.172660 0.930850 0.943444
O O14 0.554384 0.124966 0.351999
O O15 0.484893 0.250000 0.298180
O O16 0.380320 0.327450 0.010785
O O17 0.258619 0.250000 0.725898
#
# Coordination Sequence:
#
# PCOD9167045 Si02
#       8
#     4   4   4   4   4   4   4   4
#     4  11  19  40  61  91 126 158 202 254 309 367
#     4  11  20  40  64  92 122 158 208 263 305 361
#     4  11  22  40  60  90 128 161 203 251 310 369
#     4  11  21  35  62  98 125 155 198 264 312 357
#     4  11  22  36  61  99 125 158 200 255 314 363
#     4  11  22  39  64  95 127 156 207 261 313 365
#     4  11  25  42  63  91 126 167 208 255 316 377
#     4  11  26  44  62  87 123 170 211 251 313 379
#
# _framework density 19.292051000000001
#
# number of rings (size 3 to 8) (size 9 to 14) (size 15 to 20)
#    0.000    1.000    6.250    2.625    3.500    1.500 
#    0.000    0.000    0.000    1.500    0.000    0.000 
#    0.000    0.000    0.000    0.000    0.000    0.000 
#
# Total GULP energy -178597.226669 kJ/mol
# GULP energy per Si atom -5581.163333 kJ/mol
# Density = 1.924814 g / cm^3
# Si number density = 19.292051 Si / 1000 Ang^3
#
#
#
# Elastic Constant Matrix: (Units=GPa)
#
#
# Indices 1 2 3 4 5 6 
#
# 1 101.1922 27.4666 24.2324 0.0000 26.4188 0.0000
# 2 27.4666 81.6341 28.6132 0.0000 -1.9467 0.0000
# 3 24.2324 28.6132 94.0082 0.0000 28.0510 0.0000
# 4 0.0000 0.0000 0.0000 14.2902 0.0000 2.0164
# 5 26.4188 -1.9467 28.0510 0.0000 28.5635 0.0000
# 6 0.0000 0.0000 0.0000 2.0164 0.0000 15.0672
#
#
#
# Elastic Compliance Matrix: (Units=1/GPa)
#
#
# Indices 1 2 3 4 5 6 
#
# 1 0.015791 -0.007033 0.003637 0.000000 -0.018656 0.000000
# 2 -0.007033 0.017951 -0.008426 0.000000 0.016003 0.000000
# 3 0.003637 -0.008426 0.019010 0.000000 -0.022607 0.000000
# 4 0.000000 0.000000 0.000000 0.071325 0.000000 -0.009545
# 5 -0.018656 0.016003 -0.022607 0.000000 0.075557 0.000000
# 6 0.000000 0.000000 0.000000 -0.009545 0.000000 0.067647
#
#
# Mechanical properties :
#
#
# Convention : Reuss Voigt Hill
#
# Bulk Modulus (GPa) = 34.35418 48.60653 41.48036
# Shear Modulus (GPa) = 16.63192 24.68567 20.65880
#
# Velocity S-wave (km/s) = 2.93936 3.58100 3.27593
# Velocity P-wave (km/s) = 5.41903 6.50752 5.98806
#
# Compressibility (1/GPa) = 0.02910854
#
# Stress axis : x y z
#
# Youngs Moduli (GPa) = 63.32835 55.70754 52.60336
#
# Poissons Ratio (x) = 0.39177 -0.19131
# Poissons Ratio (y) = 0.44536 0.44323
# Poissons Ratio (z) = -0.23032 0.46939
#
# Static dielectric constant tensor:
#      x y z
#    x 1.697070 0.000000 -0.000390 
#    y 0.000000 1.696940 0.000000 
#    z -0.000390 0.000000 1.673860 
# 
# From -- ./inp_files/19435.got.cif
#   From: 2010.05.17/outbox.cif.g08.bks.cpg/sg11_10_cif.got.tgz:19435.got - 2010.06.03 12:22:45.
