data_PCOD9167488
_publ_section_title
;
Structure prediction by ZEFSAII (Michael W. Deem and Ramdas Pophale) SiO2 
 PCOD9167488
Probable space group: P 21/M
;
_chemical_formula_sum "Si O2"
_cell_formula_units_Z 24
_cell_length_a 21.975810
_cell_length_b 7.599945
_cell_length_c 11.028892
_cell_angle_alpha 90.000000
_cell_angle_beta 146.278874
_cell_angle_gamma 90.000000
_cell_volume 1022.582758
_symmetry_space_group_name_H-M "P 21/M"
_symmetry_group_IT_number 11
_symmetry_cell_setting 'monoclinic'
loop_
_space_group_symop_operation_xyz
x,y,z
-x,1/2+y,-z
-x,-y,-z
x,1/2-y,z
loop_
_atom_site_type_symbol
_atom_site_label
_atom_site_fract_x
_atom_site_fract_y
_atom_site_fract_z
Si Si1 0.374852 0.949520 0.774610
Si Si2 0.360405 0.464457 0.016275
Si Si3 0.778424 0.956691 0.984021
Si Si4 0.570816 0.041349 0.497044
Si Si5 0.969751 0.954814 0.150261
Si Si6 0.837154 0.033629 0.688939
O O1 0.380092 0.750000 0.742948
O O2 0.286356 0.031759 0.537354
O O3 0.325825 0.967958 0.828442
O O4 0.500000 0.000000 0.000000
O O5 0.360898 0.250000 0.016270
O O6 0.281750 0.526593 0.995223
O O7 0.486660 0.521080 0.253920
O O8 0.794799 0.750000 0.033765
O O9 0.690063 0.970577 0.727952
O O10 0.894168 0.033551 0.131361
O O11 0.583540 0.250000 0.503991
O O12 0.500000 0.000000 0.500000
O O13 0.987631 0.750000 0.209366
O O14 0.085894 0.025328 0.296211
O O15 0.894141 0.967392 0.904773
O O16 0.839744 0.250000 0.697635
#
# Coordination Sequence:
#
# PCOD9167488 Si02
#       6
#     4   4   4   4   4   4
#     4  11  24  39  56  77 107 146 184 222 267 321
#     4   9  19  35  51  74 109 143 176 217 266 319
#     4   9  18  32  53  81 108 137 175 220 271 321
#     4   9  17  29  47  72 105 140 173 215 261 308
#     4   9  18  35  60  84 107 138 177 221 272 326
#     4   9  20  38  56  79 110 141 178 226 272 315
#
# _framework density 23.469985000000001
#
# number of rings (size 3 to 8) (size 9 to 14) (size 15 to 20)
#    0.000    2.667    0.000    2.000    2.333    5.333 
#    0.000    0.833    0.000    0.000    0.000    0.000 
#    0.000    0.000    0.000    0.000    0.000    0.000 
#
# Total GULP energy -133848.382690 kJ/mol
# GULP energy per Si atom -5577.015945 kJ/mol
# Density = 2.341657 g / cm^3
# Si number density = 23.469985 Si / 1000 Ang^3
#
#
#
# Elastic Constant Matrix: (Units=GPa)
#
#
# Indices 1 2 3 4 5 6 
#
# 1 95.0612 -3.3851 7.5886 0.0000 23.4043 0.0000
# 2 -3.3851 49.1772 -5.4755 0.0000 8.9783 0.0000
# 3 7.5886 -5.4755 70.6055 0.0000 10.0619 0.0000
# 4 0.0000 0.0000 0.0000 11.8894 0.0000 -1.6584
# 5 23.4043 8.9783 10.0619 0.0000 39.4340 0.0000
# 6 0.0000 0.0000 0.0000 -1.6584 0.0000 14.4012
#
#
#
# Elastic Compliance Matrix: (Units=1/GPa)
#
#
# Indices 1 2 3 4 5 6 
#
# 1 0.012569 0.002318 -0.000034 0.000000 -0.007979 0.000000
# 2 0.002318 0.022051 0.002462 0.000000 -0.007024 0.000000
# 3 -0.000034 0.002462 0.014979 0.000000 -0.004362 0.000000
# 4 0.000000 0.000000 0.000000 0.085481 0.000000 0.009844
# 5 -0.007979 -0.007024 -0.004362 0.000000 0.032807 0.000000
# 6 0.000000 0.000000 0.000000 0.009844 0.000000 0.070572
#
#
# Mechanical properties :
#
#
# Convention : Reuss Voigt Hill
#
# Bulk Modulus (GPa) = 16.92290 23.58888 20.25589
# Shear Modulus (GPa) = 20.10739 27.55266 23.83002
#
# Velocity S-wave (km/s) = 2.93017 3.43002 3.18990
# Velocity P-wave (km/s) = 4.32133 5.07535 4.71344
#
# Compressibility (1/GPa) = 0.05909154
#
# Stress axis : x y z
#
# Youngs Moduli (GPa) = 79.55912 45.34986 66.75800
#
# Poissons Ratio (x) = -0.10513 0.00228
# Poissons Ratio (y) = -0.18443 -0.16436
# Poissons Ratio (z) = 0.00271 -0.11165
#
# Static dielectric constant tensor:
#      x y z
#    x 1.964380 0.000000 0.037470 
#    y 0.000000 1.895100 0.000000 
#    z 0.037470 0.000000 1.906020 
# 
# From -- ./inp_files/44029.got.cif
#   From: 2010.05.17/outbox.cif.g08.bks.cpg/sg11_23_cif.got.tgz:44029.got - 2010.06.03 12:22:45.
