data_PCOD9167978
_publ_section_title
;
Structure prediction by ZEFSAII (Michael W. Deem and Ramdas Pophale) SiO2 
 PCOD9167978
Probable space group: P 21/M
;
_chemical_formula_sum "Si O2"
_cell_formula_units_Z 32
_cell_length_a 15.000000
_cell_length_b 9.000000
_cell_length_c 12.000000
_cell_angle_alpha 90.000000
_cell_angle_beta 90.000000
_cell_angle_gamma 90.000000
_cell_volume 1620.000000
_symmetry_space_group_name_H-M "P 21/M"
_symmetry_group_IT_number 11
_symmetry_cell_setting 'monoclinic'
loop_
_space_group_symop_operation_xyz
x,y,z
-x,1/2+y,-z
-x,-y,-z
x,1/2-y,z
loop_
_atom_site_type_symbol
_atom_site_label
_atom_site_fract_x
_atom_site_fract_y
_atom_site_fract_z
Si Si1 0.931848 0.425637 0.084582
Si Si2 0.043523 0.425617 0.675808
Si Si3 0.123683 0.427465 0.439866
Si Si4 0.247242 0.427186 0.918057
Si Si5 0.456708 0.578868 0.288475
Si Si6 0.341928 0.069628 0.698282
Si Si7 0.591247 0.076597 0.962645
Si Si8 0.320542 0.428179 0.447976
O O1 0.942078 0.250000 0.085020
O O2 0.940901 0.488419 0.209935
O O3 0.835818 0.478536 0.043186
O O4 0.000000 0.500000 0.000000
O O5 0.044915 0.250000 0.698998
O O6 0.111789 0.452521 0.573088
O O7 0.949712 0.478611 0.624470
O O8 0.108654 0.250000 0.422699
O O9 0.223000 0.467551 0.402459
O O10 0.231019 0.250000 0.922014
O O11 0.271801 0.473629 0.791678
O O12 0.331483 0.474615 0.989518
O O13 0.462716 0.750000 0.326722
O O14 0.557673 0.525129 0.270215
O O15 0.407700 0.575513 0.170774
O O16 0.401969 0.488007 0.377750
O O17 0.339072 0.250000 0.698410
O O18 0.324938 0.015906 0.574414
O O19 0.596398 0.250000 0.998935
O O20 0.500000 0.000000 0.000000
O O21 0.324563 0.250000 0.451134
#
# Coordination Sequence:
#
# PCOD9167978 Si02
#       8
#     4   4   4   4   4   4   4   4
#     4  12  26  44  64  91 124 159 201 253 308 372
#     4  10  20  38  64  89 116 156 200 249 306 360
#     4   9  19  36  58  87 121 158 200 247 300 363
#     4  11  22  41  67  92 120 159 200 248 307 367
#     4  10  21  37  55  80 117 157 194 242 299 349
#     4   9  18  36  59  83 116 156 194 238 297 354
#     4  11  22  39  61  87 119 158 205 256 303 358
#     4  10  20  34  55  83 116 154 197 239 289 355
#
# _framework density 19.753086
#
# number of rings (size 3 to 8) (size 9 to 14) (size 15 to 20)
#    0.000    1.750    1.250    3.375    0.000    5.000 
#    0.000    5.000    0.000    0.000    0.000    0.000 
#    0.000    0.000    0.000    0.000    0.000    0.000 
#
# Total GULP energy -178635.329133 kJ/mol
# GULP energy per Si atom -5582.354035 kJ/mol
# Density = 1.970813 g / cm^3
# Si number density = 19.753086 Si / 1000 Ang^3
#
#
#
# Elastic Constant Matrix: (Units=GPa)
#
#
# Indices 1 2 3 4 5 6 
#
# 1 92.5946 29.8105 41.2856 0.0000 -20.3605 0.0000
# 2 29.8105 69.0977 22.2912 0.0000 -2.4482 0.0000
# 3 41.2856 22.2912 24.7544 0.0000 5.9800 0.0000
# 4 0.0000 0.0000 0.0000 32.3303 0.0000 -0.9357
# 5 -20.3605 -2.4482 5.9800 0.0000 21.8867 0.0000
# 6 0.0000 0.0000 0.0000 -0.9357 0.0000 27.3079
#
#
#
# Elastic Compliance Matrix: (Units=1/GPa)
#
#
# Indices 1 2 3 4 5 6 
#
# 1 -0.034351 -0.014175 0.083682 0.000000 -0.056406 0.000000
# 2 -0.014175 0.015879 0.012952 0.000000 -0.014949 0.000000
# 3 0.083682 0.012952 -0.139173 0.000000 0.117321 0.000000
# 4 0.000000 0.000000 0.000000 0.030961 0.000000 0.001061
# 5 -0.056406 -0.014949 0.117321 0.000000 -0.040510 0.000000
# 6 0.000000 0.000000 0.000000 0.001061 0.000000 0.036656
#
#
# Mechanical properties :
#
#
# Convention : Reuss Voigt Hill
#
# Bulk Modulus (GPa) = 137.48507 41.46904 89.47705
# Shear Modulus (GPa) = -17.06296 22.50894 2.72299
#
# Velocity S-wave (km/s) = -2.94226 3.37933 1.17537
# Velocity P-wave (km/s) = 7.62957 6.02211 6.87300
#
# Compressibility (1/GPa) = 0.00727352
#
# Stress axis : x y z
#
# Youngs Moduli (GPa) = -29.11106 62.97482 -7.18528
#
# Poissons Ratio (x) = 0.89264 0.60128
# Poissons Ratio (y) = -0.41263 0.09307
# Poissons Ratio (z) = 2.43606 -0.81567
#
# Static dielectric constant tensor:
#      x y z
#    x 1.781370 0.000000 0.039120 
#    y 0.000000 1.665360 0.000000 
#    z 0.039120 0.000000 1.694930 
# 
# From -- ./inp_files/38089.got.cif
#   From: 2010.05.17/outbox.ucp.g08.bks.cvg/sg11_20_cif.got.tgz:38089.got - 2010.06.11 11:38:39.
