data_PCOD9167356
_publ_section_title
;
Structure prediction by ZEFSAII (Michael W. Deem and Ramdas Pophale) SiO2 
 PCOD9167356
Probable space group: P 21/M
;
_chemical_formula_sum "Si O2"
_cell_formula_units_Z 14
_cell_length_a 4.819883
_cell_length_b 20.894899
_cell_length_c 5.101215
_cell_angle_alpha 90.000000
_cell_angle_beta 84.261163
_cell_angle_gamma 90.000000
_cell_volume 511.173406
_symmetry_space_group_name_H-M "P 21/M"
_symmetry_group_IT_number 11
_symmetry_cell_setting 'monoclinic'
loop_
_space_group_symop_operation_xyz
x,y,z
-x,1/2+y,-z
-x,-y,-z
x,1/2-y,z
loop_
_atom_site_type_symbol
_atom_site_label
_atom_site_fract_x
_atom_site_fract_y
_atom_site_fract_z
Si Si1 0.755474 0.250000 0.718711
Si Si2 0.855198 0.068166 0.518431
Si Si3 0.369094 0.870556 0.990553
Si Si4 0.737171 0.681305 0.551922
O O1 0.542173 0.196310 0.579704
O O2 0.816293 0.308113 0.929938
O O3 0.093262 0.120912 0.551428
O O4 0.730487 0.088530 0.251578
O O5 0.000000 0.000000 0.500000
O O6 0.637690 0.077860 0.775368
O O7 0.646296 0.834717 0.854671
O O8 0.924239 0.750000 0.495784
#
# Coordination Sequence:
#
# PCOD9167356 Si02
#       4
#     2   4   4   4
#     4   8  18  38  60  94 122 156 206 268 314 366
#     4  11  26  43  64  95 134 172 212 260 319 388
#     4  11  22  42  66  92 127 167 215 263 321 379
#     4   9  21  41  65  97 124 168 213 270 319 371
#
# _framework density 27.387967
#
# number of rings (size 3 to 8) (size 9 to 14) (size 15 to 20)
#    0.857    1.143    1.429    0.857    2.000    6.857 
#    0.000    0.000    0.000    0.000    0.000    0.000 
#    0.000    0.000    0.000    0.000    0.000    0.000 
#
# Total GULP energy -78016.474463 kJ/mol
# GULP energy per Si atom -5572.605319 kJ/mol
# Density = 2.732563 g / cm^3
# Si number density = 27.387967 Si / 1000 Ang^3
#
#
#
# Elastic Constant Matrix: (Units=GPa)
#
#
# Indices 1 2 3 4 5 6 
#
# 1 161.2436 38.4997 46.1482 0.0000 1.3879 0.0000
# 2 38.4997 174.2552 34.6335 0.0000 -22.1790 0.0000
# 3 46.1482 34.6335 156.6456 0.0000 -10.8841 0.0000
# 4 0.0000 0.0000 0.0000 45.0887 0.0000 9.2239
# 5 1.3879 -22.1790 -10.8841 0.0000 45.1651 0.0000
# 6 0.0000 0.0000 0.0000 9.2239 0.0000 88.1941
#
#
#
# Elastic Compliance Matrix: (Units=1/GPa)
#
#
# Indices 1 2 3 4 5 6 
#
# 1 0.007075 -0.001360 -0.001877 0.000000 -0.001338 0.000000
# 2 -0.001360 0.006599 -0.000844 0.000000 0.003079 0.000000
# 3 -0.001877 -0.000844 0.007219 0.000000 0.001383 0.000000
# 4 0.000000 0.000000 0.000000 0.022663 0.000000 -0.002370
# 5 -0.001338 0.003079 0.001383 0.000000 0.024027 0.000000
# 6 0.000000 0.000000 0.000000 -0.002370 0.000000 0.011587
#
#
# Mechanical properties :
#
#
# Convention : Reuss Voigt Hill
#
# Bulk Modulus (GPa) = 78.54823 81.18968 79.86896
# Shear Modulus (GPa) = 54.59885 60.54711 57.57298
#
# Velocity S-wave (km/s) = 4.46975 4.70693 4.58987
# Velocity P-wave (km/s) = 7.44179 7.69733 7.57064
#
# Compressibility (1/GPa) = 0.01273103
#
# Stress axis : x y z
#
# Youngs Moduli (GPa) = 141.33836 151.53883 138.51539
#
# Poissons Ratio (x) = 0.20617 0.25993
# Poissons Ratio (y) = 0.19229 0.11694
# Poissons Ratio (z) = 0.26523 0.12794
#
# Static dielectric constant tensor:
#      x y z
#    x 2.369230 0.000000 -0.091890 
#    y 0.000000 2.165800 0.000000 
#    z -0.091890 0.000000 2.349020 
# 
# From -- ./inp_files/355.got.cif
#   From: 2010.05.17/outbox.cif.g08.bks.cpg/sg11_1_cif.got.tgz:355.got - 2010.06.03 12:22:45.
