data_PCOD9167892
_publ_section_title
;
Structure prediction by ZEFSAII (Michael W. Deem and Ramdas Pophale) SiO2 
 PCOD9167892
Probable space group: P 21/M
;
_chemical_formula_sum "Si O2"
_cell_formula_units_Z 32
_cell_length_a 12.000000
_cell_length_b 9.000000
_cell_length_c 15.000000
_cell_angle_alpha 90.000000
_cell_angle_beta 90.000000
_cell_angle_gamma 90.000000
_cell_volume 1620.000000
_symmetry_space_group_name_H-M "P 21/M"
_symmetry_group_IT_number 11
_symmetry_cell_setting 'monoclinic'
loop_
_space_group_symop_operation_xyz
x,y,z
-x,1/2+y,-z
-x,-y,-z
x,1/2-y,z
loop_
_atom_site_type_symbol
_atom_site_label
_atom_site_fract_x
_atom_site_fract_y
_atom_site_fract_z
Si Si1 0.845794 0.568811 0.750246
Si Si2 0.098805 0.073530 0.051990
Si Si3 0.227398 0.076602 0.577165
Si Si4 0.340516 0.426102 0.009470
Si Si5 0.015861 0.924767 0.596070
Si Si6 0.508430 0.428780 0.856172
Si Si7 0.680292 0.572606 0.609982
Si Si8 0.470821 0.076439 0.656097
O O1 0.840402 0.750000 0.755187
O O2 0.878741 0.516072 0.847785
O O3 0.731396 0.518229 0.703471
O O4 0.935891 0.526978 0.675714
O O5 0.080123 0.250000 0.058507
O O6 0.211355 0.047714 0.997268
O O7 0.000000 0.000000 0.000000
O O8 0.192178 0.250000 0.581115
O O9 0.243211 0.033004 0.473774
O O10 0.346592 0.064111 0.622103
O O11 0.139808 0.970372 0.622805
O O12 0.358050 0.250000 0.021997
O O13 0.382208 0.505620 0.098524
O O14 0.411710 0.475849 0.925007
O O15 0.000855 0.750000 0.585095
O O16 0.000000 0.000000 0.500000
O O17 0.512963 0.250000 0.856032
O O18 0.482238 0.479472 0.757141
O O19 0.676747 0.750000 0.611090
O O20 0.558339 0.511086 0.597400
O O21 0.501573 0.250000 0.653972
#
# Coordination Sequence:
#
# PCOD9167892 Si02
#       8
#     4   4   4   4   4   4   4   4
#     4   9  19  36  57  80 108 143 179 224 276 320
#     4  10  21  37  56  79 109 143 181 224 272 324
#     4  10  21  37  55  78 110 145 179 222 273 320
#     4   9  18  34  56  77 101 139 181 217 263 324
#     4  11  21  37  59  81 109 143 185 229 272 324
#     4   9  18  33  53  79 108 137 172 223 272 312
#     4  10  19  35  57  77 105 143 182 220 264 324
#     4  10  21  34  50  78 114 142 172 221 275 320
#
# _framework density 19.753086
#
# number of rings (size 3 to 8) (size 9 to 14) (size 15 to 20)
#    0.000    2.250    1.250    1.500    0.000    4.000 
#    0.000    3.125    0.000    0.000    0.000    0.000 
#    0.000    0.000    0.000    0.000    0.000    0.000 
#
# Total GULP energy -178363.154602 kJ/mol
# GULP energy per Si atom -5573.848581 kJ/mol
# Density = 1.970813 g / cm^3
# Si number density = 19.753086 Si / 1000 Ang^3
#
#
#
# Elastic Constant Matrix: (Units=GPa)
#
#
# Indices 1 2 3 4 5 6 
#
# 1 58.7433 34.8675 49.1070 0.0000 5.3947 0.0000
# 2 34.8675 -12.7152 10.7028 0.0000 -1.3971 0.0000
# 3 49.1070 10.7028 62.4627 0.0000 8.9434 0.0000
# 4 0.0000 0.0000 0.0000 18.9475 0.0000 5.8039
# 5 5.3947 -1.3971 8.9434 0.0000 19.7314 0.0000
# 6 0.0000 0.0000 0.0000 5.8039 0.0000 26.8628
#
#
#
# Elastic Compliance Matrix: (Units=1/GPa)
#
#
# Indices 1 2 3 4 5 6 
#
# 1 0.015224 0.026559 -0.017316 0.000000 0.005567 0.000000
# 2 0.026559 -0.020270 -0.017283 0.000000 -0.000863 0.000000
# 3 -0.017316 -0.017283 0.034309 0.000000 -0.012040 0.000000
# 4 0.000000 0.000000 0.000000 0.056518 0.000000 -0.012211
# 5 0.005567 -0.000863 -0.012040 0.000000 0.054555 0.000000
# 6 0.000000 0.000000 0.000000 -0.012211 0.000000 0.039864
#
#
# Mechanical properties :
#
#
# Convention : Reuss Voigt Hill
#
# Bulk Modulus (GPa) = 75.86956 33.09392 54.48174
# Shear Modulus (GPa) = 24.91600 14.02925 19.47263
#
# Velocity S-wave (km/s) = 3.55543 2.66791 3.14315
# Velocity P-wave (km/s) = 7.43957 5.12645 6.38857
#
# Compressibility (1/GPa) = 0.01318052
#
# Stress axis : x y z
#
# Youngs Moduli (GPa) = 65.68737 -49.33395 29.14719
#
# Poissons Ratio (x) = 1.31024 0.50472
# Poissons Ratio (y) = -1.74457 0.50376
# Poissons Ratio (z) = 1.13746 -0.85265
#
# Static dielectric constant tensor:
#      x y z
#    x 1.723270 0.000000 0.001700 
#    y 0.000000 1.670960 0.000000 
#    z 0.001700 0.000000 1.700250 
# 
# From -- ./inp_files/49350.got.cif
#   From: 2010.05.17/outbox.ucp.g08.bks.cvg/sg11_25_cif.got.tgz:49350.got - 2010.06.11 11:38:39.
