data_PCOD9167374
_publ_section_title
;
Structure prediction by ZEFSAII (Michael W. Deem and Ramdas Pophale) SiO2 
 PCOD9167374
Probable space group: P 21/M
;
_chemical_formula_sum "Si O2"
_cell_formula_units_Z 18
_cell_length_a 4.636343
_cell_length_b 20.710747
_cell_length_c 6.902833
_cell_angle_alpha 90.000000
_cell_angle_beta 106.378711
_cell_angle_gamma 90.000000
_cell_volume 635.926495
_symmetry_space_group_name_H-M "P 21/M"
_symmetry_group_IT_number 11
_symmetry_cell_setting 'monoclinic'
loop_
_space_group_symop_operation_xyz
x,y,z
-x,1/2+y,-z
-x,-y,-z
x,1/2-y,z
loop_
_atom_site_type_symbol
_atom_site_label
_atom_site_fract_x
_atom_site_fract_y
_atom_site_fract_z
Si Si1 0.057667 0.321258 0.884970
Si Si2 0.994842 0.750000 0.499362
Si Si3 0.435519 0.578857 0.338036
Si Si4 0.089053 0.996245 0.792079
Si Si5 0.594220 0.135222 0.264124
O O1 0.945159 0.250000 0.930260
O O2 0.329253 0.450796 0.766888
O O3 0.787748 0.371486 0.814394
O O4 0.324751 0.343295 0.073397
O O5 0.853376 0.694844 0.320836
O O6 0.181254 0.693797 0.650968
O O7 0.538493 0.614463 0.552010
O O8 0.217365 0.519788 0.365753
O O9 0.224975 0.926792 0.775758
O O10 0.000000 0.000000 0.000000
#
# Coordination Sequence:
#
# PCOD9167374 Si02
#       5
#     4   2   4   4   4
#     4   9  21  44  89 128 166 228 290 365 435 514
#     4   8  18  44  82 132 170 224 296 368 428 526
#     4  11  27  52  86 126 176 220 292 359 436 527
#     4  12  29  52  87 131 177 232 286 362 444 522
#     4  11  22  47  91 131 172 229 293 362 442 524
#
# _framework density 28.305160000000001
#
# number of rings (size 3 to 8) (size 9 to 14) (size 15 to 20)
#    0.667    0.889    1.111    2.000    6.222    0.000 
#    0.000    1.111    4.889    4.000    0.000    0.000 
#    0.000    0.000    0.000    0.000    0.000    0.000 
#
# Total GULP energy -100611.470972 kJ/mol
# GULP energy per Si atom -5589.526165 kJ/mol
# Density = 2.824074 g / cm^3
# Si number density = 28.305160 Si / 1000 Ang^3
#
#
#
# Elastic Constant Matrix: (Units=GPa)
#
#
# Indices 1 2 3 4 5 6 
#
# 1 176.1506 100.0561 94.8451 0.0000 -2.5190 0.0000
# 2 100.0561 249.0996 122.6661 0.0000 -2.0226 0.0000
# 3 94.8451 122.6661 271.8594 0.0000 32.6236 0.0000
# 4 0.0000 0.0000 0.0000 66.1239 0.0000 11.9337
# 5 -2.5190 -2.0226 32.6236 0.0000 63.9600 0.0000
# 6 0.0000 0.0000 0.0000 11.9337 0.0000 -0.1595
#
#
#
# Elastic Compliance Matrix: (Units=1/GPa)
#
#
# Indices 1 2 3 4 5 6 
#
# 1 0.008015 -0.002263 -0.001922 0.000000 0.001224 0.000000
# 2 -0.002263 0.005928 -0.002021 0.000000 0.001129 0.000000
# 3 -0.001922 -0.002021 0.005621 0.000000 -0.003007 0.000000
# 4 0.000000 0.000000 0.000000 0.001043 0.000000 0.078017
# 5 0.001224 0.001129 -0.003007 0.000000 0.017252 0.000000
# 6 0.000000 0.000000 0.000000 0.078017 0.000000 -0.432289
#
#
# Mechanical properties :
#
#
# Convention : Reuss Voigt Hill
#
# Bulk Modulus (GPa) = 139.80657 148.02715 143.91686
# Shear Modulus (GPa) = -13.17056 51.28769 19.05857
#
# Velocity S-wave (km/s) = -2.15943 4.26132 2.59767
# Velocity P-wave (km/s) = 6.57893 8.75341 7.74289
#
# Compressibility (1/GPa) = 0.00715274
#
# Stress axis : x y z
#
# Youngs Moduli (GPa) = 124.77096 168.70318 177.88870
#
# Poissons Ratio (x) = 0.38175 0.34191
# Poissons Ratio (y) = 0.28234 0.35945
# Poissons Ratio (z) = 0.23982 0.34089
#
# Static dielectric constant tensor:
#      x y z
#    x 2.247360 0.000000 -0.062980 
#    y 0.000000 0.786910 0.000000 
#    z -0.062980 0.000000 2.231120 
# 
# From -- ./inp_files/10120.got.cif
#   From: 2010.05.17/outbox.cif.g08.bks.cpg/sg11_6_cif.got.tgz:10120.got - 2010.06.03 12:22:45.
