data_PCOD9167305
_publ_section_title
;
Structure prediction by ZEFSAII (Michael W. Deem and Ramdas Pophale) SiO2 
 PCOD9167305
Probable space group: P 21/M
;
_chemical_formula_sum "Si O2"
_cell_formula_units_Z 28
_cell_length_a 8.328609
_cell_length_b 16.815842
_cell_length_c 11.471250
_cell_angle_alpha 90.000000
_cell_angle_beta 120.431333
_cell_angle_gamma 90.000000
_cell_volume 1385.250755
_symmetry_space_group_name_H-M "P 21/M"
_symmetry_group_IT_number 11
_symmetry_cell_setting 'monoclinic'
loop_
_space_group_symop_operation_xyz
x,y,z
-x,1/2+y,-z
-x,-y,-z
x,1/2-y,z
loop_
_atom_site_type_symbol
_atom_site_label
_atom_site_fract_x
_atom_site_fract_y
_atom_site_fract_z
Si Si1 0.394215 0.432066 0.386048
Si Si2 0.053136 0.535277 0.198588
Si Si3 0.989170 0.915004 0.432805
Si Si4 0.324421 0.656321 0.685484
Si Si5 0.253779 0.656728 0.130138
Si Si6 0.670599 0.438623 0.069640
Si Si7 0.638224 0.657405 0.396151
O O1 0.500000 0.500000 0.500000
O O2 0.223270 0.472961 0.256742
O O3 0.532118 0.387151 0.349494
O O4 0.322575 0.372303 0.459195
O O5 0.060574 0.576669 0.328130
O O6 0.085701 0.601756 0.112895
O O7 0.859308 0.489361 0.124527
O O8 0.120961 0.855979 0.553234
O O9 0.775421 0.888827 0.360575
O O10 0.000000 0.000000 0.500000
O O11 0.364695 0.750000 0.713035
O O12 0.329429 0.609049 0.808953
O O13 0.208459 0.750000 0.108481
O O14 0.423037 0.644597 0.284058
O O15 0.328923 0.624350 0.035411
O O16 0.500000 0.500000 0.000000
O O17 0.676042 0.750000 0.398756
#
# Coordination Sequence:
#
# PCOD9167305 Si02
#       7
#     4   4   4   4   4   4   4
#     4  12  21  40  68  96 132 162 215 263 337 399
#     4  12  24  41  71  95 126 173 219 265 323 395
#     4  12  21  39  66 100 130 168 212 267 331 403
#     4  12  25  42  67 100 135 170 216 279 335 385
#     4  11  25  44  64  94 133 172 219 271 321 375
#     4  12  26  46  69  92 131 178 231 265 315 385
#     4  11  22  38  63  96 132 168 210 270 330 381
#
# _framework density 20.212948000000001
#
# number of rings (size 3 to 8) (size 9 to 14) (size 15 to 20)
#    0.000    0.286    5.714    3.429    0.000    2.286 
#    0.000    5.000    0.000    0.000    0.000    0.000 
#    0.000    0.000    0.000    0.000    0.000    0.000 
#
# Total GULP energy -156688.709241 kJ/mol
# GULP energy per Si atom -5596.025330 kJ/mol
# Density = 2.016694 g / cm^3
# Si number density = 20.212948 Si / 1000 Ang^3
#
#
#
# Elastic Constant Matrix: (Units=GPa)
#
#
# Indices 1 2 3 4 5 6 
#
# 1 106.3523 59.0801 16.8141 0.0000 -2.3024 0.0000
# 2 59.0801 132.1835 37.8116 0.0000 4.9430 0.0000
# 3 16.8141 37.8116 56.1123 0.0000 -7.8987 0.0000
# 4 0.0000 0.0000 0.0000 24.3495 0.0000 -4.2668
# 5 -2.3024 4.9430 -7.8987 0.0000 45.8300 0.0000
# 6 0.0000 0.0000 0.0000 -4.2668 0.0000 31.6676
#
#
#
# Elastic Compliance Matrix: (Units=1/GPa)
#
#
# Indices 1 2 3 4 5 6 
#
# 1 0.012582 -0.005756 0.000292 0.000000 0.001303 0.000000
# 2 -0.005756 0.012217 -0.006901 0.000000 -0.002796 0.000000
# 3 0.000292 -0.006901 0.023050 0.000000 0.004732 0.000000
# 4 0.000000 0.000000 0.000000 0.042062 0.000000 0.005667
# 5 0.001303 -0.002796 0.004732 0.000000 0.023002 0.000000
# 6 0.000000 0.000000 0.000000 0.005667 0.000000 0.032342
#
#
# Mechanical properties :
#
#
# Convention : Reuss Voigt Hill
#
# Bulk Modulus (GPa) = 43.25469 58.00663 50.63066
# Shear Modulus (GPa) = 28.13871 32.43225 30.28548
#
# Velocity S-wave (km/s) = 3.73515 4.01000 3.87501
# Velocity P-wave (km/s) = 6.32833 7.08521 6.71744
#
# Compressibility (1/GPa) = 0.02311888
#
# Stress axis : x y z
#
# Youngs Moduli (GPa) = 79.47686 81.85646 43.38338
#
# Poissons Ratio (x) = 0.47116 -0.01266
# Poissons Ratio (y) = 0.45746 0.29939
# Poissons Ratio (z) = -0.02319 0.56489
#
# Static dielectric constant tensor:
#      x y z
#    x 1.712370 0.000000 0.002080 
#    y 0.000000 1.682530 0.000000 
#    z 0.002080 0.000000 1.717670 
# 
# From -- ./inp_files/31966.got.cif
#   From: 2010.05.17/outbox.cif.g08.bks.cpg/sg11_16_cif.got.tgz:31966.got - 2010.06.03 12:22:45.
