data_PCOD9167635
_publ_section_title
;
Structure prediction by ZEFSAII (Michael W. Deem and Ramdas Pophale) SiO2 
 PCOD9167635
Probable space group: P 21/M
;
_chemical_formula_sum "Si O2"
_cell_formula_units_Z 28
_cell_length_a 26.372860
_cell_length_b 7.577679
_cell_length_c 14.255200
_cell_angle_alpha 90.000000
_cell_angle_beta 144.697339
_cell_angle_gamma 90.000000
_cell_volume 1646.326928
_symmetry_space_group_name_H-M "P 21/M"
_symmetry_group_IT_number 11
_symmetry_cell_setting 'monoclinic'
loop_
_space_group_symop_operation_xyz
x,y,z
-x,1/2+y,-z
-x,-y,-z
x,1/2-y,z
loop_
_atom_site_type_symbol
_atom_site_label
_atom_site_fract_x
_atom_site_fract_y
_atom_site_fract_z
Si Si1 0.961841 0.964054 0.299178
Si Si2 0.139894 0.459478 0.675312
Si Si3 0.697720 0.956852 0.194799
Si Si4 0.504777 0.040893 0.896173
Si Si5 0.686457 0.966922 0.393047
Si Si6 0.962441 0.961757 0.089309
Si Si7 0.137469 0.038149 0.243518
O O1 0.958908 0.750000 0.294076
O O2 0.947124 0.027968 0.171250
O O3 0.893066 0.029302 0.273811
O O4 0.058271 0.014697 0.481690
O O5 0.152831 0.250000 0.708276
O O6 0.227734 0.533156 0.760299
O O7 0.718031 0.750000 0.235946
O O8 0.698388 0.027300 0.302750
O O9 0.598854 0.970494 0.006235
O O10 0.508120 0.250000 0.888399
O O11 0.410052 0.976953 0.716986
O O12 0.500000 0.000000 0.000000
O O13 0.685599 0.750000 0.390491
O O14 0.768643 0.026186 0.578751
O O15 0.952758 0.750000 0.077071
O O16 0.061114 0.999444 0.203393
O O17 0.898019 0.029805 0.910137
O O18 0.143788 0.250000 0.245859
#
# Coordination Sequence:
#
# PCOD9167635 Si02
#       7
#     4   4   4   4   4   4   4
#     4   9  17  28  40  58  83 105 130 166 200 228
#     4   9  17  28  42  58  78 107 137 161 191 235
#     4   9  16  26  39  56  77 101 130 160 191 229
#     4   9  16  26  39  56  78 101 126 157 193 231
#     4   8  14  24  38  55  74  97 126 156 183 222
#     4   9  17  27  39  58  82 103 127 163 197 224
#     4   9  16  27  42  57  76 105 135 157 187 233
#
# _framework density 17.007556999999998
#
# number of rings (size 3 to 8) (size 9 to 14) (size 15 to 20)
#    0.000    3.143    0.000    2.143    0.000    2.286 
#    0.000    5.000    0.000    0.000    0.000    1.000 
#    0.000    0.000    0.000    0.000    0.000    0.000 
#
# Total GULP energy -155917.757183 kJ/mol
# GULP energy per Si atom -5568.491328 kJ/mol
# Density = 1.696885 g / cm^3
# Si number density = 17.007557 Si / 1000 Ang^3
#
#
#
# Elastic Constant Matrix: (Units=GPa)
#
#
# Indices 1 2 3 4 5 6 
#
# 1 132.7428 0.0536 74.9500 0.0000 12.6545 0.0000
# 2 0.0536 30.9437 -7.7005 0.0000 -2.3475 0.0000
# 3 74.9500 -7.7005 119.7462 0.0000 13.7024 0.0000
# 4 0.0000 0.0000 0.0000 13.3229 0.0000 3.7999
# 5 12.6545 -2.3475 13.7024 0.0000 30.3609 0.0000
# 6 0.0000 0.0000 0.0000 3.7999 0.0000 10.0542
#
#
#
# Elastic Compliance Matrix: (Units=1/GPa)
#
#
# Indices 1 2 3 4 5 6 
#
# 1 0.011848 -0.001982 -0.007340 0.000000 -0.001779 0.000000
# 2 -0.001982 0.033255 0.003153 0.000000 0.001974 0.000000
# 3 -0.007340 0.003153 0.013465 0.000000 -0.002774 0.000000
# 4 0.000000 0.000000 0.000000 0.084128 0.000000 -0.031795
# 5 -0.001779 0.001974 -0.002774 0.000000 0.035083 0.000000
# 6 0.000000 0.000000 0.000000 -0.031795 0.000000 0.111477
#
#
# Mechanical properties :
#
#
# Convention : Reuss Voigt Hill
#
# Bulk Modulus (GPa) = 21.63061 46.44877 34.03969
# Shear Modulus (GPa) = 15.77273 25.15623 20.46448
#
# Velocity S-wave (km/s) = 3.04862 3.85011 3.47256
# Velocity P-wave (km/s) = 5.01378 6.86545 6.01134
#
# Compressibility (1/GPa) = 0.04623078
#
# Stress axis : x y z
#
# Youngs Moduli (GPa) = 84.40342 30.07096 74.26619
#
# Poissons Ratio (x) = 0.05960 0.54508
# Poissons Ratio (y) = 0.16729 -0.23417
# Poissons Ratio (z) = 0.61948 -0.09482
#
# Static dielectric constant tensor:
#      x y z
#    x 1.586290 0.000000 0.009840 
#    y 0.000000 1.637200 0.000000 
#    z 0.009840 0.000000 1.584260 
# 
# From -- ./inp_files/43074.got.cif
#   From: 2010.05.17/outbox.cif.g08.bks.cpg/sg11_22_cif.got.tgz:43074.got - 2010.06.03 12:22:45.
