data_PCOD9167884
_publ_section_title
;
Structure prediction by ZEFSAII (Michael W. Deem and Ramdas Pophale) SiO2 
 PCOD9167884
Probable space group: P 21/M
;
_chemical_formula_sum "Si O2"
_cell_formula_units_Z 32
_cell_length_a 21.000000
_cell_length_b 9.000000
_cell_length_c 27.000000
_cell_angle_alpha 90.000000
_cell_angle_beta 20.000000
_cell_angle_gamma 90.000000
_cell_volume 1745.328791
_symmetry_space_group_name_H-M "P 21/M"
_symmetry_group_IT_number 11
_symmetry_cell_setting 'monoclinic'
loop_
_space_group_symop_operation_xyz
x,y,z
-x,1/2+y,-z
-x,-y,-z
x,1/2-y,z
loop_
_atom_site_type_symbol
_atom_site_label
_atom_site_fract_x
_atom_site_fract_y
_atom_site_fract_z
Si Si1 0.020052 0.421045 0.433971
Si Si2 0.325742 0.922532 0.385037
Si Si3 0.301663 0.926843 0.873625
Si Si4 0.703381 0.569403 0.854033
Si Si5 0.277477 0.928581 0.591937
Si Si6 0.649377 0.071049 0.276562
Si Si7 0.915452 0.071519 0.167876
Si Si8 0.964615 0.430105 0.320237
O O1 0.066229 0.250000 0.409130
O O2 0.823616 0.427496 0.549439
O O3 0.000000 0.500000 0.500000
O O4 0.177382 0.477767 0.281302
O O5 0.376537 0.750000 0.357225
O O6 0.205774 0.979560 0.519705
O O7 0.509581 0.014210 0.240024
O O8 0.290814 0.750000 0.884239
O O9 0.321482 0.973076 0.801427
O O10 0.114234 0.998325 0.030923
O O11 0.690657 0.750000 0.864042
O O12 0.836412 0.522737 0.803060
O O13 0.500000 0.500000 0.000000
O O14 0.299731 0.750000 0.572702
O O15 0.228863 0.969629 0.683417
O O16 0.099689 0.969615 0.687621
O O17 0.462014 0.002909 0.435935
O O18 0.634969 0.250000 0.289166
O O19 0.823919 0.025828 0.182853
O O20 0.936563 0.250000 0.153241
O O21 0.966353 0.250000 0.322941
#
# Coordination Sequence:
#
# PCOD9167884 Si02
#       8
#     4   4   4   4   4   4   4   4
#     4   9  19  35  56  81 109 140 175 216 260 311
#     4   9  17  34  58  78 101 139 181 218 259 308
#     4  11  22  35  53  78 107 140 178 220 267 311
#     4   9  18  34  54  78 108 138 173 215 258 308
#     4  10  19  34  58  81 100 135 180 218 262 314
#     4  10  21  36  54  78 107 138 175 221 267 315
#     4  10  22  37  52  76 110 142 175 217 265 320
#     4   8  15  31  55  78 100 131 174 217 252 301
#
# _framework density 18.334654
#
# number of rings (size 3 to 8) (size 9 to 14) (size 15 to 20)
#    0.000    2.500    1.250    2.625    0.000    2.500 
#    2.250    2.500    0.000    0.000    0.000    0.000 
#    0.000    0.000    0.000    0.000    0.000    0.000 
#
# Total GULP energy -178375.676139 kJ/mol
# GULP energy per Si atom -5574.239879 kJ/mol
# Density = 1.829292 g / cm^3
# Si number density = 18.334654 Si / 1000 Ang^3
#
#
#
# Elastic Constant Matrix: (Units=GPa)
#
#
# Indices 1 2 3 4 5 6 
#
# 1 24.6863 11.7478 4.3862 0.0000 1.8406 0.0000
# 2 11.7478 4.9344 13.1611 0.0000 0.1608 0.0000
# 3 4.3862 13.1611 73.0374 0.0000 -17.5460 0.0000
# 4 0.0000 0.0000 0.0000 32.3596 0.0000 -2.5827
# 5 1.8406 0.1608 -17.5460 0.0000 23.6056 0.0000
# 6 0.0000 0.0000 0.0000 -2.5827 0.0000 18.9757
#
#
#
# Elastic Compliance Matrix: (Units=1/GPa)
#
#
# Indices 1 2 3 4 5 6 
#
# 1 -0.032352 0.169780 -0.034480 0.000000 -0.024262 0.000000
# 2 0.169780 -0.389348 0.069902 0.000000 0.041372 0.000000
# 3 -0.034480 0.069902 0.004501 0.000000 0.005558 0.000000
# 4 0.000000 0.000000 0.000000 0.031242 0.000000 0.004252
# 5 -0.024262 0.041372 0.005558 0.000000 0.048104 0.000000
# 6 0.000000 0.000000 0.000000 0.004252 0.000000 0.053278
#
#
# Mechanical properties :
#
#
# Convention : Reuss Voigt Hill
#
# Bulk Modulus (GPa) = -147.19379 17.91647 -64.63866
# Shear Modulus (GPa) = -7.17108 19.87905 6.35399
#
# Velocity S-wave (km/s) = -1.97982 3.29634 1.86362
# Velocity P-wave (km/s) = 9.25647 4.92757 5.54082
#
# Compressibility (1/GPa) = -0.00679376
#
# Stress axis : x y z
#
# Youngs Moduli (GPa) = -30.90974 -2.56839 222.15149
#
# Poissons Ratio (x) = 0.43606 7.65967
# Poissons Ratio (y) = 5.24786 -15.52885
# Poissons Ratio (z) = -1.06575 0.17954
#
# Static dielectric constant tensor:
#      x y z
#    x 1.665220 0.000000 0.013600 
#    y 0.000000 1.618680 0.000000 
#    z 0.013600 0.000000 1.582510 
# 
# From -- ./inp_files/67152.got.cif
#   From: 2010.05.17/outbox.ucp.g08.bks.cvg/sg11_34_cif.got.tgz:67152.got - 2010.06.11 11:38:39.
