data_PCOD9167129
_publ_section_title
;
Structure prediction by ZEFSAII (Michael W. Deem and Ramdas Pophale) SiO2 
 PCOD9167129
Probable space group: P 21/M
;
_chemical_formula_sum "Si O2"
_cell_formula_units_Z 32
_cell_length_a 23.012257
_cell_length_b 13.943102
_cell_length_c 19.131026
_cell_angle_alpha 90.000000
_cell_angle_beta 16.877816
_cell_angle_gamma 90.000000
_cell_volume 1782.179126
_symmetry_space_group_name_H-M "P 21/M"
_symmetry_group_IT_number 11
_symmetry_cell_setting 'monoclinic'
loop_
_space_group_symop_operation_xyz
x,y,z
-x,1/2+y,-z
-x,-y,-z
x,1/2-y,z
loop_
_atom_site_type_symbol
_atom_site_label
_atom_site_fract_x
_atom_site_fract_y
_atom_site_fract_z
Si Si1 0.869733 0.547293 0.749218
Si Si2 0.099702 0.137475 0.818067
Si Si3 0.873940 0.363384 0.435749
Si Si4 0.949456 0.638603 0.513845
Si Si5 0.448120 0.137727 0.967469
Si Si6 0.325674 0.864703 0.618077
Si Si7 0.733150 0.865463 0.225466
Si Si8 0.142145 0.952275 0.695424
O O1 0.984042 0.606290 0.555007
O O2 0.935689 0.590211 0.746375
O O3 0.933582 0.437277 0.667470
O O4 0.643251 0.570337 0.987793
O O5 0.113130 0.250000 0.786210
O O6 0.244974 0.115378 0.716832
O O7 0.143201 0.066342 0.704832
O O8 0.876167 0.116703 0.105003
O O9 0.902911 0.250000 0.392264
O O10 0.681319 0.378559 0.707650
O O11 0.823075 0.412926 0.421373
O O12 0.996805 0.750000 0.448582
O O13 0.706644 0.624762 0.790119
O O14 0.422878 0.250000 0.975383
O O15 0.334916 0.750000 0.598178
O O16 0.524367 0.894568 0.430791
O O17 0.293388 0.910442 0.579407
O O18 0.754923 0.750000 0.192902
O O19 0.922508 0.913883 0.970720
#
# Coordination Sequence:
#
# PCOD9167129 Si02
#       8
#     4   4   4   4   4   4   4   4
#     4   9  17  32  53  72  98 130 157 193 236 282
#     4   9  19  34  49  66  91 125 165 206 242 279
#     4  11  21  32  48  71 101 132 159 187 234 296
#     4   8  15  32  54  77  99 122 158 203 237 267
#     4   8  16  31  49  72  99 124 155 193 231 279
#     4   9  17  31  51  74  98 120 153 203 250 286
#     4   9  17  31  52  75  96 119 155 202 248 288
#     4  11  21  31  46  71  99 129 160 196 235 286
#
# _framework density 17.955545000000001
#
# number of rings (size 3 to 8) (size 9 to 14) (size 15 to 20)
#    0.750    2.000    0.000    4.125    0.000    3.500 
#    0.000    1.875    0.000    0.750    0.000    0.000 
#    0.000    0.000    0.000    0.000    0.000    0.000 
#
# Total GULP energy -178142.745295 kJ/mol
# GULP energy per Si atom -5566.960790 kJ/mol
# Density = 1.791468 g / cm^3
# Si number density = 17.955545 Si / 1000 Ang^3
#
#
#
# Elastic Constant Matrix: (Units=GPa)
#
#
# Indices 1 2 3 4 5 6 
#
# 1 49.9890 15.8354 16.2148 0.0000 -14.6060 0.0000
# 2 15.8354 53.1609 8.3003 0.0000 2.4508 0.0000
# 3 16.2148 8.3003 25.1015 0.0000 -18.9764 0.0000
# 4 0.0000 0.0000 0.0000 15.7526 0.0000 6.0330
# 5 -14.6060 2.4508 -18.9764 0.0000 23.9253 0.0000
# 6 0.0000 0.0000 0.0000 6.0330 0.0000 17.4987
#
#
#
# Elastic Compliance Matrix: (Units=1/GPa)
#
#
# Indices 1 2 3 4 5 6 
#
# 1 0.028414 -0.008439 -0.004488 0.000000 0.014651 0.000000
# 2 -0.008439 0.026053 -0.022668 0.000000 -0.025800 0.000000
# 3 -0.004488 -0.022668 0.124672 0.000000 0.098465 0.000000
# 4 0.000000 0.000000 0.000000 0.073139 0.000000 -0.025216
# 5 0.014651 -0.025800 0.098465 0.000000 0.131481 0.000000
# 6 0.000000 0.000000 0.000000 -0.025216 0.000000 0.065841
#
#
# Mechanical properties :
#
#
# Convention : Reuss Voigt Hill
#
# Bulk Modulus (GPa) = 9.26367 23.21693 16.24030
# Shear Modulus (GPa) = 8.98031 17.29537 13.13784
#
# Velocity S-wave (km/s) = 2.23881 3.10697 2.70791
# Velocity P-wave (km/s) = 3.44288 5.08225 4.34066
#
# Compressibility (1/GPa) = 0.10794862
#
# Stress axis : x y z
#
# Youngs Moduli (GPa) = 35.19369 38.38296 8.02107
#
# Poissons Ratio (x) = 0.32390 0.03600
# Poissons Ratio (y) = 0.29698 0.18182
# Poissons Ratio (z) = 0.15797 0.87007
#
# Static dielectric constant tensor:
#      x y z
#    x 1.604720 0.000000 -0.006910 
#    y 0.000000 1.630540 0.000000 
#    z -0.006910 0.000000 1.630940 
# 
# From -- ./inp_files/61593.got.cif
#   From: 2010.05.17/outbox.cif.g08.bks.cpg/sg11_31_cif.got.tgz:61593.got - 2010.06.03 12:22:45.
