data_PCOD9167099
_publ_section_title
;
Structure prediction by ZEFSAII (Michael W. Deem and Ramdas Pophale) SiO2 
 PCOD9167099
Probable space group: P 21/M
;
_chemical_formula_sum "Si O2"
_cell_formula_units_Z 18
_cell_length_a 19.713283
_cell_length_b 10.227941
_cell_length_c 8.013085
_cell_angle_alpha 90.000000
_cell_angle_beta 151.425212
_cell_angle_gamma 90.000000
_cell_volume 772.773585
_symmetry_space_group_name_H-M "P 21/M"
_symmetry_group_IT_number 11
_symmetry_cell_setting 'monoclinic'
loop_
_space_group_symop_operation_xyz
x,y,z
-x,1/2+y,-z
-x,-y,-z
x,1/2-y,z
loop_
_atom_site_type_symbol
_atom_site_label
_atom_site_fract_x
_atom_site_fract_y
_atom_site_fract_z
Si Si1 0.710217 0.520976 0.652780
Si Si2 0.591544 0.250000 0.428157
Si Si3 0.482016 0.750000 0.134010
Si Si4 0.732343 0.750000 0.184245
Si Si5 0.900232 0.750000 0.203478
Si Si6 0.202182 0.750000 0.736305
Si Si7 0.842280 0.007725 0.594651
O O1 0.672225 0.383450 0.660587
O O2 0.577678 0.619848 0.363297
O O3 0.744657 0.470201 0.542950
O O4 0.840772 0.616050 0.988147
O O5 0.563900 0.250000 0.164495
O O6 0.436963 0.250000 0.178232
O O7 0.371294 0.750000 0.051005
O O8 0.810854 0.750000 0.179098
O O9 0.787391 0.875311 0.399023
O O10 0.071375 0.750000 0.590028
O O11 0.163425 0.620226 0.551412
O O12 0.000000 0.000000 0.000000
#
# Coordination Sequence:
#
# PCOD9167099 Si02
#       7
#     4   2   2   2   2   2   4
#     4  11  22  43  70 100 136 169 233 283 340 378
#     4  12  21  38  73 104 126 176 229 289 326 398
#     4  11  20  36  70 104 127 173 223 295 326 389
#     4  12  27  44  68  97 144 177 223 264 356 403
#     4  11  27  47  61  97 146 190 209 275 333 422
#     4  12  23  39  68 100 135 168 234 273 341 382
#     4  12  22  41  72 100 125 175 224 289 322 393
#
# _framework density 23.292721
#
# number of rings (size 3 to 8) (size 9 to 14) (size 15 to 20)
#    0.000    0.444    6.667    3.333    0.000    1.778 
#    0.000    1.111    0.000    0.000    0.000    0.000 
#    0.000    0.000    0.000    0.000    0.000    0.000 
#
# Total GULP energy -100454.621605 kJ/mol
# GULP energy per Si atom -5580.812311 kJ/mol
# Density = 2.323971 g / cm^3
# Si number density = 23.292721 Si / 1000 Ang^3
#
#
#
# Elastic Constant Matrix: (Units=GPa)
#
#
# Indices 1 2 3 4 5 6 
#
# 1 132.7484 18.0598 24.2847 0.0000 40.5249 0.0000
# 2 18.0598 324.7364 22.2901 0.0000 -58.5482 0.0000
# 3 24.2847 22.2901 101.2752 0.0000 49.0303 0.0000
# 4 0.0000 0.0000 0.0000 -74.2027 0.0000 43.1368
# 5 40.5249 -58.5482 49.0303 0.0000 85.7713 0.0000
# 6 0.0000 0.0000 0.0000 43.1368 0.0000 17.6985
#
#
#
# Elastic Compliance Matrix: (Units=1/GPa)
#
#
# Indices 1 2 3 4 5 6 
#
# 1 0.009499 -0.001759 0.001194 0.000000 -0.006371 0.000000
# 2 -0.001759 0.004452 -0.003362 0.000000 0.005792 0.000000
# 3 0.001194 -0.003362 0.016194 0.000000 -0.012116 0.000000
# 4 0.000000 0.000000 0.000000 -0.005576 0.000000 0.013590
# 5 -0.006371 0.005792 -0.012116 0.000000 0.025549 0.000000
# 6 0.000000 0.000000 0.000000 0.013590 0.000000 0.023378
#
#
# Mechanical properties :
#
#
# Convention : Reuss Voigt Hill
#
# Bulk Modulus (GPa) = 44.86338 76.44771 60.65554
# Shear Modulus (GPa) = 56.31854 38.79513 47.55683
#
# Velocity S-wave (km/s) = 4.92251 4.08554 4.52342
# Velocity P-wave (km/s) = 7.18405 7.42612 7.30609
#
# Compressibility (1/GPa) = 0.02228990
#
# Stress axis : x y z
#
# Youngs Moduli (GPa) = 105.27581 224.60001 61.75247
#
# Poissons Ratio (x) = 0.39504 -0.07372
# Poissons Ratio (y) = 0.18517 0.20764
# Poissons Ratio (z) = -0.12568 0.75520
#
# Static dielectric constant tensor:
#      x y z
#    x 2.010290 0.000000 -0.066950 
#    y 0.000000 1.914410 0.000000 
#    z -0.066950 0.000000 1.925510 
# 
# From -- ./inp_files/25665.got.cif
#   From: 2010.05.17/outbox.cif.g08.bks.cpg/sg11_13_cif.got.tgz:25665.got - 2010.06.03 12:22:45.
