data_PCOD9167813
_publ_section_title
;
Structure prediction by ZEFSAII (Michael W. Deem and Ramdas Pophale) SiO2 
 PCOD9167813
Probable space group: P 21/M
;
_chemical_formula_sum "Si O2"
_cell_formula_units_Z 24
_cell_length_a 18.000000
_cell_length_b 9.000000
_cell_length_c 24.000000
_cell_angle_alpha 90.000000
_cell_angle_beta 160.000000
_cell_angle_gamma 90.000000
_cell_volume 1329.774317
_symmetry_space_group_name_H-M "P 21/M"
_symmetry_group_IT_number 11
_symmetry_cell_setting 'monoclinic'
loop_
_space_group_symop_operation_xyz
x,y,z
-x,1/2+y,-z
-x,-y,-z
x,1/2-y,z
loop_
_atom_site_type_symbol
_atom_site_label
_atom_site_fract_x
_atom_site_fract_y
_atom_site_fract_z
Si Si1 0.490617 0.920296 0.653363
Si Si2 0.559143 0.574759 0.203233
Si Si3 0.848847 0.426810 0.846108
Si Si4 0.153165 0.072883 0.487195
Si Si5 0.344950 0.926663 0.845921
Si Si6 0.210782 0.079309 0.023775
O O1 0.465029 0.750000 0.619718
O O2 0.644675 0.925913 0.817446
O O3 0.612725 0.009049 0.691175
O O4 0.270279 0.992920 0.518887
O O5 0.576502 0.750000 0.205998
O O6 0.728400 0.531373 0.371340
O O7 0.605539 0.487005 0.180234
O O8 0.323660 0.530628 0.060812
O O9 0.852262 0.250000 0.856119
O O10 0.000000 0.500000 0.000000
O O11 0.968339 0.459675 0.872291
O O12 0.181520 0.250000 0.501246
O O13 0.902709 0.035647 0.314318
O O14 0.368527 0.750000 0.863638
O O15 0.500000 0.000000 0.000000
O O16 0.219250 0.250000 0.009864
#
# Coordination Sequence:
#
# PCOD9167813 Si02
#       6
#     4   4   4   4   4   4
#     4   9  16  25  41  66  96 129 163 200 243 290
#     4  10  19  32  52  76 100 129 165 205 249 295
#     4   9  15  23  37  60  94 131 164 199 241 287
#     4   9  19  34  52  74 100 131 166 205 248 294
#     4  11  23  38  54  73  99 130 165 206 251 299
#     4   8  15  26  40  63  95 130 163 197 239 285
#
# _framework density 18.048175000000001
#
# number of rings (size 3 to 8) (size 9 to 14) (size 15 to 20)
#    0.000    2.667    0.000    3.500    0.000    6.667 
#    0.000    0.000    0.000    0.000    0.000    1.167 
#    0.000    0.000    0.000    0.000    0.000    0.000 
#
# Total GULP energy -133721.702297 kJ/mol
# GULP energy per Si atom -5571.737596 kJ/mol
# Density = 1.800710 g / cm^3
# Si number density = 18.048175 Si / 1000 Ang^3
#
#
#
# Elastic Constant Matrix: (Units=GPa)
#
#
# Indices 1 2 3 4 5 6 
#
# 1 -16.9583 194.9111 108.7474 0.0000 54.8213 0.0000
# 2 194.9111 -133.5063 33.4592 0.0000 21.3244 0.0000
# 3 108.7474 33.4592 61.8190 0.0000 22.3136 0.0000
# 4 0.0000 0.0000 0.0000 16.9533 0.0000 5.2079
# 5 54.8213 21.3244 22.3136 0.0000 16.3887 0.0000
# 6 0.0000 0.0000 0.0000 5.2079 0.0000 30.0987
#
#
#
# Elastic Compliance Matrix: (Units=1/GPa)
#
#
# Indices 1 2 3 4 5 6 
#
# 1 -0.006658 -0.004886 0.007911 0.000000 0.017859 0.000000
# 2 -0.004886 -0.009763 0.006675 0.000000 0.019958 0.000000
# 3 0.007911 0.006675 0.022286 0.000000 -0.065491 0.000000
# 4 0.000000 0.000000 0.000000 0.062297 0.000000 -0.010779
# 5 0.017859 0.019958 -0.065491 0.000000 0.064479 0.000000
# 6 0.000000 0.000000 0.000000 -0.010779 0.000000 0.035089
#
#
# Mechanical properties :
#
#
# Convention : Reuss Voigt Hill
#
# Bulk Modulus (GPa) = 39.57995 65.06553 52.32274
# Shear Modulus (GPa) = 31.89770 -15.69607 8.10082
#
# Velocity S-wave (km/s) = 4.20856 -2.95223 2.12089
# Velocity P-wave (km/s) = 6.75232 4.95060 5.92040
#
# Compressibility (1/GPa) = 0.02526532
#
# Stress axis : x y z
#
# Youngs Moduli (GPa) = -150.18588 -102.43265 44.87155
#
# Poissons Ratio (x) = -0.50045 -0.35499
# Poissons Ratio (y) = -0.73376 -0.29950
# Poissons Ratio (z) = 1.18816 0.68370
#
# Static dielectric constant tensor:
#      x y z
#    x 1.619840 0.000000 0.037920 
#    y 0.000000 1.588190 0.000000 
#    z 0.037920 0.000000 1.625170 
# 
# From -- ./inp_files/20527.got.cif
#   From: 2010.05.17/outbox.ucp.g08.bks.cvg/sg11_11_cif.got.tgz:20527.got - 2010.06.11 11:38:39.
