data_PCOD9167486
_publ_section_title
;
Structure prediction by ZEFSAII (Michael W. Deem and Ramdas Pophale) SiO2 
 PCOD9167486
Probable space group: P 21/M
;
_chemical_formula_sum "Si O2"
_cell_formula_units_Z 32
_cell_length_a 10.612834
_cell_length_b 7.509687
_cell_length_c 17.766826
_cell_angle_alpha 90.000000
_cell_angle_beta 58.087345
_cell_angle_gamma 90.000000
_cell_volume 1201.978065
_symmetry_space_group_name_H-M "P 21/M"
_symmetry_group_IT_number 11
_symmetry_cell_setting 'monoclinic'
loop_
_space_group_symop_operation_xyz
x,y,z
-x,1/2+y,-z
-x,-y,-z
x,1/2-y,z
loop_
_atom_site_type_symbol
_atom_site_label
_atom_site_fract_x
_atom_site_fract_y
_atom_site_fract_z
Si Si1 0.111159 0.463857 0.882649
Si Si2 0.442149 0.461761 0.751455
Si Si3 0.579147 0.961301 0.397230
Si Si4 0.134200 0.541661 0.615965
Si Si5 0.177507 0.538638 0.440636
Si Si6 0.191746 0.460123 0.263321
Si Si7 0.198525 0.544550 0.027118
Si Si8 0.481087 0.047160 0.105916
O O1 0.094592 0.250000 0.895432
O O2 0.266762 0.490374 0.793165
O O3 0.150313 0.537157 0.953684
O O4 0.958221 0.532519 0.892735
O O5 0.468657 0.250000 0.755915
O O6 0.504923 0.524491 0.651646
O O7 0.480560 0.553307 0.817029
O O8 0.586643 0.750000 0.384950
O O9 0.500000 0.000000 0.500000
O O10 0.744466 0.029288 0.358581
O O11 0.104619 0.750000 0.609418
O O12 0.208110 0.468482 0.515591
O O13 0.974497 0.463418 0.688580
O O14 0.209186 0.750000 0.429353
O O15 0.228727 0.476276 0.341379
O O16 0.000000 0.500000 0.500000
O O17 0.189875 0.250000 0.246611
O O18 0.316236 0.535673 0.166450
O O19 0.211911 0.750000 0.045352
O O20 0.367029 0.467773 0.978554
O O21 0.471249 0.250000 0.081918
#
# Coordination Sequence:
#
# PCOD9167486 Si02
#       8
#     4   4   4   4   4   4   4   4
#     4   8  13  24  42  61  87 120 149 178 217 265
#     4   9  19  33  46  65  92 122 155 190 228 270
#     4  11  24  38  51  66  88 118 156 198 234 270
#     4   9  19  35  50  65  87 116 152 192 229 267
#     4   9  17  29  46  66  87 111 144 186 227 269
#     4   9  18  31  47  69  95 120 147 184 227 272
#     4   8  13  22  39  65  93 119 145 175 214 265
#     4   9  17  28  45  72 101 123 147 180 222 272
#
# _framework density 26.622781
#
# number of rings (size 3 to 8) (size 9 to 14) (size 15 to 20)
#    0.000    3.000    0.000    1.500    1.750    4.000 
#    0.000    0.000    0.000    0.000    0.000    0.875 
#    0.000    0.000    0.000    0.000    0.000    0.000 
#
# Total GULP energy -178405.473602 kJ/mol
# GULP energy per Si atom -5575.171050 kJ/mol
# Density = 2.656219 g / cm^3
# Si number density = 26.622781 Si / 1000 Ang^3
#
#
#
# Elastic Constant Matrix: (Units=GPa)
#
#
# Indices 1 2 3 4 5 6 
#
# 1 91.0041 11.1647 33.7825 0.0000 -14.5838 0.0000
# 2 11.1647 76.3719 13.6065 0.0000 -0.6247 0.0000
# 3 33.7825 13.6065 111.0320 0.0000 -20.1204 0.0000
# 4 0.0000 0.0000 0.0000 5.1979 0.0000 -0.8050
# 5 -14.5838 -0.6247 -20.1204 0.0000 58.8579 0.0000
# 6 0.0000 0.0000 0.0000 -0.8050 0.0000 19.3241
#
#
#
# Elastic Compliance Matrix: (Units=1/GPa)
#
#
# Indices 1 2 3 4 5 6 
#
# 1 0.012704 -0.001244 -0.003353 0.000000 0.001989 0.000000
# 2 -0.001244 0.013519 -0.001395 0.000000 -0.000641 0.000000
# 3 -0.003353 -0.001395 0.010707 0.000000 0.002815 0.000000
# 4 0.000000 0.000000 0.000000 0.193637 0.000000 0.008067
# 5 0.001989 -0.000641 0.002815 0.000000 0.018438 0.000000
# 6 0.000000 0.000000 0.000000 0.008067 0.000000 0.052085
#
#
# Mechanical properties :
#
#
# Convention : Reuss Voigt Hill
#
# Bulk Modulus (GPa) = 40.08174 43.94614 42.01394
# Shear Modulus (GPa) = 15.55750 31.33293 23.44522
#
# Velocity S-wave (km/s) = 2.41999 3.43435 2.97079
# Velocity P-wave (km/s) = 4.78504 5.68059 5.25194
#
# Compressibility (1/GPa) = 0.02494902
#
# Stress axis : x y z
#
# Youngs Moduli (GPa) = 78.71326 73.97086 93.39295
#
# Poissons Ratio (x) = 0.09199 0.31311
# Poissons Ratio (y) = 0.09789 0.13024
# Poissons Ratio (z) = 0.26390 0.10315
#
# Static dielectric constant tensor:
#      x y z
#    x 2.149880 0.000000 -0.081430 
#    y 0.000000 2.061070 0.000000 
#    z -0.081430 0.000000 2.223330 
# 
# From -- ./inp_files/42550.got.cif
#   From: 2010.05.17/outbox.cif.g08.bks.cpg/sg11_22_cif.got.tgz:42550.got - 2010.06.03 12:22:45.
