data_PCOD9167517
_publ_section_title
;
Structure prediction by ZEFSAII (Michael W. Deem and Ramdas Pophale) SiO2 
 PCOD9167517
Probable space group: P 21/M
;
_chemical_formula_sum "Si O2"
_cell_formula_units_Z 30
_cell_length_a 16.151034
_cell_length_b 13.944912
_cell_length_c 5.105307
_cell_angle_alpha 90.000000
_cell_angle_beta 80.009898
_cell_angle_gamma 90.000000
_cell_volume 1132.407282
_symmetry_space_group_name_H-M "P 21/M"
_symmetry_group_IT_number 11
_symmetry_cell_setting 'monoclinic'
loop_
_space_group_symop_operation_xyz
x,y,z
-x,1/2+y,-z
-x,-y,-z
x,1/2-y,z
loop_
_atom_site_type_symbol
_atom_site_label
_atom_site_fract_x
_atom_site_fract_y
_atom_site_fract_z
Si Si1 0.509884 0.914699 0.205340
Si Si2 0.611301 0.750000 0.853270
Si Si3 0.095868 0.884274 0.545752
Si Si4 0.671155 0.138252 0.479216
Si Si5 0.183646 0.386063 0.994774
Si Si6 0.328399 0.419105 0.539951
Si Si7 0.195760 0.885470 0.995575
Si Si8 0.913127 0.883847 0.452166
O O1 0.425958 0.876002 0.392485
O O2 0.550300 0.830864 0.017006
O O3 0.580211 0.937922 0.385105
O O4 0.500000 0.000000 0.000000
O O5 0.663731 0.836908 0.677703
O O6 0.130427 0.853240 0.807218
O O7 0.004254 0.853554 0.501297
O O8 0.088686 0.000031 0.556476
O O9 0.164593 0.853639 0.294112
O O10 0.688918 0.250000 0.554763
O O11 0.710919 0.137871 0.161257
O O12 0.703023 0.026118 0.536780
O O13 0.272028 0.370551 0.801562
O O14 0.184658 0.500782 0.008939
O O15 0.113434 0.354863 0.823304
O O16 0.155486 0.353834 0.295146
#
# Coordination Sequence:
#
# PCOD9167517 Si02
#       8
#     4   2   4   4   4   4   4   4
#     4  12  26  45  72 103 140 188 240 297 362 431
#     4  12  26  46  76 100 140 192 232 306 370 426
#     4   9  16  31  54  88 132 170 230 281 351 416
#     4  11  24  44  68 103 139 187 243 291 356 428
#     4   9  19  33  58  92 135 172 227 283 352 421
#     4  11  26  45  68 105 146 185 237 302 362 431
#     4   9  19  34  54  89 131 177 222 288 345 419
#     4   9  16  29  56  93 127 176 223 287 345 423
#
# _framework density 26.492236999999999
#
# number of rings (size 3 to 8) (size 9 to 14) (size 15 to 20)
#    0.000    1.867    2.000    1.600    1.867    6.400 
#    0.000    2.000    0.000    0.000   10.400    0.000 
#    0.000    0.000    0.000    0.000    0.000    0.000 
#
# Total GULP energy -167096.938479 kJ/mol
# GULP energy per Si atom -5569.897949 kJ/mol
# Density = 2.643194 g / cm^3
# Si number density = 26.492237 Si / 1000 Ang^3
#
#
#
# Elastic Constant Matrix: (Units=GPa)
#
#
# Indices 1 2 3 4 5 6 
#
# 1 122.6471 20.4181 30.3170 0.0000 -7.2457 0.0000
# 2 20.4181 248.6325 40.7796 0.0000 -6.6911 0.0000
# 3 30.3170 40.7796 82.7925 0.0000 -4.7201 0.0000
# 4 0.0000 0.0000 0.0000 -10.1935 0.0000 0.3604
# 5 -7.2457 -6.6911 -4.7201 0.0000 43.5467 0.0000
# 6 0.0000 0.0000 0.0000 0.3604 0.0000 -43.8946
#
#
#
# Elastic Compliance Matrix: (Units=1/GPa)
#
#
# Indices 1 2 3 4 5 6 
#
# 1 0.009031 -0.000195 -0.003146 0.000000 0.001132 0.000000
# 2 -0.000195 0.004388 -0.002066 0.000000 0.000418 0.000000
# 3 -0.003146 -0.002066 0.014288 0.000000 0.000708 0.000000
# 4 0.000000 0.000000 0.000000 -0.098131 0.000000 -0.000806
# 5 0.001132 0.000418 0.000708 0.000000 0.023293 0.000000
# 6 0.000000 0.000000 0.000000 -0.000806 0.000000 -0.022788
#
#
# Mechanical properties :
#
#
# Convention : Reuss Voigt Hill
#
# Bulk Modulus (GPa) = 59.19859 70.78907 64.99383
# Shear Modulus (GPa) = -93.50483 22.06222 -35.72130
#
# Velocity S-wave (km/s) = -5.94742 2.88892 -3.67600
# Velocity P-wave (km/s) = 4.97677 6.15683 2.56303
#
# Compressibility (1/GPa) = 0.01689230
#
# Stress axis : x y z
#
# Youngs Moduli (GPa) = 110.73574 227.88679 69.98647
#
# Poissons Ratio (x) = 0.04447 0.22019
# Poissons Ratio (y) = 0.02161 0.14460
# Poissons Ratio (z) = 0.34839 0.47084
#
# Static dielectric constant tensor:
#      x y z
#    x 2.120240 0.000000 0.031780 
#    y 0.000000 2.075540 0.000000 
#    z 0.031780 0.000000 2.035420 
# 
# From -- ./inp_files/9013.got.cif
#   From: 2010.05.17/outbox.cif.g08.bks.cpg/sg11_5_cif.got.tgz:9013.got - 2010.06.03 12:22:45.
