data_PCOD9167980
_publ_section_title
;
Structure prediction by ZEFSAII (Michael W. Deem and Ramdas Pophale) SiO2 
 PCOD9167980
Probable space group: P 21/M
;
_chemical_formula_sum "Si O2"
_cell_formula_units_Z 32
_cell_length_a 12.000000
_cell_length_b 15.000000
_cell_length_c 18.000000
_cell_angle_alpha 90.000000
_cell_angle_beta 30.000000
_cell_angle_gamma 90.000000
_cell_volume 1620.000000
_symmetry_space_group_name_H-M "P 21/M"
_symmetry_group_IT_number 11
_symmetry_cell_setting 'monoclinic'
loop_
_space_group_symop_operation_xyz
x,y,z
-x,1/2+y,-z
-x,-y,-z
x,1/2-y,z
loop_
_atom_site_type_symbol
_atom_site_label
_atom_site_fract_x
_atom_site_fract_y
_atom_site_fract_z
Si Si1 0.183505 0.854031 0.117076
Si Si2 0.052594 0.517159 0.663726
Si Si3 0.230261 0.852713 0.916710
Si Si4 0.499058 0.031874 0.356765
Si Si5 0.744650 0.357145 0.327941
Si Si6 0.678351 0.645181 0.893858
Si Si7 0.772465 0.643574 0.004735
Si Si8 0.699593 0.646445 0.205511
O O1 0.099188 0.750000 0.170359
O O2 0.032706 0.930589 0.241278
O O3 0.230851 0.874229 0.003545
O O4 0.425445 0.856702 0.014908
O O5 0.236085 0.484007 0.499350
O O6 0.184848 0.587727 0.640171
O O7 0.843167 0.576602 0.757443
O O8 0.306095 0.750000 0.861213
O O9 0.376247 0.918550 0.782742
O O10 0.967025 0.854647 0.051475
O O11 0.541962 0.095792 0.402992
O O12 0.608973 0.934268 0.306810
O O13 0.719953 0.250000 0.352917
O O14 0.962277 0.373095 0.149621
O O15 0.754873 0.750000 0.845926
O O16 0.686677 0.612734 0.974760
O O17 0.750858 0.750000 0.016949
O O18 0.644846 0.617032 0.152433
O O19 0.630747 0.750000 0.260966
#
# Coordination Sequence:
#
# PCOD9167980 Si02
#       8
#     4   4   4   4   4   4   4   4
#     4  10  22  40  62  85 111 152 201 249 290 341
#     4  11  23  37  56  90 116 151 192 244 297 343
#     4  10  21  37  58  83 113 152 195 236 289 349
#     4  12  23  34  55  88 122 156 183 232 300 353
#     4  10  20  36  57  81 116 157 196 230 279 346
#     4   9  19  38  64  84 109 151 204 249 288 338
#     4   8  15  30  55  83 103 139 195 242 278 319
#     4  10  20  34  55  84 117 152 194 238 283 347
#
# _framework density 19.753086
#
# number of rings (size 3 to 8) (size 9 to 14) (size 15 to 20)
#    0.000    2.000    1.250    3.375    3.500    2.000 
#    0.000    1.875    0.000    0.000    0.000    0.000 
#    0.000    0.000    0.000    0.000    0.000    0.000 
#
# Total GULP energy -178396.803779 kJ/mol
# GULP energy per Si atom -5574.900118 kJ/mol
# Density = 1.970813 g / cm^3
# Si number density = 19.753086 Si / 1000 Ang^3
#
#
#
# Elastic Constant Matrix: (Units=GPa)
#
#
# Indices 1 2 3 4 5 6 
#
# 1 42.8682 4.3443 12.9311 0.0000 -3.0629 0.0000
# 2 4.3443 129.6268 64.4819 0.0000 3.9261 0.0000
# 3 12.9311 64.4819 70.7294 0.0000 -1.8082 0.0000
# 4 0.0000 0.0000 0.0000 7.0392 0.0000 -4.0983
# 5 -3.0629 3.9261 -1.8082 0.0000 7.3864 0.0000
# 6 0.0000 0.0000 0.0000 -4.0983 0.0000 23.3241
#
#
#
# Elastic Compliance Matrix: (Units=1/GPa)
#
#
# Indices 1 2 3 4 5 6 
#
# 1 0.025606 0.002064 -0.006360 0.000000 0.007964 0.000000
# 2 0.002064 0.015180 -0.014492 0.000000 -0.010760 0.000000
# 3 -0.006360 -0.014492 0.028822 0.000000 0.012121 0.000000
# 4 0.000000 0.000000 0.000000 0.158252 0.000000 0.027806
# 5 0.007964 -0.010760 0.012121 0.000000 0.147373 0.000000
# 6 0.000000 0.000000 0.000000 0.027806 0.000000 0.047760
#
#
# Mechanical properties :
#
#
# Convention : Reuss Voigt Hill
#
# Bulk Modulus (GPa) = 31.21684 45.19320 38.20502
# Shear Modulus (GPa) = 10.61022 18.31440 14.46231
#
# Velocity S-wave (km/s) = 2.32015 3.04824 2.70877
# Velocity P-wave (km/s) = 4.79742 5.94288 5.40060
#
# Compressibility (1/GPa) = 0.03203399
#
# Stress axis : x y z
#
# Youngs Moduli (GPa) = 39.05406 65.87673 34.69515
#
# Poissons Ratio (x) = -0.13598 0.22065
# Poissons Ratio (y) = -0.08062 0.50279
# Poissons Ratio (z) = 0.24837 0.95465
#
# Static dielectric constant tensor:
#      x y z
#    x 1.788740 0.000000 0.029130 
#    y 0.000000 1.715390 0.000000 
#    z 0.029130 0.000000 1.701600 
# 
# From -- ./inp_files/59466.got.cif
#   From: 2010.05.17/outbox.ucp.g08.bks.cvg/sg11_30_cif.got.tgz:59466.got - 2010.06.11 11:38:39.
