data_PCOD9167012
_publ_section_title
;
Structure prediction by ZEFSAII (Michael W. Deem and Ramdas Pophale) SiO2 
 PCOD9167012
Probable space group: P 21/M
;
_chemical_formula_sum "Si O2"
_cell_formula_units_Z 26
_cell_length_a 8.215869
_cell_length_b 20.597286
_cell_length_c 8.220366
_cell_angle_alpha 90.000000
_cell_angle_beta 119.322440
_cell_angle_gamma 90.000000
_cell_volume 1212.858535
_symmetry_space_group_name_H-M "P 21/M"
_symmetry_group_IT_number 11
_symmetry_cell_setting 'monoclinic'
loop_
_space_group_symop_operation_xyz
x,y,z
-x,1/2+y,-z
-x,-y,-z
x,1/2-y,z
loop_
_atom_site_type_symbol
_atom_site_label
_atom_site_fract_x
_atom_site_fract_y
_atom_site_fract_z
Si Si1 0.038513 0.133982 0.869248
Si Si2 0.774163 0.250000 0.833303
Si Si3 0.745151 0.030692 0.826543
Si Si4 0.479476 0.142476 0.588361
Si Si5 0.892600 0.600196 0.442845
Si Si6 0.237317 0.536232 0.776750
Si Si7 0.594298 0.898068 0.782621
O O1 0.019846 0.138923 0.665937
O O2 0.933834 0.192269 0.905901
O O3 0.934920 0.066158 0.864802
O O4 0.255629 0.131928 0.021737
O O5 0.610646 0.194070 0.738069
O O6 0.580605 0.073858 0.671189
O O7 0.710066 0.957168 0.754542
O O8 0.733692 0.031761 0.016420
O O9 0.271667 0.140075 0.554997
O O10 0.471868 0.150204 0.390127
O O11 0.802832 0.534428 0.320904
O O12 0.055827 0.578671 0.643832
O O13 0.418011 0.569580 0.784775
#
# Coordination Sequence:
#
# PCOD9167012 Si02
#       7
#     4   2   4   4   4   4   4
#     4  11  24  41  66  90 130 167 217 258 313 371
#     4  10  26  48  62  86 118 174 222 270 302 364
#     4  11  21  38  61  99 135 165 200 257 317 384
#     4  11  24  41  66  89 130 167 216 255 314 372
#     4  11  23  38  62  98 130 173 198 258 314 384
#     4  11  22  36  61 101 143 157 200 248 327 390
#     4  12  22  38  64  99 129 166 203 259 322 380
#
# _framework density 21.436961
#
# number of rings (size 3 to 8) (size 9 to 14) (size 15 to 20)
#    0.000    0.923    3.077    5.077    4.308    1.231 
#    0.000    0.000    0.000   16.615    0.000    0.000 
#    0.000    0.000    0.000    0.000    0.000    0.000 
#
# Total GULP energy -144956.393588 kJ/mol
# GULP energy per Si atom -5575.245907 kJ/mol
# Density = 2.138817 g / cm^3
# Si number density = 21.436961 Si / 1000 Ang^3
#
#
#
# Elastic Constant Matrix: (Units=GPa)
#
#
# Indices 1 2 3 4 5 6 
#
# 1 102.7355 0.4312 23.5407 0.0000 19.1631 0.0000
# 2 0.4312 40.5687 -10.8907 0.0000 14.1265 0.0000
# 3 23.5407 -10.8907 82.2893 0.0000 15.2977 0.0000
# 4 0.0000 0.0000 0.0000 12.9319 0.0000 18.4333
# 5 19.1631 14.1265 15.2977 0.0000 37.7978 0.0000
# 6 0.0000 0.0000 0.0000 18.4333 0.0000 16.1440
#
#
#
# Elastic Compliance Matrix: (Units=1/GPa)
#
#
# Indices 1 2 3 4 5 6 
#
# 1 0.011185 0.001161 -0.002067 0.000000 -0.005268 0.000000
# 2 0.001161 0.031702 0.006678 0.000000 -0.015139 0.000000
# 3 -0.002067 0.006678 0.015027 0.000000 -0.007530 0.000000
# 4 0.000000 0.000000 0.000000 -0.123223 0.000000 0.140696
# 5 -0.005268 -0.015139 -0.007530 0.000000 0.037833 0.000000
# 6 0.000000 0.000000 0.000000 0.140696 0.000000 -0.098706
#
#
# Mechanical properties :
#
#
# Convention : Reuss Voigt Hill
#
# Bulk Modulus (GPa) = 14.39733 27.97289 21.18511
# Shear Modulus (GPa) = -43.64045 27.54222 -8.04911
#
# Velocity S-wave (km/s) = -4.51683 3.58830 -1.93983
# Velocity P-wave (km/s) = 4.52456 5.49955 2.21059
#
# Compressibility (1/GPa) = 0.06945733
#
# Stress axis : x y z
#
# Youngs Moduli (GPa) = 89.40478 31.54422 66.54636
#
# Poissons Ratio (x) = -0.03661 0.13754
# Poissons Ratio (y) = -0.10377 -0.44439
# Poissons Ratio (z) = 0.18478 -0.21065
#
# Static dielectric constant tensor:
#      x y z
#    x 1.795150 0.000000 -0.005570 
#    y 0.000000 1.765620 0.000000 
#    z -0.005570 0.000000 1.770420 
# 
# From -- ./inp_files/14487.got.cif
#   From: 2010.05.17/outbox.cif.g08.bks.cpg/sg11_8_cif.got.tgz:14487.got - 2010.06.03 12:22:45.
