data_PCOD9167638
_publ_section_title
;
Structure prediction by ZEFSAII (Michael W. Deem and Ramdas Pophale) SiO2 
 PCOD9167638
Probable space group: P 21/M
;
_chemical_formula_sum "Si O2"
_cell_formula_units_Z 28
_cell_length_a 26.611982
_cell_length_b 7.334229
_cell_length_c 18.097774
_cell_angle_alpha 90.000000
_cell_angle_beta 19.396574
_cell_angle_gamma 90.000000
_cell_volume 1173.091561
_symmetry_space_group_name_H-M "P 21/M"
_symmetry_group_IT_number 11
_symmetry_cell_setting 'monoclinic'
loop_
_space_group_symop_operation_xyz
x,y,z
-x,1/2+y,-z
-x,-y,-z
x,1/2-y,z
loop_
_atom_site_type_symbol
_atom_site_label
_atom_site_fract_x
_atom_site_fract_y
_atom_site_fract_z
Si Si1 0.423196 0.527508 0.781422
Si Si2 0.612054 0.966914 0.775328
Si Si3 0.870552 0.967227 0.518052
Si Si4 0.972930 0.028540 0.924477
Si Si5 0.168268 0.527754 0.034708
Si Si6 0.753399 0.961034 0.366226
Si Si7 0.651364 0.032513 0.957687
O O1 0.428877 0.750000 0.769264
O O2 0.593192 0.462200 0.561723
O O3 0.332237 0.466297 0.835332
O O4 0.329284 0.474968 0.985118
O O5 0.631713 0.750000 0.736498
O O6 0.769101 0.038827 0.590133
O O7 0.510758 0.037984 0.848432
O O8 0.500000 0.000000 0.000000
O O9 0.873051 0.750000 0.505731
O O10 0.041548 0.028149 0.270479
O O11 0.216206 0.002773 0.284756
O O12 0.978997 0.250000 0.915014
O O13 0.864161 0.971129 0.142199
O O14 0.896731 0.968218 0.954033
O O15 0.143261 0.965886 0.709647
O O16 0.173192 0.750000 0.025182
O O17 0.723029 0.750000 0.427512
O O18 0.637209 0.250000 0.978663
#
# Coordination Sequence:
#
# PCOD9167638 Si02
#       7
#     4   4   4   4   4   4   4
#     4   9  18  31  48  72  99 128 162 197 236 284
#     4   8  14  24  40  62  85 112 150 192 231 268
#     4   9  17  29  46  67  94 126 161 198 235 276
#     4   9  18  33  54  76  97 123 157 197 241 288
#     4   9  18  31  48  72  99 128 162 197 236 284
#     4   9  18  33  54  76  97 123 157 197 241 288
#     4   9  17  29  46  67  94 126 161 198 235 276
#
# _framework density 23.868554
#
# number of rings (size 3 to 8) (size 9 to 14) (size 15 to 20)
#    0.000    3.143    0.000    0.000    2.000    1.143 
#    0.000    1.429    0.000    1.714    0.000    0.000 
#    0.000    0.000    0.000    0.000    0.000    0.000 
#
# Total GULP energy -156170.674427 kJ/mol
# GULP energy per Si atom -5577.524087 kJ/mol
# Density = 2.381423 g / cm^3
# Si number density = 23.868554 Si / 1000 Ang^3
#
#
#
# Elastic Constant Matrix: (Units=GPa)
#
#
# Indices 1 2 3 4 5 6 
#
# 1 154.4572 1.4993 81.7367 0.0000 -45.1975 0.0000
# 2 1.4993 94.9896 -0.5277 0.0000 -7.0369 0.0000
# 3 81.7367 -0.5277 118.8383 0.0000 -35.1126 0.0000
# 4 0.0000 0.0000 0.0000 -5.0861 0.0000 18.3798
# 5 -45.1975 -7.0369 -35.1126 0.0000 40.1157 0.0000
# 6 0.0000 0.0000 0.0000 18.3798 0.0000 -13.5626
#
#
#
# Elastic Compliance Matrix: (Units=1/GPa)
#
#
# Indices 1 2 3 4 5 6 
#
# 1 0.012015 0.000416 -0.005720 0.000000 0.008603 0.000000
# 2 0.000416 0.010739 0.000616 0.000000 0.002891 0.000000
# 3 -0.005720 0.000616 0.014135 0.000000 0.006036 0.000000
# 4 0.000000 0.000000 0.000000 0.050450 0.000000 0.068368
# 5 0.008603 0.002891 0.006036 0.000000 0.040411 0.000000
# 6 0.000000 0.000000 0.000000 0.068368 0.000000 0.018919
#
#
# Mechanical properties :
#
#
# Convention : Reuss Voigt Hill
#
# Bulk Modulus (GPa) = 36.34773 59.30018 47.82396
# Shear Modulus (GPa) = 30.26374 23.33184 26.79779
#
# Velocity S-wave (km/s) = 3.56467 3.12991 3.35434
# Velocity P-wave (km/s) = 5.67484 6.16119 5.92301
#
# Compressibility (1/GPa) = 0.02751203
#
# Stress axis : x y z
#
# Youngs Moduli (GPa) = 83.23254 93.12266 70.74649
#
# Poissons Ratio (x) = -0.03873 0.40466
# Poissons Ratio (y) = -0.03462 -0.04358
# Poissons Ratio (z) = 0.47608 -0.05736
#
# Static dielectric constant tensor:
#      x y z
#    x 1.910820 0.000000 -0.026480 
#    y 0.000000 1.920530 0.000000 
#    z -0.026480 0.000000 1.908370 
# 
# From -- ./inp_files/24268.got.cif
#   From: 2010.05.17/outbox.cif.g08.bks.cpg/sg11_13_cif.got.tgz:24268.got - 2010.06.03 12:22:45.
