data_PCOD9167709
_publ_section_title
;
Structure prediction by ZEFSAII (Michael W. Deem and Ramdas Pophale) SiO2 
 PCOD9167709
Probable space group: P 21/M
;
_chemical_formula_sum "Si O2"
_cell_formula_units_Z 28
_cell_length_a 9.000000
_cell_length_b 9.000000
_cell_length_c 27.000000
_cell_angle_alpha 90.000000
_cell_angle_beta 40.000000
_cell_angle_gamma 90.000000
_cell_volume 1405.776502
_symmetry_space_group_name_H-M "P 21/M"
_symmetry_group_IT_number 11
_symmetry_cell_setting 'monoclinic'
loop_
_space_group_symop_operation_xyz
x,y,z
-x,1/2+y,-z
-x,-y,-z
x,1/2-y,z
loop_
_atom_site_type_symbol
_atom_site_label
_atom_site_fract_x
_atom_site_fract_y
_atom_site_fract_z
Si Si1 0.168824 0.580202 0.145125
Si Si2 0.050275 0.430516 0.362800
Si Si3 0.810063 0.929056 0.326725
Si Si4 0.536431 0.570360 0.214349
Si Si5 0.662777 0.577869 0.072153
Si Si6 0.996225 0.574384 0.901101
Si Si7 0.381503 0.068692 0.480522
O O1 0.132744 0.750000 0.135704
O O2 0.421323 0.577385 0.104950
O O3 0.172991 0.459282 0.100976
O O4 0.969607 0.551414 0.237377
O O5 0.041264 0.250000 0.366984
O O6 0.313135 0.491984 0.295293
O O7 0.947773 0.492908 0.336853
O O8 0.879221 0.502838 0.448127
O O9 0.790411 0.750000 0.340491
O O10 0.553801 0.003922 0.394028
O O11 0.505097 0.750000 0.223313
O O12 0.588882 0.515364 0.144450
O O13 0.779348 0.517217 0.174318
O O14 0.727878 0.750000 0.065130
O O15 0.867855 0.518744 0.984201
O O16 0.044753 0.750000 0.893604
O O17 0.381862 0.250000 0.480932
O O18 0.500000 0.000000 0.500000
#
# Coordination Sequence:
#
# PCOD9167709 Si02
#       7
#     4   4   4   4   4   4   4
#     4  10  20  37  58  80 110 150 188 225 275 331
#     4  11  20  32  52  81 112 141 181 227 276 326
#     4  10  18  32  54  79 110 145 184 226 272 324
#     4  11  21  38  59  79 109 149 187 228 278 332
#     4   9  19  37  59  81 108 142 187 235 278 326
#     4  11  23  37  54  82 114 145 185 233 279 328
#     4  10  18  29  48  77 112 144 178 221 273 324
#
# _framework density 19.917818
#
# number of rings (size 3 to 8) (size 9 to 14) (size 15 to 20)
#    0.000    1.714    1.429    6.429    0.000    1.143 
#    0.000    2.857    0.000    0.857    0.000    0.000 
#    0.000    0.000    0.000    0.000    0.000    0.000 
#
# Total GULP energy -156086.022418 kJ/mol
# GULP energy per Si atom -5574.500801 kJ/mol
# Density = 1.987248 g / cm^3
# Si number density = 19.917818 Si / 1000 Ang^3
#
#
#
# Elastic Constant Matrix: (Units=GPa)
#
#
# Indices 1 2 3 4 5 6 
#
# 1 20.6817 6.1860 -3.3794 0.0000 -5.8970 0.0000
# 2 6.1860 119.8523 36.8772 0.0000 -8.9817 0.0000
# 3 -3.3794 36.8772 128.0181 0.0000 -30.7051 0.0000
# 4 0.0000 0.0000 0.0000 33.9129 0.0000 -3.3002
# 5 -5.8970 -8.9817 -30.7051 0.0000 27.0977 0.0000
# 6 0.0000 0.0000 0.0000 -3.3002 0.0000 23.9507
#
#
#
# Elastic Compliance Matrix: (Units=1/GPa)
#
#
# Indices 1 2 3 4 5 6 
#
# 1 0.056025 -0.003648 0.007091 0.000000 0.019018 0.000000
# 2 -0.003648 0.009393 -0.003084 0.000000 -0.001175 0.000000
# 3 0.007091 -0.003084 0.012375 0.000000 0.014544 0.000000
# 4 0.000000 0.000000 0.000000 0.029888 0.000000 0.004118
# 5 0.019018 -0.001175 0.014544 0.000000 0.057133 0.000000
# 6 0.000000 0.000000 0.000000 0.004118 0.000000 0.042320
#
#
# Mechanical properties :
#
#
# Convention : Reuss Voigt Hill
#
# Bulk Modulus (GPa) = 12.73705 38.65775 25.69740
# Shear Modulus (GPa) = 21.49750 32.25015 26.87382
#
# Velocity S-wave (km/s) = 3.28885 4.02825 3.67718
# Velocity P-wave (km/s) = 4.56407 6.40987 5.56404
#
# Compressibility (1/GPa) = 0.07851111
#
# Stress axis : x y z
#
# Youngs Moduli (GPa) = 17.84926 106.46549 80.80655
#
# Poissons Ratio (x) = 0.38843 -0.57303
# Poissons Ratio (y) = 0.06512 0.24919
# Poissons Ratio (z) = -0.12658 0.32832
#
# Static dielectric constant tensor:
#      x y z
#    x 1.770080 0.000000 -0.015460 
#    y 0.000000 1.691460 0.000000 
#    z -0.015460 0.000000 1.725620 
# 
# From -- ./inp_files/70854.got.cif
#   From: 2010.05.17/outbox.ucp.g08.bks.cvg/sg11_36_cif.got.tgz:70854.got - 2010.06.11 11:38:39.
