data_PCOD9167666
_publ_section_title
;
Structure prediction by ZEFSAII (Michael W. Deem and Ramdas Pophale) SiO2 
 PCOD9167666
Probable space group: P 21/M
;
_chemical_formula_sum "Si O2"
_cell_formula_units_Z 32
_cell_length_a 13.369373
_cell_length_b 16.832115
_cell_length_c 16.771530
_cell_angle_alpha 90.000000
_cell_angle_beta 25.201646
_cell_angle_gamma 90.000000
_cell_volume 1607.065067
_symmetry_space_group_name_H-M "P 21/M"
_symmetry_group_IT_number 11
_symmetry_cell_setting 'monoclinic'
loop_
_space_group_symop_operation_xyz
x,y,z
-x,1/2+y,-z
-x,-y,-z
x,1/2-y,z
loop_
_atom_site_type_symbol
_atom_site_label
_atom_site_fract_x
_atom_site_fract_y
_atom_site_fract_z
Si Si1 0.817878 0.653377 0.090872
Si Si2 0.903730 0.657288 0.852896
Si Si3 0.091919 0.659087 0.412600
Si Si4 0.361538 0.846568 0.728765
Si Si5 0.018359 0.573425 0.617528
Si Si6 0.344882 0.435557 0.350973
Si Si7 0.389060 0.982045 0.163991
Si Si8 0.463981 0.843412 0.480660
O O1 0.805093 0.750000 0.097231
O O2 0.790262 0.629576 0.018055
O O3 0.084168 0.633602 0.924604
O O4 0.629236 0.623402 0.291422
O O5 0.841995 0.750000 0.882865
O O6 0.874065 0.600811 0.798489
O O7 0.187971 0.654045 0.658809
O O8 0.112758 0.750000 0.376029
O O9 0.080339 0.648339 0.517356
O O10 0.323853 0.609236 0.223095
O O11 0.863484 0.622609 0.531699
O O12 0.377731 0.750000 0.721099
O O13 0.488363 0.887078 0.711088
O O14 0.479788 0.874211 0.559801
O O15 0.229692 0.511828 0.479236
O O16 0.862798 0.523265 0.668632
O O17 0.478304 0.473374 0.178161
O O18 0.500000 0.000000 0.000000
O O19 0.526394 0.750000 0.440672
#
# Coordination Sequence:
#
# PCOD9167666 Si02
#       8
#     4   4   4   4   4   4   4   4
#     4   8  15  29  46  70 104 133 164 210 260 302
#     4   9  16  29  51  74  98 131 171 211 252 305
#     4   9  17  33  56  76  97 130 178 215 244 310
#     4   9  16  29  51  74  98 131 171 211 252 305
#     4   9  18  33  52  71  98 136 166 206 262 309
#     4   9  18  33  52  71  98 136 166 206 262 309
#     4   9  19  37  53  72 109 142 162 205 276 320
#     4   8  15  29  48  70 101 134 162 209 262 297
#
# _framework density 19.912074
#
# number of rings (size 3 to 8) (size 9 to 14) (size 15 to 20)
#    0.000    3.250    0.000    3.750    0.000    0.000 
#    9.000    6.250    0.000    1.500    0.000    0.000 
#    0.000    0.000    0.000    0.000    0.000    0.000 
#
# Total GULP energy -178163.303766 kJ/mol
# GULP energy per Si atom -5567.603243 kJ/mol
# Density = 1.986675 g / cm^3
# Si number density = 19.912074 Si / 1000 Ang^3
#
#
#
# Elastic Constant Matrix: (Units=GPa)
#
#
# Indices 1 2 3 4 5 6 
#
# 1 87.2617 41.0569 30.5450 0.0000 18.5510 0.0000
# 2 41.0569 75.1771 20.6798 0.0000 10.4565 0.0000
# 3 30.5450 20.6798 96.1687 0.0000 37.2892 0.0000
# 4 0.0000 0.0000 0.0000 13.4528 0.0000 0.2646
# 5 18.5510 10.4565 37.2892 0.0000 28.1445 0.0000
# 6 0.0000 0.0000 0.0000 0.2646 0.0000 35.0792
#
#
#
# Elastic Compliance Matrix: (Units=1/GPa)
#
#
# Indices 1 2 3 4 5 6 
#
# 1 0.017093 -0.008096 -0.000999 0.000000 -0.006935 0.000000
# 2 -0.008096 0.018060 -0.001603 0.000000 0.000750 0.000000
# 3 -0.000999 -0.001603 0.021746 0.000000 -0.027557 0.000000
# 4 0.000000 0.000000 0.000000 0.074345 0.000000 -0.000561
# 5 -0.006935 0.000750 -0.027557 0.000000 0.076334 0.000000
# 6 0.000000 0.000000 0.000000 -0.000561 0.000000 0.028511
#
#
# Mechanical properties :
#
#
# Convention : Reuss Voigt Hill
#
# Bulk Modulus (GPa) = 28.16705 49.24122 38.70413
# Shear Modulus (GPa) = 18.56541 26.42370 22.49455
#
# Velocity S-wave (km/s) = 3.05679 3.64678 3.36474
# Velocity P-wave (km/s) = 5.16091 6.52035 5.88005
#
# Compressibility (1/GPa) = 0.03550248
#
# Stress axis : x y z
#
# Youngs Moduli (GPa) = 58.50415 55.37153 45.98622
#
# Poissons Ratio (x) = 0.44826 0.04595
# Poissons Ratio (y) = 0.47362 0.07372
# Poissons Ratio (z) = 0.05846 0.08877
#
# Static dielectric constant tensor:
#      x y z
#    x 1.728130 0.000000 -0.016670 
#    y 0.000000 1.727110 0.000000 
#    z -0.016670 0.000000 1.762770 
# 
# From -- ./inp_files/50651.got.cif
#   From: 2010.05.17/outbox.cif.g08.bks.cpg/sg11_26_cif.got.tgz:50651.got - 2010.06.03 12:22:45.
