data_PCOD9167296
_publ_section_title
;
Structure prediction by ZEFSAII (Michael W. Deem and Ramdas Pophale) SiO2 
 PCOD9167296
Probable space group: P 21/M
;
_chemical_formula_sum "Si O2"
_cell_formula_units_Z 32
_cell_length_a 13.943244
_cell_length_b 17.760240
_cell_length_c 11.527685
_cell_angle_alpha 90.000000
_cell_angle_beta 146.403231
_cell_angle_gamma 90.000000
_cell_volume 1579.611975
_symmetry_space_group_name_H-M "P 21/M"
_symmetry_group_IT_number 11
_symmetry_cell_setting 'monoclinic'
loop_
_space_group_symop_operation_xyz
x,y,z
-x,1/2+y,-z
-x,-y,-z
x,1/2-y,z
loop_
_atom_site_type_symbol
_atom_site_label
_atom_site_fract_x
_atom_site_fract_y
_atom_site_fract_z
Si Si1 0.528266 0.337792 0.501930
Si Si2 0.861819 0.032930 0.448789
Si Si3 0.768280 0.837038 0.611720
Si Si4 0.119327 0.602698 0.063793
Si Si5 0.562281 0.933866 0.218815
Si Si6 0.053378 0.445003 0.879155
Si Si7 0.582168 0.586391 0.837333
Si Si8 0.621066 0.339202 0.156926
O O1 0.540967 0.250000 0.481599
O O2 0.350473 0.348578 0.393765
O O3 0.522309 0.389608 0.382636
O O4 0.692952 0.359437 0.746539
O O5 0.801622 0.117691 0.362007
O O6 0.932098 0.030627 0.650552
O O7 0.690437 0.981750 0.265618
O O8 0.000000 0.000000 0.500000
O O9 0.751908 0.750000 0.560853
O O10 0.684185 0.890374 0.431365
O O11 0.967016 0.856052 0.839968
O O12 0.126326 0.518392 0.019831
O O13 0.053619 0.599153 0.130956
O O14 0.448502 0.998451 0.165291
O O15 0.452811 0.874438 0.035910
O O16 0.216259 0.401598 0.988264
O O17 0.507422 0.634541 0.868748
O O18 0.636088 0.250000 0.168172
#
# Coordination Sequence:
#
# PCOD9167296 Si02
#       8
#     4   4   4   4   4   4   4   4
#     4  11  24  40  61  93 131 172 215 265 331 389
#     4  11  22  41  66  95 125 165 216 271 324 389
#     4  11  23  41  62  91 130 170 212 262 323 385
#     4  11  22  39  62  92 130 168 213 265 317 383
#     4  11  22  41  66  90 121 169 216 266 319 390
#     4  11  22  37  63  96 124 162 219 266 314 381
#     4  11  22  40  67  93 125 169 215 269 323 388
#     4  11  24  43  65  93 128 168 216 272 336 394
#
# _framework density 20.258139
#
# number of rings (size 3 to 8) (size 9 to 14) (size 15 to 20)
#    0.000    1.000    2.500    6.375    1.750    1.000 
#    0.000    4.375    0.000    0.000    0.000    0.000 
#    0.000    0.000    0.000    0.000    0.000    0.000 
#
# Total GULP energy -178938.485246 kJ/mol
# GULP energy per Si atom -5591.827664 kJ/mol
# Density = 2.021203 g / cm^3
# Si number density = 20.258139 Si / 1000 Ang^3
#
#
#
# Elastic Constant Matrix: (Units=GPa)
#
#
# Indices 1 2 3 4 5 6 
#
# 1 39.3731 29.2508 16.8700 0.0000 3.4226 0.0000
# 2 29.2508 105.5468 13.8313 0.0000 -10.6443 0.0000
# 3 16.8700 13.8313 76.4789 0.0000 -7.9823 0.0000
# 4 0.0000 0.0000 0.0000 27.9573 0.0000 -3.1085
# 5 3.4226 -10.6443 -7.9823 0.0000 36.2395 0.0000
# 6 0.0000 0.0000 0.0000 -3.1085 0.0000 21.9197
#
#
#
# Elastic Compliance Matrix: (Units=1/GPa)
#
#
# Indices 1 2 3 4 5 6 
#
# 1 0.036558 -0.010005 -0.007085 0.000000 -0.007952 0.000000
# 2 -0.010005 0.012673 0.000412 0.000000 0.004758 0.000000
# 3 -0.007085 0.000412 0.014991 0.000000 0.004092 0.000000
# 4 0.000000 0.000000 0.000000 0.036342 0.000000 0.005154
# 5 -0.007952 0.004758 0.004092 0.000000 0.030644 0.000000
# 6 0.000000 0.000000 0.000000 0.005154 0.000000 0.046352
#
#
# Mechanical properties :
#
#
# Convention : Reuss Voigt Hill
#
# Bulk Modulus (GPa) = 32.39839 37.92254 35.16046
# Shear Modulus (GPa) = 22.60362 27.98642 25.29502
#
# Velocity S-wave (km/s) = 3.34395 3.72087 3.53744
# Velocity P-wave (km/s) = 5.56209 6.10083 5.83768
#
# Compressibility (1/GPa) = 0.03086573
#
# Stress axis : x y z
#
# Youngs Moduli (GPa) = 27.35416 78.90741 66.70722
#
# Poissons Ratio (x) = 0.78946 0.47259
# Poissons Ratio (y) = 0.27368 -0.02746
# Poissons Ratio (z) = 0.19379 -0.03248
#
# Static dielectric constant tensor:
#      x y z
#    x 1.729660 0.000000 -0.000280 
#    y 0.000000 1.706210 0.000000 
#    z -0.000280 0.000000 1.721120 
# 
# From -- ./inp_files/40038.got.cif
#   From: 2010.05.17/outbox.cif.g08.bks.cpg/sg11_21_cif.got.tgz:40038.got - 2010.06.03 12:22:45.
