data_PCOD9167281
_publ_section_title
;
Structure prediction by ZEFSAII (Michael W. Deem and Ramdas Pophale) SiO2 
 PCOD9167281
Probable space group: P 21/M
;
_chemical_formula_sum "Si O2"
_cell_formula_units_Z 26
_cell_length_a 14.633132
_cell_length_b 16.272308
_cell_length_c 11.728463
_cell_angle_alpha 90.000000
_cell_angle_beta 27.640832
_cell_angle_gamma 90.000000
_cell_volume 1295.619989
_symmetry_space_group_name_H-M "P 21/M"
_symmetry_group_IT_number 11
_symmetry_cell_setting 'monoclinic'
loop_
_space_group_symop_operation_xyz
x,y,z
-x,1/2+y,-z
-x,-y,-z
x,1/2-y,z
loop_
_atom_site_type_symbol
_atom_site_label
_atom_site_fract_x
_atom_site_fract_y
_atom_site_fract_z
Si Si1 0.316324 0.409250 0.600476
Si Si2 0.879745 0.250000 0.804698
Si Si3 0.004377 0.575138 0.222089
Si Si4 0.521416 0.896349 0.089470
Si Si5 0.365630 0.050116 0.799088
Si Si6 0.260354 0.250000 0.278047
Si Si7 0.563477 0.750000 0.673624
Si Si8 0.798183 0.492615 0.652982
O O1 0.101913 0.423185 0.782491
O O2 0.454822 0.486813 0.419135
O O3 0.319183 0.402539 0.733483
O O4 0.402602 0.329667 0.441421
O O5 0.916466 0.165265 0.833054
O O6 0.023210 0.250000 0.536148
O O7 0.649742 0.250000 0.033064
O O8 0.838710 0.550524 0.498844
O O9 0.175335 0.506687 0.037276
O O10 0.564232 0.891525 0.175837
O O11 0.296500 0.910260 0.297235
O O12 0.634441 0.826674 0.895926
O O13 0.637270 0.978507 0.922664
O O14 0.291265 0.250000 0.379821
O O15 0.000000 0.500000 0.500000
#
# Coordination Sequence:
#
# PCOD9167281 Si02
#       8
#     4   2   4   4   4   2   2   4
#     4  11  23  42  65  94 125 170 217 262 317 379
#     4  12  24  36  65 100 125 162 212 271 324 372
#     4  12  21  41  64  96 130 162 219 269 315 380
#     4  11  24  40  61  95 130 171 210 262 329 382
#     4  11  24  40  65  93 127 171 216 262 315 390
#     4  12  26  41  64  96 134 161 215 272 324 390
#     4  12  24  43  67  90 129 167 213 273 322 384
#     4  11  22  36  65  90 127 168 209 263 322 379
#
# _framework density 20.067612
#
# number of rings (size 3 to 8) (size 9 to 14) (size 15 to 20)
#    0.000    0.615    7.692    0.462    4.308    0.615 
#    0.000    0.000    0.000    0.000    0.000    0.000 
#    0.000    0.000    0.000    0.000    0.000    0.000 
#
# Total GULP energy -145083.731737 kJ/mol
# GULP energy per Si atom -5580.143528 kJ/mol
# Density = 2.002194 g / cm^3
# Si number density = 20.067612 Si / 1000 Ang^3
#
#
#
# Elastic Constant Matrix: (Units=GPa)
#
#
# Indices 1 2 3 4 5 6 
#
# 1 121.7001 22.5440 23.6235 0.0000 9.2368 0.0000
# 2 22.5440 51.3524 12.5640 0.0000 7.8903 0.0000
# 3 23.6235 12.5640 60.8383 0.0000 -7.6398 0.0000
# 4 0.0000 0.0000 0.0000 35.7699 0.0000 7.6487
# 5 9.2368 7.8903 -7.6398 0.0000 43.1664 0.0000
# 6 0.0000 0.0000 0.0000 7.6487 0.0000 18.8257
#
#
#
# Elastic Compliance Matrix: (Units=1/GPa)
#
#
# Indices 1 2 3 4 5 6 
#
# 1 0.009595 -0.003071 -0.003353 0.000000 -0.002085 0.000000
# 2 -0.003071 0.022427 -0.003959 0.000000 -0.004143 0.000000
# 3 -0.003353 -0.003959 0.019164 0.000000 0.004833 0.000000
# 4 0.000000 0.000000 0.000000 0.030616 0.000000 -0.012439
# 5 -0.002085 -0.004143 0.004833 0.000000 0.025225 0.000000
# 6 0.000000 0.000000 0.000000 -0.012439 0.000000 0.058173
#
#
# Mechanical properties :
#
#
# Convention : Reuss Voigt Hill
#
# Bulk Modulus (GPa) = 32.87546 39.03933 35.95739
# Shear Modulus (GPa) = 25.49634 31.22968 28.36301
#
# Velocity S-wave (km/s) = 3.56830 3.94918 3.76356
# Velocity P-wave (km/s) = 5.77884 6.34750 6.06984
#
# Compressibility (1/GPa) = 0.03041782
#
# Stress axis : x y z
#
# Youngs Moduli (GPa) = 104.22013 44.58943 52.18220
#
# Poissons Ratio (x) = 0.13696 0.17498
# Poissons Ratio (y) = 0.32011 0.20659
# Poissons Ratio (z) = 0.34948 0.17653
#
# Static dielectric constant tensor:
#      x y z
#    x 1.758700 0.000000 -0.018230 
#    y 0.000000 1.735280 0.000000 
#    z -0.018230 0.000000 1.733300 
# 
# From -- ./inp_files/39839.got.cif
#   From: 2010.05.17/outbox.cif.g08.bks.cpg/sg11_20_cif.got.tgz:39839.got - 2010.06.03 12:22:45.
