data_PCOD9167992
_publ_section_title
;
Structure prediction by ZEFSAII (Michael W. Deem and Ramdas Pophale) SiO2 
 PCOD9167992
Probable space group: P 21/M
;
_chemical_formula_sum "Si O2"
_cell_formula_units_Z 24
_cell_length_a 24.000000
_cell_length_b 9.000000
_cell_length_c 18.000000
_cell_angle_alpha 90.000000
_cell_angle_beta 20.000000
_cell_angle_gamma 90.000000
_cell_volume 1329.774317
_symmetry_space_group_name_H-M "P 21/M"
_symmetry_group_IT_number 11
_symmetry_cell_setting 'monoclinic'
loop_
_space_group_symop_operation_xyz
x,y,z
-x,1/2+y,-z
-x,-y,-z
x,1/2-y,z
loop_
_atom_site_type_symbol
_atom_site_label
_atom_site_fract_x
_atom_site_fract_y
_atom_site_fract_z
Si Si1 0.403485 0.081897 0.014936
Si Si2 0.542426 0.420319 0.560496
Si Si3 0.239319 0.076960 0.827478
Si Si4 0.102782 0.570543 0.670812
Si Si5 0.755646 0.080050 0.657428
Si Si6 0.571399 0.575723 0.675648
O O1 0.369070 0.250000 0.035329
O O2 0.577733 0.082181 0.840107
O O3 0.437223 0.980082 0.902208
O O4 0.269280 0.020239 0.239515
O O5 0.564631 0.250000 0.556663
O O6 0.696276 0.475446 0.319731
O O7 0.382274 0.428561 0.709787
O O8 0.522755 0.525663 0.655009
O O9 0.225863 0.250000 0.820286
O O10 0.067837 0.030517 0.077800
O O11 0.117469 0.750000 0.653657
O O12 0.121319 0.526950 0.560793
O O13 0.257049 0.502362 0.519516
O O14 0.793912 0.250000 0.630166
O O15 0.592324 0.750000 0.655972
#
# Coordination Sequence:
#
# PCOD9167992 Si02
#       6
#     4   4   4   4   4   4
#     4   9  16  27  44  67  97 130 162 198 240 286
#     4  10  20  35  54  74  98 129 164 202 245 294
#     4   9  19  36  56  75  96 127 165 202 244 295
#     4   9  18  33  52  75 102 129 161 203 247 289
#     4   8  14  25  43  68  97 127 157 193 240 290
#     4  11  21  32  49  74 102 131 165 204 244 287
#
# _framework density 18.048175000000001
#
# number of rings (size 3 to 8) (size 9 to 14) (size 15 to 20)
#    0.000    2.667    0.000    3.500    0.000    6.000 
#    0.000    0.000    0.000    1.000    0.000    0.000 
#    0.000    0.000    0.000    0.000    0.000    0.000 
#
# Total GULP energy -133778.845649 kJ/mol
# GULP energy per Si atom -5574.118569 kJ/mol
# Density = 1.800710 g / cm^3
# Si number density = 18.048175 Si / 1000 Ang^3
#
#
#
# Elastic Constant Matrix: (Units=GPa)
#
#
# Indices 1 2 3 4 5 6 
#
# 1 26.6026 15.5301 -8.4374 0.0000 17.1943 0.0000
# 2 15.5301 33.6723 -9.7590 0.0000 6.3368 0.0000
# 3 -8.4374 -9.7590 -92.1268 0.0000 -2.8103 0.0000
# 4 0.0000 0.0000 0.0000 22.9171 0.0000 6.3245
# 5 17.1943 6.3368 -2.8103 0.0000 12.6840 0.0000
# 6 0.0000 0.0000 0.0000 6.3245 0.0000 20.6160
#
#
#
# Elastic Compliance Matrix: (Units=1/GPa)
#
#
# Indices 1 2 3 4 5 6 
#
# 1 0.557566 -0.131223 -0.015999 0.000000 -0.693822 0.000000
# 2 -0.131223 0.062874 0.000884 0.000000 0.146670 0.000000
# 3 -0.015999 0.000884 -0.010063 0.000000 0.019017 0.000000
# 4 0.000000 0.000000 0.000000 0.047671 0.000000 -0.014625
# 5 -0.693822 0.146670 0.019017 0.000000 0.950320 0.000000
# 6 0.000000 0.000000 0.000000 -0.014625 0.000000 0.052992
#
#
# Mechanical properties :
#
#
# Convention : Reuss Voigt Hill
#
# Bulk Modulus (GPa) = 3.14762 -4.13160 -0.49199
# Shear Modulus (GPa) = 2.42726 9.29772 5.86249
#
# Velocity S-wave (km/s) = 1.16095 2.27218 1.80424
# Velocity P-wave (km/s) = 1.88278 2.14232 2.01673
#
# Compressibility (1/GPa) = 0.31770012
#
# Stress axis : x y z
#
# Youngs Moduli (GPa) = 1.79351 15.90482 -99.37337
#
# Poissons Ratio (x) = 2.08708 -1.58989
# Poissons Ratio (y) = 0.23535 0.08781
# Poissons Ratio (z) = 0.02869 -0.01405
#
# Static dielectric constant tensor:
#      x y z
#    x 1.623350 0.000000 0.020830 
#    y 0.000000 1.602790 0.000000 
#    z 0.020830 0.000000 1.604090 
# 
# From -- ./inp_files/46571.got.cif
#   From: 2010.05.17/outbox.ucp.g08.bks.cvg/sg11_24_cif.got.tgz:46571.got - 2010.06.11 11:38:39.
