data_PCOD9167547
_publ_section_title
;
Structure prediction by ZEFSAII (Michael W. Deem and Ramdas Pophale) SiO2 
 PCOD9167547
Probable space group: P 21/M
;
_chemical_formula_sum "Si O2"
_cell_formula_units_Z 30
_cell_length_a 11.782271
_cell_length_b 14.566306
_cell_length_c 9.362289
_cell_angle_alpha 90.000000
_cell_angle_beta 65.635775
_cell_angle_gamma 90.000000
_cell_volume 1463.696150
_symmetry_space_group_name_H-M "P 21/M"
_symmetry_group_IT_number 11
_symmetry_cell_setting 'monoclinic'
loop_
_space_group_symop_operation_xyz
x,y,z
-x,1/2+y,-z
-x,-y,-z
x,1/2-y,z
loop_
_atom_site_type_symbol
_atom_site_label
_atom_site_fract_x
_atom_site_fract_y
_atom_site_fract_z
Si Si1 0.764974 0.502796 0.159216
Si Si2 0.662112 0.102255 0.792578
Si Si3 0.302208 0.105128 0.317715
Si Si4 0.375352 0.353545 0.970238
Si Si5 0.134477 0.646243 0.079365
Si Si6 0.384680 0.750000 0.417655
Si Si7 0.136815 0.353798 0.660872
Si Si8 0.532702 0.094778 0.404609
O O1 0.806547 0.564906 0.271314
O O2 0.659006 0.429658 0.256516
O O3 0.705565 0.576716 0.081160
O O4 0.867292 0.437452 0.032189
O O5 0.745315 0.131051 0.883693
O O6 0.676208 0.171035 0.654700
O O7 0.698898 0.001983 0.721025
O O8 0.515515 0.107600 0.908037
O O9 0.317347 0.152124 0.157165
O O10 0.185499 0.132955 0.475078
O O11 0.423586 0.121838 0.352691
O O12 0.386959 0.250000 0.900605
O O13 0.138349 0.750000 0.014528
O O14 0.011147 0.641340 0.240495
O O15 0.445528 0.670532 0.488488
O O16 0.175405 0.250000 0.687825
O O17 0.500000 0.000000 0.500000
#
# Coordination Sequence:
#
# PCOD9167547 Si02
#       8
#     4   4   4   4   4   2   4   4
#     4  12  23  45  70  98 138 171 227 279 335 398
#     4  12  22  43  67  96 137 176 215 275 337 401
#     4  12  24  43  63 101 139 174 223 275 338 404
#     4  12  24  39  70 104 135 177 217 273 341 407
#     4  11  25  45  69  95 130 184 234 273 329 396
#     4  12  24  38  66 102 136 176 214 264 350 394
#     4  11  26  45  69  94 134 184 226 280 334 395
#     4  12  24  38  64 101 136 171 210 275 339 410
#
# _framework density 20.496057
#
# number of rings (size 3 to 8) (size 9 to 14) (size 15 to 20)
#    0.000    0.267    6.667    2.400    2.800    0.533 
#    0.000    0.000    0.000    0.000    0.000    0.000 
#    0.000    0.000    0.000    0.000    0.000    0.000 
#
# Total GULP energy -167244.863049 kJ/mol
# GULP energy per Si atom -5574.828768 kJ/mol
# Density = 2.044941 g / cm^3
# Si number density = 20.496057 Si / 1000 Ang^3
#
#
#
# Elastic Constant Matrix: (Units=GPa)
#
#
# Indices 1 2 3 4 5 6 
#
# 1 25.6234 13.8303 18.8945 0.0000 -5.8659 0.0000
# 2 13.8303 138.2095 11.5672 0.0000 -9.6579 0.0000
# 3 18.8945 11.5672 56.9473 0.0000 -16.3042 0.0000
# 4 0.0000 0.0000 0.0000 26.1118 0.0000 -0.2061
# 5 -5.8659 -9.6579 -16.3042 0.0000 36.6502 0.0000
# 6 0.0000 0.0000 0.0000 -0.2061 0.0000 44.4084
#
#
#
# Elastic Compliance Matrix: (Units=1/GPa)
#
#
# Indices 1 2 3 4 5 6 
#
# 1 0.053707 -0.003951 -0.017022 0.000000 -0.000018 0.000000
# 2 -0.003951 0.007720 0.000165 0.000000 0.001475 0.000000
# 3 -0.017022 0.000165 0.025677 0.000000 0.008742 0.000000
# 4 0.000000 0.000000 0.000000 0.038298 0.000000 0.000178
# 5 -0.000018 0.001475 0.008742 0.000000 0.031560 0.000000
# 6 0.000000 0.000000 0.000000 0.000178 0.000000 0.022519
#
#
# Mechanical properties :
#
#
# Convention : Reuss Voigt Hill
#
# Bulk Modulus (GPa) = 21.98344 34.37382 28.17863
# Shear Modulus (GPa) = 21.16314 33.19995 27.18155
#
# Velocity S-wave (km/s) = 3.21681 4.02907 3.64563
# Velocity P-wave (km/s) = 4.95441 6.20096 5.61240
#
# Compressibility (1/GPa) = 0.04548878
#
# Stress axis : x y z
#
# Youngs Moduli (GPa) = 18.61949 129.53311 38.94529
#
# Poissons Ratio (x) = 0.51178 0.66293
# Poissons Ratio (y) = 0.07357 -0.00643
# Poissons Ratio (z) = 0.31694 -0.02140
#
# Static dielectric constant tensor:
#      x y z
#    x 1.718800 0.000000 -0.082760 
#    y 0.000000 1.600730 0.000000 
#    z -0.082760 0.000000 2.034680 
# 
# From -- ./inp_files/17992.got.cif
#   From: 2010.05.17/outbox.cif.g08.bks.cpg/sg11_9_cif.got.tgz:17992.got - 2010.06.03 12:22:45.
