data_PCOD9167785
_publ_section_title
;
Structure prediction by ZEFSAII (Michael W. Deem and Ramdas Pophale) SiO2 
 PCOD9167785
Probable space group: P 21/M
;
_chemical_formula_sum "Si O2"
_cell_formula_units_Z 28
_cell_length_a 27.000000
_cell_length_b 9.000000
_cell_length_c 9.000000
_cell_angle_alpha 90.000000
_cell_angle_beta 140.000000
_cell_angle_gamma 90.000000
_cell_volume 1405.776502
_symmetry_space_group_name_H-M "P 21/M"
_symmetry_group_IT_number 11
_symmetry_cell_setting 'monoclinic'
loop_
_space_group_symop_operation_xyz
x,y,z
-x,1/2+y,-z
-x,-y,-z
x,1/2-y,z
loop_
_atom_site_type_symbol
_atom_site_label
_atom_site_fract_x
_atom_site_fract_y
_atom_site_fract_z
Si Si1 0.171647 0.577013 0.316069
Si Si2 0.250831 0.415777 0.944143
Si Si3 0.423423 0.079068 0.872192
Si Si4 0.947590 0.926356 0.148836
Si Si5 0.687535 0.073644 0.157280
Si Si6 0.276142 0.411171 0.347036
Si Si7 0.100465 0.924413 0.652604
O O1 0.156205 0.750000 0.301806
O O2 0.230027 0.525972 0.579311
O O3 0.226267 0.543697 0.299449
O O4 0.093420 0.496372 0.088184
O O5 0.228820 0.250000 0.843776
O O6 0.319518 0.483125 0.008981
O O7 0.181897 0.532269 0.775764
O O8 0.271053 0.409079 0.161568
O O9 0.434582 0.250000 0.945407
O O10 0.363095 0.079627 0.598602
O O11 0.379931 0.980866 0.893104
O O12 0.500000 0.000000 0.000000
O O13 0.939222 0.750000 0.124053
O O14 0.036721 0.963591 0.382508
O O15 0.911688 0.985213 0.222473
O O16 0.688203 0.250000 0.142683
O O17 0.245297 0.250000 0.333836
O O18 0.093117 0.750000 0.669388
#
# Coordination Sequence:
#
# PCOD9167785 Si02
#       7
#     4   4   4   4   4   4   4
#     4  10  19  32  53  78 104 139 185 229 271 320
#     4  11  21  35  55  81 110 144 182 223 273 326
#     4  10  20  38  62  87 113 141 175 218 264 319
#     4  10  19  31  49  75 106 140 183 230 276 320
#     4  10  22  38  56  81 112 145 180 222 270 323
#     4   9  19  34  55  81 109 140 178 221 266 318
#     4  10  20  32  49  75 107 143 181 228 276 319
#
# _framework density 19.917818
#
# number of rings (size 3 to 8) (size 9 to 14) (size 15 to 20)
#    0.000    2.000    1.429    2.571    0.000    4.571 
#    0.000    1.429    0.000    0.000    0.000    0.000 
#    0.000    0.000    0.000    0.000    0.000    0.000 
#
# Total GULP energy -155993.480783 kJ/mol
# GULP energy per Si atom -5571.195742 kJ/mol
# Density = 1.987248 g / cm^3
# Si number density = 19.917818 Si / 1000 Ang^3
#
#
#
# Elastic Constant Matrix: (Units=GPa)
#
#
# Indices 1 2 3 4 5 6 
#
# 1 27.8454 -14.9675 12.7026 0.0000 -4.4528 0.0000
# 2 -14.9675 9.0028 -19.3857 0.0000 -12.7960 0.0000
# 3 12.7026 -19.3857 -14.1003 0.0000 9.2127 0.0000
# 4 0.0000 0.0000 0.0000 13.7760 0.0000 -0.6282
# 5 -4.4528 -12.7960 9.2127 0.0000 10.6264 0.0000
# 6 0.0000 0.0000 0.0000 -0.6282 0.0000 18.8562
#
#
#
# Elastic Compliance Matrix: (Units=1/GPa)
#
#
# Indices 1 2 3 4 5 6 
#
# 1 0.003961 -0.031938 0.014961 0.000000 -0.049770 0.000000
# 2 -0.031938 -0.046197 -0.006607 0.000000 -0.063285 0.000000
# 3 0.014961 -0.006607 -0.031575 0.000000 0.025688 0.000000
# 4 0.000000 0.000000 0.000000 0.072700 0.000000 0.002422
# 5 -0.049770 -0.063285 0.025688 0.000000 -0.025226 0.000000
# 6 0.000000 0.000000 0.000000 0.002422 0.000000 0.053114
#
#
# Mechanical properties :
#
#
# Convention : Reuss Voigt Hill
#
# Bulk Modulus (GPa) = -8.26586 -2.28371 -5.27479
# Shear Modulus (GPa) = 148.72926 11.61164 80.17045
#
# Velocity S-wave (km/s) = 8.65064 2.41711 6.35122
# Velocity P-wave (km/s) = 9.77850 2.57698 7.15052
#
# Compressibility (1/GPa) = -0.12097951
#
# Stress axis : x y z
#
# Youngs Moduli (GPa) = 252.43793 -21.64636 -31.67014
#
# Poissons Ratio (x) = -0.69135 0.47381
# Poissons Ratio (y) = 8.06242 -0.20924
# Poissons Ratio (z) = -3.77669 -0.14301
#
# Static dielectric constant tensor:
#      x y z
#    x 1.635800 0.000000 -0.023940 
#    y 0.000000 1.681090 0.000000 
#    z -0.023940 0.000000 1.760030 
# 
# From -- ./inp_files/28371.got.cif
#   From: 2010.05.17/outbox.ucp.g08.bks.cvg/sg11_15_cif.got.tgz:28371.got - 2010.06.11 11:38:39.
