data_PCOD9167586
_publ_section_title
;
Structure prediction by ZEFSAII (Michael W. Deem and Ramdas Pophale) SiO2 
 PCOD9167586
Probable space group: P 21/M
;
_chemical_formula_sum "Si O2"
_cell_formula_units_Z 16
_cell_length_a 33.725540
_cell_length_b 5.254375
_cell_length_c 26.946987
_cell_angle_alpha 90.000000
_cell_angle_beta 170.816176
_cell_angle_gamma 90.000000
_cell_volume 762.131389
_symmetry_space_group_name_H-M "P 21/M"
_symmetry_group_IT_number 11
_symmetry_cell_setting 'monoclinic'
loop_
_space_group_symop_operation_xyz
x,y,z
-x,1/2+y,-z
-x,-y,-z
x,1/2-y,z
loop_
_atom_site_type_symbol
_atom_site_label
_atom_site_fract_x
_atom_site_fract_y
_atom_site_fract_z
Si Si1 0.138450 0.750000 0.650449
Si Si2 0.928755 0.250000 0.128036
Si Si3 0.406334 0.250000 0.166986
Si Si4 0.949403 0.250000 0.970192
Si Si5 0.831817 0.250000 0.432111
Si Si6 0.312636 0.250000 0.690451
Si Si7 0.596412 0.750000 0.720328
Si Si8 0.312487 0.250000 0.513169
O O1 0.142684 0.750000 0.595667
O O2 0.000000 0.500000 0.500000
O O3 0.432645 0.750000 0.026354
O O4 0.072412 0.250000 0.358005
O O5 0.139647 0.250000 0.347260
O O6 0.759285 0.499201 0.913353
O O7 0.478126 0.250000 0.313643
O O8 0.518339 0.500544 0.280562
O O9 0.111254 0.250000 0.798427
O O10 0.658767 0.250000 0.625459
O O11 0.000000 0.500000 0.000000
O O12 0.131466 0.250000 0.241819
O O13 0.700248 0.500044 0.291340
#
# Coordination Sequence:
#
# PCOD9167586 Si02
#       8
#     2   2   2   2   2   2   2   2
#     4  12  28  46  69 105 137 170 215 273 327 381
#     4  12  26  42  66 100 134 169 218 280 331 376
#     4  12  23  42  70  97 128 173 230 266 318 395
#     4  12  23  40  67  93 129 174 222 273 325 391
#     4  12  25  44  73  97 131 181 220 261 324 395
#     4  12  24  46  69  96 135 178 217 265 324 399
#     4  12  23  44  67  96 131 173 226 270 322 397
#     4  12  26  42  65 100 133 172 218 280 335 378
#
# _framework density 20.993756000000001
#
# number of rings (size 3 to 8) (size 9 to 14) (size 15 to 20)
#    0.000    0.000    5.000    5.250    3.500    1.000 
#    0.000    0.000    0.000    0.000    0.000    0.000 
#    0.000    0.000    0.000    0.000    0.000    0.000 
#
# Total GULP energy -89644.420024 kJ/mol
# GULP energy per Si atom -5602.776252 kJ/mol
# Density = 2.094597 g / cm^3
# Si number density = 20.993756 Si / 1000 Ang^3
#
#
#
# Elastic Constant Matrix: (Units=GPa)
#
#
# Indices 1 2 3 4 5 6 
#
# 1 69.9709 49.8114 0.9127 0.0000 23.2943 0.0000
# 2 49.8114 234.4548 63.5094 0.0000 39.7082 0.0000
# 3 0.9127 63.5094 135.4382 0.0000 15.6536 0.0000
# 4 0.0000 0.0000 0.0000 12.0292 0.0000 58.9365
# 5 23.2943 39.7082 15.6536 0.0000 48.6099 0.0000
# 6 0.0000 0.0000 0.0000 58.9365 0.0000 36.6872
#
#
#
# Elastic Compliance Matrix: (Units=1/GPa)
#
#
# Indices 1 2 3 4 5 6 
#
# 1 0.019093 -0.003493 0.002323 0.000000 -0.007045 0.000000
# 2 -0.003493 0.006125 -0.002559 0.000000 -0.002505 0.000000
# 3 0.002323 -0.002559 0.008782 0.000000 -0.001851 0.000000
# 4 0.000000 0.000000 0.000000 -0.012099 0.000000 0.019437
# 5 -0.007045 -0.002505 -0.001851 0.000000 0.026590 0.000000
# 6 0.000000 0.000000 0.000000 0.019437 0.000000 -0.003967
#
#
# Mechanical properties :
#
#
# Convention : Reuss Voigt Hill
#
# Bulk Modulus (GPa) = 37.67497 74.25898 55.96698
# Shear Modulus (GPa) = 82.19976 41.17396 61.68686
#
# Velocity S-wave (km/s) = 6.26413 4.43340 5.42653
# Velocity P-wave (km/s) = 8.38474 7.85210 8.12279
#
# Compressibility (1/GPa) = 0.02654282
#
# Stress axis : x y z
#
# Youngs Moduli (GPa) = 52.37534 163.27241 113.87418
#
# Poissons Ratio (x) = 0.57025 -0.26456
# Poissons Ratio (y) = 0.18293 0.29139
# Poissons Ratio (z) = -0.12168 0.41780
#
# Static dielectric constant tensor:
#      x y z
#    x 1.727090 0.000000 -0.029800 
#    y 0.000000 1.670070 0.000000 
#    z -0.029800 0.000000 1.772470 
# 
# From -- ./inp_files/70398.got.cif
#   From: 2010.05.17/outbox.cif.g08.bks.cpg/sg11_36_cif.got.tgz:70398.got - 2010.06.03 12:22:45.
