data_PCOD9167194
_publ_section_title
;
Structure prediction by ZEFSAII (Michael W. Deem and Ramdas Pophale) SiO2 
 PCOD9167194
Probable space group: P 21/M
;
_chemical_formula_sum "Si O2"
_cell_formula_units_Z 28
_cell_length_a 11.609030
_cell_length_b 15.239647
_cell_length_c 9.266201
_cell_angle_alpha 90.000000
_cell_angle_beta 122.365953
_cell_angle_gamma 90.000000
_cell_volume 1384.673500
_symmetry_space_group_name_H-M "P 21/M"
_symmetry_group_IT_number 11
_symmetry_cell_setting 'monoclinic'
loop_
_space_group_symop_operation_xyz
x,y,z
-x,1/2+y,-z
-x,-y,-z
x,1/2-y,z
loop_
_atom_site_type_symbol
_atom_site_label
_atom_site_fract_x
_atom_site_fract_y
_atom_site_fract_z
Si Si1 0.234317 0.149076 0.275246
Si Si2 0.546775 0.349656 0.401199
Si Si3 0.045528 0.441851 0.665813
Si Si4 0.812903 0.487055 0.960782
Si Si5 0.499702 0.986919 0.170122
Si Si6 0.836777 0.147452 0.735202
Si Si7 0.739324 0.852776 0.385564
O O1 0.196665 0.250000 0.215269
O O2 0.400260 0.144144 0.381172
O O3 0.194158 0.127942 0.412818
O O4 0.182906 0.077905 0.127224
O O5 0.557366 0.250000 0.350380
O O6 0.546490 0.423621 0.279416
O O7 0.676404 0.363899 0.590517
O O8 0.159881 0.377397 0.676664
O O9 0.000000 0.500000 0.500000
O O10 0.922716 0.389040 0.657826
O O11 0.111667 0.499347 0.837813
O O12 0.653991 0.468199 0.884012
O O13 0.868841 0.410560 0.896531
O O14 0.604955 0.911073 0.280827
O O15 0.500000 0.000000 0.000000
O O16 0.864346 0.250000 0.775618
O O17 0.706810 0.750000 0.362742
#
# Coordination Sequence:
#
# PCOD9167194 Si02
#       7
#     4   4   4   4   4   4   4
#     4   9  19  37  65  96 122 155 203 261 320 373
#     4   9  19  37  62  91 122 159 203 254 311 372
#     4  12  25  43  64  87 126 168 214 258 311 368
#     4  11  23  41  66  92 122 161 211 262 311 369
#     4  11  21  37  61  96 128 159 202 257 321 381
#     4  11  24  42  64  90 124 168 212 252 302 370
#     4  11  23  40  63  94 130 164 201 255 319 378
#
# _framework density 20.221374000000001
#
# number of rings (size 3 to 8) (size 9 to 14) (size 15 to 20)
#    0.000    1.429    1.429    4.286    0.000    5.714 
#    0.000    2.857    0.000    0.000    0.000    0.000 
#    0.000    0.000    0.000    0.000    0.000    0.000 
#
# Total GULP energy -156617.352911 kJ/mol
# GULP energy per Si atom -5593.476890 kJ/mol
# Density = 2.017535 g / cm^3
# Si number density = 20.221374 Si / 1000 Ang^3
#
#
#
# Elastic Constant Matrix: (Units=GPa)
#
#
# Indices 1 2 3 4 5 6 
#
# 1 96.0610 52.9510 43.8060 0.0000 -8.8815 0.0000
# 2 52.9510 112.1515 80.4758 0.0000 -16.0373 0.0000
# 3 43.8060 80.4758 127.4418 0.0000 -19.5577 0.0000
# 4 0.0000 0.0000 0.0000 0.8907 0.0000 -13.1641
# 5 -8.8815 -16.0373 -19.5577 0.0000 39.7857 0.0000
# 6 0.0000 0.0000 0.0000 -13.1641 0.0000 23.3374
#
#
#
# Elastic Compliance Matrix: (Units=1/GPa)
#
#
# Indices 1 2 3 4 5 6 
#
# 1 0.014171 -0.005828 -0.001153 0.000000 0.000248 0.000000
# 2 -0.005828 0.018800 -0.009632 0.000000 0.001542 0.000000
# 3 -0.001153 -0.009632 0.014807 0.000000 0.003139 0.000000
# 4 0.000000 0.000000 0.000000 -0.153024 0.000000 -0.086318
# 5 0.000248 0.001542 0.003139 0.000000 0.027355 0.000000
# 6 0.000000 0.000000 0.000000 -0.086318 0.000000 -0.005840
#
#
# Mechanical properties :
#
#
# Convention : Reuss Voigt Hill
#
# Bulk Modulus (GPa) = 68.71516 76.67998 72.69757
# Shear Modulus (GPa) = -109.51558 23.36419 -43.07570
#
# Velocity S-wave (km/s) = -7.36722 3.40284 -4.62042
# Velocity P-wave (km/s) = 6.18972 7.31038 2.75036
#
# Compressibility (1/GPa) = 0.01455283
#
# Stress axis : x y z
#
# Youngs Moduli (GPa) = 70.56523 53.19114 67.53646
#
# Poissons Ratio (x) = 0.31001 0.07786
# Poissons Ratio (y) = 0.41127 0.65049
# Poissons Ratio (z) = 0.08135 0.51232
#
# Static dielectric constant tensor:
#      x y z
#    x 1.728720 0.000000 0.020610 
#    y 0.000000 1.688470 0.000000 
#    z 0.020610 0.000000 1.700580 
# 
# From -- ./inp_files/17962.got.cif
#   From: 2010.05.17/outbox.cif.g08.bks.cpg/sg11_9_cif.got.tgz:17962.got - 2010.06.03 12:22:45.
