data_PCOD9167234
_publ_section_title
;
Structure prediction by ZEFSAII (Michael W. Deem and Ramdas Pophale) SiO2 
 PCOD9167234
Probable space group: P 21/M
;
_chemical_formula_sum "Si O2"
_cell_formula_units_Z 32
_cell_length_a 13.478834
_cell_length_b 17.739216
_cell_length_c 13.127644
_cell_angle_alpha 90.000000
_cell_angle_beta 148.710202
_cell_angle_gamma 90.000000
_cell_volume 1630.226151
_symmetry_space_group_name_H-M "P 21/M"
_symmetry_group_IT_number 11
_symmetry_cell_setting 'monoclinic'
loop_
_space_group_symop_operation_xyz
x,y,z
-x,1/2+y,-z
-x,-y,-z
x,1/2-y,z
loop_
_atom_site_type_symbol
_atom_site_label
_atom_site_fract_x
_atom_site_fract_y
_atom_site_fract_z
Si Si1 0.048155 0.663220 0.725433
Si Si2 0.843024 0.478980 0.062830
Si Si3 0.517170 0.465169 0.124420
Si Si4 0.414199 0.338002 0.671340
Si Si5 0.535930 0.013236 0.649599
Si Si6 0.967860 0.339890 0.516598
Si Si7 0.583434 0.661136 0.091495
Si Si8 0.207420 0.554553 0.479470
O O1 0.111160 0.750000 0.791269
O O2 0.097346 0.634376 0.654256
O O3 0.817336 0.662766 0.529942
O O4 0.128423 0.607968 0.881417
O O5 0.671067 0.513056 0.979303
O O6 0.758244 0.492358 0.876374
O O7 0.039482 0.517976 0.267585
O O8 0.711037 0.490241 0.350147
O O9 0.500000 0.500000 0.000000
O O10 0.516369 0.377508 0.092626
O O11 0.471071 0.250000 0.697813
O O12 0.475272 0.404980 0.646640
O O13 0.476693 0.355556 0.843726
O O14 0.500000 0.000000 0.500000
O O15 0.400792 0.949365 0.583563
O O16 0.952707 0.250000 0.500073
O O17 0.869892 0.372019 0.531746
O O18 0.192645 0.359424 0.720180
O O19 0.564051 0.750000 0.065086
#
# Coordination Sequence:
#
# PCOD9167234 Si02
#       8
#     4   4   4   4   4   4   4   4
#     4   9  18  33  57  90 122 154 187 224 279 348
#     4  11  22  37  59  84 116 153 192 243 292 343
#     4  11  22  31  50  87 122 156 191 218 270 342
#     4   9  18  36  60  86 118 149 186 238 292 344
#     4  11  25  43  61  86 108 144 201 255 307 346
#     4   9  18  32  55  85 121 163 194 221 270 342
#     4   9  17  32  55  85 121 157 191 228 275 339
#     4  11  22  38  56  81 117 152 192 238 282 339
#
# _framework density 19.629179000000001
#
# number of rings (size 3 to 8) (size 9 to 14) (size 15 to 20)
#    0.000    2.000    2.500    3.750    1.750    2.500 
#    0.000    3.750    0.000    1.500    0.000    0.000 
#    0.000    0.000    0.000    0.000    0.000    0.000 
#
# Total GULP energy -178341.408278 kJ/mol
# GULP energy per Si atom -5573.169009 kJ/mol
# Density = 1.958450 g / cm^3
# Si number density = 19.629179 Si / 1000 Ang^3
#
#
#
# Elastic Constant Matrix: (Units=GPa)
#
#
# Indices 1 2 3 4 5 6 
#
# 1 32.1894 12.6235 18.1261 0.0000 -9.8412 0.0000
# 2 12.6235 49.6406 27.0031 0.0000 -13.4270 0.0000
# 3 18.1261 27.0031 148.2896 0.0000 -7.9961 0.0000
# 4 0.0000 0.0000 0.0000 21.3295 0.0000 4.2089
# 5 -9.8412 -13.4270 -7.9961 0.0000 35.1458 0.0000
# 6 0.0000 0.0000 0.0000 4.2089 0.0000 24.0515
#
#
#
# Elastic Compliance Matrix: (Units=1/GPa)
#
#
# Indices 1 2 3 4 5 6 
#
# 1 0.037392 -0.005772 -0.003112 0.000000 0.007557 0.000000
# 2 -0.005772 0.025524 -0.003547 0.000000 0.007328 0.000000
# 3 -0.003112 -0.003547 0.007745 0.000000 -0.000465 0.000000
# 4 0.000000 0.000000 0.000000 0.048560 0.000000 -0.008498
# 5 0.007557 0.007328 -0.000465 0.000000 0.033263 0.000000
# 6 0.000000 0.000000 0.000000 -0.008498 0.000000 0.043064
#
#
# Mechanical properties :
#
#
# Convention : Reuss Voigt Hill
#
# Bulk Modulus (GPa) = 21.83439 38.40276 30.11857
# Shear Modulus (GPa) = 21.21540 27.59651 24.40595
#
# Velocity S-wave (km/s) = 3.29113 3.75359 3.52994
# Velocity P-wave (km/s) = 5.05862 6.19617 5.65607
#
# Compressibility (1/GPa) = 0.04579930
#
# Stress axis : x y z
#
# Youngs Moduli (GPa) = 26.74335 39.17838 129.11789
#
# Poissons Ratio (x) = 0.22613 0.40183
# Poissons Ratio (y) = 0.15436 0.45801
# Poissons Ratio (z) = 0.08323 0.13898
#
# Static dielectric constant tensor:
#      x y z
#    x 1.700700 0.000000 0.019120 
#    y 0.000000 1.941940 0.000000 
#    z 0.019120 0.000000 1.798500 
# 
# From -- ./inp_files/40024.got.cif
#   From: 2010.05.17/outbox.cif.g08.bks.cpg/sg11_21_cif.got.tgz:40024.got - 2010.06.03 12:22:45.
