data_PCOD9167009
_publ_section_title
;
Structure prediction by ZEFSAII (Michael W. Deem and Ramdas Pophale) SiO2 
 PCOD9167009
Probable space group: P 21/M
;
_chemical_formula_sum "Si O2"
_cell_formula_units_Z 26
_cell_length_a 9.361155
_cell_length_b 21.910181
_cell_length_c 9.460533
_cell_angle_alpha 90.000000
_cell_angle_beta 135.921038
_cell_angle_gamma 90.000000
_cell_volume 1349.836642
_symmetry_space_group_name_H-M "P 21/M"
_symmetry_group_IT_number 11
_symmetry_cell_setting 'monoclinic'
loop_
_space_group_symop_operation_xyz
x,y,z
-x,1/2+y,-z
-x,-y,-z
x,1/2-y,z
loop_
_atom_site_type_symbol
_atom_site_label
_atom_site_fract_x
_atom_site_fract_y
_atom_site_fract_z
Si Si1 0.624304 0.418209 0.863079
Si Si2 0.986807 0.051637 0.291766
Si Si3 0.689705 0.750000 0.778614
Si Si4 0.277555 0.459189 0.239237
Si Si5 0.583758 0.359239 0.550314
Si Si6 0.070039 0.138892 0.897790
Si Si7 0.788326 0.927478 0.266573
O O1 0.672620 0.478726 0.805684
O O2 0.560950 0.367754 0.703500
O O3 0.443444 0.430751 0.844300
O O4 0.830546 0.404967 0.096832
O O5 0.168718 0.033487 0.313680
O O6 0.077003 0.081314 0.496666
O O7 0.864109 0.991092 0.251930
O O8 0.543496 0.803298 0.601637
O O9 0.832564 0.696522 0.955331
O O10 0.482109 0.419201 0.406654
O O11 0.121607 0.419603 0.032883
O O12 0.827204 0.355510 0.699337
O O13 0.178218 0.124400 0.825589
#
# Coordination Sequence:
#
# PCOD9167009 Si02
#       7
#     4   4   2   4   4   4   4
#     4  12  22  37  63 100 139 169 203 254 319 384
#     4  11  22  37  57  96 140 172 199 241 312 389
#     4  10  26  46  70  90 112 162 240 268 316 376
#     4  11  22  37  63  99 134 171 209 246 310 398
#     4  11  23  40  69  92 120 166 219 270 312 367
#     4  11  23  44  67  90 126 166 215 270 318 370
#     4  11  25  36  59  97 139 173 200 251 314 391
#
# _framework density 19.261589000000001
#
# number of rings (size 3 to 8) (size 9 to 14) (size 15 to 20)
#    0.000    0.923    4.615    2.769    4.308    1.231 
#    0.000    0.769    0.000    2.769    0.000    0.000 
#    0.000    0.000    0.000    0.000    0.000    0.000 
#
# Total GULP energy -144812.062241 kJ/mol
# GULP energy per Si atom -5569.694702 kJ/mol
# Density = 1.921775 g / cm^3
# Si number density = 19.261589 Si / 1000 Ang^3
#
#
#
# Elastic Constant Matrix: (Units=GPa)
#
#
# Indices 1 2 3 4 5 6 
#
# 1 127.4230 39.3229 43.6607 0.0000 2.4210 0.0000
# 2 39.3229 57.1347 30.2312 0.0000 9.9591 0.0000
# 3 43.6607 30.2312 137.2412 0.0000 16.2906 0.0000
# 4 0.0000 0.0000 0.0000 33.6006 0.0000 4.9900
# 5 2.4210 9.9591 16.2906 0.0000 32.4841 0.0000
# 6 0.0000 0.0000 0.0000 4.9900 0.0000 0.4250
#
#
#
# Elastic Compliance Matrix: (Units=1/GPa)
#
#
# Indices 1 2 3 4 5 6 
#
# 1 0.010568 -0.006511 -0.002202 0.000000 0.002313 0.000000
# 2 -0.006511 0.024359 -0.002621 0.000000 -0.005668 0.000000
# 3 -0.002202 -0.002621 0.008984 0.000000 -0.003538 0.000000
# 4 0.000000 0.000000 0.000000 -0.040023 0.000000 0.469901
# 5 0.002313 -0.005668 -0.003538 0.000000 0.034124 0.000000
# 6 0.000000 0.000000 0.000000 0.469901 0.000000 -3.164138
#
#
# Mechanical properties :
#
#
# Convention : Reuss Voigt Hill
#
# Bulk Modulus (GPa) = 47.07819 60.91428 53.99623
# Shear Modulus (GPa) = -1.61479 27.20756 12.79638
#
# Velocity S-wave (km/s) = -0.91661 3.76244 2.58029
# Velocity P-wave (km/s) = 4.83470 7.11112 6.08039
#
# Compressibility (1/GPa) = 0.02124126
#
# Stress axis : x y z
#
# Youngs Moduli (GPa) = 94.62612 41.05269 111.30355
#
# Poissons Ratio (x) = 0.26731 0.24512
# Poissons Ratio (y) = 0.61614 0.29178
# Poissons Ratio (z) = 0.20839 0.10762
#
# Static dielectric constant tensor:
#      x y z
#    x 1.679810 0.000000 0.002650 
#    y 0.000000 1.637310 0.000000 
#    z 0.002650 0.000000 1.719770 
# 
# From -- ./inp_files/14573.got.cif
#   From: 2010.05.17/outbox.cif.g08.bks.cpg/sg11_8_cif.got.tgz:14573.got - 2010.06.03 12:22:45.
