data_PCOD9167612
_publ_section_title
;
Structure prediction by ZEFSAII (Michael W. Deem and Ramdas Pophale) SiO2 
 PCOD9167612
Probable space group: P 21/M
;
_chemical_formula_sum "Si O2"
_cell_formula_units_Z 24
_cell_length_a 8.248994
_cell_length_b 17.470196
_cell_length_c 8.249043
_cell_angle_alpha 90.000000
_cell_angle_beta 71.191646
_cell_angle_gamma 90.000000
_cell_volume 1125.304021
_symmetry_space_group_name_H-M "P 21/M"
_symmetry_group_IT_number 11
_symmetry_cell_setting 'monoclinic'
loop_
_space_group_symop_operation_xyz
x,y,z
-x,1/2+y,-z
-x,-y,-z
x,1/2-y,z
loop_
_atom_site_type_symbol
_atom_site_label
_atom_site_fract_x
_atom_site_fract_y
_atom_site_fract_z
Si Si1 0.276336 0.014742 0.966171
Si Si2 0.447612 0.335202 0.795464
Si Si3 0.474856 0.078874 0.298275
Si Si4 0.966173 0.985258 0.276334
Si Si5 0.204534 0.335202 0.552390
Si Si6 0.298274 0.921126 0.474858
O O1 0.357745 0.098929 0.929144
O O2 0.152296 0.009826 0.847704
O O3 0.419481 0.949796 0.890472
O O4 0.159555 0.000000 0.159553
O O5 0.446013 0.250000 0.865460
O O6 0.335051 0.334374 0.664949
O O7 0.638274 0.361317 0.679460
O O8 0.320537 0.138683 0.361727
O O9 0.616632 0.105406 0.383368
O O10 0.393699 1.000000 0.393701
O O11 0.929147 0.901072 0.357743
O O12 0.890475 0.050204 0.419478
O O13 0.134537 0.250000 0.553989
#
# Coordination Sequence:
#
# PCOD9167612 Si02
#       6
#     4   4   4   4   4   4
#     4   8  12  17  23  28  33  39  43  46  53  62
#     4   8  12  17  23  28  32  37  44  51  54  55
#     4   7  10  16  23  27  30  37  45  47  49  59
#     4   8  12  17  23  28  33  39  43  46  53  62
#     4   8  12  17  23  28  32  37  44  51  54  55
#     4   7  10  16  23  27  30  37  45  47  49  59
#
# _framework density 21.327570000000001
#
# number of rings (size 3 to 8) (size 9 to 14) (size 15 to 20)
#    0.000    4.333    0.000    4.000    0.000    0.000 
#    0.000    1.667    0.000   10.000    0.000    0.000 
#    0.000    0.000    0.000    0.000    0.000    0.000 
#
# Total GULP energy -133719.333745 kJ/mol
# GULP energy per Si atom -5571.638906 kJ/mol
# Density = 2.127903 g / cm^3
# Si number density = 21.327570 Si / 1000 Ang^3
#
#
#
# Elastic Constant Matrix: (Units=GPa)
#
#
# Indices 1 2 3 4 5 6 
#
# 1 46.4419 28.6056 51.9349 0.0000 12.3928 0.0000
# 2 28.6056 123.4932 70.8322 0.0000 -25.1616 0.0000
# 3 51.9349 70.8322 133.4833 0.0000 -64.2587 0.0000
# 4 0.0000 0.0000 0.0000 16.5589 0.0000 -5.6495
# 5 12.3928 -25.1616 -64.2587 0.0000 32.5311 0.0000
# 6 0.0000 0.0000 0.0000 -5.6495 0.0000 7.0778
#
#
#
# Elastic Compliance Matrix: (Units=1/GPa)
#
#
# Indices 1 2 3 4 5 6 
#
# 1 -0.000486 -0.002820 0.014761 0.000000 0.027162 0.000000
# 2 -0.002820 0.011503 -0.004209 0.000000 0.001656 0.000000
# 3 0.014761 -0.004209 -0.005956 0.000000 -0.020643 0.000000
# 4 0.000000 0.000000 0.000000 0.082992 0.000000 0.066245
# 5 0.027162 0.001656 -0.020643 0.000000 -0.019103 0.000000
# 6 0.000000 0.000000 0.000000 0.066245 0.000000 0.194164
#
#
# Mechanical properties :
#
#
# Convention : Reuss Voigt Hill
#
# Bulk Modulus (GPa) = 48.72065 67.35153 58.03609
# Shear Modulus (GPa) = 19.64703 21.36994 20.50848
#
# Velocity S-wave (km/s) = 3.03843 3.16885 3.10432
# Velocity P-wave (km/s) = 5.93321 6.71096 6.33403
#
# Compressibility (1/GPa) = 0.02052518
#
# Stress axis : x y z
#
# Youngs Moduli (GPa) = -2057.19348 86.93685 -167.91059
#
# Poissons Ratio (x) = 0.24514 2.47856
# Poissons Ratio (y) = -5.80083 -0.70679
# Poissons Ratio (z) = 30.36665 0.36594
#
# Static dielectric constant tensor:
#      x y z
#    x 1.810500 0.000000 0.003170 
#    y 0.000000 1.737620 0.000000 
#    z 0.003170 0.000000 1.805180 
# 
# From -- ./inp_files/32289.got.cif
#   From: 2010.05.17/outbox.cif.g08.bks.cpg/sg11_17_cif.got.tgz:32289.got - 2010.06.03 12:22:45.
