data_PCOD9167847
_publ_section_title
;
Structure prediction by ZEFSAII (Michael W. Deem and Ramdas Pophale) SiO2 
 PCOD9167847
Probable space group: P 21/M
;
_chemical_formula_sum "Si O2"
_cell_formula_units_Z 28
_cell_length_a 15.000000
_cell_length_b 9.000000
_cell_length_c 21.000000
_cell_angle_alpha 90.000000
_cell_angle_beta 150.000000
_cell_angle_gamma 90.000000
_cell_volume 1417.500000
_symmetry_space_group_name_H-M "P 21/M"
_symmetry_group_IT_number 11
_symmetry_cell_setting 'monoclinic'
loop_
_space_group_symop_operation_xyz
x,y,z
-x,1/2+y,-z
-x,-y,-z
x,1/2-y,z
loop_
_atom_site_type_symbol
_atom_site_label
_atom_site_fract_x
_atom_site_fract_y
_atom_site_fract_z
Si Si1 0.378732 0.072832 0.772214
Si Si2 0.817726 0.571614 0.864962
Si Si3 0.552324 0.073242 0.313332
Si Si4 0.741097 0.923585 0.042101
Si Si5 0.768436 0.925449 0.554492
Si Si6 0.888074 0.928175 0.766724
Si Si7 0.127843 0.424351 0.735380
O O1 0.383482 0.250000 0.769817
O O2 0.236129 0.035319 0.739006
O O3 0.347722 0.002290 0.683800
O O4 0.569599 0.011251 0.912504
O O5 0.829107 0.750000 0.875684
O O6 0.654370 0.525684 0.808928
O O7 0.796812 0.532789 0.777199
O O8 0.000000 0.500000 0.000000
O O9 0.561744 0.250000 0.312285
O O10 0.633602 0.021971 0.430301
O O11 0.725640 0.750000 0.015266
O O12 0.755582 0.934285 0.127938
O O13 0.922957 0.989621 0.125338
O O14 0.735265 0.750000 0.526454
O O15 0.774808 0.962704 0.633401
O O16 0.961222 0.969840 0.645383
O O17 0.920338 0.750000 0.786049
O O18 0.070982 0.250000 0.695159
#
# Coordination Sequence:
#
# PCOD9167847 Si02
#       7
#     4   4   4   4   4   4   4
#     4  11  22  36  55  80 111 149 189 228 275 326
#     4  10  22  39  59  84 113 145 180 221 271 326
#     4  11  24  40  57  80 112 147 184 228 275 325
#     4  10  19  33  55  85 116 144 180 226 278 331
#     4  10  21  38  60  84 109 142 185 229 275 326
#     4   9  19  37  59  82 111 146 184 227 273 324
#     4   9  20  37  57  81 111 147 185 227 274 327
#
# _framework density 19.753086
#
# number of rings (size 3 to 8) (size 9 to 14) (size 15 to 20)
#    0.000    2.000    0.000    3.000    0.000    7.429 
#    0.000    0.000    0.000    0.000    0.000    0.000 
#    0.000    0.000    0.000    0.000    0.000    0.000 
#
# Total GULP energy -156388.956469 kJ/mol
# GULP energy per Si atom -5585.319874 kJ/mol
# Density = 1.970813 g / cm^3
# Si number density = 19.753086 Si / 1000 Ang^3
#
#
#
# Elastic Constant Matrix: (Units=GPa)
#
#
# Indices 1 2 3 4 5 6 
#
# 1 104.1034 22.7605 -0.9782 0.0000 -16.9720 0.0000
# 2 22.7605 29.6454 6.0905 0.0000 -8.0275 0.0000
# 3 -0.9782 6.0905 37.0196 0.0000 -9.7787 0.0000
# 4 0.0000 0.0000 0.0000 33.4319 0.0000 -4.3578
# 5 -16.9720 -8.0275 -9.7787 0.0000 14.8415 0.0000
# 6 0.0000 0.0000 0.0000 -4.3578 0.0000 26.2129
#
#
#
# Elastic Compliance Matrix: (Units=1/GPa)
#
#
# Indices 1 2 3 4 5 6 
#
# 1 0.013847 -0.007613 0.005707 0.000000 0.015477 0.000000
# 2 -0.007613 0.043738 -0.004174 0.000000 0.012202 0.000000
# 3 0.005707 -0.004174 0.035084 0.000000 0.027384 0.000000
# 4 0.000000 0.000000 0.000000 0.030574 0.000000 0.005083
# 5 0.015477 0.012202 0.027384 0.000000 0.109720 0.000000
# 6 0.000000 0.000000 0.000000 0.005083 0.000000 0.038994
#
#
# Mechanical properties :
#
#
# Convention : Reuss Voigt Hill
#
# Bulk Modulus (GPa) = 12.42095 25.16822 18.79459
# Shear Modulus (GPa) = 16.07958 24.42362 20.25160
#
# Velocity S-wave (km/s) = 2.85621 3.52013 3.20541
# Velocity P-wave (km/s) = 4.14476 5.41210 4.82026
#
# Compressibility (1/GPa) = 0.08050914
#
# Stress axis : x y z
#
# Youngs Moduli (GPa) = 72.21721 22.86327 28.50330
#
# Poissons Ratio (x) = 0.17405 -0.16266
# Poissons Ratio (y) = 0.54976 0.11897
# Poissons Ratio (z) = -0.41212 0.09543
#
# Static dielectric constant tensor:
#      x y z
#    x 1.680420 0.000000 -0.022790 
#    y 0.000000 1.646960 0.000000 
#    z -0.022790 0.000000 1.722080 
# 
# From -- ./inp_files/37461.got.cif
#   From: 2010.05.17/outbox.ucp.g08.bks.cvg/sg11_19_cif.got.tgz:37461.got - 2010.06.11 11:38:39.
