data_PCOD9167829
_publ_section_title
;
Structure prediction by ZEFSAII (Michael W. Deem and Ramdas Pophale) SiO2 
 PCOD9167829
Probable space group: P 21/M
;
_chemical_formula_sum "Si O2"
_cell_formula_units_Z 32
_cell_length_a 24.000000
_cell_length_b 9.000000
_cell_length_c 18.000000
_cell_angle_alpha 90.000000
_cell_angle_beta 30.000000
_cell_angle_gamma 90.000000
_cell_volume 1944.000000
_symmetry_space_group_name_H-M "P 21/M"
_symmetry_group_IT_number 11
_symmetry_cell_setting 'monoclinic'
loop_
_space_group_symop_operation_xyz
x,y,z
-x,1/2+y,-z
-x,-y,-z
x,1/2-y,z
loop_
_atom_site_type_symbol
_atom_site_label
_atom_site_fract_x
_atom_site_fract_y
_atom_site_fract_z
Si Si1 0.205893 0.429602 0.256509
Si Si2 0.120396 0.431138 0.191814
Si Si3 0.620917 0.070780 0.374745
Si Si4 0.319869 0.571135 0.859509
Si Si5 0.461416 0.428091 0.968417
Si Si6 0.672285 0.430005 0.620961
Si Si7 0.876078 0.931406 0.482218
Si Si8 0.413538 0.070211 0.431370
O O1 0.205355 0.250000 0.258498
O O2 0.145795 0.472451 0.249062
O O3 0.153581 0.474307 0.396933
O O4 0.334893 0.479087 0.099723
O O5 0.116829 0.250000 0.189686
O O6 0.997420 0.501820 0.319308
O O7 0.223058 0.491977 0.020956
O O8 0.614796 0.250000 0.388374
O O9 0.689448 0.039068 0.219188
O O10 0.500000 0.000000 0.500000
O O11 0.645170 0.997919 0.426890
O O12 0.309205 0.750000 0.881651
O O13 0.451313 0.532983 0.726730
O O14 0.457634 0.250000 0.980232
O O15 0.556858 0.461934 0.798447
O O16 0.500000 0.500000 0.000000
O O17 0.686212 0.250000 0.600788
O O18 0.776667 0.502352 0.545093
O O19 0.649466 0.501920 0.566869
O O20 0.877359 0.750000 0.476037
O O21 0.407407 0.250000 0.440181
#
# Coordination Sequence:
#
# PCOD9167829 Si02
#       8
#     4   4   4   4   4   4   4   4
#     4   9  19  35  54  76 104 137 176 222 273 320
#     4  11  22  36  55  78 105 138 182 230 271 318
#     4   9  17  31  53  81 114 145 176 216 264 321
#     4   9  19  35  54  81 113 143 176 214 264 320
#     4  10  19  33  52  76 105 137 174 216 266 320
#     4  11  22  35  54  80 110 143 182 225 270 322
#     4  11  22  38  56  72 102 144 185 229 273 320
#     4  10  20  34  55  84 115 145 179 217 265 325
#
# _framework density 16.460905
#
# number of rings (size 3 to 8) (size 9 to 14) (size 15 to 20)
#    0.000    2.000    1.250    3.750    0.000    4.500 
#    0.000    3.125    0.000    0.750    0.000    0.000 
#    0.000    0.000    0.000    0.000    0.000    0.000 
#
# Total GULP energy -178316.800887 kJ/mol
# GULP energy per Si atom -5572.400028 kJ/mol
# Density = 1.642344 g / cm^3
# Si number density = 16.460905 Si / 1000 Ang^3
#
#
#
# Elastic Constant Matrix: (Units=GPa)
#
#
# Indices 1 2 3 4 5 6 
#
# 1 125.7022 41.6823 63.6814 0.0000 15.4747 0.0000
# 2 41.6823 72.8560 43.0279 0.0000 6.0705 0.0000
# 3 63.6814 43.0279 118.3355 0.0000 4.3208 0.0000
# 4 0.0000 0.0000 0.0000 31.7618 0.0000 2.2795
# 5 15.4747 6.0705 4.3208 0.0000 35.9342 0.0000
# 6 0.0000 0.0000 0.0000 2.2795 0.0000 30.0225
#
#
#
# Elastic Compliance Matrix: (Units=1/GPa)
#
#
# Indices 1 2 3 4 5 6 
#
# 1 0.012259 -0.003652 -0.005122 0.000000 -0.004046 0.000000
# 2 -0.003652 0.018742 -0.004812 0.000000 -0.001015 0.000000
# 3 -0.005122 -0.004812 0.012903 0.000000 0.001467 0.000000
# 4 0.000000 0.000000 0.000000 0.031657 0.000000 -0.002404
# 5 -0.004046 -0.001015 0.001467 0.000000 0.029566 0.000000
# 6 0.000000 0.000000 0.000000 -0.002404 0.000000 0.033491
#
#
# Mechanical properties :
#
#
# Convention : Reuss Voigt Hill
#
# Bulk Modulus (GPa) = 59.76504 68.18633 63.97569
# Shear Modulus (GPa) = 29.17726 30.77715 29.97721
#
# Velocity S-wave (km/s) = 4.21470 4.32871 4.27208
# Velocity P-wave (km/s) = 7.75055 8.15455 7.95511
#
# Compressibility (1/GPa) = 0.01673219
#
# Stress axis : x y z
#
# Youngs Moduli (GPa) = 81.57318 53.35709 77.50164
#
# Poissons Ratio (x) = 0.19484 0.39693
# Poissons Ratio (y) = 0.29788 0.37297
# Poissons Ratio (z) = 0.41778 0.25678
#
# Static dielectric constant tensor:
#      x y z
#    x 1.522470 0.000000 0.013740 
#    y 0.000000 1.552200 0.000000 
#    z 0.013740 0.000000 1.555690 
# 
# From -- ./inp_files/61765.got.cif
#   From: 2010.05.17/outbox.ucp.g08.bks.cvg/sg11_31_cif.got.tgz:61765.got - 2010.06.11 11:38:39.
