data_PCOD9167401
_publ_section_title
;
Structure prediction by ZEFSAII (Michael W. Deem and Ramdas Pophale) SiO2 
 PCOD9167401
Probable space group: P 21/M
;
_chemical_formula_sum "Si O2"
_cell_formula_units_Z 28
_cell_length_a 21.159047
_cell_length_b 14.087754
_cell_length_c 8.797972
_cell_angle_alpha 90.000000
_cell_angle_beta 147.767576
_cell_angle_gamma 90.000000
_cell_volume 1398.739549
_symmetry_space_group_name_H-M "P 21/M"
_symmetry_group_IT_number 11
_symmetry_cell_setting 'monoclinic'
loop_
_space_group_symop_operation_xyz
x,y,z
-x,1/2+y,-z
-x,-y,-z
x,1/2-y,z
loop_
_atom_site_type_symbol
_atom_site_label
_atom_site_fract_x
_atom_site_fract_y
_atom_site_fract_z
Si Si1 0.957036 0.861106 0.740167
Si Si2 0.841577 0.361442 0.650259
Si Si3 0.301975 0.137181 0.759540
Si Si4 0.279310 0.471995 0.409748
Si Si5 0.887982 0.464577 0.176295
Si Si6 0.734990 0.140297 0.110370
Si Si7 0.475904 0.991034 0.271864
O O1 0.936544 0.750000 0.709571
O O2 0.826776 0.900140 0.443735
O O3 0.052485 0.883985 0.806716
O O4 0.024452 0.889734 0.031289
O O5 0.822946 0.250000 0.655785
O O6 0.754946 0.433030 0.563617
O O7 0.821543 0.367152 0.430850
O O8 0.317158 0.250000 0.811503
O O9 0.294336 0.110030 0.565680
O O10 0.402367 0.078689 0.051084
O O11 0.402716 0.482248 0.573070
O O12 0.176126 0.463728 0.072158
O O13 0.788025 0.421678 0.082120
O O14 0.000000 0.500000 0.500000
O O15 0.725116 0.250000 0.044641
O O16 0.610241 0.099697 0.914935
O O17 0.500000 0.000000 0.500000
#
# Coordination Sequence:
#
# PCOD9167401 Si02
#       7
#     4   4   4   4   4   4   4
#     4   9  20  39  61  90 126 161 208 260 318 391
#     4   9  20  38  66  96 125 165 215 272 324 380
#     4  11  25  44  67  95 129 174 217 267 329 390
#     4  11  24  42  67  92 130 170 218 271 314 394
#     4  11  23  38  65  96 130 172 209 264 331 385
#     4  11  23  41  67  97 131 170 219 272 327 388
#     4  12  25  46  65  92 130 169 221 274 326 388
#
# _framework density 20.018022999999999
#
# number of rings (size 3 to 8) (size 9 to 14) (size 15 to 20)
#    0.000    1.429    2.857    1.714    2.000    3.429 
#    0.000    0.714    0.000    0.000    0.000    0.000 
#    0.000    0.000    0.000    0.000    0.000    0.000 
#
# Total GULP energy -156249.124246 kJ/mol
# GULP energy per Si atom -5580.325866 kJ/mol
# Density = 1.997246 g / cm^3
# Si number density = 20.018023 Si / 1000 Ang^3
#
#
#
# Elastic Constant Matrix: (Units=GPa)
#
#
# Indices 1 2 3 4 5 6 
#
# 1 75.9775 5.8945 23.0373 0.0000 6.9397 0.0000
# 2 5.8945 72.8906 19.2810 0.0000 -4.6027 0.0000
# 3 23.0373 19.2810 109.4365 0.0000 -6.8774 0.0000
# 4 0.0000 0.0000 0.0000 17.4608 0.0000 -1.2841
# 5 6.9397 -4.6027 -6.8774 0.0000 40.7511 0.0000
# 6 0.0000 0.0000 0.0000 -1.2841 0.0000 24.0930
#
#
#
# Elastic Compliance Matrix: (Units=1/GPa)
#
#
# Indices 1 2 3 4 5 6 
#
# 1 0.014432 -0.000530 -0.003136 0.000000 -0.003047 0.000000
# 2 -0.000530 0.014469 -0.002354 0.000000 0.001327 0.000000
# 3 -0.003136 -0.002354 0.010339 0.000000 0.002013 0.000000
# 4 0.000000 0.000000 0.000000 0.057497 0.000000 0.003064
# 5 -0.003047 0.001327 0.002013 0.000000 0.025548 0.000000
# 6 0.000000 0.000000 0.000000 0.003064 0.000000 0.041669
#
#
# Mechanical properties :
#
#
# Convention : Reuss Voigt Hill
#
# Bulk Modulus (GPa) = 36.76566 39.41450 38.09008
# Shear Modulus (GPa) = 27.01820 30.46708 28.74264
#
# Velocity S-wave (km/s) = 3.67780 3.90549 3.79336
# Velocity P-wave (km/s) = 6.03665 6.33004 6.18508
#
# Compressibility (1/GPa) = 0.02719930
#
# Stress axis : x y z
#
# Youngs Moduli (GPa) = 69.28984 69.11534 96.71932
#
# Poissons Ratio (x) = 0.03662 0.30333
# Poissons Ratio (y) = 0.03672 0.22770
# Poissons Ratio (z) = 0.21731 0.16271
#
# Static dielectric constant tensor:
#      x y z
#    x 1.724020 0.000000 -0.031150 
#    y 0.000000 1.704930 0.000000 
#    z -0.031150 0.000000 1.772000 
# 
# From -- ./inp_files/26942.got.cif
#   From: 2010.05.17/outbox.cif.g08.bks.cpg/sg11_14_cif.got.tgz:26942.got - 2010.06.03 12:22:45.
