data_PCOD9167611
_publ_section_title
;
Structure prediction by ZEFSAII (Michael W. Deem and Ramdas Pophale) SiO2 
 PCOD9167611
Probable space group: P 21/M
;
_chemical_formula_sum "Si O2"
_cell_formula_units_Z 12
_cell_length_a 4.897433
_cell_length_b 20.251924
_cell_length_c 5.135474
_cell_angle_alpha 90.000000
_cell_angle_beta 69.703541
_cell_angle_gamma 90.000000
_cell_volume 477.723567
_symmetry_space_group_name_H-M "P 21/M"
_symmetry_group_IT_number 11
_symmetry_cell_setting 'monoclinic'
loop_
_space_group_symop_operation_xyz
x,y,z
-x,1/2+y,-z
-x,-y,-z
x,1/2-y,z
loop_
_atom_site_type_symbol
_atom_site_label
_atom_site_fract_x
_atom_site_fract_y
_atom_site_fract_z
Si Si1 0.558372 0.135688 0.200752
Si Si2 0.164216 0.250000 0.337590
Si Si3 0.956606 0.954625 0.764084
Si Si4 0.374335 0.750000 0.189547
O O1 0.322292 0.185701 0.406210
O O2 0.358139 0.079610 0.137964
O O3 0.708178 0.182867 0.937930
O O4 0.795882 0.101744 0.301812
O O5 0.279702 0.250000 0.998930
O O6 0.823302 0.250000 0.490875
O O7 0.000000 0.000000 0.500000
O O8 0.000000 0.000000 0.000000
#
# Coordination Sequence:
#
# PCOD9167611 Si02
#       4
#     4   2   4   2
#     4   9  24  44  74 106 146 189 252 304 376 441
#     4   8  20  42  76 106 144 190 244 320 374 436
#     4  12  26  47  72 107 150 202 246 304 368 452
#     4   8  20  42  76 106 144 190 244 320 374 436
#
# _framework density 25.119126000000001
#
# number of rings (size 3 to 8) (size 9 to 14) (size 15 to 20)
#    2.000    0.000    0.000    2.000    4.667    5.333 
#    0.000    3.333    0.000    0.000    0.000    0.000 
#    0.000    0.000    0.000    0.000    0.000    0.000 
#
# Total GULP energy -67050.473909 kJ/mol
# GULP energy per Si atom -5587.539492 kJ/mol
# Density = 2.506195 g / cm^3
# Si number density = 25.119126 Si / 1000 Ang^3
#
#
#
# Elastic Constant Matrix: (Units=GPa)
#
#
# Indices 1 2 3 4 5 6 
#
# 1 162.1490 47.7951 47.5144 0.0000 -8.0172 0.0000
# 2 47.7951 136.3863 43.9350 0.0000 10.3828 0.0000
# 3 47.5144 43.9350 151.5752 0.0000 -22.3579 0.0000
# 4 0.0000 0.0000 0.0000 23.9745 0.0000 12.2126
# 5 -8.0172 10.3828 -22.3579 0.0000 39.2833 0.0000
# 6 0.0000 0.0000 0.0000 12.2126 0.0000 53.9036
#
#
#
# Elastic Compliance Matrix: (Units=1/GPa)
#
#
# Indices 1 2 3 4 5 6 
#
# 1 0.007302 -0.002176 -0.001478 0.000000 0.001224 0.000000
# 2 -0.002176 0.009288 -0.002661 0.000000 -0.004413 0.000000
# 3 -0.001478 -0.002661 0.008614 0.000000 0.005305 0.000000
# 4 0.000000 0.000000 0.000000 0.047153 0.000000 -0.010683
# 5 0.001224 -0.004413 0.005305 0.000000 0.029892 0.000000
# 6 0.000000 0.000000 0.000000 -0.010683 0.000000 0.020972
#
#
# Mechanical properties :
#
#
# Convention : Reuss Voigt Hill
#
# Bulk Modulus (GPa) = 79.52408 80.95550 80.23979
# Shear Modulus (GPa) = 35.70352 44.15668 39.93010
#
# Velocity S-wave (km/s) = 3.77419 4.19727 3.99134
# Velocity P-wave (km/s) = 7.12181 7.46914 7.29754
#
# Compressibility (1/GPa) = 0.01257481
#
# Stress axis : x y z
#
# Youngs Moduli (GPa) = 136.94607 107.66666 116.08574
#
# Poissons Ratio (x) = 0.23430 0.17153
# Poissons Ratio (y) = 0.29802 0.30890
# Poissons Ratio (z) = 0.20235 0.28650
#
# Static dielectric constant tensor:
#      x y z
#    x 1.962020 0.000000 0.011390 
#    y 0.000000 1.989530 0.000000 
#    z 0.011390 0.000000 1.978750 
# 
# From -- ./inp_files/291.got.cif
#   From: 2010.05.17/outbox.cif.g08.bks.cpg/sg11_1_cif.got.tgz:291.got - 2010.06.03 12:22:45.
