data_PCOD9167002
_publ_section_title
;
Structure prediction by ZEFSAII (Michael W. Deem and Ramdas Pophale) SiO2 
 PCOD9167002
Probable space group: P 21/M
;
_chemical_formula_sum "Si O2"
_cell_formula_units_Z 24
_cell_length_a 7.088548
_cell_length_b 28.442029
_cell_length_c 7.841127
_cell_angle_alpha 90.000000
_cell_angle_beta 140.354493
_cell_angle_gamma 90.000000
_cell_volume 1008.652042
_symmetry_space_group_name_H-M "P 21/M"
_symmetry_group_IT_number 11
_symmetry_cell_setting 'monoclinic'
loop_
_space_group_symop_operation_xyz
x,y,z
-x,1/2+y,-z
-x,-y,-z
x,1/2-y,z
loop_
_atom_site_type_symbol
_atom_site_label
_atom_site_fract_x
_atom_site_fract_y
_atom_site_fract_z
Si Si1 0.844541 0.451868 0.844007
Si Si2 0.720580 0.694001 0.170821
Si Si3 0.733461 0.639017 0.831068
Si Si4 0.822052 0.085782 0.489518
Si Si5 0.490300 0.054380 0.931399
Si Si6 0.035163 0.806253 0.736148
O O1 0.739750 0.453878 0.574949
O O2 0.000000 0.500000 0.000000
O O3 0.081367 0.409284 0.022784
O O4 0.597708 0.442087 0.812935
O O5 0.748797 0.750000 0.165475
O O6 0.383566 0.684376 0.993025
O O7 0.929102 0.680226 0.472946
O O8 0.783063 0.669196 0.036038
O O9 0.384111 0.627498 0.580625
O O10 0.850055 0.666444 0.748410
O O11 0.826640 0.920808 0.274250
O O12 0.705575 0.078351 0.218004
O O13 0.500000 0.000000 0.000000
O O14 0.988265 0.750000 0.722076
#
# Coordination Sequence:
#
# PCOD9167002 Si02
#       6
#     4   4   4   4   4   4
#     4  12  29  49  73 107 148 200 254 312 366 435
#     4  10  25  48  75 109 150 190 239 304 378 456
#     4  12  28  44  78 110 151 192 254 306 372 450
#     4  12  28  47  69 109 138 192 242 304 367 431
#     4  12  27  48  74  95 145 195 249 307 368 427
#     4  10  25  48  78 112 149 193 242 304 377 450
#
# _framework density 23.794132000000001
#
# number of rings (size 3 to 8) (size 9 to 14) (size 15 to 20)
#    0.000    0.667    3.333    1.000    9.333    1.333 
#    0.000    5.000    0.000    0.000    0.000    0.000 
#    0.000    0.000    0.000    0.000    0.000    0.000 
#
# Total GULP energy -134494.425770 kJ/mol
# GULP energy per Si atom -5603.934407 kJ/mol
# Density = 2.373998 g / cm^3
# Si number density = 23.794132 Si / 1000 Ang^3
#
#
#
# Elastic Constant Matrix: (Units=GPa)
#
#
# Indices 1 2 3 4 5 6 
#
# 1 156.7531 43.4955 44.2988 0.0000 -11.2871 0.0000
# 2 43.4955 102.9565 15.4684 0.0000 -1.8819 0.0000
# 3 44.2988 15.4684 91.0772 0.0000 9.0554 0.0000
# 4 0.0000 0.0000 0.0000 42.2973 0.0000 -10.2268
# 5 -11.2871 -1.8819 9.0554 0.0000 53.7023 0.0000
# 6 0.0000 0.0000 0.0000 -10.2268 0.0000 45.0268
#
#
#
# Elastic Compliance Matrix: (Units=1/GPa)
#
#
# Indices 1 2 3 4 5 6 
#
# 1 0.008450 -0.002951 -0.003840 0.000000 0.002320 0.000000
# 2 -0.002951 0.011020 -0.000420 0.000000 -0.000163 0.000000
# 3 -0.003840 -0.000420 0.013222 0.000000 -0.003051 0.000000
# 4 0.000000 0.000000 0.000000 0.025016 0.000000 0.005682
# 5 0.002320 -0.000163 -0.003051 0.000000 0.019618 0.000000
# 6 0.000000 0.000000 0.000000 0.005682 0.000000 0.023500
#
#
# Mechanical properties :
#
#
# Convention : Reuss Voigt Hill
#
# Bulk Modulus (GPa) = 54.73194 61.92357 58.32775
# Shear Modulus (GPa) = 41.20776 44.70688 42.95732
#
# Velocity S-wave (km/s) = 4.16606 4.33933 4.25358
# Velocity P-wave (km/s) = 6.79659 7.15455 6.97787
#
# Compressibility (1/GPa) = 0.01827087
#
# Stress axis : x y z
#
# Youngs Moduli (GPa) = 118.33789 90.74789 75.63153
#
# Poissons Ratio (x) = 0.26777 0.29040
# Poissons Ratio (y) = 0.34918 0.03178
# Poissons Ratio (z) = 0.45438 0.03813
#
# Static dielectric constant tensor:
#      x y z
#    x 1.886970 0.000000 0.026110 
#    y 0.000000 1.955050 0.000000 
#    z 0.026110 0.000000 1.902310 
# 
# From -- ./inp_files/22886.got.cif
#   From: 2010.05.17/outbox.cif.g08.bks.cpg/sg11_12_cif.got.tgz:22886.got - 2010.06.03 12:22:45.
