data_PCOD9167590
_publ_section_title
;
Structure prediction by ZEFSAII (Michael W. Deem and Ramdas Pophale) SiO2 
 PCOD9167590
Probable space group: P 21/M
;
_chemical_formula_sum "Si O2"
_cell_formula_units_Z 14
_cell_length_a 32.477011
_cell_length_b 5.255042
_cell_length_c 25.976045
_cell_angle_alpha 90.000000
_cell_angle_beta 9.064443
_cell_angle_gamma 90.000000
_cell_volume 698.442432
_symmetry_space_group_name_H-M "P 21/M"
_symmetry_group_IT_number 11
_symmetry_cell_setting 'monoclinic'
loop_
_space_group_symop_operation_xyz
x,y,z
-x,1/2+y,-z
-x,-y,-z
x,1/2-y,z
loop_
_atom_site_type_symbol
_atom_site_label
_atom_site_fract_x
_atom_site_fract_y
_atom_site_fract_z
Si Si1 0.747628 0.250000 0.929487
Si Si2 0.632218 0.750000 0.136098
Si Si3 0.636433 0.750000 0.808992
Si Si4 0.366809 0.250000 0.310304
Si Si5 0.026209 0.750000 0.742106
Si Si6 0.674019 0.750000 0.276596
Si Si7 0.072908 0.750000 0.877707
O O1 0.059718 0.250000 0.549923
O O2 0.641520 0.499323 0.089680
O O3 0.636579 0.250000 0.008791
O O4 0.375123 0.750000 0.488664
O O5 0.883580 0.750000 0.862990
O O6 0.607902 0.750000 0.782460
O O7 0.500000 0.500000 0.000000
O O8 0.202489 0.499322 0.528709
O O9 0.805951 0.750000 0.057835
O O10 0.500000 0.500000 0.500000
O O11 0.903948 0.750000 0.034473
O O12 0.000000 0.500000 0.000000
#
# Coordination Sequence:
#
# PCOD9167590 Si02
#       7
#     2   2   2   2   2   2   2
#     4  12  25  45  71 103 133 177 229 272 336 407
#     4  12  23  44  69  96 134 180 225 284 332 398
#     4  12  26  46  72 102 142 172 218 284 344 406
#     4  12  25  45  71 103 133 177 229 272 336 407
#     4  12  23  44  69  96 134 180 225 284 332 398
#     4  12  25  42  62  95 133 178 227 281 341 394
#     4  12  25  42  62  95 133 178 227 281 341 394
#
# _framework density 20.044599999999999
#
# number of rings (size 3 to 8) (size 9 to 14) (size 15 to 20)
#    0.000    0.000    2.857    8.571    0.000    1.143 
#    0.000    0.000    0.000    0.000    0.000    0.000 
#    0.000    0.000    0.000    0.000    0.000    0.000 
#
# Total GULP energy -78438.574623 kJ/mol
# GULP energy per Si atom -5602.755330 kJ/mol
# Density = 1.999898 g / cm^3
# Si number density = 20.044600 Si / 1000 Ang^3
#
#
#
# Elastic Constant Matrix: (Units=GPa)
#
#
# Indices 1 2 3 4 5 6 
#
# 1 148.1342 44.2545 52.9951 0.0000 -16.7132 0.0000
# 2 44.2545 207.9141 73.4807 0.0000 18.3353 0.0000
# 3 52.9951 73.4807 131.7832 0.0000 6.4695 0.0000
# 4 0.0000 0.0000 0.0000 -76.2730 0.0000 223.5138
# 5 -16.7132 18.3353 6.4695 0.0000 48.7836 0.0000
# 6 0.0000 0.0000 0.0000 223.5138 0.0000 -431.3638
#
#
#
# Elastic Compliance Matrix: (Units=1/GPa)
#
#
# Indices 1 2 3 4 5 6 
#
# 1 0.008582 -0.001087 -0.003029 0.000000 0.003750 0.000000
# 2 -0.001087 0.006293 -0.002957 0.000000 -0.002345 0.000000
# 3 -0.003029 -0.002957 0.010520 0.000000 -0.001322 0.000000
# 4 0.000000 0.000000 0.000000 0.025290 0.000000 0.013104
# 5 0.003750 -0.002345 -0.001322 0.000000 0.022840 0.000000
# 6 0.000000 0.000000 0.000000 0.013104 0.000000 0.004472
#
#
# Mechanical properties :
#
#
# Convention : Reuss Voigt Hill
#
# Bulk Modulus (GPa) = 88.89412 92.14355 90.51884
# Shear Modulus (GPa) = 52.14215 -70.63056 -9.24421
#
# Velocity S-wave (km/s) = 5.10583 -5.94249 -2.14984
# Velocity P-wave (km/s) = 8.89965 1.00757 6.25254
#
# Compressibility (1/GPa) = 0.01124934
#
# Stress axis : x y z
#
# Youngs Moduli (GPa) = 116.51982 158.91312 95.05819
#
# Poissons Ratio (x) = 0.17271 0.28797
# Poissons Ratio (y) = 0.12664 0.28105
# Poissons Ratio (z) = 0.35298 0.46984
#
# Static dielectric constant tensor:
#      x y z
#    x 1.704320 0.000000 -0.016550 
#    y 0.000000 1.675020 0.000000 
#    z -0.016550 0.000000 1.677940 
# 
# From -- ./inp_files/50878.got.cif
#   From: 2010.05.17/outbox.cif.g08.bks.cpg/sg11_26_cif.got.tgz:50878.got - 2010.06.03 12:22:45.
