data_PCOD9167936
_publ_section_title
;
Structure prediction by ZEFSAII (Michael W. Deem and Ramdas Pophale) SiO2 
 PCOD9167936
Probable space group: P 21/M
;
_chemical_formula_sum "Si O2"
_cell_formula_units_Z 32
_cell_length_a 27.000000
_cell_length_b 9.000000
_cell_length_c 21.000000
_cell_angle_alpha 90.000000
_cell_angle_beta 160.000000
_cell_angle_gamma 90.000000
_cell_volume 1745.328791
_symmetry_space_group_name_H-M "P 21/M"
_symmetry_group_IT_number 11
_symmetry_cell_setting 'monoclinic'
loop_
_space_group_symop_operation_xyz
x,y,z
-x,1/2+y,-z
-x,-y,-z
x,1/2-y,z
loop_
_atom_site_type_symbol
_atom_site_label
_atom_site_fract_x
_atom_site_fract_y
_atom_site_fract_z
Si Si1 0.549490 0.930013 0.691618
Si Si2 0.044893 0.070304 0.704782
Si Si3 0.364437 0.429120 0.060571
Si Si4 0.496621 0.071416 0.090969
Si Si5 0.000698 0.924887 0.099215
Si Si6 0.855324 0.428109 0.041716
Si Si7 0.742194 0.927126 0.304420
Si Si8 0.760380 0.925815 0.698058
O O1 0.550392 0.750000 0.685459
O O2 0.397323 0.998861 0.484802
O O3 0.571424 0.968557 0.793139
O O4 0.695032 0.000688 0.837404
O O5 0.035916 0.250000 0.698354
O O6 0.194929 0.029809 0.849908
O O7 0.898082 0.005784 0.497326
O O8 0.075368 0.000225 0.811079
O O9 0.366408 0.250000 0.060432
O O10 0.459366 0.482197 0.116568
O O11 0.521940 0.250000 0.120485
O O12 0.635730 0.990313 0.230294
O O13 0.353773 0.044252 0.874969
O O14 0.018535 0.750000 0.135988
O O15 0.146170 0.988947 0.242823
O O16 0.956345 0.021560 0.105986
O O17 0.866012 0.937385 0.887011
O O18 0.844715 0.250000 0.034572
O O19 0.761376 0.750000 0.333637
O O20 0.743491 0.750000 0.663523
#
# Coordination Sequence:
#
# PCOD9167936 Si02
#       8
#     4   4   4   4   4   4   4   4
#     4  10  20  36  57  80 109 143 180 222 272 328
#     4  10  20  36  56  77 105 139 175 216 267 325
#     4   8  17  34  55  77 100 134 178 218 258 311
#     4   9  18  35  55  74 103 141 179 220 265 314
#     4  10  21  38  58  80 109 145 182 221 270 323
#     4  11  22  37  57  81 109 139 178 226 271 320
#     4  10  20  33  51  78 108 138 176 220 265 315
#     4  10  21  37  57  82 111 143 182 226 268 314
#
# _framework density 18.334654
#
# number of rings (size 3 to 8) (size 9 to 14) (size 15 to 20)
#    0.000    2.250    0.000    3.750    0.000    4.000 
#    0.000    7.500    0.000    0.000    0.000    0.000 
#    0.000    0.000    0.000    0.000    0.000    0.000 
#
# Total GULP energy -178544.099744 kJ/mol
# GULP energy per Si atom -5579.503117 kJ/mol
# Density = 1.829292 g / cm^3
# Si number density = 18.334654 Si / 1000 Ang^3
#
#
#
# Elastic Constant Matrix: (Units=GPa)
#
#
# Indices 1 2 3 4 5 6 
#
# 1 30.1371 -4.6843 -43.0997 0.0000 1.2807 0.0000
# 2 -4.6843 87.6349 8.6307 0.0000 -0.6142 0.0000
# 3 -43.0997 8.6307 36.8921 0.0000 2.7563 0.0000
# 4 0.0000 0.0000 0.0000 39.8846 0.0000 3.6814
# 5 1.2807 -0.6142 2.7563 0.0000 8.2457 0.0000
# 6 0.0000 0.0000 0.0000 3.6814 0.0000 20.7757
#
#
#
# Elastic Compliance Matrix: (Units=1/GPa)
#
#
# Indices 1 2 3 4 5 6 
#
# 1 -0.043159 0.003084 -0.052984 0.000000 0.024643 0.000000
# 2 0.003084 0.011487 0.000910 0.000000 0.000072 0.000000
# 3 -0.052984 0.000910 -0.036538 0.000000 0.020510 0.000000
# 4 0.000000 0.000000 0.000000 0.025489 0.000000 -0.004517
# 5 0.024643 0.000072 0.020510 0.000000 0.110598 0.000000
# 6 0.000000 0.000000 0.000000 -0.004517 0.000000 0.048933
#
#
# Mechanical properties :
#
#
# Convention : Reuss Voigt Hill
#
# Bulk Modulus (GPa) = -6.01723 8.48418 1.23348
# Shear Modulus (GPa) = 31.36903 26.70237 29.03570
#
# Velocity S-wave (km/s) = 4.14081 3.82041 3.98383
# Velocity P-wave (km/s) = 4.42410 4.90898 4.67284
#
# Compressibility (1/GPa) = -0.16618938
#
# Stress axis : x y z
#
# Youngs Moduli (GPa) = -23.17017 87.05726 -27.36889
#
# Poissons Ratio (x) = -0.26847 -1.45010
# Poissons Ratio (y) = 0.07145 0.02491
# Poissons Ratio (z) = -1.22764 -0.07923
#
# Static dielectric constant tensor:
#      x y z
#    x 1.654960 0.000000 -0.011440 
#    y 0.000000 1.610420 0.000000 
#    z -0.011440 0.000000 1.602640 
# 
# From -- ./inp_files/67245.got.cif
#   From: 2010.05.17/outbox.ucp.g08.bks.cvg/sg11_34_cif.got.tgz:67245.got - 2010.06.11 11:38:39.
