data_PCOD9167379
_publ_section_title
;
Structure prediction by ZEFSAII (Michael W. Deem and Ramdas Pophale) SiO2 
 PCOD9167379
Probable space group: P 21/M
;
_chemical_formula_sum "Si O2"
_cell_formula_units_Z 28
_cell_length_a 18.545307
_cell_length_b 7.521670
_cell_length_c 16.965636
_cell_angle_alpha 90.000000
_cell_angle_beta 155.180168
_cell_angle_gamma 90.000000
_cell_volume 993.404186
_symmetry_space_group_name_H-M "P 21/M"
_symmetry_group_IT_number 11
_symmetry_cell_setting 'monoclinic'
loop_
_space_group_symop_operation_xyz
x,y,z
-x,1/2+y,-z
-x,-y,-z
x,1/2-y,z
loop_
_atom_site_type_symbol
_atom_site_label
_atom_site_fract_x
_atom_site_fract_y
_atom_site_fract_z
Si Si1 0.725852 0.536248 0.208298
Si Si2 0.489047 0.037834 0.144322
Si Si3 0.676820 0.039528 0.476494
Si Si4 0.634960 0.958769 0.728030
Si Si5 0.931649 0.962653 0.555954
Si Si6 0.147457 0.962721 0.910591
Si Si7 0.165559 0.459993 0.215585
O O1 0.713143 0.750000 0.200101
O O2 0.777071 0.466651 0.346495
O O3 0.896980 0.497348 0.326424
O O4 0.570300 0.462422 0.999599
O O5 0.503978 0.250000 0.149906
O O6 0.639601 0.965732 0.351882
O O7 0.317966 0.005925 0.028034
O O8 0.651459 0.250000 0.442297
O O9 0.523441 0.963335 0.380110
O O10 0.831981 0.017548 0.691396
O O11 0.601758 0.750000 0.685432
O O12 0.684624 0.036951 0.692570
O O13 0.797230 0.972823 0.948466
O O14 0.914957 0.750000 0.544364
O O15 0.988989 0.033409 0.699181
O O16 0.125850 0.750000 0.894262
O O17 0.183250 0.250000 0.235963
O O18 0.000000 0.500000 0.000000
#
# Coordination Sequence:
#
# PCOD9167379 Si02
#       7
#     4   4   4   4   4   4   4
#     4   8  12  19  31  47  74 113 148 175 209 254
#     4   8  14  24  38  57  83 116 150 182 217 259
#     4   9  17  31  50  71  94 119 151 188 222 262
#     4   9  19  34  50  68  91 120 153 186 222 269
#     4   8  13  19  28  48  78 110 144 179 213 251
#     4   9  15  22  36  59  85 113 147 186 222 256
#     4  11  23  37  52  70  92 118 148 184 228 275
#
# _framework density 28.18591
#
# number of rings (size 3 to 8) (size 9 to 14) (size 15 to 20)
#    0.000    3.143    0.000    2.143    0.000    4.000 
#    0.000    0.000    0.000    0.000    0.000    0.000 
#    0.000    1.143    0.000    2.286    0.000   11.286 
#
# Total GULP energy -156561.751391 kJ/mol
# GULP energy per Si atom -5591.491121 kJ/mol
# Density = 2.812176 g / cm^3
# Si number density = 28.185910 Si / 1000 Ang^3
#
#
#
# Elastic Constant Matrix: (Units=GPa)
#
#
# Indices 1 2 3 4 5 6 
#
# 1 139.8859 6.5419 53.6875 0.0000 -76.3557 0.0000
# 2 6.5419 119.2292 4.4518 0.0000 -8.4936 0.0000
# 3 53.6875 4.4518 266.4964 0.0000 -50.4116 0.0000
# 4 0.0000 0.0000 0.0000 24.8618 0.0000 -2.4433
# 5 -76.3557 -8.4936 -50.4116 0.0000 76.1840 0.0000
# 6 0.0000 0.0000 0.0000 -2.4433 0.0000 22.2718
#
#
#
# Elastic Compliance Matrix: (Units=1/GPa)
#
#
# Indices 1 2 3 4 5 6 
#
# 1 0.015802 0.000261 -0.000213 0.000000 0.015726 0.000000
# 2 0.000261 0.008459 0.000039 0.000000 0.001231 0.000000
# 3 -0.000213 0.000039 0.004292 0.000000 0.002631 0.000000
# 4 0.000000 0.000000 0.000000 0.040661 0.000000 0.004461
# 5 0.015726 0.001231 0.002631 0.000000 0.030766 0.000000
# 6 0.000000 0.000000 0.000000 0.004461 0.000000 0.045389
#
#
# Mechanical properties :
#
#
# Convention : Reuss Voigt Hill
#
# Bulk Modulus (GPa) = 34.80979 72.77488 53.79234
# Shear Modulus (GPa) = 32.30582 55.39221 43.84901
#
# Velocity S-wave (km/s) = 3.38918 4.43792 3.94852
# Velocity P-wave (km/s) = 5.26235 7.22051 6.31776
#
# Compressibility (1/GPa) = 0.02872755
#
# Stress axis : x y z
#
# Youngs Moduli (GPa) = 63.28293 118.21608 232.97110
#
# Poissons Ratio (x) = -0.03088 0.04963
# Poissons Ratio (y) = -0.01653 -0.00905
# Poissons Ratio (z) = 0.01348 -0.00459
#
# Static dielectric constant tensor:
#      x y z
#    x 2.251050 0.000000 0.128410 
#    y 0.000000 1.985530 0.000000 
#    z 0.128410 0.000000 2.350190 
# 
# From -- ./inp_files/29098.got.cif
#   From: 2010.05.17/outbox.cif.g08.bks.cpg/sg11_15_cif.got.tgz:29098.got - 2010.06.03 12:22:45.
