data_PCOD9167759
_publ_section_title
;
Structure prediction by ZEFSAII (Michael W. Deem and Ramdas Pophale) SiO2 
 PCOD9167759
Probable space group: P 21/M
;
_chemical_formula_sum "Si O2"
_cell_formula_units_Z 28
_cell_length_a 21.000000
_cell_length_b 9.000000
_cell_length_c 18.000000
_cell_angle_alpha 90.000000
_cell_angle_beta 150.000000
_cell_angle_gamma 90.000000
_cell_volume 1701.000000
_symmetry_space_group_name_H-M "P 21/M"
_symmetry_group_IT_number 11
_symmetry_cell_setting 'monoclinic'
loop_
_space_group_symop_operation_xyz
x,y,z
-x,1/2+y,-z
-x,-y,-z
x,1/2-y,z
loop_
_atom_site_type_symbol
_atom_site_label
_atom_site_fract_x
_atom_site_fract_y
_atom_site_fract_z
Si Si1 0.153694 0.428830 0.350711
Si Si2 0.839945 0.079171 0.488863
Si Si3 0.140503 0.071885 0.639610
Si Si4 0.141352 0.573326 0.954464
Si Si5 0.149513 0.420276 0.811018
Si Si6 0.357817 0.072865 0.271227
Si Si7 0.376579 0.428144 0.464333
O O1 0.152488 0.250000 0.356201
O O2 0.196096 0.498223 0.471682
O O3 0.254879 0.471518 0.390258
O O4 0.007139 0.473810 0.185765
O O5 0.799319 0.250000 0.446562
O O6 0.995243 0.077870 0.647277
O O7 0.797195 0.995130 0.371158
O O8 0.129037 0.250000 0.622300
O O9 0.200620 0.038227 0.780974
O O10 0.000000 0.000000 0.500000
O O11 0.147856 0.750000 0.969747
O O12 0.180212 0.526307 0.910174
O O13 0.237802 0.495513 0.107875
O O14 0.186171 0.250000 0.865293
O O15 0.358183 0.250000 0.263247
O O16 0.351601 0.036458 0.352718
O O17 0.492211 0.006143 0.379626
O O18 0.393111 0.250000 0.486985
#
# Coordination Sequence:
#
# PCOD9167759 Si02
#       7
#     4   4   4   4   4   4   4
#     4   9  18  32  49  70  97 127 159 197 240 283
#     4   9  16  25  39  62  92 124 157 193 234 280
#     4   9  15  23  37  58  87 123 159 194 234 278
#     4  10  19  30  47  71  98 127 158 194 238 285
#     4   8  15  26  39  59  89 123 157 193 232 273
#     4  10  20  34  52  72  95 124 158 197 239 284
#     4   9  19  36  54  71  93 123 160 199 238 283
#
# _framework density 16.460905
#
# number of rings (size 3 to 8) (size 9 to 14) (size 15 to 20)
#    0.000    2.857    0.000    2.571    0.000    6.286 
#    0.000    0.000    0.000    0.000    0.000    1.000 
#    0.000    0.000    0.000    0.000    0.000    0.000 
#
# Total GULP energy -155905.226742 kJ/mol
# GULP energy per Si atom -5568.043812 kJ/mol
# Density = 1.642344 g / cm^3
# Si number density = 16.460905 Si / 1000 Ang^3
#
#
#
# Elastic Constant Matrix: (Units=GPa)
#
#
# Indices 1 2 3 4 5 6 
#
# 1 101.3090 47.9197 75.6739 0.0000 -10.6514 0.0000
# 2 47.9197 42.5266 35.3984 0.0000 -2.5489 0.0000
# 3 75.6739 35.3984 50.7020 0.0000 4.7330 0.0000
# 4 0.0000 0.0000 0.0000 21.6097 0.0000 -5.7103
# 5 -10.6514 -2.5489 4.7330 0.0000 7.2631 0.0000
# 6 0.0000 0.0000 0.0000 -5.7103 0.0000 23.3332
#
#
#
# Elastic Compliance Matrix: (Units=1/GPa)
#
#
# Indices 1 2 3 4 5 6 
#
# 1 -0.011201 -0.017616 0.033142 0.000000 -0.044205 0.000000
# 2 -0.017616 0.050482 -0.008726 0.000000 -0.002430 0.000000
# 3 0.033142 -0.008726 -0.029709 0.000000 0.064901 0.000000
# 4 0.000000 0.000000 0.000000 0.049475 0.000000 0.012108
# 5 -0.044205 -0.002430 0.064901 0.000000 0.029709 0.000000
# 6 0.000000 0.000000 0.000000 0.012108 0.000000 0.045820
#
#
# Mechanical properties :
#
#
# Convention : Reuss Voigt Hill
#
# Bulk Modulus (GPa) = 43.15243 56.94683 50.04963
# Shear Modulus (GPa) = 38.84966 12.81092 25.83029
#
# Velocity S-wave (km/s) = 4.86337 2.79276 3.96560
# Velocity P-wave (km/s) = 7.60319 6.71340 7.17211
#
# Compressibility (1/GPa) = 0.02317367
#
# Stress axis : x y z
#
# Youngs Moduli (GPa) = -89.28081 19.80896 -33.66032
#
# Poissons Ratio (x) = 0.34895 1.11558
# Poissons Ratio (y) = -1.57273 -0.29373
# Poissons Ratio (z) = 2.95897 0.17286
#
# Static dielectric constant tensor:
#      x y z
#    x 1.579800 0.000000 -0.017490 
#    y 0.000000 1.551580 0.000000 
#    z -0.017490 0.000000 1.526970 
# 
# From -- ./inp_files/28403.got.cif
#   From: 2010.05.17/outbox.ucp.g08.bks.cvg/sg11_15_cif.got.tgz:28403.got - 2010.06.11 11:38:39.
