data_PCOD9167048
_publ_section_title
;
Structure prediction by ZEFSAII (Michael W. Deem and Ramdas Pophale) SiO2 
 PCOD9167048
Probable space group: P 21/M
;
_chemical_formula_sum "Si O2"
_cell_formula_units_Z 20
_cell_length_a 7.137006
_cell_length_b 17.928405
_cell_length_c 11.307435
_cell_angle_alpha 90.000000
_cell_angle_beta 41.612613
_cell_angle_gamma 90.000000
_cell_volume 960.836052
_symmetry_space_group_name_H-M "P 21/M"
_symmetry_group_IT_number 11
_symmetry_cell_setting 'monoclinic'
loop_
_space_group_symop_operation_xyz
x,y,z
-x,1/2+y,-z
-x,-y,-z
x,1/2-y,z
loop_
_atom_site_type_symbol
_atom_site_label
_atom_site_fract_x
_atom_site_fract_y
_atom_site_fract_z
Si Si1 0.684486 0.432769 0.463215
Si Si2 0.230547 0.544491 0.969340
Si Si3 0.918991 0.337212 0.134079
Si Si4 0.824616 0.465563 0.724008
Si Si5 0.452952 0.837093 0.258659
O O1 0.500000 0.500000 0.500000
O O2 0.516072 0.378360 0.630068
O O3 0.821206 0.383963 0.294130
O O4 0.927439 0.476563 0.419512
O O5 0.532596 0.504506 0.822227
O O6 0.231184 0.625484 0.908679
O O7 0.158436 0.543330 0.141433
O O8 0.000000 0.500000 0.000000
O O9 0.854158 0.250000 0.177261
O O10 0.256105 0.344471 0.952373
O O11 0.797994 0.382036 0.686912
O O12 0.393561 0.750000 0.301875
#
# Coordination Sequence:
#
# PCOD9167048 Si02
#       5
#     4   4   4   4   4
#     4  12  24  43  69  97 134 179 231 277 330 406
#     4  11  19  40  69 100 128 169 229 270 321 406
#     4  11  23  42  68  98 135 177 218 279 346 393
#     4  11  22  39  69  97 129 177 225 269 332 398
#     4  11  24  42  64  99 138 172 221 284 341 399
#
# _framework density 20.815204999999999
#
# number of rings (size 3 to 8) (size 9 to 14) (size 15 to 20)
#    0.000    0.800    4.000    4.800    0.000    0.800 
#    0.000    6.000    0.000    0.000    0.000    0.000 
#    0.000    0.000    0.000    0.000    0.000    0.000 
#
# Total GULP energy -111813.523155 kJ/mol
# GULP energy per Si atom -5590.676158 kJ/mol
# Density = 2.076783 g / cm^3
# Si number density = 20.815205 Si / 1000 Ang^3
#
#
#
# Elastic Constant Matrix: (Units=GPa)
#
#
# Indices 1 2 3 4 5 6 
#
# 1 114.3823 62.1925 30.0592 0.0000 -6.5928 0.0000
# 2 62.1925 208.2955 68.7024 0.0000 2.7143 0.0000
# 3 30.0592 68.7024 103.8423 0.0000 15.5504 0.0000
# 4 0.0000 0.0000 0.0000 39.8620 0.0000 5.9896
# 5 -6.5928 2.7143 15.5504 0.0000 29.1013 0.0000
# 6 0.0000 0.0000 0.0000 5.9896 0.0000 33.3883
#
#
#
# Elastic Compliance Matrix: (Units=1/GPa)
#
#
# Indices 1 2 3 4 5 6 
#
# 1 0.010924 -0.002663 -0.001966 0.000000 0.003774 0.000000
# 2 -0.002663 0.006872 -0.003902 0.000000 0.000841 0.000000
# 3 -0.001966 -0.003902 0.013905 0.000000 -0.007512 0.000000
# 4 0.000000 0.000000 0.000000 0.025781 0.000000 -0.004625
# 5 0.003774 0.000841 -0.007512 0.000000 0.039153 0.000000
# 6 0.000000 0.000000 0.000000 -0.004625 0.000000 0.030780
#
#
# Mechanical properties :
#
#
# Convention : Reuss Voigt Hill
#
# Bulk Modulus (GPa) = 68.29899 83.15867 75.72883
# Shear Modulus (GPa) = 33.47691 38.17473 35.82582
#
# Velocity S-wave (km/s) = 4.01470 4.28715 4.15316
# Velocity P-wave (km/s) = 7.37385 8.03392 7.71095
#
# Compressibility (1/GPa) = 0.01464150
#
# Stress axis : x y z
#
# Youngs Moduli (GPa) = 91.53786 145.52334 71.91563
#
# Poissons Ratio (x) = 0.38747 0.14137
# Poissons Ratio (y) = 0.24373 0.28058
# Poissons Ratio (z) = 0.17995 0.56776
#
# Static dielectric constant tensor:
#      x y z
#    x 1.755360 0.000000 0.025180 
#    y 0.000000 1.755290 0.000000 
#    z 0.025180 0.000000 1.838330 
# 
# From -- ./inp_files/29745.got.cif
#   From: 2010.05.17/outbox.cif.g08.bks.cpg/sg11_15_cif.got.tgz:29745.got - 2010.06.03 12:22:45.
