data_PCOD9167504
_publ_section_title
;
Structure prediction by ZEFSAII (Michael W. Deem and Ramdas Pophale) SiO2 
 PCOD9167504
Probable space group: P 21/M
;
_chemical_formula_sum "Si O2"
_cell_formula_units_Z 18
_cell_length_a 6.150312
_cell_length_b 10.644259
_cell_length_c 11.528717
_cell_angle_alpha 90.000000
_cell_angle_beta 105.324343
_cell_angle_gamma 90.000000
_cell_volume 727.899004
_symmetry_space_group_name_H-M "P 21/M"
_symmetry_group_IT_number 11
_symmetry_cell_setting 'monoclinic'
loop_
_space_group_symop_operation_xyz
x,y,z
-x,1/2+y,-z
-x,-y,-z
x,1/2-y,z
loop_
_atom_site_type_symbol
_atom_site_label
_atom_site_fract_x
_atom_site_fract_y
_atom_site_fract_z
Si Si1 0.070456 0.750000 0.160166
Si Si2 0.163434 0.750000 0.901356
Si Si3 0.538118 0.750000 0.230805
Si Si4 0.750902 0.977510 0.187455
Si Si5 0.965225 0.750000 0.466013
Si Si6 0.349581 0.562472 0.578437
Si Si7 0.275324 0.250000 0.315294
O O1 0.304069 0.750000 0.264400
O O2 0.943740 0.881848 0.168353
O O3 0.125813 0.750000 0.032519
O O4 0.265425 0.614561 0.873772
O O5 0.919816 0.750000 0.804735
O O6 0.545367 0.877369 0.156335
O O7 0.759441 0.750000 0.345067
O O8 0.771338 0.001300 0.328012
O O9 0.145802 0.637232 0.490650
O O10 0.840549 0.750000 0.573829
O O11 0.500000 0.500000 0.500000
O O12 0.550499 0.637112 0.670429
#
# Coordination Sequence:
#
# PCOD9167504 Si02
#       7
#     2   2   2   4   2   4   2
#     4  11  29  54  75 113 150 209 259 332 383 441
#     4  12  25  52  82 106 155 197 271 327 377 452
#     4  11  28  45  78 109 158 208 251 310 393 459
#     4  11  26  51  75 112 154 195 266 317 381 467
#     4  11  24  47  68 113 157 200 252 310 381 481
#     4  11  25  43  74 113 154 204 246 311 397 464
#     4  11  24  42  73 115 146 200 253 315 388 453
#
# _framework density 24.728704
#
# number of rings (size 3 to 8) (size 9 to 14) (size 15 to 20)
#    0.000    0.889    2.222    2.667    6.222   10.667 
#    8.000    1.111    0.000    0.000    0.000    0.000 
#    0.000    0.000    0.000    0.000    0.000    0.000 
#
# Total GULP energy -100357.059069 kJ/mol
# GULP energy per Si atom -5575.392170 kJ/mol
# Density = 2.467242 g / cm^3
# Si number density = 24.728704 Si / 1000 Ang^3
#
#
#
# Elastic Constant Matrix: (Units=GPa)
#
#
# Indices 1 2 3 4 5 6 
#
# 1 79.7696 29.2151 61.4928 0.0000 -15.2318 0.0000
# 2 29.2151 185.5264 77.0478 0.0000 -35.0901 0.0000
# 3 61.4928 77.0478 160.3343 0.0000 -24.8078 0.0000
# 4 0.0000 0.0000 0.0000 29.9734 0.0000 -21.2386
# 5 -15.2318 -35.0901 -24.8078 0.0000 48.9084 0.0000
# 6 0.0000 0.0000 0.0000 -21.2386 0.0000 41.4438
#
#
#
# Elastic Compliance Matrix: (Units=1/GPa)
#
#
# Indices 1 2 3 4 5 6 
#
# 1 0.018057 0.000433 -0.006744 0.000000 0.002513 0.000000
# 2 0.000433 0.007331 -0.003097 0.000000 0.003824 0.000000
# 3 -0.006744 -0.003097 0.010465 0.000000 0.000985 0.000000
# 4 0.000000 0.000000 0.000000 0.052385 0.000000 0.026846
# 5 0.002513 0.003824 0.000985 0.000000 0.024472 0.000000
# 6 0.000000 0.000000 0.000000 0.026846 0.000000 0.037887
#
#
# Mechanical properties :
#
#
# Convention : Reuss Voigt Hill
#
# Bulk Modulus (GPa) = 58.70437 84.57132 71.63784
# Shear Modulus (GPa) = 28.55624 41.25675 34.90649
#
# Velocity S-wave (km/s) = 3.40189 4.08901 3.76117
# Velocity P-wave (km/s) = 6.26270 7.52112 6.92057
#
# Compressibility (1/GPa) = 0.01703451
#
# Stress axis : x y z
#
# Youngs Moduli (GPa) = 55.38162 136.39801 95.56097
#
# Poissons Ratio (x) = -0.05903 0.64450
# Poissons Ratio (y) = -0.02397 0.29600
# Poissons Ratio (z) = 0.37351 0.42249
#
# Static dielectric constant tensor:
#      x y z
#    x 1.920360 0.000000 -0.014450 
#    y 0.000000 2.250830 0.000000 
#    z -0.014450 0.000000 2.076370 
# 
# From -- ./inp_files/29471.got.cif
#   From: 2010.05.17/outbox.cif.g08.bks.cpg/sg11_15_cif.got.tgz:29471.got - 2010.06.03 12:22:45.
