data_PCOD9167261
_publ_section_title
;
Structure prediction by ZEFSAII (Michael W. Deem and Ramdas Pophale) SiO2 
 PCOD9167261
Probable space group: P 21/M
;
_chemical_formula_sum "Si O2"
_cell_formula_units_Z 28
_cell_length_a 9.578614
_cell_length_b 8.726216
_cell_length_c 30.125408
_cell_angle_alpha 90.000000
_cell_angle_beta 37.327592
_cell_angle_gamma 90.000000
_cell_volume 1526.863745
_symmetry_space_group_name_H-M "P 21/M"
_symmetry_group_IT_number 11
_symmetry_cell_setting 'monoclinic'
loop_
_space_group_symop_operation_xyz
x,y,z
-x,1/2+y,-z
-x,-y,-z
x,1/2-y,z
loop_
_atom_site_type_symbol
_atom_site_label
_atom_site_fract_x
_atom_site_fract_y
_atom_site_fract_z
Si Si1 0.994853 0.934805 0.367950
Si Si2 0.756732 0.933799 0.932405
Si Si3 0.850284 0.066274 0.498129
Si Si4 0.086282 0.564892 0.200290
Si Si5 0.323213 0.436221 0.632953
Si Si6 0.079052 0.933325 0.932944
Si Si7 0.583759 0.434130 0.801360
O O1 0.986219 0.750000 0.374773
O O2 0.797903 0.982032 0.382513
O O3 0.237248 0.972789 0.283151
O O4 0.951976 0.011463 0.425668
O O5 0.744972 0.750000 0.935711
O O6 0.909321 0.983573 0.936132
O O7 0.869655 0.990281 0.858099
O O8 0.500000 0.000000 0.000000
O O9 0.850845 0.250000 0.499834
O O10 0.585189 0.011963 0.569449
O O11 0.000000 0.000000 0.500000
O O12 0.085724 0.750000 0.195940
O O13 0.287929 0.526439 0.184745
O O14 0.846488 0.517213 0.284214
O O15 0.322257 0.250000 0.633484
O O16 0.070173 0.750000 0.937416
O O17 0.339149 0.986985 0.858452
O O18 0.000000 0.000000 0.000000
O O19 0.553552 0.250000 0.808956
#
# Coordination Sequence:
#
# PCOD9167261 Si02
#       7
#     4   4   4   4   4   4   4
#     4   9  18  36  59  81 106 139 179 224 270 319
#     4  11  24  39  55  80 110 141 177 219 264 314
#     4  11  22  35  52  78 111 146 183 224 269 319
#     4   9  18  36  60  83 106 137 178 222 265 317
#     4   8  17  35  58  80 105 140 181 221 266 319
#     4  11  24  39  56  80 111 143 180 222 266 318
#     4   9  19  36  59  84 109 138 176 220 269 322
#
# _framework density 18.338242999999999
#
# number of rings (size 3 to 8) (size 9 to 14) (size 15 to 20)
#    0.000    2.286    0.000    4.286    0.000    8.000 
#    0.000    8.571    0.000    0.000    0.000    0.000 
#    0.000    0.000    0.000    0.000    0.000    0.000 
#
# Total GULP energy -156344.252380 kJ/mol
# GULP energy per Si atom -5583.723299 kJ/mol
# Density = 1.829650 g / cm^3
# Si number density = 18.338243 Si / 1000 Ang^3
#
#
#
# Elastic Constant Matrix: (Units=GPa)
#
#
# Indices 1 2 3 4 5 6 
#
# 1 175.0457 52.7668 135.3031 0.0000 1.0377 0.0000
# 2 52.7668 34.2568 48.2263 0.0000 0.0216 0.0000
# 3 135.3031 48.2263 154.6221 0.0000 6.6978 0.0000
# 4 0.0000 0.0000 0.0000 35.1770 0.0000 3.7083
# 5 1.0377 0.0216 6.6978 0.0000 36.8517 0.0000
# 6 0.0000 0.0000 0.0000 3.7083 0.0000 30.7067
#
#
#
# Elastic Compliance Matrix: (Units=1/GPa)
#
#
# Indices 1 2 3 4 5 6 
#
# 1 0.019816 -0.010680 -0.014096 0.000000 0.002010 0.000000
# 2 -0.010680 0.058117 -0.008862 0.000000 0.001877 0.000000
# 3 -0.014096 -0.008862 0.021720 0.000000 -0.003545 0.000000
# 4 0.000000 0.000000 0.000000 0.028794 0.000000 -0.003477
# 5 0.002010 0.001877 -0.003545 0.000000 0.027722 0.000000
# 6 0.000000 0.000000 0.000000 -0.003477 0.000000 0.032986
#
#
# Mechanical properties :
#
#
# Convention : Reuss Voigt Hill
#
# Bulk Modulus (GPa) = 30.88679 92.94632 61.91656
# Shear Modulus (GPa) = 18.71076 29.05564 23.88320
#
# Velocity S-wave (km/s) = 3.19770 3.98481 3.61275
# Velocity P-wave (km/s) = 5.52387 8.48328 7.15818
#
# Compressibility (1/GPa) = 0.03237630
#
# Stress axis : x y z
#
# Youngs Moduli (GPa) = 50.46373 17.20656 46.04041
#
# Poissons Ratio (x) = 0.18377 0.64900
# Poissons Ratio (y) = 0.53897 0.40802
# Poissons Ratio (z) = 0.71135 0.15249
#
# Static dielectric constant tensor:
#      x y z
#    x 1.610770 0.000000 -0.010250 
#    y 0.000000 1.623350 0.000000 
#    z -0.010250 0.000000 1.615910 
# 
# From -- ./inp_files/63392.got.cif
#   From: 2010.05.17/outbox.cif.g08.bks.cpg/sg11_32_cif.got.tgz:63392.got - 2010.06.03 12:22:45.
