data_PCOD9167822
_publ_section_title
;
Structure prediction by ZEFSAII (Michael W. Deem and Ramdas Pophale) SiO2 
 PCOD9167822
Probable space group: P 21/M
;
_chemical_formula_sum "Si O2"
_cell_formula_units_Z 28
_cell_length_a 18.000000
_cell_length_b 9.000000
_cell_length_c 15.000000
_cell_angle_alpha 90.000000
_cell_angle_beta 140.000000
_cell_angle_gamma 90.000000
_cell_volume 1561.973892
_symmetry_space_group_name_H-M "P 21/M"
_symmetry_group_IT_number 11
_symmetry_cell_setting 'monoclinic'
loop_
_space_group_symop_operation_xyz
x,y,z
-x,1/2+y,-z
-x,-y,-z
x,1/2-y,z
loop_
_atom_site_type_symbol
_atom_site_label
_atom_site_fract_x
_atom_site_fract_y
_atom_site_fract_z
Si Si1 0.322556 0.574394 0.624338
Si Si2 0.830112 0.070718 0.679732
Si Si3 0.737479 0.428211 0.071516
Si Si4 0.279660 0.571524 0.234862
Si Si5 0.425429 0.075616 0.225280
Si Si6 0.921043 0.426873 0.093982
Si Si7 0.374294 0.071091 0.861763
O O1 0.306923 0.750000 0.631780
O O2 0.223316 0.524199 0.464499
O O3 0.440339 0.563065 0.675211
O O4 0.336147 0.484670 0.728689
O O5 0.831218 0.250000 0.681696
O O6 0.753083 0.025614 0.694842
O O7 0.959367 0.010809 0.808187
O O8 0.728804 0.250000 0.075040
O O9 0.856796 0.461858 0.128709
O O10 0.712183 0.510382 0.141070
O O11 0.641378 0.484255 0.912745
O O12 0.298835 0.750000 0.250596
O O13 0.385623 0.489464 0.283689
O O14 0.169594 0.539953 0.068962
O O15 0.393489 0.250000 0.190673
O O16 0.941289 0.250000 0.110627
O O17 0.381986 0.250000 0.872083
O O18 0.500000 0.000000 0.000000
#
# Coordination Sequence:
#
# PCOD9167822 Si02
#       7
#     4   4   4   4   4   4   4
#     4  10  22  38  54  79 115 148 184 229 277 328
#     4  10  21  37  56  78 110 152 189 229 278 327
#     4  10  20  36  58  84 113 142 179 230 281 322
#     4   9  19  35  55  80 111 146 186 233 281 323
#     4  10  19  32  53  81 111 144 184 228 276 330
#     4   9  19  35  56  82 111 143 183 232 277 324
#     4  12  23  36  59  87 112 143 182 223 272 330
#
# _framework density 17.926036
#
# number of rings (size 3 to 8) (size 9 to 14) (size 15 to 20)
#    0.000    2.000    1.429    3.429    0.000    5.143 
#    0.000    0.714    0.000    0.000    0.000    0.000 
#    0.000    0.000    0.000    0.000    0.000    0.000 
#
# Total GULP energy -156291.282953 kJ/mol
# GULP energy per Si atom -5581.831534 kJ/mol
# Density = 1.788524 g / cm^3
# Si number density = 17.926036 Si / 1000 Ang^3
#
#
#
# Elastic Constant Matrix: (Units=GPa)
#
#
# Indices 1 2 3 4 5 6 
#
# 1 88.2418 31.8533 12.3470 0.0000 -28.0049 0.0000
# 2 31.8533 66.1991 14.4171 0.0000 -12.8926 0.0000
# 3 12.3470 14.4171 35.7718 0.0000 -22.2338 0.0000
# 4 0.0000 0.0000 0.0000 19.4819 0.0000 -0.9668
# 5 -28.0049 -12.8926 -22.2338 0.0000 26.2784 0.0000
# 6 0.0000 0.0000 0.0000 -0.9668 0.0000 35.3894
#
#
#
# Elastic Compliance Matrix: (Units=1/GPa)
#
#
# Indices 1 2 3 4 5 6 
#
# 1 0.022870 -0.007911 0.016939 0.000000 0.034822 0.000000
# 2 -0.007911 0.019644 -0.009358 0.000000 -0.006711 0.000000
# 3 0.016939 -0.009358 0.072232 0.000000 0.074575 0.000000
# 4 0.000000 0.000000 0.000000 0.051399 0.000000 0.001404
# 5 0.034822 -0.006711 0.074575 0.000000 0.134969 0.000000
# 6 0.000000 0.000000 0.000000 0.001404 0.000000 0.028295
#
#
# Mechanical properties :
#
#
# Convention : Reuss Voigt Hill
#
# Bulk Modulus (GPa) = 8.76545 34.16083 21.46314
# Shear Modulus (GPa) = 13.58335 25.00293 19.29314
#
# Velocity S-wave (km/s) = 2.75570 3.73873 3.28420
# Velocity P-wave (km/s) = 3.87629 6.14291 5.13619
#
# Compressibility (1/GPa) = 0.11408424
#
# Stress axis : x y z
#
# Youngs Moduli (GPa) = 43.72606 50.90707 13.84433
#
# Poissons Ratio (x) = 0.40275 -0.23450
# Poissons Ratio (y) = 0.34594 0.12955
# Poissons Ratio (z) = -0.74066 0.47636
#
# Static dielectric constant tensor:
#      x y z
#    x 1.617460 0.000000 0.000120 
#    y 0.000000 1.604480 0.000000 
#    z 0.000120 0.000000 1.605810 
# 
# From -- ./inp_files/53267.got.cif
#   From: 2010.05.17/outbox.ucp.g08.bks.cvg/sg11_27_cif.got.tgz:53267.got - 2010.06.11 11:38:39.
