data_PCOD9167878
_publ_section_title
;
Structure prediction by ZEFSAII (Michael W. Deem and Ramdas Pophale) SiO2 
 PCOD9167878
Probable space group: P 21/M
;
_chemical_formula_sum "Si O2"
_cell_formula_units_Z 32
_cell_length_a 27.000000
_cell_length_b 9.000000
_cell_length_c 21.000000
_cell_angle_alpha 90.000000
_cell_angle_beta 20.000000
_cell_angle_gamma 90.000000
_cell_volume 1745.328791
_symmetry_space_group_name_H-M "P 21/M"
_symmetry_group_IT_number 11
_symmetry_cell_setting 'monoclinic'
loop_
_space_group_symop_operation_xyz
x,y,z
-x,1/2+y,-z
-x,-y,-z
x,1/2-y,z
loop_
_atom_site_type_symbol
_atom_site_label
_atom_site_fract_x
_atom_site_fract_y
_atom_site_fract_z
Si Si1 0.917778 0.571214 0.377547
Si Si2 0.447913 0.428918 0.825960
Si Si3 0.236502 0.429659 0.563816
Si Si4 0.249408 0.569834 0.957338
Si Si5 0.347330 0.429523 0.707621
Si Si6 0.234423 0.573308 0.178926
Si Si7 0.092798 0.072139 0.470387
Si Si8 0.972760 0.928999 0.964305
O O1 0.926858 0.750000 0.370999
O O2 0.806667 0.537112 0.456681
O O3 0.870053 0.518735 0.504081
O O4 0.080803 0.523680 0.163933
O O5 0.453777 0.250000 0.818270
O O6 0.605802 0.496908 0.618107
O O7 0.337324 0.494725 0.907702
O O8 0.371499 0.488777 0.983089
O O9 0.242808 0.250000 0.566521
O O10 0.100306 0.497768 0.767264
O O11 0.258868 0.750000 0.949214
O O12 0.316659 0.506214 0.811949
O O13 0.500000 0.500000 0.500000
O O14 0.362495 0.250000 0.693133
O O15 0.195584 0.459122 0.852578
O O16 0.261773 0.750000 0.144953
O O17 0.187954 0.513476 0.304037
O O18 0.081082 0.547562 0.326986
O O19 0.114390 0.250000 0.436458
O O20 0.990136 0.750000 0.943124
O O21 0.000000 0.000000 0.000000
#
# Coordination Sequence:
#
# PCOD9167878 Si02
#       8
#     4   4   4   4   4   4   4   4
#     4   9  18  36  63  91 117 154 200 247 301 359
#     4  12  25  40  59  89 125 164 204 252 306 362
#     4  11  23  42  66  90 120 161 204 251 306 365
#     4  11  21  40  66  92 121 157 203 256 306 359
#     4  11  25  43  64  94 127 162 204 252 303 359
#     4  10  19  34  56  87 122 158 201 250 302 360
#     4   9  17  33  57  87 121 155 195 247 305 362
#     4  11  25  44  65  91 124 164 207 249 300 363
#
# _framework density 18.334654
#
# number of rings (size 3 to 8) (size 9 to 14) (size 15 to 20)
#    0.000    1.500    2.500    3.000    1.750    2.000 
#    0.000    1.875    0.000    0.000    0.000    0.000 
#    0.000    0.000    0.000    0.000    0.000    0.000 
#
# Total GULP energy -178491.987162 kJ/mol
# GULP energy per Si atom -5577.874599 kJ/mol
# Density = 1.829292 g / cm^3
# Si number density = 18.334654 Si / 1000 Ang^3
#
#
#
# Elastic Constant Matrix: (Units=GPa)
#
#
# Indices 1 2 3 4 5 6 
#
# 1 58.8037 21.8800 22.1776 0.0000 13.3821 0.0000
# 2 21.8800 97.6249 43.5580 0.0000 -1.7832 0.0000
# 3 22.1776 43.5580 99.3615 0.0000 -4.9703 0.0000
# 4 0.0000 0.0000 0.0000 36.9175 0.0000 3.0819
# 5 13.3821 -1.7832 -4.9703 0.0000 29.2418 0.0000
# 6 0.0000 0.0000 0.0000 3.0819 0.0000 23.5524
#
#
#
# Elastic Compliance Matrix: (Units=1/GPa)
#
#
# Indices 1 2 3 4 5 6 
#
# 1 0.022327 -0.003401 -0.004049 0.000000 -0.011113 0.000000
# 2 -0.003401 0.013253 -0.004975 0.000000 0.001519 0.000000
# 3 -0.004049 -0.004975 0.013340 0.000000 0.003817 0.000000
# 4 0.000000 0.000000 0.000000 0.027387 0.000000 -0.003584
# 5 -0.011113 0.001519 0.003817 0.000000 0.040025 0.000000
# 6 0.000000 0.000000 0.000000 -0.003584 0.000000 0.042928
#
#
# Mechanical properties :
#
#
# Convention : Reuss Voigt Hill
#
# Bulk Modulus (GPa) = 41.54275 47.89127 44.71701
# Shear Modulus (GPa) = 26.02405 29.15398 27.58902
#
# Velocity S-wave (km/s) = 3.77157 3.99194 3.88332
# Velocity P-wave (km/s) = 6.45551 6.88656 6.67451
#
# Compressibility (1/GPa) = 0.02407159
#
# Stress axis : x y z
#
# Youngs Moduli (GPa) = 44.78887 75.45566 74.96440
#
# Poissons Ratio (x) = 0.25659 0.30350
# Poissons Ratio (y) = 0.15231 0.37293
# Poissons Ratio (z) = 0.18133 0.37537
#
# Static dielectric constant tensor:
#      x y z
#    x 1.737630 0.000000 0.019000 
#    y 0.000000 1.611220 0.000000 
#    z 0.019000 0.000000 1.609330 
# 
# From -- ./inp_files/66993.got.cif
#   From: 2010.05.17/outbox.ucp.g08.bks.cvg/sg11_34_cif.got.tgz:66993.got - 2010.06.11 11:38:39.
