data_PCOD9167820
_publ_section_title
;
Structure prediction by ZEFSAII (Michael W. Deem and Ramdas Pophale) SiO2 
 PCOD9167820
Probable space group: P 21/M
;
_chemical_formula_sum "Si O2"
_cell_formula_units_Z 28
_cell_length_a 15.000000
_cell_length_b 9.000000
_cell_length_c 18.000000
_cell_angle_alpha 90.000000
_cell_angle_beta 140.000000
_cell_angle_gamma 90.000000
_cell_volume 1561.973892
_symmetry_space_group_name_H-M "P 21/M"
_symmetry_group_IT_number 11
_symmetry_cell_setting 'monoclinic'
loop_
_space_group_symop_operation_xyz
x,y,z
-x,1/2+y,-z
-x,-y,-z
x,1/2-y,z
loop_
_atom_site_type_symbol
_atom_site_label
_atom_site_fract_x
_atom_site_fract_y
_atom_site_fract_z
Si Si1 0.346836 0.571720 0.064163
Si Si2 0.077908 0.422095 0.117178
Si Si3 0.837042 0.928366 0.185180
Si Si4 0.408654 0.072888 0.877283
Si Si5 0.625107 0.576927 0.762291
Si Si6 0.099037 0.070622 0.296965
Si Si7 0.577199 0.928480 0.478614
O O1 0.326401 0.750000 0.051893
O O2 0.507095 0.537213 0.143294
O O3 0.325968 0.501082 0.130939
O O4 0.247870 0.499821 0.938419
O O5 0.034706 0.250000 0.088973
O O6 0.242462 0.428244 0.207670
O O7 0.056423 0.481211 0.186492
O O8 0.000000 0.500000 0.000000
O O9 0.840572 0.750000 0.178982
O O10 0.748593 0.967193 0.202871
O O11 0.989700 0.995902 0.281806
O O12 0.417896 0.250000 0.891242
O O13 0.500000 0.000000 0.000000
O O14 0.591970 0.750000 0.754276
O O15 0.498922 0.492333 0.642623
O O16 0.086174 0.250000 0.290602
O O17 0.259424 0.034611 0.414403
O O18 0.563643 0.750000 0.473083
O O19 0.500000 0.000000 0.500000
#
# Coordination Sequence:
#
# PCOD9167820 Si02
#       7
#     4   4   4   4   4   4   4
#     4  10  19  33  53  79 109 144 176 212 263 318
#     4  10  21  35  49  71 104 137 167 205 255 307
#     4  10  19  32  52  81 110 140 175 217 263 311
#     4   8  16  30  49  74 107 139 173 212 257 312
#     4  11  22  37  54  77 106 137 176 223 263 309
#     4  10  21  37  53  73 104 139 175 216 259 312
#     4  11  22  39  59  77 100 137 182 223 264 310
#
# _framework density 17.926036
#
# number of rings (size 3 to 8) (size 9 to 14) (size 15 to 20)
#    0.000    2.000    1.429    2.571    0.000    6.286 
#    0.000    0.000    0.000    0.857    0.000    0.000 
#    0.000    0.000    0.000    0.000    0.000    0.000 
#
# Total GULP energy -156139.561323 kJ/mol
# GULP energy per Si atom -5576.412904 kJ/mol
# Density = 1.788524 g / cm^3
# Si number density = 17.926036 Si / 1000 Ang^3
#
#
#
# Elastic Constant Matrix: (Units=GPa)
#
#
# Indices 1 2 3 4 5 6 
#
# 1 73.8400 17.0877 -3.1232 0.0000 27.9530 0.0000
# 2 17.0877 46.3400 19.4855 0.0000 15.1320 0.0000
# 3 -3.1232 19.4855 55.6947 0.0000 21.7484 0.0000
# 4 0.0000 0.0000 0.0000 27.5209 0.0000 4.9630
# 5 27.9530 15.1320 21.7484 0.0000 29.2280 0.0000
# 6 0.0000 0.0000 0.0000 4.9630 0.0000 24.8002
#
#
#
# Elastic Compliance Matrix: (Units=1/GPa)
#
#
# Indices 1 2 3 4 5 6 
#
# 1 0.032202 -0.006648 0.020881 0.000000 -0.042893 0.000000
# 2 -0.006648 0.028551 -0.009969 0.000000 -0.001005 0.000000
# 3 0.020881 -0.009969 0.040027 0.000000 -0.044593 0.000000
# 4 0.000000 0.000000 0.000000 0.037696 0.000000 -0.007544
# 5 -0.042893 -0.001005 -0.044593 0.000000 0.108937 0.000000
# 6 0.000000 0.000000 0.000000 -0.007544 0.000000 0.041832
#
#
# Mechanical properties :
#
#
# Convention : Reuss Voigt Hill
#
# Bulk Modulus (GPa) = 9.14849 26.97498 18.06174
# Shear Modulus (GPa) = 15.76514 25.80479 20.78496
#
# Velocity S-wave (km/s) = 2.96878 3.79821 3.40881
# Velocity P-wave (km/s) = 4.10683 5.85797 5.05875
#
# Compressibility (1/GPa) = 0.10930761
#
# Stress axis : x y z
#
# Youngs Moduli (GPa) = 31.05376 35.02445 24.98307
#
# Poissons Ratio (x) = 0.23286 -0.52168
# Poissons Ratio (y) = 0.20646 0.24907
# Poissons Ratio (z) = -0.64844 0.34917
#
# Static dielectric constant tensor:
#      x y z
#    x 1.655670 0.000000 0.030760 
#    y 0.000000 1.598150 0.000000 
#    z 0.030760 0.000000 1.585100 
# 
# From -- ./inp_files/37938.got.cif
#   From: 2010.05.17/outbox.ucp.g08.bks.cvg/sg11_19_cif.got.tgz:37938.got - 2010.06.11 11:38:39.
