data_PCOD9167406
_publ_section_title
;
Structure prediction by ZEFSAII (Michael W. Deem and Ramdas Pophale) SiO2 
 PCOD9167406
Probable space group: P 21/M
;
_chemical_formula_sum "Si O2"
_cell_formula_units_Z 32
_cell_length_a 15.367911
_cell_length_b 8.515800
_cell_length_c 12.462254
_cell_angle_alpha 90.000000
_cell_angle_beta 91.899433
_cell_angle_gamma 90.000000
_cell_volume 1630.039758
_symmetry_space_group_name_H-M "P 21/M"
_symmetry_group_IT_number 11
_symmetry_cell_setting 'monoclinic'
loop_
_space_group_symop_operation_xyz
x,y,z
-x,1/2+y,-z
-x,-y,-z
x,1/2-y,z
loop_
_atom_site_type_symbol
_atom_site_label
_atom_site_fract_x
_atom_site_fract_y
_atom_site_fract_z
Si Si1 0.909734 0.938354 0.946800
Si Si2 0.529503 0.439376 0.333019
Si Si3 0.168089 0.435849 0.454448
Si Si4 0.142372 0.566195 0.687421
Si Si5 0.432867 0.938852 0.909002
Si Si6 0.365172 0.060656 0.466495
Si Si7 0.956328 0.066139 0.727594
Si Si8 0.758532 0.938056 0.108031
O O1 0.913165 0.750000 0.938883
O O2 0.902288 0.012212 0.828982
O O3 0.830286 0.980790 0.021583
O O4 0.000000 0.000000 0.000000
O O5 0.531287 0.250000 0.334601
O O6 0.541007 0.490542 0.210947
O O7 0.604468 0.499198 0.416166
O O8 0.438273 0.490796 0.383748
O O9 0.159247 0.250000 0.432205
O O10 0.152689 0.469041 0.578857
O O11 0.267224 0.487159 0.434441
O O12 0.098510 0.527407 0.380414
O O13 0.150847 0.750000 0.664105
O O14 0.211947 0.514997 0.779051
O O15 0.046633 0.528536 0.729333
O O16 0.431732 0.750000 0.910493
O O17 0.336707 0.003821 0.927002
O O18 0.500000 0.000000 0.000000
O O19 0.366048 0.250000 0.470546
O O20 0.976850 0.250000 0.735505
O O21 0.759245 0.750000 0.120028
#
# Coordination Sequence:
#
# PCOD9167406 Si02
#       8
#     4   4   4   4   4   4   4   4
#     4  11  23  41  66  92 122 160 206 259 311 369
#     4   9  19  37  60  86 117 153 196 245 299 357
#     4  11  23  39  59  87 124 162 204 251 309 371
#     4  12  24  40  63  89 122 161 205 254 308 370
#     4  11  24  41  62  90 126 165 206 257 312 370
#     4   9  19  36  60  87 115 152 195 244 299 361
#     4  12  25  41  61  88 123 161 204 254 310 370
#     4  11  24  42  66  94 124 162 208 257 312 375
#
# _framework density 19.631422000000001
#
# number of rings (size 3 to 8) (size 9 to 14) (size 15 to 20)
#    0.000    1.250    1.250    4.875    0.000    6.500 
#    0.000    2.500    0.000    0.000    0.000    0.000 
#    0.000    0.000    0.000    0.000    0.000    0.000 
#
# Total GULP energy -178987.369529 kJ/mol
# GULP energy per Si atom -5593.355298 kJ/mol
# Density = 1.958674 g / cm^3
# Si number density = 19.631422 Si / 1000 Ang^3
#
#
#
# Elastic Constant Matrix: (Units=GPa)
#
#
# Indices 1 2 3 4 5 6 
#
# 1 99.3803 11.8459 45.2223 0.0000 11.4653 0.0000
# 2 11.8459 26.9152 -6.4787 0.0000 -1.4979 0.0000
# 3 45.2223 -6.4787 55.6101 0.0000 -0.9847 0.0000
# 4 0.0000 0.0000 0.0000 32.4771 0.0000 3.8811
# 5 11.4653 -1.4979 -0.9847 0.0000 28.8531 0.0000
# 6 0.0000 0.0000 0.0000 3.8811 0.0000 28.6232
#
#
#
# Elastic Compliance Matrix: (Units=1/GPa)
#
#
# Indices 1 2 3 4 5 6 
#
# 1 0.022107 -0.015095 -0.019918 0.000000 -0.010248 0.000000
# 2 -0.015095 0.048664 0.018106 0.000000 0.009143 0.000000
# 3 -0.019918 0.018106 0.036468 0.000000 0.010099 0.000000
# 4 0.000000 0.000000 0.000000 0.031298 0.000000 -0.004244
# 5 -0.010248 0.009143 0.010099 0.000000 0.039550 0.000000
# 6 0.000000 0.000000 0.000000 -0.004244 0.000000 0.035512
#
#
# Mechanical properties :
#
#
# Convention : Reuss Voigt Hill
#
# Bulk Modulus (GPa) = 13.61884 31.45385 22.53635
# Shear Modulus (GPa) = 18.38992 26.74508 22.56750
#
# Velocity S-wave (km/s) = 3.06397 3.69502 3.39419
# Velocity P-wave (km/s) = 4.41243 5.85331 5.18318
#
# Compressibility (1/GPa) = 0.07342767
#
# Stress axis : x y z
#
# Youngs Moduli (GPa) = 45.23367 20.54888 27.42133
#
# Poissons Ratio (x) = 0.31018 0.54618
# Poissons Ratio (y) = 0.68279 -0.49650
# Poissons Ratio (z) = 0.90096 -0.37207
#
# Static dielectric constant tensor:
#      x y z
#    x 1.679730 0.000000 -0.025250 
#    y 0.000000 1.658170 0.000000 
#    z -0.025250 0.000000 1.679480 
# 
# From -- ./inp_files/38059.got.cif
#   From: 2010.05.17/outbox.cif.g08.bks.cpg/sg11_20_cif.got.tgz:38059.got - 2010.06.03 12:22:45.
