data_PCOD9167607
_publ_section_title
;
Structure prediction by ZEFSAII (Michael W. Deem and Ramdas Pophale) SiO2 
 PCOD9167607
Probable space group: P 21/M
;
_chemical_formula_sum "Si O2"
_cell_formula_units_Z 16
_cell_length_a 10.481770
_cell_length_b 14.177946
_cell_length_c 11.515274
_cell_angle_alpha 90.000000
_cell_angle_beta 25.757058
_cell_angle_gamma 90.000000
_cell_volume 743.649307
_symmetry_space_group_name_H-M "P 21/M"
_symmetry_group_IT_number 11
_symmetry_cell_setting 'monoclinic'
loop_
_space_group_symop_operation_xyz
x,y,z
-x,1/2+y,-z
-x,-y,-z
x,1/2-y,z
loop_
_atom_site_type_symbol
_atom_site_label
_atom_site_fract_x
_atom_site_fract_y
_atom_site_fract_z
Si Si1 0.766457 0.431920 0.251842
Si Si2 0.036101 0.750000 0.303630
Si Si3 0.366053 0.750000 0.797462
Si Si4 0.596982 0.404160 0.859304
Si Si5 0.064047 0.856178 0.636517
O O1 0.500000 0.500000 0.500000
O O2 0.674199 0.343745 0.247043
O O3 0.885851 0.391449 0.274974
O O4 0.000000 0.500000 0.000000
O O5 0.183477 0.840608 0.244120
O O6 0.684872 0.750000 0.597512
O O7 0.124256 0.750000 0.096655
O O8 0.762469 0.417863 0.600897
O O9 0.500000 0.500000 0.000000
O O10 0.283155 0.354664 0.100211
O O11 0.182380 0.750000 0.525249
#
# Coordination Sequence:
#
# PCOD9167607 Si02
#       5
#     4   2   2   4   4
#     4  12  28  48  75 107 143 191 243 298 362 427
#     4  12  26  46  72 104 152 184 232 295 365 424
#     4  12  28  48  72 106 150 188 234 301 363 432
#     4  12  27  45  74 105 142 189 238 294 357 429
#     4  12  24  50  73 100 142 189 245 297 350 426
#
# _framework density 21.515516999999999
#
# number of rings (size 3 to 8) (size 9 to 14) (size 15 to 20)
#    0.000    0.000    3.750    5.250   10.500    0.000 
#    0.000    0.000    0.000    0.000    0.000    0.000 
#    0.000    0.000    0.000    0.000    0.000    0.000 
#
# Total GULP energy -89624.806836 kJ/mol
# GULP energy per Si atom -5601.550427 kJ/mol
# Density = 2.146655 g / cm^3
# Si number density = 21.515517 Si / 1000 Ang^3
#
#
#
# Elastic Constant Matrix: (Units=GPa)
#
#
# Indices 1 2 3 4 5 6 
#
# 1 96.2016 43.7681 11.0039 0.0000 4.8779 0.0000
# 2 43.7681 89.1781 -6.8787 0.0000 -22.7105 0.0000
# 3 11.0039 -6.8787 105.1489 0.0000 -8.3971 0.0000
# 4 0.0000 0.0000 0.0000 39.0683 0.0000 5.2886
# 5 4.8779 -22.7105 -8.3971 0.0000 35.8979 0.0000
# 6 0.0000 0.0000 0.0000 5.2886 0.0000 8.4311
#
#
#
# Elastic Compliance Matrix: (Units=1/GPa)
#
#
# Indices 1 2 3 4 5 6 
#
# 1 0.016044 -0.010560 -0.003136 0.000000 -0.009594 0.000000
# 2 -0.010560 0.020579 0.003674 0.000000 0.015314 0.000000
# 3 -0.003136 0.003674 0.010495 0.000000 0.005206 0.000000
# 4 0.000000 0.000000 0.000000 0.027971 0.000000 -0.017545
# 5 -0.009594 0.015314 0.005206 0.000000 0.040066 0.000000
# 6 0.000000 0.000000 0.000000 -0.017545 0.000000 0.129614
#
#
# Mechanical properties :
#
#
# Convention : Reuss Voigt Hill
#
# Bulk Modulus (GPa) = 36.93372 42.92393 39.92883
# Shear Modulus (GPa) = 18.25902 32.85514 25.55708
#
# Velocity S-wave (km/s) = 2.91631 3.91198 3.45025
# Velocity P-wave (km/s) = 5.34258 6.35597 5.87118
#
# Compressibility (1/GPa) = 0.02707553
#
# Stress axis : x y z
#
# Youngs Moduli (GPa) = 62.32759 48.59230 95.28725
#
# Poissons Ratio (x) = 0.51312 0.29882
# Poissons Ratio (y) = 0.65816 -0.35011
# Poissons Ratio (z) = 0.19546 -0.17854
#
# Static dielectric constant tensor:
#      x y z
#    x 1.770440 0.000000 0.005210 
#    y 0.000000 1.780740 0.000000 
#    z 0.005210 0.000000 1.736080 
# 
# From -- ./inp_files/35644.got.cif
#   From: 2010.05.17/outbox.cif.g08.bks.cpg/sg11_18_cif.got.tgz:35644.got - 2010.06.03 12:22:45.
