data_PCOD9167675
_publ_section_title
;
Structure prediction by ZEFSAII (Michael W. Deem and Ramdas Pophale) SiO2 
 PCOD9167675
Probable space group: P 21/M
;
_chemical_formula_sum "Si O2"
_cell_formula_units_Z 32
_cell_length_a 9.747360
_cell_length_b 11.414932
_cell_length_c 12.314520
_cell_angle_alpha 90.000000
_cell_angle_beta 95.454942
_cell_angle_gamma 90.000000
_cell_volume 1363.975443
_symmetry_space_group_name_H-M "P 21/M"
_symmetry_group_IT_number 11
_symmetry_cell_setting 'monoclinic'
loop_
_space_group_symop_operation_xyz
x,y,z
-x,1/2+y,-z
-x,-y,-z
x,1/2-y,z
loop_
_atom_site_type_symbol
_atom_site_label
_atom_site_fract_x
_atom_site_fract_y
_atom_site_fract_z
Si Si1 0.792856 0.880323 0.320617
Si Si2 0.104567 0.124498 0.285321
Si Si3 0.110262 0.624018 0.307704
Si Si4 0.526127 0.878466 0.146861
Si Si5 0.849843 0.622406 0.035213
Si Si6 0.863291 0.121451 0.431194
Si Si7 0.595936 0.876606 0.893570
Si Si8 0.116260 0.872867 0.923796
O O1 0.790090 0.750000 0.375275
O O2 0.664306 0.881692 0.229643
O O3 0.944625 0.883861 0.275319
O O4 0.789731 0.001505 0.388226
O O5 0.179270 0.250000 0.293236
O O6 0.016762 0.115977 0.391368
O O7 0.982528 0.131000 0.187347
O O8 0.174953 0.998487 0.276445
O O9 0.157691 0.750000 0.267355
O O10 0.128009 0.626295 0.438887
O O11 0.460554 0.750000 0.165790
O O12 0.451954 0.002286 0.161330
O O13 0.553386 0.877215 0.018698
O O14 0.821749 0.750000 0.083521
O O15 0.807835 0.495317 0.076027
O O16 0.761771 0.626367 0.917236
O O17 0.011861 0.621026 0.018508
O O18 0.806201 0.250000 0.390177
O O19 0.548690 0.750000 0.845050
O O20 0.195659 0.750000 0.935265
#
# Coordination Sequence:
#
# PCOD9167675 Si02
#       8
#     4   4   4   4   4   4   4   4
#     4   9  16  25  39  57  79 108 139 170 200 240
#     4   9  16  25  38  56  81 109 137 168 199 238
#     4   9  17  27  40  59  86 116 141 165 201 251
#     4   9  18  30  42  61  83 105 143 183 214 251
#     4   9  18  31  46  60  81 112 143 179 217 254
#     4   9  17  27  38  59  88 116 140 164 202 251
#     4   9  18  31  45  59  79 110 143 179 219 253
#     4   9  18  30  42  63  87 108 142 180 213 251
#
# _framework density 23.460833000000001
#
# number of rings (size 3 to 8) (size 9 to 14) (size 15 to 20)
#    0.000    3.000    0.000    1.500    3.500    3.000 
#    0.000    0.000    0.000    0.000    0.000    0.000 
#    0.000    4.000    0.000   11.500    0.000    7.750 
#
# Total GULP energy -178275.777855 kJ/mol
# GULP energy per Si atom -5571.118058 kJ/mol
# Density = 2.340743 g / cm^3
# Si number density = 23.460833 Si / 1000 Ang^3
#
#
#
# Elastic Constant Matrix: (Units=GPa)
#
#
# Indices 1 2 3 4 5 6 
#
# 1 39.5406 36.1157 12.0309 0.0000 5.5432 0.0000
# 2 36.1157 365.2893 48.0032 0.0000 12.8530 0.0000
# 3 12.0309 48.0032 48.1844 0.0000 3.5413 0.0000
# 4 0.0000 0.0000 0.0000 38.7425 0.0000 11.1374
# 5 5.5432 12.8530 3.5413 0.0000 16.0881 0.0000
# 6 0.0000 0.0000 0.0000 11.1374 0.0000 13.6300
#
#
#
# Elastic Compliance Matrix: (Units=1/GPa)
#
#
# Indices 1 2 3 4 5 6 
#
# 1 0.029674 -0.002034 -0.004829 0.000000 -0.007536 0.000000
# 2 -0.002034 0.003345 -0.002724 0.000000 -0.001372 0.000000
# 3 -0.004829 -0.002724 0.024791 0.000000 -0.001617 0.000000
# 4 0.000000 0.000000 0.000000 0.033736 0.000000 -0.027566
# 5 -0.007536 -0.001372 -0.001617 0.000000 0.066207 0.000000
# 6 0.000000 0.000000 0.000000 -0.027566 0.000000 0.095893
#
#
# Mechanical properties :
#
#
# Convention : Reuss Voigt Hill
#
# Bulk Modulus (GPa) = 25.88160 71.70156 48.79158
# Shear Modulus (GPa) = 17.50099 37.48308 27.49204
#
# Velocity S-wave (km/s) = 2.73420 4.00144 3.42691
# Velocity P-wave (km/s) = 4.58515 7.20953 6.04156
#
# Compressibility (1/GPa) = 0.03863749
#
# Stress axis : x y z
#
# Youngs Moduli (GPa) = 33.69937 298.96767 40.33646
#
# Poissons Ratio (x) = 0.60813 0.19478
# Poissons Ratio (y) = 0.06855 0.10986
# Poissons Ratio (z) = 0.16273 0.81426
#
# Static dielectric constant tensor:
#      x y z
#    x 1.878470 0.000000 -0.029410 
#    y 0.000000 2.027730 0.000000 
#    z -0.029410 0.000000 1.944420 
# 
# From -- ./inp_files/49864.got.cif
#   From: 2010.05.17/outbox.cif.g08.bks.cpg/sg11_25_cif.got.tgz:49864.got - 2010.06.03 12:22:45.
