data_PCOD9167645
_publ_section_title
;
Structure prediction by ZEFSAII (Michael W. Deem and Ramdas Pophale) SiO2 
 PCOD9167645
Probable space group: P 21/M
;
_chemical_formula_sum "Si O2"
_cell_formula_units_Z 28
_cell_length_a 17.369007
_cell_length_b 7.288021
_cell_length_c 17.612970
_cell_angle_alpha 90.000000
_cell_angle_beta 26.676651
_cell_angle_gamma 90.000000
_cell_volume 1000.967356
_symmetry_space_group_name_H-M "P 21/M"
_symmetry_group_IT_number 11
_symmetry_cell_setting 'monoclinic'
loop_
_space_group_symop_operation_xyz
x,y,z
-x,1/2+y,-z
-x,-y,-z
x,1/2-y,z
loop_
_atom_site_type_symbol
_atom_site_label
_atom_site_fract_x
_atom_site_fract_y
_atom_site_fract_z
Si Si1 0.379719 0.460517 0.497043
Si Si2 0.745080 0.028368 0.235830
Si Si3 0.098067 0.474009 0.637912
Si Si4 0.444956 0.959623 0.861693
Si Si5 0.694632 0.966784 0.859226
Si Si6 0.838772 0.025881 0.995116
Si Si7 0.188986 0.473734 0.399221
O O1 0.420853 0.250000 0.444292
O O2 0.245927 0.462260 0.685860
O O3 0.556204 0.538224 0.373656
O O4 0.282132 0.533129 0.509762
O O5 0.748143 0.250000 0.237256
O O6 0.863030 0.969058 0.061080
O O7 0.095687 0.250000 0.640112
O O8 0.073056 0.531754 0.572856
O O9 0.968205 0.537626 0.816608
O O10 0.487222 0.750000 0.806539
O O11 0.621738 0.035940 0.738321
O O12 0.345428 0.033345 0.876736
O O13 0.311444 0.956578 0.050483
O O14 0.717316 0.750000 0.845985
O O15 0.817501 0.037302 0.682670
O O16 0.500000 0.000000 0.000000
O O17 0.840598 0.250000 0.993426
O O18 0.186966 0.250000 0.397349
#
# Coordination Sequence:
#
# PCOD9167645 Si02
#       7
#     4   4   4   4   4   4   4
#     4   9  17  29  47  68  88 112 144 181 220 261
#     4   9  17  30  47  67  90 114 143 181 221 260
#     4   9  16  27  44  66  88 113 149 185 214 253
#     4   9  16  28  46  67  89 114 146 183 221 258
#     4   9  16  27  45  69  92 115 146 183 222 260
#     4   9  17  28  44  65  88 116 150 183 214 255
#     4   8  14  25  43  64  86 112 143 179 216 256
#
# _framework density 27.972939
#
# number of rings (size 3 to 8) (size 9 to 14) (size 15 to 20)
#    0.000    3.143    0.000    2.143    0.000    4.000 
#    0.000    1.429    0.000   10.286    0.000    0.000 
#    0.000    0.000    0.000    0.000    0.000    0.000 
#
# Total GULP energy -156544.105606 kJ/mol
# GULP energy per Si atom -5590.860915 kJ/mol
# Density = 2.790927 g / cm^3
# Si number density = 27.972939 Si / 1000 Ang^3
#
#
#
# Elastic Constant Matrix: (Units=GPa)
#
#
# Indices 1 2 3 4 5 6 
#
# 1 163.9540 -1.7737 32.1572 0.0000 47.4409 0.0000
# 2 -1.7737 137.2661 -3.2786 0.0000 0.4019 0.0000
# 3 32.1572 -3.2786 168.7475 0.0000 51.0897 0.0000
# 4 0.0000 0.0000 0.0000 9.6522 0.0000 6.0644
# 5 47.4409 0.4019 51.0897 0.0000 68.2324 0.0000
# 6 0.0000 0.0000 0.0000 6.0644 0.0000 0.6704
#
#
#
# Elastic Compliance Matrix: (Units=1/GPa)
#
#
# Indices 1 2 3 4 5 6 
#
# 1 0.007642 0.000120 0.000200 0.000000 -0.005464 0.000000
# 2 0.000120 0.007292 0.000203 0.000000 -0.000278 0.000000
# 3 0.000200 0.000203 0.007674 0.000000 -0.005886 0.000000
# 4 0.000000 0.000000 0.000000 -0.022123 0.000000 0.200109
# 5 -0.005464 -0.000278 -0.005886 0.000000 0.022864 0.000000
# 6 0.000000 0.000000 0.000000 0.200109 0.000000 -0.318499
#
#
# Mechanical properties :
#
#
# Convention : Reuss Voigt Hill
#
# Bulk Modulus (GPa) = 42.27494 58.24193 50.25844
# Shear Modulus (GPa) = -17.34247 45.23517 13.94635
#
# Velocity S-wave (km/s) = -2.49263 4.02569 2.23528
# Velocity P-wave (km/s) = 2.61942 6.51722 4.96667
#
# Compressibility (1/GPa) = 0.02365467
#
# Stress axis : x y z
#
# Youngs Moduli (GPa) = 130.84866 137.13040 130.31095
#
# Poissons Ratio (x) = -0.01639 -0.02611
# Poissons Ratio (y) = -0.01564 -0.02647
# Poissons Ratio (z) = -0.02621 -0.02785
#
# Static dielectric constant tensor:
#      x y z
#    x 2.129510 0.000000 -0.064890 
#    y 0.000000 2.062070 0.000000 
#    z -0.064890 0.000000 2.309310 
# 
# From -- ./inp_files/26449.got.cif
#   From: 2010.05.17/outbox.cif.g08.bks.cpg/sg11_14_cif.got.tgz:26449.got - 2010.06.03 12:22:45.
