data_PCOD9167118
_publ_section_title
;
Structure prediction by ZEFSAII (Michael W. Deem and Ramdas Pophale) SiO2 
 PCOD9167118
Probable space group: P 21/M
;
_chemical_formula_sum "Si O2"
_cell_formula_units_Z 28
_cell_length_a 15.863474
_cell_length_b 16.812786
_cell_length_c 6.662362
_cell_angle_alpha 90.000000
_cell_angle_beta 52.971302
_cell_angle_gamma 90.000000
_cell_volume 1418.570177
_symmetry_space_group_name_H-M "P 21/M"
_symmetry_group_IT_number 11
_symmetry_cell_setting 'monoclinic'
loop_
_space_group_symop_operation_xyz
x,y,z
-x,1/2+y,-z
-x,-y,-z
x,1/2-y,z
loop_
_atom_site_type_symbol
_atom_site_label
_atom_site_fract_x
_atom_site_fract_y
_atom_site_fract_z
Si Si1 0.557607 0.066977 0.052942
Si Si2 0.837872 0.056743 0.238267
Si Si3 0.358494 0.159028 0.448348
Si Si4 0.033754 0.580476 0.333500
Si Si5 0.780145 0.156529 0.666251
Si Si6 0.188398 0.414951 0.402315
Si Si7 0.316891 0.025564 0.829781
O O1 0.473597 0.136418 0.201478
O O2 0.584586 0.018316 0.214390
O O3 0.670386 0.106022 0.831283
O O4 0.500000 0.000000 0.000000
O O5 0.826642 0.137229 0.379552
O O6 0.839058 0.987233 0.404236
O O7 0.738377 0.035981 0.241449
O O8 0.931020 0.060163 0.943324
O O9 0.350007 0.250000 0.516312
O O10 0.273461 0.137024 0.399139
O O11 0.339986 0.102675 0.665457
O O12 0.131240 0.623807 0.304637
O O13 0.000000 0.500000 0.500000
O O14 0.922662 0.627086 0.486327
O O15 0.761707 0.250000 0.724761
O O16 0.240868 0.449117 0.124046
#
# Coordination Sequence:
#
# PCOD9167118 Si02
#       7
#     4   4   4   4   4   4   4
#     4  12  21  47  71  93 126 177 232 271 324 412
#     4  11  20  41  68  99 129 169 228 270 325 395
#     4  11  26  41  64  99 136 170 215 279 339 388
#     4  12  22  41  73  98 128 177 225 270 323 400
#     4  12  27  43  64 104 144 173 219 287 347 389
#     4  11  22  41  69  98 127 173 224 272 318 397
#     4  11  21  43  68  97 127 172 228 268 320 400
#
# _framework density 19.738185999999999
#
# number of rings (size 3 to 8) (size 9 to 14) (size 15 to 20)
#    0.000    0.571    7.143    2.143    0.000    1.714 
#    0.000    2.857    0.000    0.000    0.000    0.000 
#    0.000    0.000    0.000    0.000    0.000    0.000 
#
# Total GULP energy -156269.721132 kJ/mol
# GULP energy per Si atom -5581.061469 kJ/mol
# Density = 1.969326 g / cm^3
# Si number density = 19.738186 Si / 1000 Ang^3
#
#
#
# Elastic Constant Matrix: (Units=GPa)
#
#
# Indices 1 2 3 4 5 6 
#
# 1 148.4317 35.6555 30.8526 0.0000 -7.7930 0.0000
# 2 35.6555 87.8967 18.1233 0.0000 -3.3703 0.0000
# 3 30.8526 18.1233 106.4262 0.0000 -2.5520 0.0000
# 4 0.0000 0.0000 0.0000 13.9534 0.0000 0.8220
# 5 -7.7930 -3.3703 -2.5520 0.0000 36.6106 0.0000
# 6 0.0000 0.0000 0.0000 0.8220 0.0000 18.0953
#
#
#
# Elastic Compliance Matrix: (Units=1/GPa)
#
#
# Indices 1 2 3 4 5 6 
#
# 1 0.007837 -0.002765 -0.001770 0.000000 0.001290 0.000000
# 2 -0.002765 0.012799 -0.001366 0.000000 0.000495 0.000000
# 3 -0.001770 -0.001366 0.010147 0.000000 0.000205 0.000000
# 4 0.000000 0.000000 0.000000 0.071859 0.000000 -0.003264
# 5 0.001290 0.000495 0.000205 0.000000 0.027649 0.000000
# 6 0.000000 0.000000 0.000000 -0.003264 0.000000 0.055411
#
#
# Mechanical properties :
#
#
# Convention : Reuss Voigt Hill
#
# Bulk Modulus (GPa) = 52.68456 56.89084 54.78770
# Shear Modulus (GPa) = 24.53008 30.94009 27.73509
#
# Velocity S-wave (km/s) = 3.52912 3.96349 3.75260
# Velocity P-wave (km/s) = 6.58452 7.05911 6.82594
#
# Compressibility (1/GPa) = 0.01898089
#
# Stress axis : x y z
#
# Youngs Moduli (GPa) = 127.60167 78.13039 98.55210
#
# Poissons Ratio (x) = 0.21600 0.17445
# Poissons Ratio (y) = 0.35277 0.13465
# Poissons Ratio (z) = 0.22588 0.10675
#
# Static dielectric constant tensor:
#      x y z
#    x 1.748910 0.000000 -0.023260 
#    y 0.000000 1.684370 0.000000 
#    z -0.023260 0.000000 1.717170 
# 
# From -- ./inp_files/6766.got.cif
#   From: 2010.05.17/outbox.cif.g08.bks.cpg/sg11_4_cif.got.tgz:6766.got - 2010.06.03 12:22:45.
