data_PCOD9167072
_publ_section_title
;
Structure prediction by ZEFSAII (Michael W. Deem and Ramdas Pophale) SiO2 
 PCOD9167072
Probable space group: P 21/M
;
_chemical_formula_sum "Si O2"
_cell_formula_units_Z 20
_cell_length_a 9.169896
_cell_length_b 8.242145
_cell_length_c 21.662284
_cell_angle_alpha 90.000000
_cell_angle_beta 37.214386
_cell_angle_gamma 90.000000
_cell_volume 990.193419
_symmetry_space_group_name_H-M "P 21/M"
_symmetry_group_IT_number 11
_symmetry_cell_setting 'monoclinic'
loop_
_space_group_symop_operation_xyz
x,y,z
-x,1/2+y,-z
-x,-y,-z
x,1/2-y,z
loop_
_atom_site_type_symbol
_atom_site_label
_atom_site_fract_x
_atom_site_fract_y
_atom_site_fract_z
Si Si1 0.763428 0.937766 0.278924
Si Si2 0.259205 0.056075 0.115465
Si Si3 0.243031 0.934630 0.262839
Si Si4 0.761362 0.430039 0.407182
Si Si5 0.268954 0.060439 0.387482
O O1 0.766394 0.750000 0.299313
O O2 0.794047 0.067355 0.323158
O O3 0.500092 0.969622 0.339385
O O4 0.026632 0.970636 0.160451
O O5 0.239056 0.250000 0.119146
O O6 0.284848 0.002462 0.179628
O O7 0.500000 0.000000 0.000000
O O8 0.328355 0.750000 0.238236
O O9 0.318223 0.035685 0.297465
O O10 0.953706 0.945778 0.368355
O O11 0.500000 0.500000 0.500000
O O12 0.793107 0.250000 0.422589
O O13 0.280878 0.250000 0.398876
O O14 0.000000 0.000000 0.500000
#
# Coordination Sequence:
#
# PCOD9167072 Si02
#       5
#     4   4   4   4   4
#     4  11  22  38  58  85 116 152 195 243 292 349
#     4  11  22  41  66  92 118 153 196 247 300 350
#     4  11  22  38  58  85 116 152 195 243 292 349
#     4  11  20  33  52  78 110 149 192 239 288 344
#     4  12  24  40  59  86 123 164 200 240 292 354
#
# _framework density 20.198073999999998
#
# number of rings (size 3 to 8) (size 9 to 14) (size 15 to 20)
#    0.000    0.800    0.000   12.600    0.000    0.000 
#    0.000    1.000    0.000    0.000    0.000    0.000 
#    0.000    0.000    0.000    0.000    0.000    0.000 
#
# Total GULP energy -111376.067902 kJ/mol
# GULP energy per Si atom -5568.803395 kJ/mol
# Density = 2.015210 g / cm^3
# Si number density = 20.198074 Si / 1000 Ang^3
#
#
#
# Elastic Constant Matrix: (Units=GPa)
#
#
# Indices 1 2 3 4 5 6 
#
# 1 66.6520 7.0577 24.2462 0.0000 -9.0604 0.0000
# 2 7.0577 143.1056 27.9131 0.0000 -5.7650 0.0000
# 3 24.2462 27.9131 103.3390 0.0000 -17.1836 0.0000
# 4 0.0000 0.0000 0.0000 31.9983 0.0000 -2.7832
# 5 -9.0604 -5.7650 -17.1836 0.0000 33.2401 0.0000
# 6 0.0000 0.0000 0.0000 -2.7832 0.0000 30.5263
#
#
#
# Elastic Compliance Matrix: (Units=1/GPa)
#
#
# Indices 1 2 3 4 5 6 
#
# 1 0.016631 -0.000040 -0.003434 0.000000 0.002751 0.000000
# 2 -0.000040 0.007379 -0.001940 0.000000 0.000266 0.000000
# 3 -0.003434 -0.001940 0.011810 0.000000 0.004833 0.000000
# 4 0.000000 0.000000 0.000000 0.031501 0.000000 0.002872
# 5 0.002751 0.000266 0.004833 0.000000 0.033379 0.000000
# 6 0.000000 0.000000 0.000000 0.002872 0.000000 0.033020
#
#
# Mechanical properties :
#
#
# Convention : Reuss Voigt Hill
#
# Bulk Modulus (GPa) = 40.01028 47.94784 43.97906
# Shear Modulus (GPa) = 32.70598 36.07825 34.39212
#
# Velocity S-wave (km/s) = 4.02837 4.23096 4.13091
# Velocity P-wave (km/s) = 6.44120 6.90350 6.67635
#
# Compressibility (1/GPa) = 0.02499357
#
# Stress axis : x y z
#
# Youngs Moduli (GPa) = 60.13009 135.52262 84.67332
#
# Poissons Ratio (x) = 0.00536 0.29076
# Poissons Ratio (y) = 0.00238 0.16423
# Poissons Ratio (z) = 0.20648 0.26285
#
# Static dielectric constant tensor:
#      x y z
#    x 1.766240 0.000000 0.023540 
#    y 0.000000 1.645790 0.000000 
#    z 0.023540 0.000000 1.521920 
# 
# From -- ./inp_files/20165.got.cif
#   From: 2010.05.17/outbox.cif.g08.bks.cpg/sg11_11_cif.got.tgz:20165.got - 2010.06.03 12:22:45.
