data_PCOD9167614
_publ_section_title
;
Structure prediction by ZEFSAII (Michael W. Deem and Ramdas Pophale) SiO2 
 PCOD9167614
Probable space group: P 21/M
;
_chemical_formula_sum "Si O2"
_cell_formula_units_Z 32
_cell_length_a 23.284386
_cell_length_b 7.535401
_cell_length_c 6.769994
_cell_angle_alpha 90.000000
_cell_angle_beta 104.035147
_cell_angle_gamma 90.000000
_cell_volume 1152.383552
_symmetry_space_group_name_H-M "P 21/M"
_symmetry_group_IT_number 11
_symmetry_cell_setting 'monoclinic'
loop_
_space_group_symop_operation_xyz
x,y,z
-x,1/2+y,-z
-x,-y,-z
x,1/2-y,z
loop_
_atom_site_type_symbol
_atom_site_label
_atom_site_fract_x
_atom_site_fract_y
_atom_site_fract_z
Si Si1 0.268570 0.955072 0.379968
Si Si2 0.483385 0.039940 0.215714
Si Si3 0.643477 0.460113 0.993573
Si Si4 0.608616 0.468695 0.408065
Si Si5 0.766052 0.453832 0.192516
Si Si6 0.985007 0.958216 0.757932
Si Si7 0.105727 0.543729 0.742126
Si Si8 0.140800 0.951483 0.229370
O O1 0.272478 0.750000 0.310648
O O2 0.334801 0.031368 0.418066
O O3 0.259631 0.946783 0.609533
O O4 0.205555 0.039313 0.268583
O O5 0.482390 0.250000 0.236370
O O6 0.541013 0.969763 0.382304
O O7 0.500000 0.000000 0.000000
O O8 0.416016 0.976581 0.186083
O O9 0.652742 0.250000 0.018792
O O10 0.623258 0.525069 0.193833
O O11 0.711225 0.528644 0.017112
O O12 0.608981 0.250000 0.414160
O O13 0.778188 0.250000 0.136921
O O14 0.831219 0.537725 0.269406
O O15 0.991209 0.750000 0.743045
O O16 0.039796 0.040320 0.678086
O O17 0.914744 0.996401 0.678933
O O18 0.000000 0.000000 0.000000
O O19 0.102377 0.750000 0.672268
O O20 0.116565 0.546542 0.988185
O O21 0.154255 0.750000 0.299600
#
# Coordination Sequence:
#
# PCOD9167614 Si02
#       8
#     4   4   4   4   4   4   4   4
#     4   8  13  22  37  56  78 103 130 158 189 230
#     4   9  14  20  32  50  73  98 126 159 192 225
#     4   8  13  21  34  51  70  94 125 158 191 226
#     4   7  11  19  31  49  70  93 122 154 183 213
#     4   8  13  23  39  57  78 104 131 159 193 232
#     4   9  16  27  43  61  81 103 129 162 197 231
#     4   8  14  24  39  59  78  97 126 163 196 224
#     4   9  16  26  42  63  81  98 127 165 197 227
#
# _framework density 27.768530999999999
#
# number of rings (size 3 to 8) (size 9 to 14) (size 15 to 20)
#    0.000    3.750    0.000    3.750    0.000    0.000 
#    0.000    0.625    0.000   11.250    0.000    0.875 
#    0.000    0.000    0.000    0.000    0.000    0.000 
#
# Total GULP energy -178490.973977 kJ/mol
# GULP energy per Si atom -5577.842937 kJ/mol
# Density = 2.770533 g / cm^3
# Si number density = 27.768531 Si / 1000 Ang^3
#
#
#
# Elastic Constant Matrix: (Units=GPa)
#
#
# Indices 1 2 3 4 5 6 
#
# 1 300.8508 13.0482 57.5331 0.0000 67.9309 0.0000
# 2 13.0482 83.9471 -0.4411 0.0000 9.7138 0.0000
# 3 57.5331 -0.4411 142.1316 0.0000 62.6508 0.0000
# 4 0.0000 0.0000 0.0000 13.3249 0.0000 6.3529
# 5 67.9309 9.7138 62.6508 0.0000 83.5479 0.0000
# 6 0.0000 0.0000 0.0000 6.3529 0.0000 16.2671
#
#
#
# Elastic Compliance Matrix: (Units=1/GPa)
#
#
# Indices 1 2 3 4 5 6 
#
# 1 0.004086 -0.000283 -0.000306 0.000000 -0.003059 0.000000
# 2 -0.000283 0.012186 0.001009 0.000000 -0.001944 0.000000
# 3 -0.000306 0.001009 0.010613 0.000000 -0.007827 0.000000
# 4 0.000000 0.000000 0.000000 0.092218 0.000000 -0.036015
# 5 -0.003059 -0.001944 -0.007827 0.000000 0.020552 0.000000
# 6 0.000000 0.000000 0.000000 -0.036015 0.000000 0.075539
#
#
# Mechanical properties :
#
#
# Convention : Reuss Voigt Hill
#
# Bulk Modulus (GPa) = 36.06811 74.13444 55.10127
# Shear Modulus (GPa) = 22.36189 53.08061 37.72125
#
# Velocity S-wave (km/s) = 2.84085 4.37686 3.68967
# Velocity P-wave (km/s) = 4.87623 7.23172 6.16747
#
# Compressibility (1/GPa) = 0.02772533
#
# Stress axis : x y z
#
# Youngs Moduli (GPa) = 244.76757 82.05868 94.22649
#
# Poissons Ratio (x) = 0.02319 0.02884
# Poissons Ratio (y) = 0.06917 -0.09507
# Poissons Ratio (z) = 0.07491 -0.08280
#
# Static dielectric constant tensor:
#      x y z
#    x 2.306340 0.000000 0.048790 
#    y 0.000000 2.046770 0.000000 
#    z 0.048790 0.000000 2.391020 
# 
# From -- ./inp_files/43662.got.cif
#   From: 2010.05.17/outbox.cif.g08.bks.cpg/sg11_22_cif.got.tgz:43662.got - 2010.06.03 12:22:45.
