data_PCOD9167287
_publ_section_title
;
Structure prediction by ZEFSAII (Michael W. Deem and Ramdas Pophale) SiO2 
 PCOD9167287
Probable space group: P 21/M
;
_chemical_formula_sum "Si O2"
_cell_formula_units_Z 28
_cell_length_a 32.226553
_cell_length_b 8.512884
_cell_length_c 32.226547
_cell_angle_alpha 90.000000
_cell_angle_beta 170.584305
_cell_angle_gamma 90.000000
_cell_volume 1446.363908
_symmetry_space_group_name_H-M "P 21/M"
_symmetry_group_IT_number 11
_symmetry_cell_setting 'monoclinic'
loop_
_space_group_symop_operation_xyz
x,y,z
-x,1/2+y,-z
-x,-y,-z
x,1/2-y,z
loop_
_atom_site_type_symbol
_atom_site_label
_atom_site_fract_x
_atom_site_fract_y
_atom_site_fract_z
Si Si1 0.953510 0.561176 0.546489
Si Si2 0.094994 0.438392 0.405026
Si Si3 0.523550 0.937597 0.976453
Si Si4 0.617802 0.938800 0.882218
Si Si5 0.761437 0.061124 0.738563
Si Si6 0.809640 0.058393 0.690406
Si Si7 0.334083 0.441684 0.165965
O O1 0.954594 0.750000 0.545406
O O2 0.929265 0.513625 0.570745
O O3 0.714541 0.498002 0.285051
O O4 0.214943 0.498001 0.785452
O O5 0.095787 0.250000 0.404218
O O6 0.856461 0.501221 0.143869
O O7 0.356172 0.501212 0.643584
O O8 0.523333 0.750000 0.976665
O O9 0.500000 0.000000 0.000000
O O10 0.617505 0.750000 0.882500
O O11 0.641903 0.991213 0.858079
O O12 0.761062 0.250000 0.738936
O O13 0.785586 0.009173 0.714426
O O14 0.500000 0.000000 0.500000
O O15 0.000000 0.000000 0.000000
O O16 0.809702 0.250000 0.690346
O O17 0.571851 0.006686 0.428181
O O18 0.071876 0.006687 0.928210
O O19 0.334054 0.250000 0.165992
#
# Coordination Sequence:
#
# PCOD9167287 Si02
#       7
#     4   4   4   4   4   4   4
#     4  11  24  43  64  88 120 161 204 243 287 345
#     4  11  24  41  61  86 123 163 194 234 295 358
#     4  12  25  42  65  93 124 158 197 246 298 349
#     4  11  22  37  62  91 117 148 195 250 292 335
#     4  11  22  37  59  85 114 151 192 239 291 349
#     4   9  17  31  53  79 108 145 190 233 282 343
#     4   9  17  31  53  82 110 140 187 243 284 327
#
# _framework density 19.358889999999999
#
# number of rings (size 3 to 8) (size 9 to 14) (size 15 to 20)
#    0.000    1.429    0.000    6.000    0.000   10.286 
#    0.000    0.000    0.000   17.143    0.000    0.000 
#    0.000    0.000    0.000    0.000    0.000    0.000 
#
# Total GULP energy -156619.276410 kJ/mol
# GULP energy per Si atom -5593.545586 kJ/mol
# Density = 1.931483 g / cm^3
# Si number density = 19.358890 Si / 1000 Ang^3
#
#
#
# Elastic Constant Matrix: (Units=GPa)
#
#
# Indices 1 2 3 4 5 6 
#
# 1 249.2134 56.4027 153.6148 0.0000 -0.1081 0.0000
# 2 56.4027 60.1325 48.3718 0.0000 -0.7113 0.0000
# 3 153.6148 48.3718 248.7306 0.0000 0.0560 0.0000
# 4 0.0000 0.0000 0.0000 33.5195 0.0000 0.2253
# 5 -0.1081 -0.7113 0.0560 0.0000 47.2197 0.0000
# 6 0.0000 0.0000 0.0000 0.2253 0.0000 30.9641
#
#
#
# Elastic Compliance Matrix: (Units=1/GPa)
#
#
# Indices 1 2 3 4 5 6 
#
# 1 0.007119 -0.003724 -0.003673 0.000000 -0.000035 0.000000
# 2 -0.003724 0.021666 -0.001914 0.000000 0.000320 0.000000
# 3 -0.003673 -0.001914 0.006661 0.000000 -0.000045 0.000000
# 4 0.000000 0.000000 0.000000 0.029835 0.000000 -0.000217
# 5 -0.000035 0.000320 -0.000045 0.000000 0.021182 0.000000
# 6 0.000000 0.000000 0.000000 -0.000217 0.000000 0.032297
#
#
# Mechanical properties :
#
#
# Convention : Reuss Voigt Hill
#
# Bulk Modulus (GPa) = 59.43284 119.42833 89.43059
# Shear Modulus (GPa) = 34.96775 42.31981 38.64378
#
# Velocity S-wave (km/s) = 4.25466 4.68061 4.47271
# Velocity P-wave (km/s) = 7.40968 9.54130 8.54224
#
# Compressibility (1/GPa) = 0.01682572
#
# Stress axis : x y z
#
# Youngs Moduli (GPa) = 140.46649 46.15533 150.13269
#
# Poissons Ratio (x) = 0.17187 0.55137
# Poissons Ratio (y) = 0.52305 0.28733
# Poissons Ratio (z) = 0.51587 0.08833
#
# Static dielectric constant tensor:
#      x y z
#    x 1.653640 0.000000 -0.002130 
#    y 0.000000 1.663720 0.000000 
#    z -0.002130 0.000000 1.629480 
# 
# From -- ./inp_files/73858.got.cif
#   From: 2010.05.17/outbox.cif.g08.bks.cpg/sg11_37_cif.got.tgz:73858.got - 2010.06.03 12:22:45.
