data_PCOD9167423
_publ_section_title
;
Structure prediction by ZEFSAII (Michael W. Deem and Ramdas Pophale) SiO2 
 PCOD9167423
Probable space group: P 21/M
;
_chemical_formula_sum "Si O2"
_cell_formula_units_Z 24
_cell_length_a 21.166596
_cell_length_b 8.756330
_cell_length_c 9.198136
_cell_angle_alpha 90.000000
_cell_angle_beta 50.205687
_cell_angle_gamma 90.000000
_cell_volume 1309.876645
_symmetry_space_group_name_H-M "P 21/M"
_symmetry_group_IT_number 11
_symmetry_cell_setting 'monoclinic'
loop_
_space_group_symop_operation_xyz
x,y,z
-x,1/2+y,-z
-x,-y,-z
x,1/2-y,z
loop_
_atom_site_type_symbol
_atom_site_label
_atom_site_fract_x
_atom_site_fract_y
_atom_site_fract_z
Si Si1 0.589195 0.431047 0.693637
Si Si2 0.240783 0.432892 0.562247
Si Si3 0.412043 0.066149 0.979902
Si Si4 0.924052 0.068201 0.701948
Si Si5 0.230266 0.433133 0.235514
Si Si6 0.922794 0.934101 0.026346
O O1 0.597304 0.250000 0.670901
O O2 0.671802 0.505321 0.510548
O O3 0.497388 0.474314 0.774283
O O4 0.587893 0.481818 0.864927
O O5 0.245041 0.250000 0.559881
O O6 0.228938 0.474268 0.409310
O O7 0.162052 0.482332 0.770210
O O8 0.413949 0.250000 0.004925
O O9 0.322999 0.034101 0.042923
O O10 0.931899 0.250000 0.698791
O O11 0.839956 0.020751 0.746088
O O12 0.924706 0.996469 0.860837
O O13 0.000000 0.000000 0.500000
O O14 0.216213 0.250000 0.244916
O O15 0.926257 0.750000 0.021491
O O16 0.000000 0.000000 0.000000
#
# Coordination Sequence:
#
# PCOD9167423 Si02
#       6
#     4   4   4   4   4   4
#     4   9  15  24  44  74 105 138 176 216 257 305
#     4   9  19  34  53  78 109 142 174 214 266 318
#     4   8  15  27  44  70 105 141 175 215 262 307
#     4  12  25  40  58  81 108 139 178 222 269 321
#     4   9  17  33  55  79 109 142 177 219 267 316
#     4  11  23  40  61  83 108 140 177 218 268 322
#
# _framework density 18.322334999999999
#
# number of rings (size 3 to 8) (size 9 to 14) (size 15 to 20)
#    0.000    2.333    0.000    4.500    0.000    6.000 
#    0.000    0.000    0.000    1.000    0.000    0.000 
#    0.000    0.000    0.000    0.000    0.000    0.000 
#
# Total GULP energy -133814.357050 kJ/mol
# GULP energy per Si atom -5575.598210 kJ/mol
# Density = 1.828063 g / cm^3
# Si number density = 18.322335 Si / 1000 Ang^3
#
#
#
# Elastic Constant Matrix: (Units=GPa)
#
#
# Indices 1 2 3 4 5 6 
#
# 1 118.7672 43.3290 86.8699 0.0000 -34.3286 0.0000
# 2 43.3290 50.5991 43.3011 0.0000 -13.1208 0.0000
# 3 86.8699 43.3011 138.7066 0.0000 -37.6260 0.0000
# 4 0.0000 0.0000 0.0000 26.0000 0.0000 -6.0093
# 5 -34.3286 -13.1208 -37.6260 0.0000 34.4383 0.0000
# 6 0.0000 0.0000 0.0000 -6.0093 0.0000 32.3088
#
#
#
# Elastic Compliance Matrix: (Units=1/GPa)
#
#
# Indices 1 2 3 4 5 6 
#
# 1 0.018866 -0.007953 -0.007182 0.000000 0.007929 0.000000
# 2 -0.007953 0.030377 -0.004993 0.000000 -0.001810 0.000000
# 3 -0.007182 -0.004993 0.015360 0.000000 0.007721 0.000000
# 4 0.000000 0.000000 0.000000 0.040189 0.000000 0.007475
# 5 0.007929 -0.001810 0.007721 0.000000 0.044688 0.000000
# 6 0.000000 0.000000 0.000000 0.007475 0.000000 0.032342
#
#
# Mechanical properties :
#
#
# Convention : Reuss Voigt Hill
#
# Bulk Modulus (GPa) = 41.07145 72.78590 56.92867
# Shear Modulus (GPa) = 21.72068 27.52097 24.62083
#
# Velocity S-wave (km/s) = 3.44681 3.87983 3.66971
# Velocity P-wave (km/s) = 6.18913 7.73836 7.00670
#
# Compressibility (1/GPa) = 0.02434782
#
# Stress axis : x y z
#
# Youngs Moduli (GPa) = 53.00412 32.91923 65.10222
#
# Poissons Ratio (x) = 0.26182 0.46756
# Poissons Ratio (y) = 0.42157 0.32504
# Poissons Ratio (z) = 0.38067 0.16436
#
# Static dielectric constant tensor:
#      x y z
#    x 1.537140 0.000000 -0.094780 
#    y 0.000000 1.613640 0.000000 
#    z -0.094780 0.000000 1.611360 
# 
# From -- ./inp_files/25715.got.cif
#   From: 2010.05.17/outbox.cif.g08.bks.cpg/sg11_13_cif.got.tgz:25715.got - 2010.06.03 12:22:45.
