data_PCOD9167882
_publ_section_title
;
Structure prediction by ZEFSAII (Michael W. Deem and Ramdas Pophale) SiO2 
 PCOD9167882
Probable space group: P 21/M
;
_chemical_formula_sum "Si O2"
_cell_formula_units_Z 32
_cell_length_a 15.000000
_cell_length_b 9.000000
_cell_length_c 12.000000
_cell_angle_alpha 90.000000
_cell_angle_beta 90.000000
_cell_angle_gamma 90.000000
_cell_volume 1620.000000
_symmetry_space_group_name_H-M "P 21/M"
_symmetry_group_IT_number 11
_symmetry_cell_setting 'monoclinic'
loop_
_space_group_symop_operation_xyz
x,y,z
-x,1/2+y,-z
-x,-y,-z
x,1/2-y,z
loop_
_atom_site_type_symbol
_atom_site_label
_atom_site_fract_x
_atom_site_fract_y
_atom_site_fract_z
Si Si1 0.682433 0.922170 0.747067
Si Si2 0.096639 0.928842 0.511112
Si Si3 0.144526 0.927629 0.270813
Si Si4 0.164009 0.921444 0.755291
Si Si5 0.362037 0.923113 0.706685
Si Si6 0.403075 0.427745 0.485988
Si Si7 0.016960 0.074140 0.882653
Si Si8 0.504594 0.577404 0.882511
O O1 0.707982 0.750000 0.732437
O O2 0.643050 0.976488 0.628778
O O3 0.603353 0.930887 0.834577
O O4 0.767337 0.012651 0.785644
O O5 0.089461 0.750000 0.507623
O O6 0.147393 0.977705 0.399519
O O7 0.140915 0.966566 0.628356
O O8 0.000000 0.000000 0.500000
O O9 0.144078 0.750000 0.269761
O O10 0.055644 0.979049 0.208521
O O11 0.134015 0.750000 0.770060
O O12 0.269153 0.925622 0.770451
O O13 0.112341 0.026916 0.837612
O O14 0.382061 0.750000 0.676618
O O15 0.439273 0.982802 0.786433
O O16 0.351965 0.015925 0.594476
O O17 0.500000 0.500000 0.500000
O O18 0.410841 0.250000 0.482807
O O19 0.009071 0.250000 0.892414
O O20 0.000000 0.000000 0.000000
O O21 0.479289 0.750000 0.895669
O O22 0.500000 0.500000 0.000000
#
# Coordination Sequence:
#
# PCOD9167882 Si02
#       8
#     4   4   4   4   4   4   4   4
#     4  10  22  39  59  87 121 154 190 240 294 344
#     4  10  19  34  57  87 119 150 186 231 287 347
#     4  10  22  39  60  88 118 153 195 238 289 350
#     4  10  21  37  62  90 118 155 193 237 297 351
#     4  10  21  40  62  86 121 156 193 243 292 348
#     4  11  21  36  60  90 123 157 193 236 294 355
#     4  11  24  42  62  84 117 155 200 250 294 348
#     4  10  22  41  60  82 115 152 195 243 291 341
#
# _framework density 19.753086
#
# number of rings (size 3 to 8) (size 9 to 14) (size 15 to 20)
#    0.000    1.750    2.500    1.500    0.000    6.000 
#    0.000    3.750    0.000    0.000    0.000    0.000 
#    0.000    0.000    0.000    0.000    0.000    0.000 
#
# Total GULP energy -178577.817979 kJ/mol
# GULP energy per Si atom -5580.556812 kJ/mol
# Density = 1.970813 g / cm^3
# Si number density = 19.753086 Si / 1000 Ang^3
#
#
#
# Elastic Constant Matrix: (Units=GPa)
#
#
# Indices 1 2 3 4 5 6 
#
# 1 48.0709 13.1364 -7.8115 0.0000 -16.0675 0.0000
# 2 13.1364 10.9762 25.1404 0.0000 -14.5145 0.0000
# 3 -7.8115 25.1404 61.8310 0.0000 -27.8220 0.0000
# 4 0.0000 0.0000 0.0000 31.4791 0.0000 -3.5085
# 5 -16.0675 -14.5145 -27.8220 0.0000 -9.9574 0.0000
# 6 0.0000 0.0000 0.0000 -3.5085 0.0000 28.0006
#
#
#
# Elastic Compliance Matrix: (Units=1/GPa)
#
#
# Indices 1 2 3 4 5 6 
#
# 1 -0.004213 0.066498 -0.030181 0.000000 -0.005803 0.000000
# 2 0.066498 -0.223298 0.087439 0.000000 -0.026124 0.000000
# 3 -0.030181 0.087439 -0.025974 0.000000 -0.006181 0.000000
# 4 0.000000 0.000000 0.000000 0.032217 0.000000 0.004037
# 5 -0.005803 -0.026124 -0.006181 0.000000 -0.035714 0.000000
# 6 0.000000 0.000000 0.000000 0.004037 0.000000 0.036219
#
#
# Mechanical properties :
#
#
# Convention : Reuss Voigt Hill
#
# Bulk Modulus (GPa) = -167.38517 20.20098 -73.59210
# Shear Modulus (GPa) = -10.63230 15.93198 2.64984
#
# Velocity S-wave (km/s) = -2.32256 2.84307 1.15948
# Velocity P-wave (km/s) = 9.59766 4.58545 5.96191
#
# Compressibility (1/GPa) = -0.00597424
#
# Stress axis : x y z
#
# Youngs Moduli (GPa) = -237.33676 -4.47832 -38.50051
#
# Poissons Ratio (x) = 0.29780 -1.16200
# Poissons Ratio (y) = 15.78244 3.36644
# Poissons Ratio (z) = -7.16314 0.39158
#
# Static dielectric constant tensor:
#      x y z
#    x 1.705470 0.000000 -0.024810 
#    y 0.000000 1.673800 0.000000 
#    z -0.024810 0.000000 1.693340 
# 
# From -- ./inp_files/38257.got.cif
#   From: 2010.05.17/outbox.ucp.g08.bks.cvg/sg11_20_cif.got.tgz:38257.got - 2010.06.11 11:38:39.
