data_PCOD9167114
_publ_section_title
;
Structure prediction by ZEFSAII (Michael W. Deem and Ramdas Pophale) SiO2 
 PCOD9167114
Probable space group: P 21/M
;
_chemical_formula_sum "Si O2"
_cell_formula_units_Z 24
_cell_length_a 9.129492
_cell_length_b 19.961848
_cell_length_c 9.510938
_cell_angle_alpha 90.000000
_cell_angle_beta 133.028751
_cell_angle_gamma 90.000000
_cell_volume 1267.053191
_symmetry_space_group_name_H-M "P 21/M"
_symmetry_group_IT_number 11
_symmetry_cell_setting 'monoclinic'
loop_
_space_group_symop_operation_xyz
x,y,z
-x,1/2+y,-z
-x,-y,-z
x,1/2-y,z
loop_
_atom_site_type_symbol
_atom_site_label
_atom_site_fract_x
_atom_site_fract_y
_atom_site_fract_z
Si Si1 0.584135 0.102754 0.467544
Si Si2 0.276400 0.049248 0.491917
Si Si3 0.582778 0.829025 0.923423
Si Si4 0.033604 0.828673 0.141191
Si Si5 0.932467 0.439783 0.059044
Si Si6 0.502787 0.434449 0.904822
O O1 0.417565 0.092484 0.479651
O O2 0.494319 0.139633 0.273328
O O3 0.776040 0.142252 0.651577
O O4 0.653521 0.027843 0.473380
O O5 0.314193 0.070164 0.676564
O O6 0.054907 0.054287 0.283549
O O7 0.539985 0.750000 0.900688
O O8 0.823542 0.838675 0.084099
O O9 0.487854 0.870212 0.989067
O O10 0.058177 0.750000 0.131089
O O11 0.018793 0.871223 0.988821
O O12 0.697442 0.442101 0.934351
O O13 0.000000 0.500000 0.000000
O O14 0.500000 0.500000 0.000000
#
# Coordination Sequence:
#
# PCOD9167114 Si02
#       6
#     4   4   4   4   4   4
#     4  11  20  40  68  95 124 164 219 265 315 379
#     4  11  22  37  68  99 122 163 217 270 314 378
#     4  11  25  44  63  92 134 171 211 265 329 390
#     4  11  23  40  66  94 124 170 216 261 318 383
#     4  12  22  41  68  95 129 165 216 271 310 383
#     4  12  25  41  63  98 132 168 207 268 331 379
#
# _framework density 18.941589
#
# number of rings (size 3 to 8) (size 9 to 14) (size 15 to 20)
#    0.000    0.667    6.667    2.500    0.000    2.667 
#    0.000    0.833    0.000    0.000    0.000    0.000 
#    0.000    0.000    0.000    0.000    0.000    0.000 
#
# Total GULP energy -134174.914660 kJ/mol
# GULP energy per Si atom -5590.621444 kJ/mol
# Density = 1.889848 g / cm^3
# Si number density = 18.941589 Si / 1000 Ang^3
#
#
#
# Elastic Constant Matrix: (Units=GPa)
#
#
# Indices 1 2 3 4 5 6 
#
# 1 41.6752 38.8624 -1.0177 0.0000 -3.0302 0.0000
# 2 38.8624 111.3636 36.4306 0.0000 -6.0008 0.0000
# 3 -1.0177 36.4306 131.7787 0.0000 -4.0123 0.0000
# 4 0.0000 0.0000 0.0000 20.9655 0.0000 4.6539
# 5 -3.0302 -6.0008 -4.0123 0.0000 32.7882 0.0000
# 6 0.0000 0.0000 0.0000 4.6539 0.0000 25.6436
#
#
#
# Elastic Compliance Matrix: (Units=1/GPa)
#
#
# Indices 1 2 3 4 5 6 
#
# 1 0.037738 -0.014518 0.004346 0.000000 0.001363 0.000000
# 2 -0.014518 0.015529 -0.004376 0.000000 0.000965 0.000000
# 3 0.004346 -0.004376 0.008853 0.000000 0.000684 0.000000
# 4 0.000000 0.000000 0.000000 0.049700 0.000000 -0.009020
# 5 0.001363 0.000965 0.000684 0.000000 0.030885 0.000000
# 6 0.000000 0.000000 0.000000 -0.009020 0.000000 0.040633
#
#
# Mechanical properties :
#
#
# Convention : Reuss Voigt Hill
#
# Bulk Modulus (GPa) = 30.27952 48.15200 39.21576
# Shear Modulus (GPa) = 22.37723 29.91559 26.14641
#
# Velocity S-wave (km/s) = 3.44085 3.97843 3.71936
# Velocity P-wave (km/s) = 5.63971 6.82498 6.26046
#
# Compressibility (1/GPa) = 0.03302562
#
# Stress axis : x y z
#
# Youngs Moduli (GPa) = 26.49822 64.39400 112.96110
#
# Poissons Ratio (x) = 0.93487 -0.49098
# Poissons Ratio (y) = 0.38470 0.49430
# Poissons Ratio (z) = -0.11517 0.28178
#
# Static dielectric constant tensor:
#      x y z
#    x 1.654920 0.000000 0.009690 
#    y 0.000000 1.641740 0.000000 
#    z 0.009690 0.000000 1.670810 
# 
# From -- ./inp_files/14208.got.cif
#   From: 2010.05.17/outbox.cif.g08.bks.cpg/sg11_8_cif.got.tgz:14208.got - 2010.06.03 12:22:45.
