data_PCOD9167054
_publ_section_title
;
Structure prediction by ZEFSAII (Michael W. Deem and Ramdas Pophale) SiO2 
 PCOD9167054
Probable space group: P 21/M
;
_chemical_formula_sum "Si O2"
_cell_formula_units_Z 20
_cell_length_a 20.046058
_cell_length_b 8.500241
_cell_length_c 10.005627
_cell_angle_alpha 90.000000
_cell_angle_beta 138.486394
_cell_angle_gamma 90.000000
_cell_volume 1130.018734
_symmetry_space_group_name_H-M "P 21/M"
_symmetry_group_IT_number 11
_symmetry_cell_setting 'monoclinic'
loop_
_space_group_symop_operation_xyz
x,y,z
-x,1/2+y,-z
-x,-y,-z
x,1/2-y,z
loop_
_atom_site_type_symbol
_atom_site_label
_atom_site_fract_x
_atom_site_fract_y
_atom_site_fract_z
Si Si1 0.437306 0.441472 0.155883
Si Si2 0.274906 0.439881 0.695858
Si Si3 0.667736 0.062038 0.501612
Si Si4 0.112923 0.439641 0.669347
Si Si5 0.274997 0.439881 0.128890
O O1 0.438345 0.250000 0.157434
O O2 0.551698 0.497488 0.327461
O O3 0.373080 0.489999 0.189639
O O4 0.373013 0.490009 0.929385
O O5 0.275551 0.250000 0.692234
O O6 0.279968 0.504502 0.554964
O O7 0.177988 0.489251 0.637389
O O8 0.665178 0.250000 0.497763
O O9 0.719927 0.004519 0.715014
O O10 0.111683 0.250000 0.667486
O O11 0.000000 0.500000 0.500000
O O12 0.178058 0.489243 0.896573
O O13 0.275646 0.250000 0.134470
#
# Coordination Sequence:
#
# PCOD9167054 Si02
#       5
#     4   4   4   4   4
#     4   8  16  31  50  71  99 134 171 200 230 281
#     4   9  18  34  52  71  98 134 166 195 240 298
#     4  11  20  29  46  77 108 131 160 203 240 274
#     4   9  19  36  58  76  92 121 164 207 249 295
#     4   9  18  34  52  71  98 134 166 195 240 298
#
# _framework density 17.698823000000001
#
# number of rings (size 3 to 8) (size 9 to 14) (size 15 to 20)
#    0.000    2.800    0.000    4.200    0.000    1.600 
#    0.000    6.000    0.000    0.000    0.000    0.000 
#    0.000    0.000    0.000    0.000    0.000    0.000 
#
# Total GULP energy -111545.121807 kJ/mol
# GULP energy per Si atom -5577.256090 kJ/mol
# Density = 1.765854 g / cm^3
# Si number density = 17.698823 Si / 1000 Ang^3
#
#
#
# Elastic Constant Matrix: (Units=GPa)
#
#
# Indices 1 2 3 4 5 6 
#
# 1 137.1834 29.0875 126.5422 0.0000 -12.0828 0.0000
# 2 29.0875 15.6817 29.1993 0.0000 -3.1399 0.0000
# 3 126.5422 29.1993 138.0780 0.0000 -14.0300 0.0000
# 4 0.0000 0.0000 0.0000 19.6539 0.0000 4.8168
# 5 -12.0828 -3.1399 -14.0300 0.0000 40.6429 0.0000
# 6 0.0000 0.0000 0.0000 4.8168 0.0000 19.9117
#
#
#
# Elastic Compliance Matrix: (Units=1/GPa)
#
#
# Indices 1 2 3 4 5 6 
#
# 1 0.048482 -0.011889 -0.042020 0.000000 -0.001011 0.000000
# 2 -0.011889 0.108110 -0.011894 0.000000 0.000712 0.000000
# 3 -0.042020 -0.011894 0.048609 0.000000 0.003369 0.000000
# 4 0.000000 0.000000 0.000000 0.054087 0.000000 -0.013084
# 5 -0.001011 0.000712 0.003369 0.000000 0.025522 0.000000
# 6 0.000000 0.000000 0.000000 -0.013084 0.000000 0.053387
#
#
# Mechanical properties :
#
#
# Convention : Reuss Voigt Hill
#
# Bulk Modulus (GPa) = 13.58778 73.40011 43.49395
# Shear Modulus (GPa) = 10.11461 23.11598 16.61529
#
# Velocity S-wave (km/s) = 2.39317 3.61789 3.06727
# Velocity P-wave (km/s) = 3.91538 7.68205 6.09689
#
# Compressibility (1/GPa) = 0.07359552
#
# Stress axis : x y z
#
# Youngs Moduli (GPa) = 20.62634 9.24981 20.57234
#
# Poissons Ratio (x) = 0.10997 0.86444
# Poissons Ratio (y) = 0.24523 0.24469
# Poissons Ratio (z) = 0.86671 0.11002
#
# Static dielectric constant tensor:
#      x y z
#    x 1.591040 0.000000 0.003070 
#    y 0.000000 1.604490 0.000000 
#    z 0.003070 0.000000 1.590850 
# 
# From -- ./inp_files/16001.got.cif
#   From: 2010.05.17/outbox.cif.g08.bks.cpg/sg11_9_cif.got.tgz:16001.got - 2010.06.03 12:22:45.
