data_PCOD9167732
_publ_section_title
;
Structure prediction by ZEFSAII (Michael W. Deem and Ramdas Pophale) SiO2 
 PCOD9167732
Probable space group: P 21/M
;
_chemical_formula_sum "Si O2"
_cell_formula_units_Z 32
_cell_length_a 12.000000
_cell_length_b 15.000000
_cell_length_c 18.000000
_cell_angle_alpha 90.000000
_cell_angle_beta 150.000000
_cell_angle_gamma 90.000000
_cell_volume 1620.000000
_symmetry_space_group_name_H-M "P 21/M"
_symmetry_group_IT_number 11
_symmetry_cell_setting 'monoclinic'
loop_
_space_group_symop_operation_xyz
x,y,z
-x,1/2+y,-z
-x,-y,-z
x,1/2-y,z
loop_
_atom_site_type_symbol
_atom_site_label
_atom_site_fract_x
_atom_site_fract_y
_atom_site_fract_z
Si Si1 0.666366 0.142412 0.898770
Si Si2 0.656839 0.855633 0.482158
Si Si3 0.505175 0.853618 0.655836
Si Si4 0.327251 0.506180 0.748349
Si Si5 0.856808 0.484801 0.517882
Si Si6 0.319318 0.145885 0.072597
Si Si7 0.830685 0.357163 0.828355
Si Si8 0.114146 0.142470 0.232924
O O1 0.626258 0.250000 0.874580
O O2 0.456882 0.083914 0.801759
O O3 0.764586 0.115759 0.874304
O O4 0.864021 0.118689 0.069389
O O5 0.673614 0.750000 0.474342
O O6 0.396306 0.874284 0.347356
O O7 0.803668 0.878015 0.638019
O O8 0.749665 0.918768 0.471859
O O9 0.461261 0.750000 0.611857
O O10 0.285761 0.912666 0.519237
O O11 0.596032 0.855739 0.792757
O O12 0.705159 0.891594 0.721433
O O13 0.201437 0.539713 0.600909
O O14 0.511444 0.581175 0.873225
O O15 0.120579 0.488119 0.683391
O O16 0.325816 0.250000 0.051906
O O17 0.064230 0.110619 0.929904
O O18 0.862619 0.250000 0.851498
O O19 0.121038 0.250000 0.228475
#
# Coordination Sequence:
#
# PCOD9167732 Si02
#       8
#     4   4   4   4   4   4   4   4
#     4  10  18  32  54  78 103 131 169 215 254 301
#     4  10  20  34  53  78 108 135 161 210 265 305
#     4   9  17  32  52  73 102 135 167 211 257 302
#     4  10  21  33  49  75 103 139 179 211 248 298
#     4  10  21  34  48  74 106 137 179 211 245 307
#     4   9  17  31  51  75 103 132 167 212 257 304
#     4   9  16  29  51  78 103 127 162 208 260 305
#     4   9  18  33  54  79 104 133 169 205 258 318
#
# _framework density 19.753086
#
# number of rings (size 3 to 8) (size 9 to 14) (size 15 to 20)
#    0.000    2.500    2.500    0.000    0.000    3.000 
#    0.000    3.125    0.000    0.000    0.000    5.250 
#    0.000    0.000    0.000    0.000    0.000    0.000 
#
# Total GULP energy -178335.006482 kJ/mol
# GULP energy per Si atom -5572.968953 kJ/mol
# Density = 1.970813 g / cm^3
# Si number density = 19.753086 Si / 1000 Ang^3
#
#
#
# Elastic Constant Matrix: (Units=GPa)
#
#
# Indices 1 2 3 4 5 6 
#
# 1 27.8685 10.7959 31.5823 0.0000 29.6536 0.0000
# 2 10.7959 38.9012 18.9212 0.0000 8.1843 0.0000
# 3 31.5823 18.9212 98.9606 0.0000 29.8486 0.0000
# 4 0.0000 0.0000 0.0000 21.4729 0.0000 9.1142
# 5 29.6536 8.1843 29.8486 0.0000 32.6184 0.0000
# 6 0.0000 0.0000 0.0000 9.1142 0.0000 5.3929
#
#
#
# Elastic Compliance Matrix: (Units=1/GPa)
#
#
# Indices 1 2 3 4 5 6 
#
# 1 2.302631 -0.173964 -0.115157 0.000000 -1.944309 0.000000
# 2 -0.173964 0.041695 0.004144 0.000000 0.143897 0.000000
# 3 -0.115157 0.004144 0.020443 0.000000 0.084943 0.000000
# 4 0.000000 0.000000 0.000000 0.164750 0.000000 -0.278430
# 5 -1.944309 0.143897 0.084943 0.000000 1.684406 0.000000
# 6 0.000000 0.000000 0.000000 -0.278430 0.000000 0.655979
#
#
# Mechanical properties :
#
#
# Convention : Reuss Voigt Hill
#
# Bulk Modulus (GPa) = 0.55716 32.03657 16.29687
# Shear Modulus (GPa) = 0.82807 18.85891 9.84349
#
# Velocity S-wave (km/s) = 0.64817 3.09323 2.23475
# Velocity P-wave (km/s) = 0.91806 5.38620 3.86354
#
# Compressibility (1/GPa) = 1.79481665
#
# Stress axis : x y z
#
# Youngs Moduli (GPa) = 0.43429 23.98363 48.91546
#
# Poissons Ratio (x) = 4.17228 5.63297
# Poissons Ratio (y) = 0.07555 -0.20272
# Poissons Ratio (z) = 0.05001 -0.09940
#
# Static dielectric constant tensor:
#      x y z
#    x 1.733420 0.000000 -0.020560 
#    y 0.000000 1.713350 0.000000 
#    z -0.020560 0.000000 1.738550 
# 
# From -- ./inp_files/59525.got.cif
#   From: 2010.05.17/outbox.ucp.g08.bks.cvg/sg11_30_cif.got.tgz:59525.got - 2010.06.11 11:38:39.
