data_PCOD9167929
_publ_section_title
;
Structure prediction by ZEFSAII (Michael W. Deem and Ramdas Pophale) SiO2 
 PCOD9167929
Probable space group: P 21/M
;
_chemical_formula_sum "Si O2"
_cell_formula_units_Z 32
_cell_length_a 21.000000
_cell_length_b 9.000000
_cell_length_c 12.000000
_cell_angle_alpha 90.000000
_cell_angle_beta 60.000000
_cell_angle_gamma 90.000000
_cell_volume 1964.145616
_symmetry_space_group_name_H-M "P 21/M"
_symmetry_group_IT_number 11
_symmetry_cell_setting 'monoclinic'
loop_
_space_group_symop_operation_xyz
x,y,z
-x,1/2+y,-z
-x,-y,-z
x,1/2-y,z
loop_
_atom_site_type_symbol
_atom_site_label
_atom_site_fract_x
_atom_site_fract_y
_atom_site_fract_z
Si Si1 0.249504 0.430464 0.838633
Si Si2 0.479458 0.075126 0.402080
Si Si3 0.623754 0.074647 0.126173
Si Si4 0.910312 0.579751 0.968776
Si Si5 0.581222 0.929387 0.934853
Si Si6 0.651684 0.931030 0.638275
Si Si7 0.946174 0.920480 0.203044
Si Si8 0.212122 0.068699 0.617636
O O1 0.254249 0.250000 0.839677
O O2 0.316339 0.504492 0.843981
O O3 0.243473 0.470778 0.712876
O O4 0.172692 0.478441 0.963461
O O5 0.468882 0.250000 0.433528
O O6 0.545369 0.058813 0.256313
O O7 0.406608 0.017634 0.404131
O O8 0.500000 0.000000 0.500000
O O9 0.636967 0.250000 0.097702
O O10 0.619699 0.990259 0.012336
O O11 0.909354 0.750000 0.933674
O O12 0.976181 0.498541 0.849277
O O13 0.929252 0.577970 0.084672
O O14 0.575633 0.750000 0.942799
O O15 0.625167 0.973582 0.784326
O O16 0.500000 0.000000 0.000000
O O17 0.650099 0.750000 0.637698
O O18 0.732016 0.978300 0.527168
O O19 0.953371 0.750000 0.231355
O O20 0.871651 0.985920 0.320504
O O21 0.208234 0.250000 0.621570
#
# Coordination Sequence:
#
# PCOD9167929 Si02
#       8
#     4   4   4   4   4   4   4   4
#     4   9  17  30  48  70  96 129 162 189 230 285
#     4  10  20  33  48  69  95 123 155 189 229 282
#     4  11  22  35  49  70  97 123 158 201 242 281
#     4   8  14  24  39  62  93 126 157 186 219 271
#     4  11  21  36  55  71  90 121 161 204 245 283
#     4   9  17  31  49  68  92 121 155 195 235 275
#     4   8  13  22  39  64  91 123 157 185 221 271
#     4   8  14  26  46  70  97 125 156 193 231 280
#
# _framework density 16.292071
#
# number of rings (size 3 to 8) (size 9 to 14) (size 15 to 20)
#    0.000    2.750    1.250    3.000    0.000    2.500 
#    0.000    1.875    0.000    3.000    0.000    0.875 
#    0.000    0.000    0.000    0.000    0.000    0.000 
#
# Total GULP energy -178208.845218 kJ/mol
# GULP energy per Si atom -5569.026413 kJ/mol
# Density = 1.625499 g / cm^3
# Si number density = 16.292071 Si / 1000 Ang^3
#
#
#
# Elastic Constant Matrix: (Units=GPa)
#
#
# Indices 1 2 3 4 5 6 
#
# 1 12.4952 13.8336 19.5581 0.0000 -17.3233 0.0000
# 2 13.8336 26.6308 30.6181 0.0000 -7.6899 0.0000
# 3 19.5581 30.6181 103.7837 0.0000 -12.0405 0.0000
# 4 0.0000 0.0000 0.0000 18.6140 0.0000 -1.9974
# 5 -17.3233 -7.6899 -12.0405 0.0000 29.2731 0.0000
# 6 0.0000 0.0000 0.0000 -1.9974 0.0000 24.0987
#
#
#
# Elastic Compliance Matrix: (Units=1/GPa)
#
#
# Indices 1 2 3 4 5 6 
#
# 1 -0.756984 0.259808 0.023052 0.000000 -0.370236 0.000000
# 2 0.259808 -0.030290 -0.024269 0.000000 0.135810 0.000000
# 3 0.023052 -0.024269 0.013960 0.000000 0.013009 0.000000
# 4 0.000000 0.000000 0.000000 0.054205 0.000000 0.004493
# 5 -0.370236 0.135810 0.013009 0.000000 -0.143910 0.000000
# 6 0.000000 0.000000 0.000000 0.004493 0.000000 0.041868
#
#
# Mechanical properties :
#
#
# Convention : Reuss Voigt Hill
#
# Bulk Modulus (GPa) = -3.90427 30.10324 13.09949
# Shear Modulus (GPa) = -3.51195 19.65715 8.07260
#
# Velocity S-wave (km/s) = -1.46980 3.47731 2.22838
# Velocity P-wave (km/s) = 2.29827 5.88554 3.83129
#
# Compressibility (1/GPa) = -0.25612995
#
# Stress axis : x y z
#
# Youngs Moduli (GPa) = -1.32103 -33.01397 71.63280
#
# Poissons Ratio (x) = 8.57729 -1.65131
# Poissons Ratio (y) = 0.34321 1.73843
# Poissons Ratio (z) = 0.03045 -0.80120
#
# Static dielectric constant tensor:
#      x y z
#    x 1.542010 0.000000 -0.034600 
#    y 0.000000 1.566530 0.000000 
#    z -0.034600 0.000000 1.553900 
# 
# From -- ./inp_files/42474.got.cif
#   From: 2010.05.17/outbox.ucp.g08.bks.cvg/sg11_22_cif.got.tgz:42474.got - 2010.06.11 11:38:39.
