data_PCOD9167231
_publ_section_title
;
Structure prediction by ZEFSAII (Michael W. Deem and Ramdas Pophale) SiO2 
 PCOD9167231
Probable space group: P 21/M
;
_chemical_formula_sum "Si O2"
_cell_formula_units_Z 20
_cell_length_a 7.047192
_cell_length_b 25.780176
_cell_length_c 7.757237
_cell_angle_alpha 90.000000
_cell_angle_beta 38.068195
_cell_angle_gamma 90.000000
_cell_volume 868.984087
_symmetry_space_group_name_H-M "P 21/M"
_symmetry_group_IT_number 11
_symmetry_cell_setting 'monoclinic'
loop_
_space_group_symop_operation_xyz
x,y,z
-x,1/2+y,-z
-x,-y,-z
x,1/2-y,z
loop_
_atom_site_type_symbol
_atom_site_label
_atom_site_fract_x
_atom_site_fract_y
_atom_site_fract_z
Si Si1 0.134880 0.910498 0.309474
Si Si2 0.152287 0.408753 0.141601
Si Si3 0.708570 0.949968 0.333379
Si Si4 0.671521 0.346011 0.324308
Si Si5 0.963364 0.691756 0.265125
O O1 0.998492 0.945276 0.253940
O O2 0.985967 0.853080 0.392464
O O3 0.498791 0.903686 0.045480
O O4 0.035126 0.932730 0.565683
O O5 0.177620 0.439327 0.942563
O O6 0.971554 0.355196 0.227278
O O7 0.488858 0.902325 0.548311
O O8 0.500000 0.000000 0.500000
O O9 0.379441 0.310104 0.572236
O O10 0.800314 0.327674 0.049411
O O11 0.031594 0.750000 0.273355
#
# Coordination Sequence:
#
# PCOD9167231 Si02
#       5
#     4   4   4   4   4
#     4  11  24  43  71  96 143 181 223 292 345 403
#     4  12  23  45  68 101 141 175 230 278 345 410
#     4  11  26  46  71 103 143 191 235 284 352 415
#     4  11  21  46  67  98 139 176 221 289 343 404
#     4  11  23  44  74 100 132 182 231 283 357 420
#
# _framework density 23.01538
#
# number of rings (size 3 to 8) (size 9 to 14) (size 15 to 20)
#    0.000    0.800    6.000    3.000    0.000    2.400 
#    0.000    6.000    0.000    0.000    0.000    0.000 
#    0.000    0.000    0.000    0.000    0.000    0.000 
#
# Total GULP energy -111768.146754 kJ/mol
# GULP energy per Si atom -5588.407338 kJ/mol
# Density = 2.296300 g / cm^3
# Si number density = 23.015380 Si / 1000 Ang^3
#
#
#
# Elastic Constant Matrix: (Units=GPa)
#
#
# Indices 1 2 3 4 5 6 
#
# 1 91.6887 -3.4501 24.8478 0.0000 -5.9704 0.0000
# 2 -3.4501 94.6740 11.1267 0.0000 10.7268 0.0000
# 3 24.8478 11.1267 132.7697 0.0000 -10.0362 0.0000
# 4 0.0000 0.0000 0.0000 4.9803 0.0000 5.4905
# 5 -5.9704 10.7268 -10.0362 0.0000 48.1221 0.0000
# 6 0.0000 0.0000 0.0000 5.4905 0.0000 14.6741
#
#
#
# Elastic Compliance Matrix: (Units=1/GPa)
#
#
# Indices 1 2 3 4 5 6 
#
# 1 0.011566 0.000577 -0.002148 0.000000 0.000858 0.000000
# 2 0.000577 0.011028 -0.001232 0.000000 -0.002644 0.000000
# 3 -0.002148 -0.001232 0.008166 0.000000 0.001711 0.000000
# 4 0.000000 0.000000 0.000000 0.341767 0.000000 -0.127876
# 5 0.000858 -0.002644 0.001711 0.000000 0.021833 0.000000
# 6 0.000000 0.000000 0.000000 -0.127876 0.000000 0.115993
#
#
# Mechanical properties :
#
#
# Convention : Reuss Voigt Hill
#
# Bulk Modulus (GPa) = 39.75527 42.68681 41.22104
# Shear Modulus (GPa) = 9.53571 32.66251 21.09911
#
# Velocity S-wave (km/s) = 2.03769 3.77126 3.03106
# Velocity P-wave (km/s) = 4.77986 6.12785 5.49535
#
# Compressibility (1/GPa) = 0.02515390
#
# Stress axis : x y z
#
# Youngs Moduli (GPa) = 86.45891 90.67924 122.45233
#
# Poissons Ratio (x) = -0.05229 0.26303
# Poissons Ratio (y) = -0.04986 0.15085
# Poissons Ratio (z) = 0.18572 0.11171
#
# Static dielectric constant tensor:
#      x y z
#    x 1.930200 0.000000 -0.012840 
#    y 0.000000 1.957950 0.000000 
#    z -0.012840 0.000000 1.862920 
# 
# From -- ./inp_files/15120.got.cif
#   From: 2010.05.17/outbox.cif.g08.bks.cpg/sg11_8_cif.got.tgz:15120.got - 2010.06.03 12:22:45.
