data_PCOD9167027
_publ_section_title
;
Structure prediction by ZEFSAII (Michael W. Deem and Ramdas Pophale) SiO2 
 PCOD9167027
Probable space group: P 21/M
;
_chemical_formula_sum "Si O2"
_cell_formula_units_Z 28
_cell_length_a 6.685733
_cell_length_b 19.863138
_cell_length_c 12.491561
_cell_angle_alpha 90.000000
_cell_angle_beta 68.937470
_cell_angle_gamma 90.000000
_cell_volume 1548.043296
_symmetry_space_group_name_H-M "P 21/M"
_symmetry_group_IT_number 11
_symmetry_cell_setting 'monoclinic'
loop_
_space_group_symop_operation_xyz
x,y,z
-x,1/2+y,-z
-x,-y,-z
x,1/2-y,z
loop_
_atom_site_type_symbol
_atom_site_label
_atom_site_fract_x
_atom_site_fract_y
_atom_site_fract_z
Si Si1 0.585122 0.031074 0.329347
Si Si2 0.902876 0.409422 0.103601
Si Si3 0.167541 0.044049 0.536175
Si Si4 0.963466 0.172519 0.693516
Si Si5 0.746389 0.488673 0.925225
Si Si6 0.437317 0.903930 0.221023
Si Si7 0.860439 0.825922 0.096349
O O1 0.704604 0.079362 0.221648
O O2 0.374554 0.061397 0.424098
O O3 0.750092 0.006543 0.387594
O O4 0.508610 0.960800 0.290390
O O5 0.106507 0.446334 0.118725
O O6 0.843474 0.450065 0.007291
O O7 0.982110 0.340640 0.034030
O O8 0.080046 0.112879 0.605440
O O9 0.000000 0.000000 0.500000
O O10 0.017453 0.250000 0.653629
O O11 0.710942 0.158805 0.718495
O O12 0.027473 0.166608 0.808159
O O13 0.726418 0.443055 0.825271
O O14 0.500000 0.500000 0.000000
O O15 0.659248 0.876790 0.129092
O O16 0.780248 0.750000 0.105232
#
# Coordination Sequence:
#
# PCOD9167027 Si02
#       7
#     4   4   4   4   4   4   4
#     4  11  23  35  62  91 114 151 198 256 303 338
#     4  11  21  35  53  89 120 147 196 226 297 357
#     4  11  23  42  60  86 120 153 206 263 295 341
#     4  11  23  39  60  87 119 159 196 243 309 365
#     4  11  19  30  57  87 118 148 176 241 284 354
#     4  12  19  36  59  91 118 147 196 240 306 350
#     4  11  23  37  56  85 126 158 189 237 297 374
#
# _framework density 18.087349
#
# number of rings (size 3 to 8) (size 9 to 14) (size 15 to 20)
#    0.000    0.857    7.143    2.143    0.000    0.000 
#    0.000    0.714    0.000    0.857    0.000    0.000 
#    0.000    0.000    0.000    0.000    0.000    0.000 
#
# Total GULP energy -155998.632281 kJ/mol
# GULP energy per Si atom -5571.379724 kJ/mol
# Density = 1.804618 g / cm^3
# Si number density = 18.087349 Si / 1000 Ang^3
#
#
#
# Elastic Constant Matrix: (Units=GPa)
#
#
# Indices 1 2 3 4 5 6 
#
# 1 89.2529 31.7841 30.8543 0.0000 6.6341 0.0000
# 2 31.7841 78.5823 43.6693 0.0000 -2.7447 0.0000
# 3 30.8543 43.6693 101.1340 0.0000 -7.9987 0.0000
# 4 0.0000 0.0000 0.0000 29.5770 0.0000 -2.6841
# 5 6.6341 -2.7447 -7.9987 0.0000 29.5794 0.0000
# 6 0.0000 0.0000 0.0000 -2.6841 0.0000 24.1526
#
#
#
# Elastic Compliance Matrix: (Units=1/GPa)
#
#
# Indices 1 2 3 4 5 6 
#
# 1 0.014001 -0.004277 -0.002764 0.000000 -0.004284 0.000000
# 2 -0.004277 0.018054 -0.006420 0.000000 0.000898 0.000000
# 3 -0.002764 -0.006420 0.013800 0.000000 0.003756 0.000000
# 4 0.000000 0.000000 0.000000 0.034154 0.000000 0.003796
# 5 -0.004284 0.000898 0.003756 0.000000 0.035867 0.000000
# 6 0.000000 0.000000 0.000000 0.003796 0.000000 0.041825
#
#
# Mechanical properties :
#
#
# Convention : Reuss Voigt Hill
#
# Bulk Modulus (GPa) = 52.81297 53.50941 53.16119
# Shear Modulus (GPa) = 26.18692 27.50589 26.84640
#
# Velocity S-wave (km/s) = 3.80913 3.90388 3.85679
# Velocity P-wave (km/s) = 6.97196 7.06884 7.02056
#
# Compressibility (1/GPa) = 0.01893474
#
# Stress axis : x y z
#
# Youngs Moduli (GPa) = 71.42362 55.38803 72.46287
#
# Poissons Ratio (x) = 0.23689 0.20026
# Poissons Ratio (y) = 0.30547 0.46521
# Poissons Ratio (z) = 0.19738 0.35559
#
# Static dielectric constant tensor:
#      x y z
#    x 1.677130 0.000000 -0.015150 
#    y 0.000000 1.678340 0.000000 
#    z -0.015150 0.000000 1.682190 
# 
# From -- ./inp_files/29982.got.cif
#   From: 2010.05.17/outbox.cif.g08.bks.cpg/sg11_15_cif.got.tgz:29982.got - 2010.06.03 12:22:45.
