data_PCOD9167254
_publ_section_title
;
Structure prediction by ZEFSAII (Michael W. Deem and Ramdas Pophale) SiO2 
 PCOD9167254
Probable space group: P 21/M
;
_chemical_formula_sum "Si O2"
_cell_formula_units_Z 32
_cell_length_a 5.048031
_cell_length_b 29.234983
_cell_length_c 12.444955
_cell_angle_alpha 90.000000
_cell_angle_beta 67.320182
_cell_angle_gamma 90.000000
_cell_volume 1694.597087
_symmetry_space_group_name_H-M "P 21/M"
_symmetry_group_IT_number 11
_symmetry_cell_setting 'monoclinic'
loop_
_space_group_symop_operation_xyz
x,y,z
-x,1/2+y,-z
-x,-y,-z
x,1/2-y,z
loop_
_atom_site_type_symbol
_atom_site_label
_atom_site_fract_x
_atom_site_fract_y
_atom_site_fract_z
Si Si1 0.955415 0.457581 0.697830
Si Si2 0.890212 0.538924 0.098763
Si Si3 0.715790 0.397753 0.315585
Si Si4 0.265102 0.101060 0.065988
Si Si5 0.591689 0.534009 0.785888
Si Si6 0.239603 0.799557 0.736850
Si Si7 0.585028 0.800534 0.896699
Si Si8 0.580906 0.049575 0.541373
O O1 0.906757 0.512606 0.720738
O O2 0.776057 0.450293 0.617051
O O3 0.912376 0.445938 0.831635
O O4 0.262417 0.435702 0.625434
O O5 0.615967 0.510241 0.187370
O O6 0.815635 0.582197 0.037426
O O7 0.000000 0.500000 0.000000
O O8 0.483554 0.429244 0.291886
O O9 0.635541 0.344520 0.336547
O O10 0.730636 0.418258 0.431188
O O11 0.988990 0.397613 0.190723
O O12 0.446205 0.061039 0.096730
O O13 0.406269 0.151193 0.042497
O O14 0.339498 0.750000 0.681239
O O15 0.336555 0.802838 0.846424
O O16 0.893876 0.800204 0.788037
O O17 0.564457 0.750000 0.953977
O O18 0.500000 0.000000 0.500000
#
# Coordination Sequence:
#
# PCOD9167254 Si02
#       8
#     4   4   4   4   4   4   4   4
#     4  12  25  40  51  77 108 153 188 225 262 310
#     4  12  23  36  54  78 113 151 190 231 265 322
#     4  11  22  35  56  85 109 149 180 224 278 334
#     4  11  22  34  55  85 110 148 183 225 277 333
#     4  12  20  35  53  80 112 147 189 220 269 320
#     4   9  18  33  53  79 111 138 171 220 275 336
#     4   9  18  33  52  78 111 139 171 221 278 336
#     4  12  24  37  57  74 111 146 188 223 264 322
#
# _framework density 18.883544000000001
#
# number of rings (size 3 to 8) (size 9 to 14) (size 15 to 20)
#    0.000    1.000    6.250    1.500    1.750    0.000 
#    0.000    0.000    0.000    0.000    0.000    1.750 
#    0.000    1.000    0.000    0.000    0.000    0.000 
#
# Total GULP energy -178146.185571 kJ/mol
# GULP energy per Si atom -5567.068299 kJ/mol
# Density = 1.884056 g / cm^3
# Si number density = 18.883544 Si / 1000 Ang^3
#
#
#
# Elastic Constant Matrix: (Units=GPa)
#
#
# Indices 1 2 3 4 5 6 
#
# 1 64.6701 10.2323 36.5853 0.0000 24.6879 0.0000
# 2 10.2323 122.9400 39.2625 0.0000 13.2352 0.0000
# 3 36.5853 39.2625 89.8603 0.0000 29.8232 0.0000
# 4 0.0000 0.0000 0.0000 11.0870 0.0000 9.8997
# 5 24.6879 13.2352 29.8232 0.0000 39.4904 0.0000
# 6 0.0000 0.0000 0.0000 9.8997 0.0000 20.1721
#
#
#
# Elastic Compliance Matrix: (Units=1/GPa)
#
#
# Indices 1 2 3 4 5 6 
#
# 1 0.022658 0.001251 -0.006581 0.000000 -0.009615 0.000000
# 2 0.001251 0.009522 -0.004472 0.000000 -0.000596 0.000000
# 3 -0.006581 -0.004472 0.018547 0.000000 -0.008394 0.000000
# 4 0.000000 0.000000 0.000000 0.160548 0.000000 -0.078791
# 5 -0.009615 -0.000596 -0.008394 0.000000 0.037873 0.000000
# 6 0.000000 0.000000 0.000000 -0.078791 0.000000 0.088241
#
#
# Mechanical properties :
#
#
# Convention : Reuss Voigt Hill
#
# Bulk Modulus (GPa) = 32.12887 49.95898 41.04392
# Shear Modulus (GPa) = 13.61032 26.90926 20.25979
#
# Velocity S-wave (km/s) = 2.68759 3.77903 3.27904
# Velocity P-wave (km/s) = 5.16546 6.74946 6.00988
#
# Compressibility (1/GPa) = 0.03112466
#
# Stress axis : x y z
#
# Youngs Moduli (GPa) = 44.13372 105.01663 53.91576
#
# Poissons Ratio (x) = -0.13136 0.35480
# Poissons Ratio (y) = -0.05520 0.24111
# Poissons Ratio (z) = 0.29043 0.46963
#
# Static dielectric constant tensor:
#      x y z
#    x 1.835860 0.000000 -0.018950 
#    y 0.000000 1.729080 0.000000 
#    z -0.018950 0.000000 1.709490 
# 
# From -- ./inp_files/30382.got.cif
#   From: 2010.05.17/outbox.cif.g08.bks.cpg/sg11_16_cif.got.tgz:30382.got - 2010.06.03 12:22:45.
