data_PCOD9167133
_publ_section_title
;
Structure prediction by ZEFSAII (Michael W. Deem and Ramdas Pophale) SiO2 
 PCOD9167133
Probable space group: P 21/M
;
_chemical_formula_sum "Si O2"
_cell_formula_units_Z 28
_cell_length_a 9.998705
_cell_length_b 7.895784
_cell_length_c 33.008835
_cell_angle_alpha 90.000000
_cell_angle_beta 145.601515
_cell_angle_gamma 90.000000
_cell_volume 1472.229526
_symmetry_space_group_name_H-M "P 21/M"
_symmetry_group_IT_number 11
_symmetry_cell_setting 'monoclinic'
loop_
_space_group_symop_operation_xyz
x,y,z
-x,1/2+y,-z
-x,-y,-z
x,1/2-y,z
loop_
_atom_site_type_symbol
_atom_site_label
_atom_site_fract_x
_atom_site_fract_y
_atom_site_fract_z
Si Si1 0.741949 0.452290 0.202398
Si Si2 0.138804 0.550048 0.241283
Si Si3 0.212265 0.046138 0.082504
Si Si4 0.164364 0.957005 0.685320
Si Si5 0.707916 0.546124 0.807948
Si Si6 0.931002 0.952027 0.548157
Si Si7 0.368364 0.456252 0.599681
O O1 0.726022 0.250000 0.202451
O O2 0.471434 0.515766 0.132717
O O3 0.858569 0.514229 0.273885
O O4 0.903970 0.488842 0.204699
O O5 0.145566 0.750000 0.248162
O O6 0.160217 0.511733 0.199214
O O7 0.375349 0.480563 0.322407
O O8 0.221402 0.250000 0.086004
O O9 0.185539 0.987644 0.122471
O O10 0.000000 0.000000 0.000000
O O11 0.156521 0.750000 0.682978
O O12 0.431001 0.006009 0.738341
O O13 0.978980 0.018971 0.605331
O O14 0.708682 0.750000 0.808037
O O15 0.899830 0.750000 0.543627
O O16 0.719150 0.015744 0.466533
O O17 0.169819 0.985306 0.582045
O O18 0.366901 0.250000 0.599655
#
# Coordination Sequence:
#
# PCOD9167133 Si02
#       7
#     4   4   4   4   4   4   4
#     4   9  19  35  53  73  99 132 168 204 240 292
#     4  11  21  32  46  73 108 137 165 204 252 296
#     4   9  19  36  59  83 104 125 159 203 246 294
#     4   8  14  28  51  73  90 121 174 216 241 281
#     4   9  17  32  54  77  98 128 169 206 238 290
#     4   9  15  27  48  69  91 127 171 211 249 293
#     4   9  18  28  41  68 103 130 160 208 257 292
#
# _framework density 19.018774000000001
#
# number of rings (size 3 to 8) (size 9 to 14) (size 15 to 20)
#    0.000    2.857    1.429    2.143    0.000    1.714 
#    0.000    4.286    0.000    0.000    0.000    0.000 
#    0.000    0.000    0.000    0.000    0.000    0.000 
#
# Total GULP energy -156038.328674 kJ/mol
# GULP energy per Si atom -5572.797453 kJ/mol
# Density = 1.897549 g / cm^3
# Si number density = 19.018774 Si / 1000 Ang^3
#
#
#
# Elastic Constant Matrix: (Units=GPa)
#
#
# Indices 1 2 3 4 5 6 
#
# 1 109.0452 -2.0141 57.3068 0.0000 -8.0278 0.0000
# 2 -2.0141 13.0507 5.6423 0.0000 -0.7245 0.0000
# 3 57.3068 5.6423 143.0884 0.0000 -18.2744 0.0000
# 4 0.0000 0.0000 0.0000 16.4048 0.0000 -2.5378
# 5 -8.0278 -0.7245 -18.2744 0.0000 18.8914 0.0000
# 6 0.0000 0.0000 0.0000 -2.5378 0.0000 8.0653
#
#
#
# Elastic Compliance Matrix: (Units=1/GPa)
#
#
# Indices 1 2 3 4 5 6 
#
# 1 0.011815 0.003936 -0.004822 0.000000 0.000507 0.000000
# 2 0.003936 0.079265 -0.004678 0.000000 0.000187 0.000000
# 3 -0.004822 -0.004678 0.010063 0.000000 0.007506 0.000000
# 4 0.000000 0.000000 0.000000 0.064077 0.000000 0.020162
# 5 0.000507 0.000187 0.007506 0.000000 0.060417 0.000000
# 6 0.000000 0.000000 0.000000 0.020162 0.000000 0.130333
#
#
# Mechanical properties :
#
#
# Convention : Reuss Voigt Hill
#
# Bulk Modulus (GPa) = 11.10933 43.00605 27.05769
# Shear Modulus (GPa) = 12.59119 22.28891 17.44005
#
# Velocity S-wave (km/s) = 2.57581 3.42708 3.03147
# Velocity P-wave (km/s) = 3.83410 6.19042 5.14886
#
# Compressibility (1/GPa) = 0.09001446
#
# Stress axis : x y z
#
# Youngs Moduli (GPa) = 84.63948 12.61592 99.37298
#
# Poissons Ratio (x) = -0.04966 0.47921
# Poissons Ratio (y) = -0.33317 0.46489
# Poissons Ratio (z) = 0.40816 0.05902
#
# Static dielectric constant tensor:
#      x y z
#    x 1.659930 0.000000 -0.021120 
#    y 0.000000 1.682530 0.000000 
#    z -0.021120 0.000000 1.688080 
# 
# From -- ./inp_files/29002.got.cif
#   From: 2010.05.17/outbox.cif.g08.bks.cpg/sg11_15_cif.got.tgz:29002.got - 2010.06.03 12:22:45.
