data_PCOD9167599
_publ_section_title
;
Structure prediction by ZEFSAII (Michael W. Deem and Ramdas Pophale) SiO2 
 PCOD9167599
Probable space group: P 21/M
;
_chemical_formula_sum "Si O2"
_cell_formula_units_Z 14
_cell_length_a 9.718828
_cell_length_b 12.744271
_cell_length_c 5.760575
_cell_angle_alpha 90.000000
_cell_angle_beta 130.455810
_cell_angle_gamma 90.000000
_cell_volume 542.907823
_symmetry_space_group_name_H-M "P 21/M"
_symmetry_group_IT_number 11
_symmetry_cell_setting 'monoclinic'
loop_
_space_group_symop_operation_xyz
x,y,z
-x,1/2+y,-z
-x,-y,-z
x,1/2-y,z
loop_
_atom_site_type_symbol
_atom_site_label
_atom_site_fract_x
_atom_site_fract_y
_atom_site_fract_z
Si Si1 0.900031 0.368641 0.814137
Si Si2 0.453440 0.250000 0.852880
Si Si3 0.182690 0.250000 0.918571
Si Si4 0.129389 0.750000 0.793099
Si Si5 0.402114 0.475650 0.642056
O O1 0.828030 0.250000 0.676545
O O2 0.884113 0.357921 0.071561
O O3 0.781859 0.456683 0.569759
O O4 0.108210 0.353953 0.966663
O O5 0.381892 0.250000 0.039456
O O6 0.668071 0.250000 0.074595
O O7 0.381545 0.351605 0.642752
O O8 0.051261 0.250000 0.551633
O O9 0.500000 0.500000 0.500000
O O10 0.500000 0.500000 0.000000
#
# Coordination Sequence:
#
# PCOD9167599 Si02
#       5
#     4   2   2   2   4
#     4   8  20  39  62  89 139 178 223 278 362 392
#     4  12  24  42  74 107 134 183 257 277 359 437
#     4   9  21  41  66 104 136 184 234 293 349 431
#     4   9  17  41  64  87 140 179 217 292 344 404
#     4  12  25  43  72 106 142 189 240 295 356 428
#
# _framework density 25.787064000000001
#
# number of rings (size 3 to 8) (size 9 to 14) (size 15 to 20)
#    1.714    0.000    2.857    1.714    2.000    1.143 
#   10.286    1.429    0.000    0.000    0.000    0.000 
#    0.000    0.000    0.000    0.000    0.000    0.000 
#
# Total GULP energy -78064.109690 kJ/mol
# GULP energy per Si atom -5576.007835 kJ/mol
# Density = 2.572837 g / cm^3
# Si number density = 25.787064 Si / 1000 Ang^3
#
#
#
# Elastic Constant Matrix: (Units=GPa)
#
#
# Indices 1 2 3 4 5 6 
#
# 1 205.3597 21.9264 24.3738 0.0000 -8.6730 0.0000
# 2 21.9264 176.5143 33.4617 0.0000 -1.4849 0.0000
# 3 24.3738 33.4617 125.5100 0.0000 -6.2455 0.0000
# 4 0.0000 0.0000 0.0000 4.2252 0.0000 5.5714
# 5 -8.6730 -1.4849 -6.2455 0.0000 22.2662 0.0000
# 6 0.0000 0.0000 0.0000 5.5714 0.0000 18.7242
#
#
#
# Elastic Compliance Matrix: (Units=1/GPa)
#
#
# Indices 1 2 3 4 5 6 
#
# 1 0.005085 -0.000470 -0.000776 0.000000 0.001732 0.000000
# 2 -0.000470 0.006010 -0.001522 0.000000 -0.000209 0.000000
# 3 -0.000776 -0.001522 0.008624 0.000000 0.002015 0.000000
# 4 0.000000 0.000000 0.000000 0.389500 0.000000 -0.115897
# 5 0.001732 -0.000209 0.002015 0.000000 0.046137 0.000000
# 6 0.000000 0.000000 0.000000 -0.115897 0.000000 0.087892
#
#
# Mechanical properties :
#
#
# Convention : Reuss Voigt Hill
#
# Bulk Modulus (GPa) = 70.50025 74.10087 72.30056
# Shear Modulus (GPa) = 9.03322 37.55125 23.29224
#
# Velocity S-wave (km/s) = 1.87366 3.82017 3.00868
# Velocity P-wave (km/s) = 5.66388 6.94667 6.33782
#
# Compressibility (1/GPa) = 0.01418435
#
# Stress axis : x y z
#
# Youngs Moduli (GPa) = 196.65993 166.38055 115.95380
#
# Poissons Ratio (x) = 0.07819 0.08998
# Poissons Ratio (y) = 0.09242 0.17643
# Poissons Ratio (z) = 0.15261 0.25315
#
# Static dielectric constant tensor:
#      x y z
#    x 2.220580 0.000000 -0.211660 
#    y 0.000000 2.217460 0.000000 
#    z -0.211660 0.000000 2.141330 
# 
# From -- ./inp_files/1459.got.cif
#   From: 2010.05.17/outbox.cif.g08.bks.cpg/sg11_1_cif.got.tgz:1459.got - 2010.06.03 12:22:45.
