data_PCOD9167578
_publ_section_title
;
Structure prediction by ZEFSAII (Michael W. Deem and Ramdas Pophale) SiO2 
 PCOD9167578
Probable space group: P 21/M
;
_chemical_formula_sum "Si O2"
_cell_formula_units_Z 16
_cell_length_a 13.587992
_cell_length_b 10.347240
_cell_length_c 7.085567
_cell_angle_alpha 90.000000
_cell_angle_beta 45.521703
_cell_angle_gamma 90.000000
_cell_volume 710.817426
_symmetry_space_group_name_H-M "P 21/M"
_symmetry_group_IT_number 11
_symmetry_cell_setting 'monoclinic'
loop_
_space_group_symop_operation_xyz
x,y,z
-x,1/2+y,-z
-x,-y,-z
x,1/2-y,z
loop_
_atom_site_type_symbol
_atom_site_label
_atom_site_fract_x
_atom_site_fract_y
_atom_site_fract_z
Si Si1 0.622513 0.750000 0.456219
Si Si2 0.950118 0.250000 0.798709
Si Si3 0.656799 0.250000 0.405888
Si Si4 0.891615 0.393987 0.532358
Si Si5 0.639369 0.500842 0.694120
Si Si6 0.918206 0.750000 0.982188
O O1 0.477778 0.750000 0.544618
O O2 0.636489 0.625075 0.567120
O O3 0.758733 0.750000 0.143013
O O4 0.961664 0.375474 0.643879
O O5 0.056108 0.250000 0.828744
O O6 0.798999 0.250000 0.096956
O O7 0.651229 0.377141 0.542087
O O8 0.817060 0.250000 0.630071
O O9 0.772220 0.493953 0.652012
O O10 0.002832 0.371766 0.217410
O O11 0.500000 0.500000 0.000000
#
# Coordination Sequence:
#
# PCOD9167578 Si02
#       6
#     2   2   2   4   4   2
#     4  12  28  36  68 106 130 165 229 283 317 384
#     4   9  16  39  76  90 115 190 220 242 333 407
#     4  12  21  47  69  90 129 184 216 263 341 404
#     4   8  19  39  68  89 127 179 213 252 332 392
#     4  12  23  44  65  98 136 172 220 281 325 386
#     4   9  19  44  61 100 138 165 219 276 323 389
#
# _framework density 22.509297
#
# number of rings (size 3 to 8) (size 9 to 14) (size 15 to 20)
#    1.500    0.000    3.750    3.000    0.000    1.000 
#    9.000    1.250    0.000    0.000    0.000    0.000 
#    0.000    0.000    0.000    0.000    0.000    0.000 
#
# Total GULP energy -89349.268761 kJ/mol
# GULP energy per Si atom -5584.329298 kJ/mol
# Density = 2.245806 g / cm^3
# Si number density = 22.509297 Si / 1000 Ang^3
#
#
#
# Elastic Constant Matrix: (Units=GPa)
#
#
# Indices 1 2 3 4 5 6 
#
# 1 143.2998 25.2593 32.1024 0.0000 -11.1192 0.0000
# 2 25.2593 85.6925 10.4572 0.0000 16.3420 0.0000
# 3 32.1024 10.4572 108.8461 0.0000 -9.2106 0.0000
# 4 0.0000 0.0000 0.0000 15.4908 0.0000 20.0277
# 5 -11.1192 16.3420 -9.2106 0.0000 49.0569 0.0000
# 6 0.0000 0.0000 0.0000 20.0277 0.0000 36.2000
#
#
#
# Elastic Compliance Matrix: (Units=1/GPa)
#
#
# Indices 1 2 3 4 5 6 
#
# 1 0.008045 -0.002579 -0.001929 0.000000 0.002320 0.000000
# 2 -0.002579 0.013559 -0.000990 0.000000 -0.005287 0.000000
# 3 -0.001929 -0.000990 0.010001 0.000000 0.001770 0.000000
# 4 0.000000 0.000000 0.000000 0.226735 0.000000 -0.125441
# 5 0.002320 -0.005287 0.001770 0.000000 0.023004 0.000000
# 6 0.000000 0.000000 0.000000 -0.125441 0.000000 0.097025
#
#
# Mechanical properties :
#
#
# Convention : Reuss Voigt Hill
#
# Bulk Modulus (GPa) = 48.51723 52.60847 50.56285
# Shear Modulus (GPa) = 12.61885 38.15083 25.38484
#
# Velocity S-wave (km/s) = 2.37028 4.12137 3.36184
# Velocity P-wave (km/s) = 5.39371 6.78751 6.13035
#
# Compressibility (1/GPa) = 0.02061123
#
# Stress axis : x y z
#
# Youngs Moduli (GPa) = 124.30073 73.75334 99.99029
#
# Poissons Ratio (x) = 0.19018 0.19285
# Poissons Ratio (y) = 0.32052 0.09894
# Poissons Ratio (z) = 0.23973 0.07298
#
# Static dielectric constant tensor:
#      x y z
#    x 1.901820 0.000000 0.041220 
#    y 0.000000 1.907960 0.000000 
#    z 0.041220 0.000000 1.837350 
# 
# From -- ./inp_files/5958.got.cif
#   From: 2010.05.17/outbox.cif.g08.bks.cpg/sg11_3_cif.got.tgz:5958.got - 2010.06.03 12:22:45.
