data_PCOD9167174
_publ_section_title
;
Structure prediction by ZEFSAII (Michael W. Deem and Ramdas Pophale) SiO2 
 PCOD9167174
Probable space group: P 21/M
;
_chemical_formula_sum "Si O2"
_cell_formula_units_Z 28
_cell_length_a 15.538018
_cell_length_b 8.664272
_cell_length_c 17.183964
_cell_angle_alpha 90.000000
_cell_angle_beta 134.737634
_cell_angle_gamma 90.000000
_cell_volume 1643.295535
_symmetry_space_group_name_H-M "P 21/M"
_symmetry_group_IT_number 11
_symmetry_cell_setting 'monoclinic'
loop_
_space_group_symop_operation_xyz
x,y,z
-x,1/2+y,-z
-x,-y,-z
x,1/2-y,z
loop_
_atom_site_type_symbol
_atom_site_label
_atom_site_fract_x
_atom_site_fract_y
_atom_site_fract_z
Si Si1 0.313579 0.064318 0.907468
Si Si2 0.108313 0.435620 0.893368
Si Si3 0.442389 0.564425 0.846746
Si Si4 0.240462 0.565727 0.130107
Si Si5 0.609213 0.565164 0.517185
Si Si6 0.850370 0.565403 0.766623
Si Si7 0.512454 0.064296 0.299568
O O1 0.315497 0.250000 0.905766
O O2 0.190703 0.016728 0.872171
O O3 0.340206 0.000480 0.838882
O O4 0.427920 0.014915 0.034111
O O5 0.100334 0.250000 0.889376
O O6 0.975695 0.508214 0.810182
O O7 0.178169 0.490791 0.015204
O O8 0.438716 0.750000 0.847425
O O9 0.438372 0.518153 0.754191
O O10 0.238915 0.750000 0.122441
O O11 0.170666 0.513433 0.163295
O O12 0.378126 0.505359 0.223792
O O13 0.500000 0.500000 0.500000
O O14 0.598473 0.750000 0.506517
O O15 0.735891 0.526673 0.639227
O O16 0.594084 0.494749 0.422084
O O17 0.853034 0.750000 0.779173
O O18 0.502589 0.250000 0.296056
#
# Coordination Sequence:
#
# PCOD9167174 Si02
#       7
#     4   4   4   4   4   4   4
#     4   9  18  33  53  79 111 143 177 221 271 325
#     4  11  22  38  57  80 114 149 184 226 275 329
#     4   9  18  33  53  80 111 143 176 220 276 325
#     4  12  23  35  55  82 112 149 187 222 273 331
#     4  11  23  38  58  81 109 145 187 232 275 322
#     4  11  24  40  56  78 111 148 187 230 273 324
#     4  11  21  36  57  82 115 146 181 230 277 325
#
# _framework density 17.038933
#
# number of rings (size 3 to 8) (size 9 to 14) (size 15 to 20)
#    0.000    1.429    2.857    3.429    0.000    4.000 
#    0.000    0.000    0.000    0.857    0.000    0.000 
#    0.000    0.000    0.000    0.000    0.000    0.000 
#
# Total GULP energy -156430.842009 kJ/mol
# GULP energy per Si atom -5586.815786 kJ/mol
# Density = 1.700015 g / cm^3
# Si number density = 17.038933 Si / 1000 Ang^3
#
#
#
# Elastic Constant Matrix: (Units=GPa)
#
#
# Indices 1 2 3 4 5 6 
#
# 1 136.6545 14.8804 37.1236 0.0000 -12.1155 0.0000
# 2 14.8804 29.0224 7.7511 0.0000 0.8754 0.0000
# 3 37.1236 7.7511 42.0305 0.0000 -6.3686 0.0000
# 4 0.0000 0.0000 0.0000 28.5520 0.0000 -1.8945
# 5 -12.1155 0.8754 -6.3686 0.0000 31.9592 0.0000
# 6 0.0000 0.0000 0.0000 -1.8945 0.0000 30.4659
#
#
#
# Elastic Compliance Matrix: (Units=1/GPa)
#
#
# Indices 1 2 3 4 5 6 
#
# 1 0.010010 -0.003086 -0.007924 0.000000 0.002300 0.000000
# 2 -0.003086 0.037371 -0.004639 0.000000 -0.003118 0.000000
# 3 -0.007924 -0.004639 0.032182 0.000000 0.003536 0.000000
# 4 0.000000 0.000000 0.000000 0.035169 0.000000 0.002187
# 5 0.002300 -0.003118 0.003536 0.000000 0.032952 0.000000
# 6 0.000000 0.000000 0.000000 0.002187 0.000000 0.032960
#
#
# Mechanical properties :
#
#
# Convention : Reuss Voigt Hill
#
# Bulk Modulus (GPa) = 20.71816 36.35752 28.53784
# Shear Modulus (GPa) = 21.92691 28.05893 24.99292
#
# Velocity S-wave (km/s) = 3.59119 4.06242 3.83405
# Velocity P-wave (km/s) = 5.42045 6.58700 6.03199
#
# Compressibility (1/GPa) = 0.04826684
#
# Stress axis : x y z
#
# Youngs Moduli (GPa) = 99.89701 26.75864 31.07280
#
# Poissons Ratio (x) = 0.08257 0.24622
# Poissons Ratio (y) = 0.30824 0.14414
# Poissons Ratio (z) = 0.79159 0.12413
#
# Static dielectric constant tensor:
#      x y z
#    x 1.568670 0.000000 -0.005710 
#    y 0.000000 1.573640 0.000000 
#    z -0.005710 0.000000 1.557000 
# 
# From -- ./inp_files/37484.got.cif
#   From: 2010.05.17/outbox.cif.g08.bks.cpg/sg11_19_cif.got.tgz:37484.got - 2010.06.03 12:22:45.
