data_PCOD9167746
_publ_section_title
;
Structure prediction by ZEFSAII (Michael W. Deem and Ramdas Pophale) SiO2 
 PCOD9167746
Probable space group: P 21/M
;
_chemical_formula_sum "Si O2"
_cell_formula_units_Z 32
_cell_length_a 21.000000
_cell_length_b 9.000000
_cell_length_c 30.000000
_cell_angle_alpha 90.000000
_cell_angle_beta 160.000000
_cell_angle_gamma 90.000000
_cell_volume 1939.254213
_symmetry_space_group_name_H-M "P 21/M"
_symmetry_group_IT_number 11
_symmetry_cell_setting 'monoclinic'
loop_
_space_group_symop_operation_xyz
x,y,z
-x,1/2+y,-z
-x,-y,-z
x,1/2-y,z
loop_
_atom_site_type_symbol
_atom_site_label
_atom_site_fract_x
_atom_site_fract_y
_atom_site_fract_z
Si Si1 0.794909 0.572577 0.187920
Si Si2 0.713969 0.069663 0.884792
Si Si3 0.572174 0.070490 0.695870
Si Si4 0.364179 0.930399 0.070296
Si Si5 0.162630 0.070561 0.394539
Si Si6 0.144159 0.429091 0.186541
Si Si7 0.938192 0.930147 0.770311
Si Si8 0.516509 0.928938 0.079926
O O1 0.803508 0.750000 0.188615
O O2 0.704017 0.537626 0.176228
O O3 0.993559 0.500343 0.310272
O O4 0.651153 0.505431 0.057298
O O5 0.703561 0.250000 0.877809
O O6 0.629382 0.017422 0.782781
O O7 0.614506 0.017204 0.864880
O O8 0.932674 0.033311 0.032906
O O9 0.586494 0.250000 0.704248
O O10 0.361599 0.030160 0.545326
O O11 0.710642 0.004268 0.750494
O O12 0.367437 0.750000 0.074021
O O13 0.504373 0.975716 0.123480
O O14 0.155402 0.972861 0.917372
O O15 0.144093 0.250000 0.383222
O O16 0.145195 0.020972 0.331428
O O17 0.161972 0.250000 0.196164
O O18 0.162371 0.477027 0.250253
O O19 0.935539 0.750000 0.768775
O O20 0.487975 0.750000 0.058965
#
# Coordination Sequence:
#
# PCOD9167746 Si02
#       8
#     4   4   4   4   4   4   4   4
#     4  10  19  28  43  71  99 118 144 186 225 263
#     4   8  15  28  47  70  89 111 151 193 223 258
#     4  10  20  31  45  67  91 117 152 191 227 265
#     4   8  12  23  47  69  86 113 149 185 213 256
#     4  10  19  32  47  61  89 129 157 179 216 271
#     4   9  17  30  49  67  85 113 150 193 231 266
#     4   8  14  26  45  65  83 114 155 181 211 266
#     4   9  16  28  48  71  93 120 150 178 220 270
#
# _framework density 16.501189
#
# number of rings (size 3 to 8) (size 9 to 14) (size 15 to 20)
#    0.000    3.000    1.250    2.250    0.000    1.500 
#    0.000    0.625    0.000    1.500    0.000    0.000 
#    0.000    0.000    0.000    0.000    0.000    0.375 
#
# Total GULP energy -178175.113044 kJ/mol
# GULP energy per Si atom -5567.972283 kJ/mol
# Density = 1.646363 g / cm^3
# Si number density = 16.501189 Si / 1000 Ang^3
#
#
#
# Elastic Constant Matrix: (Units=GPa)
#
#
# Indices 1 2 3 4 5 6 
#
# 1 186.9118 33.1997 93.2856 0.0000 28.1286 0.0000
# 2 33.1997 2.3633 22.8855 0.0000 -8.8958 0.0000
# 3 93.2856 22.8855 87.8592 0.0000 -1.1509 0.0000
# 4 0.0000 0.0000 0.0000 11.4692 0.0000 6.8194
# 5 28.1286 -8.8958 -1.1509 0.0000 -29.0276 0.0000
# 6 0.0000 0.0000 0.0000 6.8194 0.0000 22.5549
#
#
#
# Elastic Compliance Matrix: (Units=1/GPa)
#
#
# Indices 1 2 3 4 5 6 
#
# 1 0.008506 0.001724 -0.009374 0.000000 0.008085 0.000000
# 2 0.001724 -0.948730 0.248995 0.000000 0.282545 0.000000
# 3 -0.009374 0.248995 -0.044619 0.000000 -0.083621 0.000000
# 4 0.000000 0.000000 0.000000 0.106300 0.000000 -0.032140
# 5 0.008085 0.282545 -0.083621 0.000000 -0.109888 0.000000
# 6 0.000000 0.000000 0.000000 -0.032140 0.000000 0.054054
#
#
# Mechanical properties :
#
#
# Convention : Reuss Voigt Hill
#
# Bulk Modulus (GPa) = -1.99143 63.98621 30.99739
# Shear Modulus (GPa) = -3.15567 9.51686 3.18060
#
# Velocity S-wave (km/s) = -1.38439 2.40414 1.38985
# Velocity P-wave (km/s) = 1.94032 6.82403 4.62615
#
# Compressibility (1/GPa) = -0.50215206
#
# Stress axis : x y z
#
# Youngs Moduli (GPa) = 117.56970 -1.05404 -22.41220
#
# Poissons Ratio (x) = 0.00182 -0.21010
# Poissons Ratio (y) = -0.20273 5.58053
# Poissons Ratio (z) = 1.10212 0.26245
#
# Static dielectric constant tensor:
#      x y z
#    x 1.588570 0.000000 -0.009660 
#    y 0.000000 1.552210 0.000000 
#    z -0.009660 0.000000 1.526860 
# 
# From -- ./inp_files/65248.got.cif
#   From: 2010.05.17/outbox.ucp.g08.bks.cvg/sg11_33_cif.got.tgz:65248.got - 2010.06.11 11:38:39.
