data_PCOD9167691
_publ_section_title
;
Structure prediction by ZEFSAII (Michael W. Deem and Ramdas Pophale) SiO2 
 PCOD9167691
Probable space group: P 21/M
;
_chemical_formula_sum "Si O2"
_cell_formula_units_Z 32
_cell_length_a 15.000000
_cell_length_b 21.000000
_cell_length_c 15.000000
_cell_angle_alpha 90.000000
_cell_angle_beta 160.000000
_cell_angle_gamma 90.000000
_cell_volume 1616.045177
_symmetry_space_group_name_H-M "P 21/M"
_symmetry_group_IT_number 11
_symmetry_cell_setting 'monoclinic'
loop_
_space_group_symop_operation_xyz
x,y,z
-x,1/2+y,-z
-x,-y,-z
x,1/2-y,z
loop_
_atom_site_type_symbol
_atom_site_label
_atom_site_fract_x
_atom_site_fract_y
_atom_site_fract_z
Si Si1 0.485037 0.672426 0.514814
Si Si2 0.200232 0.934202 0.799734
Si Si3 0.414416 0.121128 0.585653
Si Si4 0.823683 0.674334 0.176310
Si Si5 0.298701 0.894306 0.701293
Si Si6 0.864216 0.324793 0.135850
Si Si7 0.650497 0.511973 0.349467
Si Si8 0.927722 0.672978 0.072138
O O1 0.492748 0.750000 0.507103
O O2 0.532822 0.636559 0.467163
O O3 0.207001 0.655205 0.295336
O O4 0.704429 0.655212 0.792803
O O5 0.253995 0.937611 0.745995
O O6 0.183618 0.861096 0.816370
O O7 0.928786 0.965026 0.573806
O O8 0.426133 0.965034 0.071160
O O9 0.397676 0.047584 0.602354
O O10 0.141407 0.152754 0.357643
O O11 0.642488 0.152743 0.858703
O O12 0.823995 0.750000 0.176001
O O13 0.875952 0.651271 0.124024
O O14 0.047936 0.647931 0.449502
O O15 0.550490 0.647932 0.952057
O O16 0.344220 0.936619 0.655778
O O17 0.858830 0.250000 0.141175
O O18 0.925612 0.750000 0.074293
#
# Coordination Sequence:
#
# PCOD9167691 Si02
#       8
#     4   4   4   4   4   4   4   4
#     4  10  17  29  53  78 102 138 179 214 265 329
#     4  10  21  36  55  82 110 146 187 229 261 309
#     4  10  20  32  51  79 110 142 179 222 261 319
#     4  11  24  40  58  84 112 137 177 233 287 329
#     4  12  22  38  63  81 105 148 189 227 271 328
#     4  10  19  31  47  73 113 146 170 213 275 323
#     4  10  21  38  57  81 113 145 187 228 267 311
#     4   9  19  34  52  76 106 138 173 222 273 321
#
# _framework density 19.801427
#
# number of rings (size 3 to 8) (size 9 to 14) (size 15 to 20)
#    0.000    1.750    0.000    5.250    0.000    4.000 
#    0.000    0.000    0.000    4.500    0.000    0.000 
#    0.000    0.000    0.000    0.000    0.000    0.000 
#
# Total GULP energy -178675.948625 kJ/mol
# GULP energy per Si atom -5583.623395 kJ/mol
# Density = 1.975636 g / cm^3
# Si number density = 19.801427 Si / 1000 Ang^3
#
#
#
# Elastic Constant Matrix: (Units=GPa)
#
#
# Indices 1 2 3 4 5 6 
#
# 1 59.2367 -19.4626 25.7616 0.0000 4.7095 0.0000
# 2 -19.4626 28.1873 17.4907 0.0000 6.7187 0.0000
# 3 25.7616 17.4907 167.2378 0.0000 15.0482 0.0000
# 4 0.0000 0.0000 0.0000 19.8140 0.0000 1.9895
# 5 4.7095 6.7187 15.0482 0.0000 31.5316 0.0000
# 6 0.0000 0.0000 0.0000 1.9895 0.0000 8.9531
#
#
#
# Elastic Compliance Matrix: (Units=1/GPa)
#
#
# Indices 1 2 3 4 5 6 
#
# 1 0.028493 0.025232 -0.006438 0.000000 -0.006560 0.000000
# 2 0.025232 0.061589 -0.009203 0.000000 -0.012500 0.000000
# 3 -0.006438 -0.009203 0.008015 0.000000 -0.000903 0.000000
# 4 0.000000 0.000000 0.000000 0.051621 0.000000 -0.011471
# 5 -0.006560 -0.012500 -0.000903 0.000000 0.035788 0.000000
# 6 0.000000 0.000000 0.000000 -0.011471 0.000000 0.114243
#
#
# Mechanical properties :
#
#
# Convention : Reuss Voigt Hill
#
# Bulk Modulus (GPa) = 8.52677 33.58235 21.05456
# Shear Modulus (GPa) = 15.64164 27.45122 21.54643
#
# Velocity S-wave (km/s) = 2.81361 3.72738 3.30225
# Velocity P-wave (km/s) = 3.85625 5.95994 5.01954
#
# Compressibility (1/GPa) = 0.11727774
#
# Stress axis : x y z
#
# Youngs Moduli (GPa) = 35.09679 16.23668 124.76724
#
# Poissons Ratio (x) = -0.40968 0.80321
# Poissons Ratio (y) = -0.88555 1.14827
# Poissons Ratio (z) = 0.22594 0.14943
#
# Static dielectric constant tensor:
#      x y z
#    x 1.671050 0.000000 -0.000520 
#    y 0.000000 1.698720 0.000000 
#    z -0.000520 0.000000 1.668150 
# 
# From -- ./inp_files/52684.got.cif
#   From: 2010.05.17/outbox.ucp.g08.bks.cvg/sg11_27_cif.got.tgz:52684.got - 2010.06.11 11:38:39.
