data_PCOD9167660
_publ_section_title
;
Structure prediction by ZEFSAII (Michael W. Deem and Ramdas Pophale) SiO2 
 PCOD9167660
Probable space group: P 21/M
;
_chemical_formula_sum "Si O2"
_cell_formula_units_Z 28
_cell_length_a 14.232812
_cell_length_b 7.391125
_cell_length_c 13.939133
_cell_angle_alpha 90.000000
_cell_angle_beta 121.487275
_cell_angle_gamma 90.000000
_cell_volume 1250.437245
_symmetry_space_group_name_H-M "P 21/M"
_symmetry_group_IT_number 11
_symmetry_cell_setting 'monoclinic'
loop_
_space_group_symop_operation_xyz
x,y,z
-x,1/2+y,-z
-x,-y,-z
x,1/2-y,z
loop_
_atom_site_type_symbol
_atom_site_label
_atom_site_fract_x
_atom_site_fract_y
_atom_site_fract_z
Si Si1 0.836762 0.971634 0.882688
Si Si2 0.377728 0.040189 0.322712
Si Si3 0.627018 0.470025 0.467983
Si Si4 0.768224 0.026886 0.141457
Si Si5 0.335250 0.541766 0.715393
Si Si6 0.443488 0.963493 0.073172
Si Si7 0.972056 0.044049 0.144798
O O1 0.840070 0.750000 0.887585
O O2 0.712504 0.034333 0.798138
O O3 0.914045 0.032474 0.834766
O O4 0.893904 0.042193 0.008719
O O5 0.390605 0.250000 0.304647
O O6 0.500144 0.962458 0.393135
O O7 0.330618 0.028639 0.405853
O O8 0.626746 0.250000 0.468133
O O9 0.685012 0.533542 0.401352
O O10 0.765744 0.250000 0.138895
O O11 0.723143 0.964957 0.220960
O O12 0.891139 0.965242 0.181901
O O13 0.680211 0.968638 0.012457
O O14 0.300505 0.750000 0.694064
O O15 0.467792 0.539649 0.805061
O O16 0.439441 0.750000 0.088214
O O17 0.500000 0.000000 0.000000
O O18 0.995533 0.250000 0.186140
#
# Coordination Sequence:
#
# PCOD9167660 Si02
#       7
#     4   4   4   4   4   4   4
#     4   9  18  31  47  67  90 116 147 185 226 260
#     4   9  18  32  47  65  89 115 146 186 226 265
#     4   9  18  31  47  67  88 115 149 183 223 268
#     4   8  15  27  42  62  88 116 146 177 211 260
#     4   9  17  29  44  63  89 117 146 182 221 264
#     4   9  16  26  39  59  87 118 150 178 210 255
#     4   9  17  30  47  67  90 118 150 180 215 265
#
# _framework density 22.392168000000002
#
# number of rings (size 3 to 8) (size 9 to 14) (size 15 to 20)
#    0.000    3.143    0.000    1.286    2.000    1.143 
#    0.000    2.857    0.000    0.857    0.000    0.000 
#    0.000    0.000    0.000    0.000    0.000    0.000 
#
# Total GULP energy -156092.241789 kJ/mol
# GULP energy per Si atom -5574.722921 kJ/mol
# Density = 2.234120 g / cm^3
# Si number density = 22.392168 Si / 1000 Ang^3
#
#
#
# Elastic Constant Matrix: (Units=GPa)
#
#
# Indices 1 2 3 4 5 6 
#
# 1 68.5632 2.2843 -2.0212 0.0000 -17.0021 0.0000
# 2 2.2843 85.1562 -8.8807 0.0000 2.0679 0.0000
# 3 -2.0212 -8.8807 50.1240 0.0000 -13.0205 0.0000
# 4 0.0000 0.0000 0.0000 11.4861 0.0000 -3.5603
# 5 -17.0021 2.0679 -13.0205 0.0000 35.8723 0.0000
# 6 0.0000 0.0000 0.0000 -3.5603 0.0000 6.0876
#
#
#
# Elastic Compliance Matrix: (Units=1/GPa)
#
#
# Indices 1 2 3 4 5 6 
#
# 1 0.016953 -0.000365 0.002994 0.000000 0.009143 0.000000
# 2 -0.000365 0.011972 0.002078 0.000000 -0.000109 0.000000
# 3 0.002994 0.002078 0.022940 0.000000 0.009626 0.000000
# 4 0.000000 0.000000 0.000000 0.106339 0.000000 0.062191
# 5 0.009143 -0.000109 0.009626 0.000000 0.035710 0.000000
# 6 0.000000 0.000000 0.000000 0.062191 0.000000 0.200640
#
#
# Mechanical properties :
#
#
# Convention : Reuss Voigt Hill
#
# Bulk Modulus (GPa) = 16.31851 20.73424 18.52637
# Shear Modulus (GPa) = 12.32848 24.85327 18.59088
#
# Velocity S-wave (km/s) = 2.34897 3.33514 2.88451
# Velocity P-wave (km/s) = 3.82888 4.91026 4.40289
#
# Compressibility (1/GPa) = 0.06128010
#
# Stress axis : x y z
#
# Youngs Moduli (GPa) = 58.98785 83.52626 43.59228
#
# Poissons Ratio (x) = 0.03045 -0.13051
# Poissons Ratio (y) = 0.02150 -0.09060
# Poissons Ratio (z) = -0.17661 -0.17359
#
# Static dielectric constant tensor:
#      x y z
#    x 1.886830 0.000000 -0.025650 
#    y 0.000000 1.829000 0.000000 
#    z -0.025650 0.000000 1.803170 
# 
# From -- ./inp_files/51451.got.cif
#   From: 2010.05.17/outbox.cif.g08.bks.cpg/sg11_26_cif.got.tgz:51451.got - 2010.06.03 12:22:45.
