data_PCOD9167667
_publ_section_title
;
Structure prediction by ZEFSAII (Michael W. Deem and Ramdas Pophale) SiO2 
 PCOD9167667
Probable space group: P 21/M
;
_chemical_formula_sum "Si O2"
_cell_formula_units_Z 28
_cell_length_a 13.240137
_cell_length_b 18.714256
_cell_length_c 7.038573
_cell_angle_alpha 90.000000
_cell_angle_beta 40.937450
_cell_angle_gamma 90.000000
_cell_volume 1142.737727
_symmetry_space_group_name_H-M "P 21/M"
_symmetry_group_IT_number 11
_symmetry_cell_setting 'monoclinic'
loop_
_space_group_symop_operation_xyz
x,y,z
-x,1/2+y,-z
-x,-y,-z
x,1/2-y,z
loop_
_atom_site_type_symbol
_atom_site_label
_atom_site_fract_x
_atom_site_fract_y
_atom_site_fract_z
Si Si1 0.783606 0.128624 0.982428
Si Si2 0.250511 0.831162 0.398973
Si Si3 0.012027 0.436885 0.214833
Si Si4 0.104781 0.410508 0.520705
Si Si5 0.472599 0.330882 0.561853
Si Si6 0.328452 0.472508 0.798803
Si Si7 0.417061 0.334528 0.185442
O O1 0.656365 0.157116 0.308890
O O2 0.738987 0.044544 0.005428
O O3 0.775525 0.168596 0.793887
O O4 0.957334 0.132508 0.807068
O O5 0.243746 0.750000 0.475590
O O6 0.112294 0.879263 0.674439
O O7 0.427807 0.858189 0.146828
O O8 0.071135 0.414654 0.342102
O O9 0.918107 0.509517 0.372814
O O10 0.177687 0.453601 0.882290
O O11 0.265658 0.377052 0.345754
O O12 0.431177 0.250000 0.673267
O O13 0.378018 0.393323 0.796558
O O14 0.441957 0.341232 0.378064
O O15 0.500000 0.500000 0.500000
O O16 0.398950 0.250000 0.174414
#
# Coordination Sequence:
#
# PCOD9167667 Si02
#       7
#     4   4   4   4   4   4   4
#     4   8  15  29  48  69  93 124 161 203 244 285
#     4   9  17  30  48  71  99 127 159 203 253 301
#     4   9  18  31  47  72  98 125 160 200 247 293
#     4   9  17  30  49  72  97 121 157 206 250 291
#     4   9  17  30  48  70  97 129 166 204 244 293
#     4   9  17  31  50  70  97 131 167 204 236 282
#     4   9  18  31  48  72  98 125 160 203 250 298
#
# _framework density 24.502559000000002
#
# number of rings (size 3 to 8) (size 9 to 14) (size 15 to 20)
#    0.000    3.143    0.000    2.143    0.000    4.000 
#    0.000    2.857    0.000    1.714    0.000    0.000 
#    0.000    0.000    0.000    0.000    0.000    0.000 
#
# Total GULP energy -156176.107075 kJ/mol
# GULP energy per Si atom -5577.718110 kJ/mol
# Density = 2.444679 g / cm^3
# Si number density = 24.502559 Si / 1000 Ang^3
#
#
#
# Elastic Constant Matrix: (Units=GPa)
#
#
# Indices 1 2 3 4 5 6 
#
# 1 103.3018 48.7459 73.6965 0.0000 -21.2906 0.0000
# 2 48.7459 115.9386 55.5001 0.0000 -36.7193 0.0000
# 3 73.6965 55.5001 177.5090 0.0000 -53.9535 0.0000
# 4 0.0000 0.0000 0.0000 20.1489 0.0000 -22.9453
# 5 -21.2906 -36.7193 -53.9535 0.0000 55.7335 0.0000
# 6 0.0000 0.0000 0.0000 -22.9453 0.0000 21.7508
#
#
#
# Elastic Compliance Matrix: (Units=1/GPa)
#
#
# Indices 1 2 3 4 5 6 
#
# 1 0.015412 -0.004570 -0.005803 0.000000 -0.002741 0.000000
# 2 -0.004570 0.012646 -0.000078 0.000000 0.006511 0.000000
# 3 -0.005803 -0.000078 0.010453 0.000000 0.007852 0.000000
# 4 0.000000 0.000000 0.000000 -0.246514 0.000000 -0.260053
# 5 -0.002741 0.006511 0.007852 0.000000 0.028786 0.000000
# 6 0.000000 0.000000 0.000000 -0.260053 0.000000 -0.228359
#
#
# Mechanical properties :
#
#
# Convention : Reuss Voigt Hill
#
# Bulk Modulus (GPa) = 56.78528 83.62603 70.20565
# Shear Modulus (GPa) = -13.13006 34.11376 10.49185
#
# Velocity S-wave (km/s) = -2.31739 3.73534 2.07153
# Velocity P-wave (km/s) = 4.00814 7.26686 5.86824
#
# Compressibility (1/GPa) = 0.01761020
#
# Stress axis : x y z
#
# Youngs Moduli (GPa) = 64.88576 79.07702 95.66250
#
# Poissons Ratio (x) = 0.36139 0.55510
# Poissons Ratio (y) = 0.29654 0.00742
# Poissons Ratio (z) = 0.37651 0.00614
#
# Static dielectric constant tensor:
#      x y z
#    x 2.010580 0.000000 0.044900 
#    y 0.000000 1.942830 0.000000 
#    z 0.044900 0.000000 2.025590 
# 
# From -- ./inp_files/25264.got.cif
#   From: 2010.05.17/outbox.cif.g08.bks.cpg/sg11_13_cif.got.tgz:25264.got - 2010.06.03 12:22:45.
