data_PCOD9167495
_publ_section_title
;
Structure prediction by ZEFSAII (Michael W. Deem and Ramdas Pophale) SiO2 
 PCOD9167495
Probable space group: P 21/M
;
_chemical_formula_sum "Si O2"
_cell_formula_units_Z 28
_cell_length_a 5.219934
_cell_length_b 18.330390
_cell_length_c 14.307551
_cell_angle_alpha 90.000000
_cell_angle_beta 112.785567
_cell_angle_gamma 90.000000
_cell_volume 1262.160100
_symmetry_space_group_name_H-M "P 21/M"
_symmetry_group_IT_number 11
_symmetry_cell_setting 'monoclinic'
loop_
_space_group_symop_operation_xyz
x,y,z
-x,1/2+y,-z
-x,-y,-z
x,1/2-y,z
loop_
_atom_site_type_symbol
_atom_site_label
_atom_site_fract_x
_atom_site_fract_y
_atom_site_fract_z
Si Si1 0.302704 0.333998 0.997388
Si Si2 0.430801 0.167869 0.452491
Si Si3 0.473814 0.956324 0.832775
Si Si4 0.828897 0.554771 0.698271
Si Si5 0.334002 0.167713 0.661274
Si Si6 0.667174 0.379979 0.878628
Si Si7 0.876120 0.057169 0.555700
O O1 0.312497 0.250000 0.031352
O O2 0.459475 0.339800 0.920438
O O3 0.983836 0.359554 0.943602
O O4 0.454206 0.391221 0.086645
O O5 0.478404 0.250000 0.427926
O O6 0.181322 0.129092 0.363022
O O7 0.394029 0.167747 0.559164
O O8 0.689536 0.114643 0.474404
O O9 0.623766 0.939651 0.755995
O O10 0.142140 0.961962 0.774184
O O11 0.602773 0.034081 0.881444
O O12 0.728082 0.490669 0.614287
O O13 0.239866 0.250000 0.672279
O O14 0.588817 0.145506 0.762939
O O15 0.104172 0.105768 0.640712
O O16 0.000000 0.000000 0.500000
#
# Coordination Sequence:
#
# PCOD9167495 Si02
#       7
#     4   4   4   4   4   4   4
#     4  12  27  48  73 102 141 180 231 295 358 420
#     4  11  26  43  66 102 146 189 235 292 351 420
#     4  12  26  47  74 105 136 185 239 289 354 419
#     4  12  25  44  73 105 140 188 237 291 344 418
#     4  11  24  41  67 101 141 184 229 288 358 421
#     4  12  25  47  72 105 138 182 230 291 353 428
#     4  12  23  43  67  99 143 191 240 289 346 415
#
# _framework density 22.184193
#
# number of rings (size 3 to 8) (size 9 to 14) (size 15 to 20)
#    0.000    0.286    2.857    6.429    2.000    1.143 
#    0.000    0.000    0.000    0.000    0.000    0.000 
#    0.000    0.000    0.000    0.000    0.000    0.000 
#
# Total GULP energy -156828.366298 kJ/mol
# GULP energy per Si atom -5601.013082 kJ/mol
# Density = 2.213370 g / cm^3
# Si number density = 22.184193 Si / 1000 Ang^3
#
#
#
# Elastic Constant Matrix: (Units=GPa)
#
#
# Indices 1 2 3 4 5 6 
#
# 1 51.0383 -4.5843 -6.9793 0.0000 3.8837 0.0000
# 2 -4.5843 173.3176 29.0282 0.0000 9.5376 0.0000
# 3 -6.9793 29.0282 35.7133 0.0000 1.5945 0.0000
# 4 0.0000 0.0000 0.0000 26.3064 0.0000 2.7220
# 5 3.8837 9.5376 1.5945 0.0000 39.2501 0.0000
# 6 0.0000 0.0000 0.0000 2.7220 0.0000 -3.8607
#
#
#
# Elastic Compliance Matrix: (Units=1/GPa)
#
#
# Indices 1 2 3 4 5 6 
#
# 1 0.020315 -0.000028 0.004090 0.000000 -0.002169 0.000000
# 2 -0.000028 0.006757 -0.005435 0.000000 -0.001418 0.000000
# 3 0.004090 -0.005435 0.033237 0.000000 -0.000434 0.000000
# 4 0.000000 0.000000 0.000000 0.035429 0.000000 0.024980
# 5 -0.002169 -0.001418 -0.000434 0.000000 0.026055 0.000000
# 6 0.000000 0.000000 0.000000 0.024980 0.000000 -0.241410
#
#
# Mechanical properties :
#
#
# Convention : Reuss Voigt Hill
#
# Bulk Modulus (GPa) = 17.37223 32.77759 25.07491
# Shear Modulus (GPa) = -51.18551 28.51281 -11.33635
#
# Velocity S-wave (km/s) = -4.80864 3.58896 -2.26301
# Velocity P-wave (km/s) = 4.79404 5.65522 2.12116
#
# Compressibility (1/GPa) = 0.05756313
#
# Stress axis : x y z
#
# Youngs Moduli (GPa) = 49.22478 147.98864 30.08716
#
# Poissons Ratio (x) = 0.00419 -0.12305
# Poissons Ratio (y) = 0.00139 0.16351
# Poissons Ratio (z) = -0.20133 0.80426
#
# Static dielectric constant tensor:
#      x y z
#    x 1.844110 0.000000 -0.000040 
#    y 0.000000 1.810510 0.000000 
#    z -0.000040 0.000000 1.834470 
# 
# From -- ./inp_files/6774.got.cif
#   From: 2010.05.17/outbox.cif.g08.bks.cpg/sg11_4_cif.got.tgz:6774.got - 2010.06.03 12:22:45.
