data_PCOD9167213
_publ_section_title
;
Structure prediction by ZEFSAII (Michael W. Deem and Ramdas Pophale) SiO2 
 PCOD9167213
Probable space group: P 21/M
;
_chemical_formula_sum "Si O2"
_cell_formula_units_Z 32
_cell_length_a 15.672528
_cell_length_b 17.094336
_cell_length_c 12.026592
_cell_angle_alpha 90.000000
_cell_angle_beta 152.648241
_cell_angle_gamma 90.000000
_cell_volume 1480.383110
_symmetry_space_group_name_H-M "P 21/M"
_symmetry_group_IT_number 11
_symmetry_cell_setting 'monoclinic'
loop_
_space_group_symop_operation_xyz
x,y,z
-x,1/2+y,-z
-x,-y,-z
x,1/2-y,z
loop_
_atom_site_type_symbol
_atom_site_label
_atom_site_fract_x
_atom_site_fract_y
_atom_site_fract_z
Si Si1 0.115876 0.065012 0.854016
Si Si2 0.456880 0.930526 0.604441
Si Si3 0.393713 0.103772 0.615315
Si Si4 0.165974 0.339216 0.689474
Si Si5 0.768736 0.342629 0.475610
Si Si6 0.354906 0.664417 0.277813
Si Si7 0.538879 0.091543 0.020844
Si Si8 0.998864 0.384342 0.270031
O O1 0.135666 0.099848 0.753084
O O2 0.963854 0.119548 0.737396
O O3 0.041532 0.976834 0.766727
O O4 0.320264 0.067677 0.142950
O O5 0.387937 0.871211 0.620041
O O6 0.374236 0.901846 0.392913
O O7 0.388072 0.015588 0.562226
O O8 0.476943 0.155926 0.614490
O O9 0.534425 0.102962 0.883587
O O10 0.193139 0.126745 0.429840
O O11 0.157678 0.250000 0.721035
O O12 0.367716 0.358467 0.871549
O O13 0.025936 0.350805 0.424814
O O14 0.777403 0.250000 0.478123
O O15 0.715535 0.379968 0.294419
O O16 0.358037 0.750000 0.334975
O O17 0.168102 0.653098 0.991407
O O18 0.500000 0.000000 0.000000
#
# Coordination Sequence:
#
# PCOD9167213 Si02
#       8
#     4   4   4   4   4   4   4   4
#     4  12  24  42  71 104 137 184 235 281 340 419
#     4  12  25  49  72 100 140 184 237 287 341 418
#     4  11  24  46  75 102 134 185 236 284 344 415
#     4  11  23  40  66 100 145 182 221 283 353 410
#     4  12  25  41  68 106 146 184 226 286 357 409
#     4  12  29  47  71 103 140 185 234 291 347 405
#     4  11  21  41  67 101 139 179 228 280 344 417
#     4  11  25  45  73 102 139 182 235 285 338 416
#
# _framework density 21.616026000000002
#
# number of rings (size 3 to 8) (size 9 to 14) (size 15 to 20)
#    0.000    0.500    5.000    3.000    1.750    6.000 
#    0.000    0.000    0.000    0.000    0.000    0.000 
#    0.000    0.000    0.000    0.000    0.000    0.000 
#
# Total GULP energy -179190.656506 kJ/mol
# GULP energy per Si atom -5599.708016 kJ/mol
# Density = 2.156683 g / cm^3
# Si number density = 21.616026 Si / 1000 Ang^3
#
#
#
# Elastic Constant Matrix: (Units=GPa)
#
#
# Indices 1 2 3 4 5 6 
#
# 1 53.4285 1.8056 14.3538 0.0000 -5.0234 0.0000
# 2 1.8056 85.4480 -9.9083 0.0000 8.4821 0.0000
# 3 14.3538 -9.9083 71.8332 0.0000 1.5597 0.0000
# 4 0.0000 0.0000 0.0000 -8.5679 0.0000 -1.7210
# 5 -5.0234 8.4821 1.5597 0.0000 32.3786 0.0000
# 6 0.0000 0.0000 0.0000 -1.7210 0.0000 19.9925
#
#
#
# Elastic Compliance Matrix: (Units=1/GPa)
#
#
# Indices 1 2 3 4 5 6 
#
# 1 0.020265 -0.001294 -0.004308 0.000000 0.003690 0.000000
# 2 -0.001294 0.012316 0.002034 0.000000 -0.003525 0.000000
# 3 -0.004308 0.002034 0.015104 0.000000 -0.001929 0.000000
# 4 0.000000 0.000000 0.000000 -0.114731 0.000000 -0.009876
# 5 0.003690 -0.003525 -0.001929 0.000000 0.032474 0.000000
# 6 0.000000 0.000000 0.000000 -0.009876 0.000000 0.049168
#
#
# Mechanical properties :
#
#
# Convention : Reuss Voigt Hill
#
# Bulk Modulus (GPa) = 24.66151 24.80134 24.73142
# Shear Modulus (GPa) = 141.85011 22.39122 82.12066
#
# Velocity S-wave (km/s) = 8.10957 3.22197 6.17034
# Velocity P-wave (km/s) = 9.95593 5.03388 7.88861
#
# Compressibility (1/GPa) = 0.04054902
#
# Stress axis : x y z
#
# Youngs Moduli (GPa) = 49.34697 81.19417 66.20587
#
# Poissons Ratio (x) = 0.10507 0.28521
# Poissons Ratio (y) = 0.06386 -0.13466
# Poissons Ratio (z) = 0.21258 -0.16515
#
# Static dielectric constant tensor:
#      x y z
#    x 1.787560 0.000000 0.012990 
#    y 0.000000 2.401500 0.000000 
#    z 0.012990 0.000000 1.780960 
# 
# From -- ./inp_files/40042.got.cif
#   From: 2010.05.17/outbox.cif.g08.bks.cpg/sg11_21_cif.got.tgz:40042.got - 2010.06.03 12:22:45.
