data_PCOD9167441
_publ_section_title
;
Structure prediction by ZEFSAII (Michael W. Deem and Ramdas Pophale) SiO2 
 PCOD9167441
Probable space group: P 21/M
;
_chemical_formula_sum "Si O2"
_cell_formula_units_Z 18
_cell_length_a 7.172275
_cell_length_b 13.959442
_cell_length_c 6.914691
_cell_angle_alpha 90.000000
_cell_angle_beta 79.370757
_cell_angle_gamma 90.000000
_cell_volume 680.426441
_symmetry_space_group_name_H-M "P 21/M"
_symmetry_group_IT_number 11
_symmetry_cell_setting 'monoclinic'
loop_
_space_group_symop_operation_xyz
x,y,z
-x,1/2+y,-z
-x,-y,-z
x,1/2-y,z
loop_
_atom_site_type_symbol
_atom_site_label
_atom_site_fract_x
_atom_site_fract_y
_atom_site_fract_z
Si Si1 0.948756 0.106408 0.077987
Si Si2 0.527622 0.110782 0.031251
Si Si3 0.056919 0.636421 0.456880
Si Si4 0.681094 0.540753 0.581053
Si Si5 0.273646 0.250000 0.888001
O O1 0.944045 0.122709 0.309640
O O2 0.111398 0.169547 0.957423
O O3 0.846562 0.900893 0.438496
O O4 0.000000 0.000000 0.000000
O O5 0.396461 0.118623 0.249183
O O6 0.740871 0.134159 0.044317
O O7 0.440949 0.168589 0.873340
O O8 0.500000 0.000000 0.000000
O O9 0.083591 0.750000 0.408531
O O10 0.208590 0.555134 0.362011
O O11 0.500000 0.500000 0.500000
#
# Coordination Sequence:
#
# PCOD9167441 Si02
#       5
#     4   4   4   4   2
#     4  12  22  41  71 100 135 178 228 283 333 406
#     4  12  24  44  70  98 138 178 227 279 337 408
#     4  11  23  43  67  98 135 177 224 277 341 405
#     4  11  23  40  70  97 128 174 225 274 330 401
#     4  12  24  42  70 100 130 190 230 264 356 404
#
# _framework density 26.453997999999999
#
# number of rings (size 3 to 8) (size 9 to 14) (size 15 to 20)
#    0.000    0.444    7.778    0.667    0.000    0.889 
#    2.000    0.000   29.333    0.000    0.000    0.000 
#    0.000    0.000    0.000    0.000    0.000    0.000 
#
# Total GULP energy -100352.451385 kJ/mol
# GULP energy per Si atom -5575.136188 kJ/mol
# Density = 2.639379 g / cm^3
# Si number density = 26.453998 Si / 1000 Ang^3
#
#
#
# Elastic Constant Matrix: (Units=GPa)
#
#
# Indices 1 2 3 4 5 6 
#
# 1 203.3848 22.5103 19.8212 0.0000 -34.0038 0.0000
# 2 22.5103 196.1806 -6.8988 0.0000 -12.5850 0.0000
# 3 19.8212 -6.8988 82.4002 0.0000 12.8827 0.0000
# 4 0.0000 0.0000 0.0000 1.7688 0.0000 -29.3625
# 5 -34.0038 -12.5850 12.8827 0.0000 39.1503 0.0000
# 6 0.0000 0.0000 0.0000 -29.3625 0.0000 61.2267
#
#
#
# Elastic Compliance Matrix: (Units=1/GPa)
#
#
# Indices 1 2 3 4 5 6 
#
# 1 0.006222 -0.000411 -0.002483 0.000000 0.006090 0.000000
# 2 -0.000411 0.005234 0.000348 0.000000 0.001212 0.000000
# 3 -0.002483 0.000348 0.013792 0.000000 -0.006583 0.000000
# 4 0.000000 0.000000 0.000000 -0.081218 0.000000 -0.038950
# 5 0.006090 0.001212 -0.006583 0.000000 0.033387 0.000000
# 6 0.000000 0.000000 0.000000 -0.038950 0.000000 -0.002346
#
#
# Mechanical properties :
#
#
# Convention : Reuss Voigt Hill
#
# Bulk Modulus (GPa) = 49.61348 61.42566 55.51957
# Shear Modulus (GPa) = -381.17345 50.19802 -165.48771
#
# Velocity S-wave (km/s) = -12.01674 4.36082 -7.91787
# Velocity P-wave (km/s) = 13.18107 6.97323 7.90932
#
# Compressibility (1/GPa) = 0.02015581
#
# Stress axis : x y z
#
# Youngs Moduli (GPa) = 160.71106 191.04357 72.50805
#
# Poissons Ratio (x) = 0.07845 0.18005
# Poissons Ratio (y) = 0.06600 -0.02520
# Poissons Ratio (z) = 0.39908 -0.06641
#
# Static dielectric constant tensor:
#      x y z
#    x 2.069590 0.000000 0.089900 
#    y 0.000000 1.961880 0.000000 
#    z 0.089900 0.000000 2.373090 
# 
# From -- ./inp_files/17143.got.cif
#   From: 2010.05.17/outbox.cif.g08.bks.cpg/sg11_9_cif.got.tgz:17143.got - 2010.06.03 12:22:45.
