data_PCOD9167386
_publ_section_title
;
Structure prediction by ZEFSAII (Michael W. Deem and Ramdas Pophale) SiO2 
 PCOD9167386
Probable space group: P 21/M
;
_chemical_formula_sum "Si O2"
_cell_formula_units_Z 18
_cell_length_a 15.159000
_cell_length_b 7.484292
_cell_length_c 9.945163
_cell_angle_alpha 90.000000
_cell_angle_beta 35.704166
_cell_angle_gamma 90.000000
_cell_volume 658.489199
_symmetry_space_group_name_H-M "P 21/M"
_symmetry_group_IT_number 11
_symmetry_cell_setting 'monoclinic'
loop_
_space_group_symop_operation_xyz
x,y,z
-x,1/2+y,-z
-x,-y,-z
x,1/2-y,z
loop_
_atom_site_type_symbol
_atom_site_label
_atom_site_fract_x
_atom_site_fract_y
_atom_site_fract_z
Si Si1 0.520903 0.050474 0.630469
Si Si2 0.203755 0.750000 0.443382
Si Si3 0.061375 0.956581 0.244361
Si Si4 0.829716 0.960473 0.168597
Si Si5 0.674110 0.539537 0.885225
O O1 0.461203 0.250000 0.712214
O O2 0.500000 0.000000 0.500000
O O3 0.702993 0.049773 0.418186
O O4 0.436885 0.964330 0.859789
O O5 0.322783 0.592433 0.244227
O O6 0.070637 0.594347 0.625806
O O7 0.013040 0.750000 0.315431
O O8 0.159523 0.013152 0.251356
O O9 0.176714 0.969151 0.975175
O O10 0.801685 0.750000 0.208267
O O11 0.000000 0.000000 0.000000
O O12 0.655508 0.750000 0.878459
#
# Coordination Sequence:
#
# PCOD9167386 Si02
#       5
#     4   2   4   4   4
#     4  11  23  39  63  98 136 167 213 277 335 390
#     4  12  24  38  60  92 132 176 220 266 328 384
#     4  12  23  38  61  95 132 169 219 273 322 389
#     4  12  25  44  68  99 131 175 219 270 338 396
#     4  11  23  37  59  96 132 172 215 268 332 387
#
# _framework density 27.335303
#
# number of rings (size 3 to 8) (size 9 to 14) (size 15 to 20)
#    0.000    0.444    5.556    4.000    3.111    0.000 
#    0.000    0.000    0.000    1.333    0.000    0.000 
#    0.000    0.000    0.000    0.000    0.000    0.000 
#
# Total GULP energy -100413.440186 kJ/mol
# GULP energy per Si atom -5578.524455 kJ/mol
# Density = 2.727309 g / cm^3
# Si number density = 27.335303 Si / 1000 Ang^3
#
#
#
# Elastic Constant Matrix: (Units=GPa)
#
#
# Indices 1 2 3 4 5 6 
#
# 1 94.6295 -6.1138 10.1079 0.0000 -9.0111 0.0000
# 2 -6.1138 227.0362 25.7249 0.0000 8.9383 0.0000
# 3 10.1079 25.7249 190.7368 0.0000 8.1499 0.0000
# 4 0.0000 0.0000 0.0000 38.5635 0.0000 -11.0058
# 5 -9.0111 8.9383 8.1499 0.0000 46.1755 0.0000
# 6 0.0000 0.0000 0.0000 -11.0058 0.0000 4.2767
#
#
#
# Elastic Compliance Matrix: (Units=1/GPa)
#
#
# Indices 1 2 3 4 5 6 
#
# 1 0.010870 0.000287 -0.000708 0.000000 0.002191 0.000000
# 2 0.000287 0.004507 -0.000593 0.000000 -0.000712 0.000000
# 3 -0.000708 -0.000593 0.005402 0.000000 -0.000977 0.000000
# 4 0.000000 0.000000 0.000000 0.097645 0.000000 0.251280
# 5 0.002191 -0.000712 -0.000977 0.000000 0.022394 0.000000
# 6 0.000000 0.000000 0.000000 0.251280 0.000000 0.880467
#
#
# Mechanical properties :
#
#
# Convention : Reuss Voigt Hill
#
# Bulk Modulus (GPa) = 53.32978 63.53782 58.43380
# Shear Modulus (GPa) = 4.85642 49.98205 27.41924
#
# Velocity S-wave (km/s) = 1.33434 4.28071 3.17056
# Velocity P-wave (km/s) = 4.68250 6.90847 5.90139
#
# Compressibility (1/GPa) = 0.01875125
#
# Stress axis : x y z
#
# Youngs Moduli (GPa) = 91.99343 221.85284 185.11504
#
# Poissons Ratio (x) = -0.06361 0.13113
# Poissons Ratio (y) = -0.02638 0.10972
# Poissons Ratio (z) = 0.06516 0.13149
#
# Static dielectric constant tensor:
#      x y z
#    x 2.560860 0.000000 -0.001550 
#    y 0.000000 2.014520 0.000000 
#    z -0.001550 0.000000 2.275870 
# 
# From -- ./inp_files/40883.got.cif
#   From: 2010.05.17/outbox.cif.g08.bks.cpg/sg11_21_cif.got.tgz:40883.got - 2010.06.03 12:22:45.
