data_PCOD9167068
_publ_section_title
;
Structure prediction by ZEFSAII (Michael W. Deem and Ramdas Pophale) SiO2 
 PCOD9167068
Probable space group: P 21/M
;
_chemical_formula_sum "Si O2"
_cell_formula_units_Z 20
_cell_length_a 7.796432
_cell_length_b 14.806680
_cell_length_c 7.259329
_cell_angle_alpha 90.000000
_cell_angle_beta 70.542706
_cell_angle_gamma 90.000000
_cell_volume 790.152851
_symmetry_space_group_name_H-M "P 21/M"
_symmetry_group_IT_number 11
_symmetry_cell_setting 'monoclinic'
loop_
_space_group_symop_operation_xyz
x,y,z
-x,1/2+y,-z
-x,-y,-z
x,1/2-y,z
loop_
_atom_site_type_symbol
_atom_site_label
_atom_site_fract_x
_atom_site_fract_y
_atom_site_fract_z
Si Si1 0.146872 0.407474 0.722075
Si Si2 0.007819 0.750000 0.044941
Si Si3 0.574826 0.443456 0.238850
Si Si4 0.261643 0.565931 0.226699
Si Si5 0.205338 0.250000 0.409851
Si Si6 0.174053 0.750000 0.399350
Si Si7 0.409380 0.750000 0.744426
O O1 0.291815 0.482494 0.722934
O O2 0.208089 0.338208 0.540557
O O3 0.953364 0.450512 0.728672
O O4 0.105830 0.342743 0.915762
O O5 0.200429 0.750000 0.880046
O O6 0.077595 0.750000 0.232721
O O7 0.378394 0.487528 0.276826
O O8 0.579014 0.349483 0.345189
O O9 0.651133 0.419493 0.006659
O O10 0.278279 0.656461 0.343061
O O11 0.390479 0.250000 0.223670
O O12 0.000183 0.250000 0.400544
#
# Coordination Sequence:
#
# PCOD9167068 Si02
#       7
#     4   2   4   4   2   2   2
#     4   9  18  38  56  78 103 147 177 212 263 332
#     4   8  16  31  55  76 105 133 174 221 269 300
#     4  11  20  31  58  82 109 136 179 225 269 306
#     4   9  18  32  55  86 102 133 177 226 261 319
#     4   8  20  35  55  76 111 143 180 211 272 315
#     4   8  14  36  52  71 107 142 167 219 260 321
#     4  12  20  34  50  83 113 140 171 235 265 300
#
# _framework density 25.311556
#
# number of rings (size 3 to 8) (size 9 to 14) (size 15 to 20)
#    0.000    3.200    4.000    0.600    0.000    2.400 
#    0.000    7.000    0.000    4.800    0.000    0.000 
#    0.000    0.000    0.000    0.000    0.000    0.000 
#
# Total GULP energy -111478.015835 kJ/mol
# GULP energy per Si atom -5573.900792 kJ/mol
# Density = 2.525395 g / cm^3
# Si number density = 25.311556 Si / 1000 Ang^3
#
#
#
# Elastic Constant Matrix: (Units=GPa)
#
#
# Indices 1 2 3 4 5 6 
#
# 1 115.2743 89.8862 58.9182 0.0000 -9.9040 0.0000
# 2 89.8862 203.3469 21.3241 0.0000 -21.0026 0.0000
# 3 58.9182 21.3241 85.1508 0.0000 -24.5733 0.0000
# 4 0.0000 0.0000 0.0000 -40.5200 0.0000 -70.0886
# 5 -9.9040 -21.0026 -24.5733 0.0000 30.4899 0.0000
# 6 0.0000 0.0000 0.0000 -70.0886 0.0000 0.9633
#
#
#
# Elastic Compliance Matrix: (Units=1/GPa)
#
#
# Indices 1 2 3 4 5 6 
#
# 1 0.025824 -0.010905 -0.019395 0.000000 -0.014755 0.000000
# 2 -0.010905 0.009908 0.007834 0.000000 0.009596 0.000000
# 3 -0.019395 0.007834 0.029895 0.000000 0.023189 0.000000
# 4 0.000000 0.000000 0.000000 -0.000195 0.000000 -0.014155
# 5 -0.014755 0.009596 0.023189 0.000000 0.053304 0.000000
# 6 0.000000 0.000000 0.000000 -0.014155 0.000000 0.008183
#
#
# Mechanical properties :
#
#
# Convention : Reuss Voigt Hill
#
# Bulk Modulus (GPa) = 48.32717 82.66987 65.49852
# Shear Modulus (GPa) = 27.97192 13.76288 20.86740
#
# Velocity S-wave (km/s) = 3.32792 2.33435 2.87439
# Velocity P-wave (km/s) = 5.82246 6.32435 6.07859
#
# Compressibility (1/GPa) = 0.02069229
#
# Stress axis : x y z
#
# Youngs Moduli (GPa) = 38.72386 100.93090 33.45097
#
# Poissons Ratio (x) = 1.10066 0.64880
# Poissons Ratio (y) = 0.42229 -0.26204
# Poissons Ratio (z) = 0.75107 -0.79066
#
# Static dielectric constant tensor:
#      x y z
#    x 2.009860 0.000000 -0.025920 
#    y 0.000000 2.078100 0.000000 
#    z -0.025920 0.000000 2.145630 
# 
# From -- ./inp_files/31280.got.cif
#   From: 2010.05.17/outbox.cif.g08.bks.cpg/sg11_16_cif.got.tgz:31280.got - 2010.06.03 12:22:45.
