data_PCOD9167112
_publ_section_title
;
Structure prediction by ZEFSAII (Michael W. Deem and Ramdas Pophale) SiO2 
 PCOD9167112
Probable space group: P 21/M
;
_chemical_formula_sum "Si O2"
_cell_formula_units_Z 32
_cell_length_a 14.659363
_cell_length_b 18.082575
_cell_length_c 12.294623
_cell_angle_alpha 90.000000
_cell_angle_beta 149.437567
_cell_angle_gamma 90.000000
_cell_volume 1657.150137
_symmetry_space_group_name_H-M "P 21/M"
_symmetry_group_IT_number 11
_symmetry_cell_setting 'monoclinic'
loop_
_space_group_symop_operation_xyz
x,y,z
-x,1/2+y,-z
-x,-y,-z
x,1/2-y,z
loop_
_atom_site_type_symbol
_atom_site_label
_atom_site_fract_x
_atom_site_fract_y
_atom_site_fract_z
Si Si1 0.735520 0.121896 0.273948
Si Si2 0.343454 0.918675 0.226732
Si Si3 0.371272 0.948214 0.496827
Si Si4 0.485756 0.171798 0.192566
Si Si5 0.559357 0.337523 0.888812
Si Si6 0.986032 0.514516 0.771292
Si Si7 0.112301 0.117308 0.753119
Si Si8 0.251972 0.446102 0.668292
O O1 0.570951 0.163504 0.161048
O O2 0.917755 0.147496 0.519851
O O3 0.710024 0.033866 0.272236
O O4 0.728313 0.142073 0.139852
O O5 0.361698 0.903886 0.373684
O O6 0.402772 0.859256 0.197356
O O7 0.476033 0.988924 0.348229
O O8 0.138984 0.941402 0.991014
O O9 0.428365 0.893602 0.650772
O O10 0.181006 0.986845 0.327560
O O11 0.537744 0.250000 0.294812
O O12 0.272605 0.166603 0.961930
O O13 0.516455 0.250000 0.854307
O O14 0.411083 0.395036 0.784741
O O15 0.899492 0.557027 0.580053
O O16 0.078735 0.444077 0.810210
O O17 0.183858 0.081646 0.714467
#
# Coordination Sequence:
#
# PCOD9167112 Si02
#       8
#     4   4   4   4   4   4   4   4
#     4  11  22  40  64  92 123 166 213 251 306 372
#     4  11  23  42  69  89 122 159 214 268 304 361
#     4  11  23  42  67  95 115 162 215 264 309 364
#     4  12  24  39  59  90 131 165 199 253 314 373
#     4  12  24  40  63  93 131 173 206 250 322 386
#     4  11  20  40  66  99 117 154 217 267 311 360
#     4  11  22  36  62  95 126 159 202 254 313 367
#     4  11  21  37  64  95 129 162 204 259 305 372
#
# _framework density 19.310261000000001
#
# number of rings (size 3 to 8) (size 9 to 14) (size 15 to 20)
#    0.000    0.750    6.250    4.125    0.000    1.500 
#    0.000    1.875    0.000    0.000    0.000    0.000 
#    0.000    0.000    0.000    0.000    0.000    0.000 
#
# Total GULP energy -178600.408837 kJ/mol
# GULP energy per Si atom -5581.262776 kJ/mol
# Density = 1.926631 g / cm^3
# Si number density = 19.310261 Si / 1000 Ang^3
#
#
#
# Elastic Constant Matrix: (Units=GPa)
#
#
# Indices 1 2 3 4 5 6 
#
# 1 59.1112 16.3922 10.8745 0.0000 -4.3439 0.0000
# 2 16.3922 64.8734 26.6059 0.0000 2.8880 0.0000
# 3 10.8745 26.6059 73.8089 0.0000 5.8674 0.0000
# 4 0.0000 0.0000 0.0000 1.5342 0.0000 -10.9291
# 5 -4.3439 2.8880 5.8674 0.0000 41.6155 0.0000
# 6 0.0000 0.0000 0.0000 -10.9291 0.0000 -3.4972
#
#
#
# Elastic Compliance Matrix: (Units=1/GPa)
#
#
# Indices 1 2 3 4 5 6 
#
# 1 0.018522 -0.004213 -0.001403 0.000000 0.002423 0.000000
# 2 -0.004213 0.019052 -0.006176 0.000000 -0.000891 0.000000
# 3 -0.001403 -0.006176 0.016140 0.000000 -0.001993 0.000000
# 4 0.000000 0.000000 0.000000 0.028020 0.000000 -0.087566
# 5 0.002423 -0.000891 -0.001993 0.000000 0.024625 0.000000
# 6 0.000000 0.000000 0.000000 -0.087566 0.000000 -0.012292
#
#
# Mechanical properties :
#
#
# Convention : Reuss Voigt Hill
#
# Bulk Modulus (GPa) = 33.18947 33.94875 33.56911
# Shear Modulus (GPa) = 39.15631 17.52522 28.34077
#
# Velocity S-wave (km/s) = 4.50794 3.01584 3.83515
# Velocity P-wave (km/s) = 6.65733 5.45398 6.08548
#
# Compressibility (1/GPa) = 0.03013004
#
# Stress axis : x y z
#
# Youngs Moduli (GPa) = 53.99091 52.48884 61.95792
#
# Poissons Ratio (x) = 0.22111 0.08693
# Poissons Ratio (y) = 0.22744 0.38266
# Poissons Ratio (z) = 0.07575 0.32418
#
# Static dielectric constant tensor:
#      x y z
#    x 1.682570 0.000000 0.014160 
#    y 0.000000 1.677910 0.000000 
#    z 0.014160 0.000000 1.695890 
# 
# From -- ./inp_files/39956.got.cif
#   From: 2010.05.17/outbox.cif.g08.bks.cpg/sg11_20_cif.got.tgz:39956.got - 2010.06.03 12:22:45.
