data_PCOD9167147
_publ_section_title
;
Structure prediction by ZEFSAII (Michael W. Deem and Ramdas Pophale) SiO2 
 PCOD9167147
Probable space group: P 21/M
;
_chemical_formula_sum "Si O2"
_cell_formula_units_Z 28
_cell_length_a 26.196236
_cell_length_b 8.615114
_cell_length_c 9.682955
_cell_angle_alpha 90.000000
_cell_angle_beta 139.447541
_cell_angle_gamma 90.000000
_cell_volume 1420.749098
_symmetry_space_group_name_H-M "P 21/M"
_symmetry_group_IT_number 11
_symmetry_cell_setting 'monoclinic'
loop_
_space_group_symop_operation_xyz
x,y,z
-x,1/2+y,-z
-x,-y,-z
x,1/2-y,z
loop_
_atom_site_type_symbol
_atom_site_label
_atom_site_fract_x
_atom_site_fract_y
_atom_site_fract_z
Si Si1 0.499152 0.563072 0.153335
Si Si2 0.175939 0.937659 0.674153
Si Si3 0.425429 0.566089 0.430217
Si Si4 0.675181 0.062208 0.200373
Si Si5 0.234378 0.937560 0.351270
Si Si6 0.255725 0.066248 0.089522
Si Si7 0.917965 0.436551 0.778549
O O1 0.508133 0.750000 0.174590
O O2 0.560108 0.483827 0.381207
O O3 0.500000 0.500000 0.000000
O O4 0.411390 0.519400 0.024108
O O5 0.175203 0.750000 0.682086
O O6 0.254890 0.987693 0.754895
O O7 0.106294 0.985939 0.427070
O O8 0.186519 0.006678 0.847050
O O9 0.500000 0.500000 0.500000
O O10 0.424967 0.750000 0.413696
O O11 0.339729 0.503190 0.214540
O O12 0.677464 0.250000 0.206877
O O13 0.697052 0.012571 0.401033
O O14 0.237865 0.750000 0.344253
O O15 0.153356 0.977681 0.264183
O O16 0.241187 0.011572 0.215972
O O17 0.260517 0.250000 0.093305
O O18 0.920821 0.250000 0.782500
O O19 0.000000 0.500000 0.000000
#
# Coordination Sequence:
#
# PCOD9167147 Si02
#       7
#     4   4   4   4   4   4   4
#     4  11  21  34  53  80 110 144 187 238 291 342
#     4   9  18  36  59  81 106 144 185 225 275 334
#     4  12  25  41  58  79 111 153 197 245 295 346
#     4   8  16  32  55  76  98 134 184 230 273 327
#     4   9  18  36  59  83 111 149 188 227 279 338
#     4  12  24  37  55  84 115 147 189 236 285 342
#     4   9  19  36  62  91 118 147 184 225 275 335
#
# _framework density 19.707915
#
# number of rings (size 3 to 8) (size 9 to 14) (size 15 to 20)
#    0.000    2.000    0.000    6.429    0.000    3.429 
#    0.000    4.286    0.000    0.000    0.000    0.000 
#    0.000    0.000    0.000    0.000    0.000    0.000 
#
# Total GULP energy -156364.994561 kJ/mol
# GULP energy per Si atom -5584.464091 kJ/mol
# Density = 1.966306 g / cm^3
# Si number density = 19.707915 Si / 1000 Ang^3
#
#
#
# Elastic Constant Matrix: (Units=GPa)
#
#
# Indices 1 2 3 4 5 6 
#
# 1 38.2341 18.0424 30.9363 0.0000 -10.3814 0.0000
# 2 18.0424 74.4412 36.6217 0.0000 -1.2497 0.0000
# 3 30.9363 36.6217 152.4628 0.0000 -6.9614 0.0000
# 4 0.0000 0.0000 0.0000 29.0075 0.0000 0.6006
# 5 -10.3814 -1.2497 -6.9614 0.0000 36.0370 0.0000
# 6 0.0000 0.0000 0.0000 0.6006 0.0000 25.9708
#
#
#
# Elastic Compliance Matrix: (Units=1/GPa)
#
#
# Indices 1 2 3 4 5 6 
#
# 1 0.035772 -0.005841 -0.005442 0.000000 0.009051 0.000000
# 2 -0.005841 0.016188 -0.002779 0.000000 -0.001658 0.000000
# 3 -0.005442 -0.002779 0.008328 0.000000 -0.000055 0.000000
# 4 0.000000 0.000000 0.000000 0.034490 0.000000 -0.000798
# 5 0.009051 -0.001658 -0.000055 0.000000 0.030288 0.000000
# 6 0.000000 0.000000 0.000000 -0.000798 0.000000 0.038523
#
#
# Mechanical properties :
#
#
# Convention : Reuss Voigt Hill
#
# Bulk Modulus (GPa) = 31.09021 48.48210 39.78615
# Shear Modulus (GPa) = 24.69914 30.17225 27.43569
#
# Velocity S-wave (km/s) = 3.54398 3.91701 3.73515
# Velocity P-wave (km/s) = 5.70580 6.71647 6.23166
#
# Compressibility (1/GPa) = 0.03216446
#
# Stress axis : x y z
#
# Youngs Moduli (GPa) = 27.95487 61.77273 120.07308
#
# Poissons Ratio (x) = 0.36080 0.65347
# Poissons Ratio (y) = 0.16328 0.33368
# Poissons Ratio (z) = 0.15214 0.17167
#
# Static dielectric constant tensor:
#      x y z
#    x 1.720950 0.000000 -0.018270 
#    y 0.000000 1.657760 0.000000 
#    z -0.018270 0.000000 1.706580 
# 
# From -- ./inp_files/28571.got.cif
#   From: 2010.05.17/outbox.cif.g08.bks.cpg/sg11_15_cif.got.tgz:28571.got - 2010.06.03 12:22:45.
