data_PCOD9167366
_publ_section_title
;
Structure prediction by ZEFSAII (Michael W. Deem and Ramdas Pophale) SiO2 
 PCOD9167366
Probable space group: P 21/M
;
_chemical_formula_sum "Si O2"
_cell_formula_units_Z 22
_cell_length_a 8.423041
_cell_length_b 19.418756
_cell_length_c 9.126496
_cell_angle_alpha 90.000000
_cell_angle_beta 133.468196
_cell_angle_gamma 90.000000
_cell_volume 1083.391027
_symmetry_space_group_name_H-M "P 21/M"
_symmetry_group_IT_number 11
_symmetry_cell_setting 'monoclinic'
loop_
_space_group_symop_operation_xyz
x,y,z
-x,1/2+y,-z
-x,-y,-z
x,1/2-y,z
loop_
_atom_site_type_symbol
_atom_site_label
_atom_site_fract_x
_atom_site_fract_y
_atom_site_fract_z
Si Si1 0.047042 0.396054 0.147078
Si Si2 0.429994 0.618457 0.257579
Si Si3 0.811619 0.510017 0.499353
Si Si4 0.986980 0.750000 0.703440
Si Si5 0.516945 0.378031 0.367651
Si Si6 0.559310 0.250000 0.180917
Si Si7 0.390560 0.250000 0.778904
O O1 0.077610 0.453648 0.290707
O O2 0.264912 0.401108 0.187605
O O3 0.045734 0.319506 0.221518
O O4 0.817851 0.405635 0.920854
O O5 0.611965 0.561653 0.333660
O O6 0.465142 0.640444 0.448682
O O7 0.475662 0.682726 0.182704
O O8 0.690557 0.438532 0.454359
O O9 0.000000 0.500000 0.500000
O O10 0.224249 0.750000 0.780498
O O11 0.820400 0.750000 0.460102
O O12 0.557787 0.315903 0.284145
O O13 0.363165 0.250000 0.936759
#
# Coordination Sequence:
#
# PCOD9167366 Si02
#       7
#     4   4   4   2   4   2   2
#     4  11  22  43  69  96 133 180 220 271 328 405
#     4  11  23  44  73  97 131 182 225 266 335 400
#     4  11  25  43  66 101 139 175 219 279 339 387
#     4  12  21  41  69  95 138 170 217 278 331 385
#     4  11  25  43  67  99 137 171 223 276 329 401
#     4  12  26  42  66 102 134 169 224 277 337 394
#     4  12  23  41  71  97 126 177 221 269 336 387
#
# _framework density 20.306609999999999
#
# number of rings (size 3 to 8) (size 9 to 14) (size 15 to 20)
#    0.000    0.727    5.455    4.364    0.000    5.091 
#    0.000    0.000    0.000    0.000    0.000    0.000 
#    0.000    0.000    0.000    0.000    0.000    0.000 
#
# Total GULP energy -122972.793022 kJ/mol
# GULP energy per Si atom -5589.672410 kJ/mol
# Density = 2.026039 g / cm^3
# Si number density = 20.306610 Si / 1000 Ang^3
#
#
#
# Elastic Constant Matrix: (Units=GPa)
#
#
# Indices 1 2 3 4 5 6 
#
# 1 109.4944 25.4552 37.6298 0.0000 -3.5444 0.0000
# 2 25.4552 83.9847 31.9730 0.0000 -33.5323 0.0000
# 3 37.6298 31.9730 113.9766 0.0000 25.5731 0.0000
# 4 0.0000 0.0000 0.0000 21.6336 0.0000 2.8835
# 5 -3.5444 -33.5323 25.5731 0.0000 32.4405 0.0000
# 6 0.0000 0.0000 0.0000 2.8835 0.0000 38.9676
#
#
#
# Elastic Compliance Matrix: (Units=1/GPa)
#
#
# Indices 1 2 3 4 5 6 
#
# 1 0.011012 0.002867 -0.006530 0.000000 0.009314 0.000000
# 2 0.002867 0.077893 -0.049728 0.000000 0.120029 0.000000
# 3 -0.006530 -0.049728 0.044431 0.000000 -0.087141 0.000000
# 4 0.000000 0.000000 0.000000 0.046685 0.000000 -0.003455
# 5 0.009314 0.120029 -0.087141 0.000000 0.224605 0.000000
# 6 0.000000 0.000000 0.000000 -0.003455 0.000000 0.025918
#
#
# Mechanical properties :
#
#
# Convention : Reuss Voigt Hill
#
# Bulk Modulus (GPa) = 37.65880 55.28576 46.47228
# Shear Modulus (GPa) = 9.15453 32.76820 20.96137
#
# Velocity S-wave (km/s) = 2.12554 4.02141 3.21634
# Velocity P-wave (km/s) = 4.96077 6.98906 6.06037
#
# Compressibility (1/GPa) = 0.02655422
#
# Stress axis : x y z
#
# Youngs Moduli (GPa) = 90.81083 12.83812 22.50666
#
# Poissons Ratio (x) = -0.03681 0.14696
# Poissons Ratio (y) = -0.26034 1.11922
# Poissons Ratio (z) = 0.59296 0.63842
#
# Static dielectric constant tensor:
#      x y z
#    x 1.694270 0.000000 0.022760 
#    y 0.000000 1.717080 0.000000 
#    z 0.022760 0.000000 1.763380 
# 
# From -- ./inp_files/13656.got.cif
#   From: 2010.05.17/outbox.cif.g08.bks.cpg/sg11_7_cif.got.tgz:13656.got - 2010.06.03 12:22:45.
