data_PCOD9167875
_publ_section_title
;
Structure prediction by ZEFSAII (Michael W. Deem and Ramdas Pophale) SiO2 
 PCOD9167875
Probable space group: P 21/M
;
_chemical_formula_sum "Si O2"
_cell_formula_units_Z 32
_cell_length_a 21.000000
_cell_length_b 9.000000
_cell_length_c 27.000000
_cell_angle_alpha 90.000000
_cell_angle_beta 160.000000
_cell_angle_gamma 90.000000
_cell_volume 1745.328791
_symmetry_space_group_name_H-M "P 21/M"
_symmetry_group_IT_number 11
_symmetry_cell_setting 'monoclinic'
loop_
_space_group_symop_operation_xyz
x,y,z
-x,1/2+y,-z
-x,-y,-z
x,1/2-y,z
loop_
_atom_site_type_symbol
_atom_site_label
_atom_site_fract_x
_atom_site_fract_y
_atom_site_fract_z
Si Si1 0.046251 0.419394 0.372738
Si Si2 0.370347 0.569026 0.948070
Si Si3 0.235810 0.417813 0.408770
Si Si4 0.429495 0.422163 0.305948
Si Si5 0.107371 0.926294 0.123548
Si Si6 0.613474 0.572369 0.929743
Si Si7 0.009326 0.926519 0.163492
Si Si8 0.587231 0.429423 0.317554
O O1 0.057507 0.250000 0.399753
O O2 0.084209 0.412902 0.341546
O O3 0.209997 0.510347 0.518948
O O4 0.836624 0.474570 0.222013
O O5 0.382612 0.750000 0.958294
O O6 0.400485 0.507689 0.026730
O O7 0.500000 0.500000 0.000000
O O8 0.318065 0.250000 0.467234
O O9 0.366800 0.548928 0.523954
O O10 0.152988 0.467823 0.296523
O O11 0.372877 0.250000 0.264144
O O12 0.310242 0.512722 0.258731
O O13 0.447255 0.474137 0.261077
O O14 0.103704 0.750000 0.116685
O O15 0.020141 0.963342 0.113117
O O16 0.000000 0.000000 0.000000
O O17 0.588924 0.750000 0.920141
O O18 0.474656 0.525003 0.783126
O O19 0.813983 0.552616 0.049237
O O20 0.055228 0.750000 0.201357
O O21 0.586399 0.250000 0.318033
#
# Coordination Sequence:
#
# PCOD9167875 Si02
#       8
#     4   4   4   4   4   4   4   4
#     4   9  19  36  57  84 118 148 185 233 280 334
#     4  11  23  40  61  89 119 150 186 229 281 340
#     4  10  19  34  56  83 111 143 187 238 287 336
#     4  10  20  36  56  80 113 151 192 237 287 342
#     4  11  23  38  54  76 108 148 191 239 291 345
#     4  10  20  37  60  87 116 147 188 238 284 337
#     4  10  21  36  56  80 110 147 190 235 286 340
#     4   9  19  35  59  87 115 151 195 237 283 338
#
# _framework density 18.334654
#
# number of rings (size 3 to 8) (size 9 to 14) (size 15 to 20)
#    0.000    2.000    1.250    2.250    0.000    6.000 
#    0.000    1.875    0.000    0.000    0.000    0.000 
#    0.000    0.000    0.000    0.000    0.000    0.000 
#
# Total GULP energy -178149.103425 kJ/mol
# GULP energy per Si atom -5567.159482 kJ/mol
# Density = 1.829292 g / cm^3
# Si number density = 18.334654 Si / 1000 Ang^3
#
#
#
# Elastic Constant Matrix: (Units=GPa)
#
#
# Indices 1 2 3 4 5 6 
#
# 1 147.4962 48.6682 48.9932 0.0000 -9.7978 0.0000
# 2 48.6682 43.1190 23.5077 0.0000 -6.1896 0.0000
# 3 48.9932 23.5077 60.3060 0.0000 -5.0356 0.0000
# 4 0.0000 0.0000 0.0000 27.8215 0.0000 -3.1931
# 5 -9.7978 -6.1896 -5.0356 0.0000 30.2481 0.0000
# 6 0.0000 0.0000 0.0000 -3.1931 0.0000 33.6305
#
#
#
# Elastic Compliance Matrix: (Units=1/GPa)
#
#
# Indices 1 2 3 4 5 6 
#
# 1 0.012225 -0.010541 -0.005752 0.000000 0.000845 0.000000
# 2 -0.010541 0.039068 -0.006372 0.000000 0.003519 0.000000
# 3 -0.005752 -0.006372 0.023805 0.000000 0.000796 0.000000
# 4 0.000000 0.000000 0.000000 0.036339 0.000000 0.003450
# 5 0.000845 0.003519 0.000796 0.000000 0.034186 0.000000
# 6 0.000000 0.000000 0.000000 0.003450 0.000000 0.030062
#
#
# Mechanical properties :
#
#
# Convention : Reuss Voigt Hill
#
# Bulk Modulus (GPa) = 33.59201 54.80658 44.19930
# Shear Modulus (GPa) = 21.65088 26.99017 24.32052
#
# Velocity S-wave (km/s) = 3.44011 3.84094 3.64604
# Velocity P-wave (km/s) = 5.84299 7.04469 6.47179
#
# Compressibility (1/GPa) = 0.02976898
#
# Stress axis : x y z
#
# Youngs Moduli (GPa) = 81.80210 25.59662 42.00744
#
# Poissons Ratio (x) = 0.26980 0.24163
# Poissons Ratio (y) = 0.86225 0.26766
# Poissons Ratio (z) = 0.47053 0.16309
#
# Static dielectric constant tensor:
#      x y z
#    x 1.539010 0.000000 -0.086670 
#    y 0.000000 1.623150 0.000000 
#    z -0.086670 0.000000 1.619020 
# 
# From -- ./inp_files/72118.got.cif
#   From: 2010.05.17/outbox.ucp.g08.bks.cvg/sg11_37_cif.got.tgz:72118.got - 2010.06.11 11:38:39.
