data_PCOD9167957
_publ_section_title
;
Structure prediction by ZEFSAII (Michael W. Deem and Ramdas Pophale) SiO2 
 PCOD9167957
Probable space group: P 21/M
;
_chemical_formula_sum "Si O2"
_cell_formula_units_Z 32
_cell_length_a 12.000000
_cell_length_b 9.000000
_cell_length_c 30.000000
_cell_angle_alpha 90.000000
_cell_angle_beta 150.000000
_cell_angle_gamma 90.000000
_cell_volume 1620.000000
_symmetry_space_group_name_H-M "P 21/M"
_symmetry_group_IT_number 11
_symmetry_cell_setting 'monoclinic'
loop_
_space_group_symop_operation_xyz
x,y,z
-x,1/2+y,-z
-x,-y,-z
x,1/2-y,z
loop_
_atom_site_type_symbol
_atom_site_label
_atom_site_fract_x
_atom_site_fract_y
_atom_site_fract_z
Si Si1 0.242443 0.421887 0.712150
Si Si2 0.854248 0.586038 0.614058
Si Si3 0.396657 0.913166 0.402839
Si Si4 0.834800 0.077966 0.133551
Si Si5 0.356931 0.571761 0.212527
Si Si6 0.848699 0.572204 0.043911
Si Si7 0.417362 0.421390 0.872837
Si Si8 0.632549 0.918657 0.691633
O O1 0.196813 0.250000 0.683740
O O2 0.453396 0.476865 0.756502
O O3 0.302913 0.424904 0.785258
O O4 0.021610 0.520863 0.635438
O O5 0.929862 0.750000 0.655166
O O6 0.807948 0.479072 0.639812
O O7 0.610124 0.600185 0.508254
O O8 0.334809 0.750000 0.363896
O O9 0.471686 0.018732 0.389133
O O10 0.764975 0.250000 0.104171
O O11 0.103444 0.075655 0.228158
O O12 0.789767 0.983131 0.073472
O O13 0.719274 0.008406 0.136663
O O14 0.351999 0.750000 0.208964
O O15 0.416453 0.517471 0.282523
O O16 0.098937 0.522250 0.117094
O O17 0.838840 0.750000 0.038579
O O18 0.657701 0.496268 0.949168
O O19 0.442508 0.250000 0.895426
O O20 0.570799 0.750000 0.679691
#
# Coordination Sequence:
#
# PCOD9167957 Si02
#       8
#     4   4   4   4   4   4   4   4
#     4  10  22  39  57  77 105 143 182 220 266 318
#     4  10  21  36  56  84 114 142 175 217 263 312
#     4  10  20  35  57  84 114 145 174 210 262 320
#     4  10  20  34  52  77 109 139 171 215 266 317
#     4   9  20  39  58  76 103 141 183 223 265 316
#     4  10  20  35  55  77 103 137 176 219 267 315
#     4  11  22  34  51  77 107 138 175 218 266 320
#     4  10  20  34  56  84 109 138 179 223 266 314
#
# _framework density 19.753086
#
# number of rings (size 3 to 8) (size 9 to 14) (size 15 to 20)
#    0.000    2.000    0.000    3.375    0.000    7.500 
#    0.000    0.625    0.000    0.000    0.000    0.000 
#    0.000    0.000    0.000    0.000    0.000    0.000 
#
# Total GULP energy -178479.819333 kJ/mol
# GULP energy per Si atom -5577.494354 kJ/mol
# Density = 1.970813 g / cm^3
# Si number density = 19.753086 Si / 1000 Ang^3
#
#
#
# Elastic Constant Matrix: (Units=GPa)
#
#
# Indices 1 2 3 4 5 6 
#
# 1 116.8500 24.6606 22.9746 0.0000 38.2583 0.0000
# 2 24.6606 41.0897 18.6406 0.0000 19.0156 0.0000
# 3 22.9746 18.6406 28.7857 0.0000 5.7194 0.0000
# 4 0.0000 0.0000 0.0000 -1.3996 0.0000 9.4254
# 5 38.2583 19.0156 5.7194 0.0000 21.1186 0.0000
# 6 0.0000 0.0000 0.0000 9.4254 0.0000 22.6850
#
#
#
# Elastic Compliance Matrix: (Units=1/GPa)
#
#
# Indices 1 2 3 4 5 6 
#
# 1 0.037280 0.034584 -0.034394 0.000000 -0.089361 0.000000
# 2 0.034584 0.089935 -0.060562 0.000000 -0.127229 0.000000
# 3 -0.034394 -0.060562 0.082640 0.000000 0.094459 0.000000
# 4 0.000000 0.000000 0.000000 -0.188117 0.000000 0.078161
# 5 -0.089361 -0.127229 0.094459 0.000000 0.298216 0.000000
# 6 0.000000 0.000000 0.000000 0.078161 0.000000 0.011607
#
#
# Mechanical properties :
#
#
# Convention : Reuss Voigt Hill
#
# Bulk Modulus (GPa) = 11.22203 35.47522 23.34863
# Shear Modulus (GPa) = 10.37328 16.51077 13.44202
#
# Velocity S-wave (km/s) = 2.29410 2.89426 2.61147
# Velocity P-wave (km/s) = 3.56520 5.40067 4.57591
#
# Compressibility (1/GPa) = 0.08911044
#
# Stress axis : x y z
#
# Youngs Moduli (GPa) = 26.82422 11.11917 12.10067
#
# Poissons Ratio (x) = -0.38454 0.41619
# Poissons Ratio (y) = -0.92768 0.73284
# Poissons Ratio (z) = 0.92260 0.67340
#
# Static dielectric constant tensor:
#      x y z
#    x 1.643550 0.000000 -0.007270 
#    y 0.000000 1.711360 0.000000 
#    z -0.007270 0.000000 1.765030 
# 
# From -- ./inp_files/73173.got.cif
#   From: 2010.05.17/outbox.ucp.g08.bks.cvg/sg11_37_cif.got.tgz:73173.got - 2010.06.11 11:38:39.
