data_PCOD9167683
_publ_section_title
;
Structure prediction by ZEFSAII (Michael W. Deem and Ramdas Pophale) SiO2 
 PCOD9167683
Probable space group: P 21/M
;
_chemical_formula_sum "Si O2"
_cell_formula_units_Z 32
_cell_length_a 7.393352
_cell_length_b 13.989454
_cell_length_c 20.620128
_cell_angle_alpha 90.000000
_cell_angle_beta 44.680218
_cell_angle_gamma 90.000000
_cell_volume 1499.619305
_symmetry_space_group_name_H-M "P 21/M"
_symmetry_group_IT_number 11
_symmetry_cell_setting 'monoclinic'
loop_
_space_group_symop_operation_xyz
x,y,z
-x,1/2+y,-z
-x,-y,-z
x,1/2-y,z
loop_
_atom_site_type_symbol
_atom_site_label
_atom_site_fract_x
_atom_site_fract_y
_atom_site_fract_z
Si Si1 0.451475 0.356699 0.483363
Si Si2 0.715309 0.554567 0.003893
Si Si3 0.806401 0.529904 0.347726
Si Si4 0.053455 0.640734 0.482009
Si Si5 0.216763 0.005505 0.349692
Si Si6 0.176702 0.458119 0.159636
Si Si7 0.543070 0.644354 0.797248
Si Si8 0.939978 0.356100 0.985931
O O1 0.556479 0.250000 0.454370
O O2 0.647194 0.435125 0.406930
O O3 0.366219 0.385368 0.578237
O O4 0.199595 0.360433 0.500696
O O5 0.808267 0.598072 0.912132
O O6 0.800685 0.616967 0.043028
O O7 0.415756 0.531159 0.088817
O O8 0.857463 0.450393 0.967893
O O9 0.060694 0.535235 0.328421
O O10 0.921800 0.514140 0.246910
O O11 0.121722 0.750000 0.476878
O O12 0.969280 0.581409 0.566412
O O13 0.262362 0.578111 0.389556
O O14 0.447637 0.066536 0.261717
O O15 0.254875 0.387456 0.198522
O O16 0.603861 0.750000 0.756708
O O17 0.274156 0.645714 0.902704
O O18 0.943209 0.250000 0.954841
#
# Coordination Sequence:
#
# PCOD9167683 Si02
#       8
#     4   4   4   4   4   4   4   4
#     4   9  18  32  48  68  96 127 160 201 243 285
#     4   9  18  34  53  73 104 132 160 206 245 292
#     4   9  18  32  49  70  96 127 163 198 240 293
#     4   9  17  29  45  66  94 130 168 205 248 294
#     4   9  17  29  46  67  95 129 164 205 250 289
#     4   9  18  32  50  74 101 132 165 200 248 291
#     4   9  17  29  47  72 101 129 162 205 249 293
#     4   9  18  33  53  74  97 130 163 196 246 296
#
# _framework density 21.338749
#
# number of rings (size 3 to 8) (size 9 to 14) (size 15 to 20)
#    0.000    3.000    0.000    0.375    0.000    4.000 
#    0.000    4.375    0.000   12.000    0.000    0.000 
#    0.000    0.000    0.000    0.000    0.000    0.000 
#
# Total GULP energy -178309.641977 kJ/mol
# GULP energy per Si atom -5572.176312 kJ/mol
# Density = 2.129018 g / cm^3
# Si number density = 21.338749 Si / 1000 Ang^3
#
#
#
# Elastic Constant Matrix: (Units=GPa)
#
#
# Indices 1 2 3 4 5 6 
#
# 1 33.2119 -10.2773 -2.7037 0.0000 3.9775 0.0000
# 2 -10.2773 70.5625 -5.9381 0.0000 5.9070 0.0000
# 3 -2.7037 -5.9381 61.2548 0.0000 4.3119 0.0000
# 4 0.0000 0.0000 0.0000 17.6426 0.0000 3.6040
# 5 3.9775 5.9070 4.3119 0.0000 14.8550 0.0000
# 6 0.0000 0.0000 0.0000 3.6040 0.0000 12.1537
#
#
#
# Elastic Compliance Matrix: (Units=1/GPa)
#
#
# Indices 1 2 3 4 5 6 
#
# 1 0.033750 0.006200 0.002961 0.000000 -0.012361 0.000000
# 2 0.006200 0.016011 0.002441 0.000000 -0.008735 0.000000
# 3 0.002961 0.002441 0.017167 0.000000 -0.006746 0.000000
# 4 0.000000 0.000000 0.000000 0.060336 0.000000 -0.017891
# 5 -0.012361 -0.008735 -0.006746 0.000000 0.076059 0.000000
# 6 0.000000 0.000000 0.000000 -0.017891 0.000000 0.087585
#
#
# Mechanical properties :
#
#
# Convention : Reuss Voigt Hill
#
# Bulk Modulus (GPa) = 11.09504 14.13233 12.61368
# Shear Modulus (GPa) = 16.79266 21.19348 18.99307
#
# Velocity S-wave (km/s) = 2.80832 3.15491 2.98665
# Velocity P-wave (km/s) = 3.96564 4.46190 4.22107
#
# Compressibility (1/GPa) = 0.09013038
#
# Stress axis : x y z
#
# Youngs Moduli (GPa) = 29.63003 62.45538 58.24980
#
# Poissons Ratio (x) = -0.38719 -0.17247
# Poissons Ratio (y) = -0.18369 -0.14217
# Poissons Ratio (z) = -0.08773 -0.15243
#
# Static dielectric constant tensor:
#      x y z
#    x 1.849800 0.000000 0.001960 
#    y 0.000000 1.779500 0.000000 
#    z 0.001960 0.000000 1.786170 
# 
# From -- ./inp_files/63795.got.cif
#   From: 2010.05.17/outbox.cif.g08.bks.cpg/sg11_32_cif.got.tgz:63795.got - 2010.06.03 12:22:45.
