data_PCOD9167772
_publ_section_title
;
Structure prediction by ZEFSAII (Michael W. Deem and Ramdas Pophale) SiO2 
 PCOD9167772
Probable space group: P 21/M
;
_chemical_formula_sum "Si O2"
_cell_formula_units_Z 32
_cell_length_a 21.000000
_cell_length_b 9.000000
_cell_length_c 12.000000
_cell_angle_alpha 90.000000
_cell_angle_beta 130.000000
_cell_angle_gamma 90.000000
_cell_volume 1737.388797
_symmetry_space_group_name_H-M "P 21/M"
_symmetry_group_IT_number 11
_symmetry_cell_setting 'monoclinic'
loop_
_space_group_symop_operation_xyz
x,y,z
-x,1/2+y,-z
-x,-y,-z
x,1/2-y,z
loop_
_atom_site_type_symbol
_atom_site_label
_atom_site_fract_x
_atom_site_fract_y
_atom_site_fract_z
Si Si1 0.905721 0.919374 0.011528
Si Si2 0.104430 0.577842 0.228208
Si Si3 0.765838 0.071028 0.455564
Si Si4 0.216736 0.574018 0.990405
Si Si5 0.384154 0.928441 0.552369
Si Si6 0.640729 0.574470 0.711901
Si Si7 0.694530 0.070556 0.137941
Si Si8 0.548905 0.574351 0.844213
O O1 0.877663 0.750000 0.993812
O O2 0.875255 0.982742 0.858387
O O3 0.873106 0.018512 0.075884
O O4 0.005223 0.923019 0.124326
O O5 0.130824 0.750000 0.238273
O O6 0.146798 0.525083 0.390873
O O7 0.768961 0.250000 0.445309
O O8 0.701844 0.037973 0.483302
O O9 0.731930 0.015862 0.297915
O O10 0.224469 0.750000 0.006510
O O11 0.275145 0.500549 0.149840
O O12 0.246337 0.529016 0.900317
O O13 0.391920 0.750000 0.546006
O O14 0.454202 0.973766 0.721072
O O15 0.389850 0.002566 0.437598
O O16 0.650270 0.750000 0.705994
O O17 0.583129 0.552228 0.756276
O O18 0.688758 0.250000 0.135741
O O19 0.605138 0.008627 0.997908
O O20 0.552924 0.750000 0.873008
#
# Coordination Sequence:
#
# PCOD9167772 Si02
#       8
#     4   4   4   4   4   4   4   4
#     4  10  19  31  51  79 106 129 159 199 243 294
#     4   9  18  33  53  76 104 135 161 194 244 296
#     4   9  18  34  53  71  94 127 167 205 242 288
#     4  10  19  32  51  72  96 129 167 203 244 294
#     4  10  19  31  50  74 100 131 164 199 246 302
#     4  10  19  31  48  72 103 131 160 203 248 292
#     4   9  19  35  53  70  91 127 172 210 241 284
#     4   9  19  33  48  71 102 132 161 200 250 295
#
# _framework density 18.418444999999998
#
# number of rings (size 3 to 8) (size 9 to 14) (size 15 to 20)
#    0.000    2.500    0.000    2.250    0.000    3.500 
#    0.000    1.875    0.000    0.000    0.000    0.000 
#    0.000    0.000    0.000    0.000    0.000    0.000 
#
# Total GULP energy -178280.992137 kJ/mol
# GULP energy per Si atom -5571.281004 kJ/mol
# Density = 1.837652 g / cm^3
# Si number density = 18.418445 Si / 1000 Ang^3
#
#
#
# Elastic Constant Matrix: (Units=GPa)
#
#
# Indices 1 2 3 4 5 6 
#
# 1 8.0830 15.3547 16.2158 0.0000 11.9425 0.0000
# 2 15.3547 17.1917 31.4355 0.0000 -2.2071 0.0000
# 3 16.2158 31.4355 147.0798 0.0000 -14.0210 0.0000
# 4 0.0000 0.0000 0.0000 24.1085 0.0000 1.1400
# 5 11.9425 -2.2071 -14.0210 0.0000 9.3098 0.0000
# 6 0.0000 0.0000 0.0000 1.1400 0.0000 16.9468
#
#
#
# Elastic Compliance Matrix: (Units=1/GPa)
#
#
# Indices 1 2 3 4 5 6 
#
# 1 -0.036715 0.037274 0.001650 0.000000 0.058419 0.000000
# 2 0.037274 0.058361 -0.023145 0.000000 -0.068836 0.000000
# 3 0.001650 -0.023145 0.012656 0.000000 0.011457 0.000000
# 4 0.000000 0.000000 0.000000 0.041612 0.000000 -0.002799
# 5 0.058419 -0.068836 0.011457 0.000000 0.033409 0.000000
# 6 0.000000 0.000000 0.000000 -0.002799 0.000000 0.059196
#
#
# Mechanical properties :
#
#
# Convention : Reuss Voigt Hill
#
# Bulk Modulus (GPa) = 15.18370 33.15185 24.16777
# Shear Modulus (GPa) = 31.46336 17.36291 24.41314
#
# Velocity S-wave (km/s) = 4.13759 3.07366 3.64465
# Velocity P-wave (km/s) = 5.57564 5.53488 5.55530
#
# Compressibility (1/GPa) = 0.06586012
#
# Stress axis : x y z
#
# Youngs Moduli (GPa) = -27.23710 17.13474 79.01357
#
# Poissons Ratio (x) = -0.63867 -0.13040
# Poissons Ratio (y) = 1.01523 1.82878
# Poissons Ratio (z) = 0.04495 0.39659
#
# Static dielectric constant tensor:
#      x y z
#    x 1.697100 0.000000 0.054450 
#    y 0.000000 1.632150 0.000000 
#    z 0.054450 0.000000 1.637910 
# 
# From -- ./inp_files/42881.got.cif
#   From: 2010.05.17/outbox.ucp.g08.bks.cvg/sg11_22_cif.got.tgz:42881.got - 2010.06.11 11:38:39.
