data_PCOD9167422
_publ_section_title
;
Structure prediction by ZEFSAII (Michael W. Deem and Ramdas Pophale) SiO2 
 PCOD9167422
Probable space group: P 21/M
;
_chemical_formula_sum "Si O2"
_cell_formula_units_Z 28
_cell_length_a 9.157301
_cell_length_b 8.633664
_cell_length_c 30.098961
_cell_angle_alpha 90.000000
_cell_angle_beta 140.275786
_cell_angle_gamma 90.000000
_cell_volume 1520.821148
_symmetry_space_group_name_H-M "P 21/M"
_symmetry_group_IT_number 11
_symmetry_cell_setting 'monoclinic'
loop_
_space_group_symop_operation_xyz
x,y,z
-x,1/2+y,-z
-x,-y,-z
x,1/2-y,z
loop_
_atom_site_type_symbol
_atom_site_label
_atom_site_fract_x
_atom_site_fract_y
_atom_site_fract_z
Si Si1 0.469704 0.437116 0.850164
Si Si2 0.199030 0.434652 0.149478
Si Si3 0.833484 0.436953 0.999822
Si Si4 0.574256 0.933829 0.564932
Si Si5 0.746804 0.936052 0.433370
Si Si6 0.073573 0.063671 0.697559
Si Si7 0.436797 0.064203 0.705158
O O1 0.489081 0.250000 0.849784
O O2 0.631430 0.513722 0.850757
O O3 0.579517 0.480273 0.923452
O O4 0.212946 0.476117 0.775268
O O5 0.198791 0.250000 0.153270
O O6 0.318429 0.503316 0.220892
O O7 0.948774 0.487420 0.073263
O O8 0.844787 0.250000 0.002033
O O9 0.000000 0.500000 0.000000
O O10 0.547547 0.750000 0.558456
O O11 0.500000 0.000000 0.500000
O O12 0.413697 0.006800 0.564787
O O13 0.834639 0.980185 0.636076
O O14 0.755134 0.750000 0.434798
O O15 0.643316 0.989237 0.361888
O O16 0.000000 0.000000 0.500000
O O17 0.037730 0.250000 0.688113
O O18 0.243020 0.022884 0.696303
O O19 0.449094 0.250000 0.707900
#
# Coordination Sequence:
#
# PCOD9167422 Si02
#       7
#     4   4   4   4   4   4   4
#     4   8  14  25  41  61  93 133 169 206 251 299
#     4   9  15  22  38  65  97 130 167 208 248 292
#     4   8  13  21  34  58  91 128 166 204 247 293
#     4  12  25  40  58  80 106 136 170 211 257 307
#     4  11  23  40  61  83 106 134 169 210 255 308
#     4   9  17  32  53  77 104 136 173 212 255 306
#     4   9  19  34  52  74 103 137 170 205 252 307
#
# _framework density 18.411106
#
# number of rings (size 3 to 8) (size 9 to 14) (size 15 to 20)
#    0.000    2.571    0.000    3.857    0.000    5.143 
#    0.000    0.000    0.000    0.000    0.000    1.000 
#    0.000    0.000    0.000    0.000    0.000    0.000 
#
# Total GULP energy -155966.012172 kJ/mol
# GULP energy per Si atom -5570.214720 kJ/mol
# Density = 1.836920 g / cm^3
# Si number density = 18.411106 Si / 1000 Ang^3
#
#
#
# Elastic Constant Matrix: (Units=GPa)
#
#
# Indices 1 2 3 4 5 6 
#
# 1 51.2934 17.5621 61.6686 0.0000 -6.7074 0.0000
# 2 17.5621 34.3533 43.8719 0.0000 -1.7016 0.0000
# 3 61.6686 43.8719 226.7286 0.0000 -15.6653 0.0000
# 4 0.0000 0.0000 0.0000 29.9759 0.0000 1.8056
# 5 -6.7074 -1.7016 -15.6653 0.0000 16.1811 0.0000
# 6 0.0000 0.0000 0.0000 1.8056 0.0000 18.6111
#
#
#
# Elastic Compliance Matrix: (Units=1/GPa)
#
#
# Indices 1 2 3 4 5 6 
#
# 1 0.030491 -0.006922 -0.006570 0.000000 0.005550 0.000000
# 2 -0.006922 0.040411 -0.006260 0.000000 -0.004680 0.000000
# 3 -0.006570 -0.006260 0.007690 0.000000 0.004063 0.000000
# 4 0.000000 0.000000 0.000000 0.033556 0.000000 -0.003256
# 5 0.005550 -0.004680 0.004063 0.000000 0.067542 0.000000
# 6 0.000000 0.000000 0.000000 -0.003256 0.000000 0.054047
#
#
# Mechanical properties :
#
#
# Convention : Reuss Voigt Hill
#
# Bulk Modulus (GPa) = 25.58414 62.06450 43.82432
# Shear Modulus (GPa) = 17.46599 25.57179 21.51889
#
# Velocity S-wave (km/s) = 3.08338 3.73088 3.42248
# Velocity P-wave (km/s) = 5.15777 7.23484 6.28273
#
# Compressibility (1/GPa) = 0.03908671
#
# Stress axis : x y z
#
# Youngs Moduli (GPa) = 32.79676 24.74591 130.04344
#
# Poissons Ratio (x) = 0.17128 0.85445
# Poissons Ratio (y) = 0.22701 0.81410
# Poissons Ratio (z) = 0.21549 0.15491
#
# Static dielectric constant tensor:
#      x y z
#    x 1.608810 0.000000 -0.010410 
#    y 0.000000 1.615950 0.000000 
#    z -0.010410 0.000000 1.707370 
# 
# From -- ./inp_files/72768.got.cif
#   From: 2010.05.17/outbox.cif.g08.bks.cpg/sg11_37_cif.got.tgz:72768.got - 2010.06.03 12:22:45.
