data_PCOD9167368
_publ_section_title
;
Structure prediction by ZEFSAII (Michael W. Deem and Ramdas Pophale) SiO2 
 PCOD9167368
Probable space group: P 21/M
;
_chemical_formula_sum "Si O2"
_cell_formula_units_Z 20
_cell_length_a 11.013155
_cell_length_b 14.499835
_cell_length_c 16.125747
_cell_angle_alpha 90.000000
_cell_angle_beta 22.948294
_cell_angle_gamma 90.000000
_cell_volume 1004.033466
_symmetry_space_group_name_H-M "P 21/M"
_symmetry_group_IT_number 11
_symmetry_cell_setting 'monoclinic'
loop_
_space_group_symop_operation_xyz
x,y,z
-x,1/2+y,-z
-x,-y,-z
x,1/2-y,z
loop_
_atom_site_type_symbol
_atom_site_label
_atom_site_fract_x
_atom_site_fract_y
_atom_site_fract_z
Si Si1 0.363783 0.476578 0.856217
Si Si2 0.713623 0.086015 0.341678
Si Si3 0.357746 0.354982 0.408667
Si Si4 0.767680 0.355678 0.493633
Si Si5 0.231883 0.513234 0.236505
O O1 0.423189 0.580226 0.786414
O O2 0.462211 0.407739 0.720377
O O3 0.605171 0.463135 0.779763
O O4 0.026225 0.452351 0.102622
O O5 0.521043 0.143592 0.395721
O O6 0.786053 0.136468 0.382521
O O7 0.500000 0.000000 0.500000
O O8 0.321030 0.250000 0.402870
O O9 0.028759 0.409793 0.620524
O O10 0.773931 0.250000 0.515593
O O11 0.047898 0.416525 0.354328
O O12 0.500000 0.500000 0.000000
#
# Coordination Sequence:
#
# PCOD9167368 Si02
#       5
#     4   4   4   4   4
#     4  11  24  43  69  92 134 173 213 268 327 383
#     4  12  22  45  68  92 133 174 213 268 325 383
#     4  11  24  41  66  99 131 170 218 268 323 387
#     4  11  24  40  67  98 128 171 219 264 323 386
#     4  11  22  44  66  93 131 171 213 270 322 377
#
# _framework density 19.919654999999999
#
# number of rings (size 3 to 8) (size 9 to 14) (size 15 to 20)
#    0.000    0.800    6.000    3.600    0.000    5.600 
#    0.000    3.000    0.000    0.000    0.000    0.000 
#    0.000    0.000    0.000    0.000    0.000    0.000 
#
# Total GULP energy -111774.788554 kJ/mol
# GULP energy per Si atom -5588.739428 kJ/mol
# Density = 1.987432 g / cm^3
# Si number density = 19.919655 Si / 1000 Ang^3
#
#
#
# Elastic Constant Matrix: (Units=GPa)
#
#
# Indices 1 2 3 4 5 6 
#
# 1 93.8517 15.8074 40.6500 0.0000 -2.7971 0.0000
# 2 15.8074 174.8820 67.7797 0.0000 2.3740 0.0000
# 3 40.6500 67.7797 150.0155 0.0000 14.9423 0.0000
# 4 0.0000 0.0000 0.0000 2.2816 0.0000 0.4759
# 5 -2.7971 2.3740 14.9423 0.0000 39.5417 0.0000
# 6 0.0000 0.0000 0.0000 0.4759 0.0000 18.4929
#
#
#
# Elastic Compliance Matrix: (Units=1/GPa)
#
#
# Indices 1 2 3 4 5 6 
#
# 1 0.012266 0.000286 -0.003676 0.000000 0.002240 0.000000
# 2 0.000286 0.006963 -0.003308 0.000000 0.000852 0.000000
# 3 -0.003676 -0.003308 0.009521 0.000000 -0.003659 0.000000
# 4 0.000000 0.000000 0.000000 0.440662 0.000000 -0.011341
# 5 0.002240 0.000852 -0.003659 0.000000 0.026780 0.000000
# 6 0.000000 0.000000 0.000000 -0.011341 0.000000 0.054367
#
#
# Mechanical properties :
#
#
# Convention : Reuss Voigt Hill
#
# Bulk Modulus (GPa) = 65.13370 74.13594 69.63482
# Shear Modulus (GPa) = 8.78621 31.69738 20.24179
#
# Velocity S-wave (km/s) = 2.10247 3.99339 3.19120
# Velocity P-wave (km/s) = 6.21796 7.65253 6.97224
#
# Compressibility (1/GPa) = 0.01535304
#
# Stress axis : x y z
#
# Youngs Moduli (GPa) = 81.52709 143.61712 105.02833
#
# Poissons Ratio (x) = -0.04101 0.38606
# Poissons Ratio (y) = -0.02328 0.34746
# Poissons Ratio (z) = 0.29968 0.47512
#
# Static dielectric constant tensor:
#      x y z
#    x 1.742510 0.000000 0.005750 
#    y 0.000000 1.672140 0.000000 
#    z 0.005750 0.000000 1.712110 
# 
# From -- ./inp_files/59298.got.cif
#   From: 2010.05.17/outbox.cif.g08.bks.cpg/sg11_30_cif.got.tgz:59298.got - 2010.06.03 12:22:45.
