data_PCOD9167117
_publ_section_title
;
Structure prediction by ZEFSAII (Michael W. Deem and Ramdas Pophale) SiO2 
 PCOD9167117
Probable space group: P 21/M
;
_chemical_formula_sum "Si O2"
_cell_formula_units_Z 32
_cell_length_a 14.405414
_cell_length_b 18.040388
_cell_length_c 11.331210
_cell_angle_alpha 90.000000
_cell_angle_beta 31.134631
_cell_angle_gamma 90.000000
_cell_volume 1522.583457
_symmetry_space_group_name_H-M "P 21/M"
_symmetry_group_IT_number 11
_symmetry_cell_setting 'monoclinic'
loop_
_space_group_symop_operation_xyz
x,y,z
-x,1/2+y,-z
-x,-y,-z
x,1/2-y,z
loop_
_atom_site_type_symbol
_atom_site_label
_atom_site_fract_x
_atom_site_fract_y
_atom_site_fract_z
Si Si1 0.073644 0.903848 0.540289
Si Si2 0.319656 0.163444 0.358707
Si Si3 0.243900 0.837175 0.708794
Si Si4 0.495389 0.582745 0.058871
Si Si5 0.622102 0.400025 0.192494
Si Si6 0.987258 0.076442 0.661075
Si Si7 0.886106 0.664097 0.967191
Si Si8 0.555457 0.930186 0.262454
O O1 0.288187 0.894522 0.300759
O O2 0.999609 0.896042 0.488297
O O3 0.984564 0.852027 0.735031
O O4 0.032193 0.989401 0.618431
O O5 0.286150 0.250000 0.390941
O O6 0.460963 0.143230 0.306298
O O7 0.134464 0.119683 0.576031
O O8 0.406785 0.134897 0.141244
O O9 0.277386 0.750000 0.648760
O O10 0.299281 0.858071 0.780567
O O11 0.369821 0.889459 0.492843
O O12 0.036444 0.851325 0.902425
O O13 0.586190 0.578903 0.088410
O O14 0.500000 0.500000 0.000000
O O15 0.555782 0.483245 0.292932
O O16 0.786646 0.409928 0.922908
O O17 0.831758 0.750000 0.033308
O O18 0.714169 0.611422 0.158579
#
# Coordination Sequence:
#
# PCOD9167117 Si02
#       8
#     4   4   4   4   4   4   4   4
#     4  11  20  41  68  97 135 173 215 272 336 406
#     4  12  27  42  66 104 141 180 226 276 343 414
#     4  11  27  47  65  95 139 179 226 287 342 393
#     4  12  21  41  70 100 140 173 217 278 340 403
#     4  12  25  46  71  97 133 181 234 280 332 407
#     4  11  23  41  69  98 135 177 218 272 339 401
#     4  11  25  43  66 100 135 172 225 285 343 397
#     4  12  23  43  75 100 129 178 229 284 337 407
#
# _framework density 21.016911
#
# number of rings (size 3 to 8) (size 9 to 14) (size 15 to 20)
#    0.000    0.500    6.250    1.875    0.000    5.500 
#    0.000    1.250    0.000    0.000    0.000    0.000 
#    0.000    0.000    0.000    0.000    0.000    0.000 
#
# Total GULP energy -179164.663510 kJ/mol
# GULP energy per Si atom -5598.895735 kJ/mol
# Density = 2.096908 g / cm^3
# Si number density = 21.016911 Si / 1000 Ang^3
#
#
#
# Elastic Constant Matrix: (Units=GPa)
#
#
# Indices 1 2 3 4 5 6 
#
# 1 106.4290 19.6808 -2.4334 0.0000 -10.4343 0.0000
# 2 19.6808 43.4795 1.3631 0.0000 -3.5254 0.0000
# 3 -2.4334 1.3631 14.6452 0.0000 -14.7527 0.0000
# 4 0.0000 0.0000 0.0000 13.6631 0.0000 -10.1002
# 5 -10.4343 -3.5254 -14.7527 0.0000 30.8899 0.0000
# 6 0.0000 0.0000 0.0000 -10.1002 0.0000 23.8582
#
#
#
# Elastic Compliance Matrix: (Units=1/GPa)
#
#
# Indices 1 2 3 4 5 6 
#
# 1 0.011364 -0.004797 0.010889 0.000000 0.008492 0.000000
# 2 -0.004797 0.025246 -0.003616 0.000000 -0.000466 0.000000
# 3 0.010889 -0.003616 0.142063 0.000000 0.071113 0.000000
# 4 0.000000 0.000000 0.000000 0.106527 0.000000 0.045097
# 5 0.008492 -0.000466 0.071113 0.000000 0.069151 0.000000
# 6 0.000000 0.000000 0.000000 0.045097 0.000000 0.061006
#
#
# Mechanical properties :
#
#
# Convention : Reuss Voigt Hill
#
# Bulk Modulus (GPa) = 5.44590 22.41938 13.93264
# Shear Modulus (GPa) = 10.60188 23.41179 17.00684
#
# Velocity S-wave (km/s) = 2.24842 3.34121 2.84773
# Velocity P-wave (km/s) = 3.05571 5.05721 4.17808
#
# Compressibility (1/GPa) = 0.18362444
#
# Stress axis : x y z
#
# Youngs Moduli (GPa) = 87.99359 39.60986 7.03914
#
# Poissons Ratio (x) = 0.19000 -0.07665
# Poissons Ratio (y) = 0.42210 0.02546
# Poissons Ratio (z) = -0.95814 0.14325
#
# Static dielectric constant tensor:
#      x y z
#    x 1.758220 0.000000 0.014130 
#    y 0.000000 1.694440 0.000000 
#    z 0.014130 0.000000 1.756170 
# 
# From -- ./inp_files/39937.got.cif
#   From: 2010.05.17/outbox.cif.g08.bks.cpg/sg11_20_cif.got.tgz:39937.got - 2010.06.03 12:22:45.
