data_PCOD9167394
_publ_section_title
;
Structure prediction by ZEFSAII (Michael W. Deem and Ramdas Pophale) SiO2 
 PCOD9167394
Probable space group: P 21/M
;
_chemical_formula_sum "Si O2"
_cell_formula_units_Z 28
_cell_length_a 18.982186
_cell_length_b 8.423585
_cell_length_c 17.161518
_cell_angle_alpha 90.000000
_cell_angle_beta 148.571228
_cell_angle_gamma 90.000000
_cell_volume 1430.875091
_symmetry_space_group_name_H-M "P 21/M"
_symmetry_group_IT_number 11
_symmetry_cell_setting 'monoclinic'
loop_
_space_group_symop_operation_xyz
x,y,z
-x,1/2+y,-z
-x,-y,-z
x,1/2-y,z
loop_
_atom_site_type_symbol
_atom_site_label
_atom_site_fract_x
_atom_site_fract_y
_atom_site_fract_z
Si Si1 0.218006 0.439208 0.532659
Si Si2 0.856128 0.558744 0.832010
Si Si3 0.254870 0.058124 0.114907
Si Si4 0.506635 0.559941 0.771764
Si Si5 0.602482 0.441705 0.029951
Si Si6 0.848716 0.438470 0.361801
Si Si7 0.031686 0.057736 0.220720
O O1 0.209558 0.250000 0.532431
O O2 0.359036 0.484258 0.625867
O O3 0.213312 0.511646 0.614038
O O4 0.093136 0.494138 0.361044
O O5 0.852527 0.750000 0.828381
O O6 0.752557 0.504676 0.801380
O O7 0.862616 0.508290 0.748058
O O8 0.000000 0.500000 0.000000
O O9 0.254991 0.250000 0.114188
O O10 0.386108 0.003883 0.191734
O O11 0.116593 0.004100 0.941742
O O12 0.493978 0.750000 0.755308
O O13 0.563928 0.513437 0.910661
O O14 0.595996 0.250000 0.018930
O O15 0.750702 0.492671 0.199672
O O16 0.500000 0.500000 0.000000
O O17 0.851806 0.250000 0.360863
O O18 0.000000 0.500000 0.500000
O O19 0.024789 0.250000 0.214420
#
# Coordination Sequence:
#
# PCOD9167394 Si02
#       7
#     4   4   4   4   4   4   4
#     4  11  23  39  57  81 113 149 186 228 280 331
#     4   8  14  30  53  78 109 142 178 223 271 322
#     4   9  19  34  56  84 111 143 184 227 273 326
#     4  11  23  38  56  82 113 148 188 229 277 331
#     4  11  23  40  62  84 109 146 188 227 273 328
#     4  11  25  42  61  85 113 145 184 228 276 330
#     4   9  19  34  56  83 111 144 183 227 276 327
#
# _framework density 19.568444
#
# number of rings (size 3 to 8) (size 9 to 14) (size 15 to 20)
#    0.000    2.000    1.429    1.714    2.000    4.000 
#    0.000    0.714    0.000    0.000    0.000    0.000 
#    0.000    0.000    0.000    0.000    0.000    0.000 
#
# Total GULP energy -156220.398307 kJ/mol
# GULP energy per Si atom -5579.299940 kJ/mol
# Density = 1.952391 g / cm^3
# Si number density = 19.568444 Si / 1000 Ang^3
#
#
#
# Elastic Constant Matrix: (Units=GPa)
#
#
# Indices 1 2 3 4 5 6 
#
# 1 45.9520 -13.0829 -17.0250 0.0000 21.3383 0.0000
# 2 -13.0829 6.4127 -0.2880 0.0000 -0.4914 0.0000
# 3 -17.0250 -0.2880 49.2101 0.0000 11.7229 0.0000
# 4 0.0000 0.0000 0.0000 25.7855 0.0000 4.6791
# 5 21.3383 -0.4914 11.7229 0.0000 32.9247 0.0000
# 6 0.0000 0.0000 0.0000 4.6791 0.0000 23.1090
#
#
#
# Elastic Compliance Matrix: (Units=1/GPa)
#
#
# Indices 1 2 3 4 5 6 
#
# 1 -0.142376 -0.285108 -0.078556 0.000000 0.115988 0.000000
# 2 -0.285108 -0.414804 -0.156918 0.000000 0.234457 0.000000
# 3 -0.078556 -0.156918 -0.021139 0.000000 0.056096 0.000000
# 4 0.000000 0.000000 0.000000 0.040261 0.000000 -0.008152
# 5 0.115988 0.234457 0.056096 0.000000 -0.061273 0.000000
# 6 0.000000 0.000000 0.000000 -0.008152 0.000000 0.044924
#
#
# Mechanical properties :
#
#
# Convention : Reuss Voigt Hill
#
# Bulk Modulus (GPa) = -0.61748 4.53144 1.95698
# Shear Modulus (GPa) = -94.21546 25.16190 -34.52678
#
# Velocity S-wave (km/s) = -6.94630 3.58975 -4.20505
# Velocity P-wave (km/s) = 8.04059 4.41616 4.75124
#
# Compressibility (1/GPa) = -1.61948273
#
# Stress axis : x y z
#
# Youngs Moduli (GPa) = -7.02368 -2.41078 -47.30682
#
# Poissons Ratio (x) = -0.68733 -3.71626
# Poissons Ratio (y) = -2.00251 -7.42328
# Poissons Ratio (z) = -0.55176 -0.37829
#
# Static dielectric constant tensor:
#      x y z
#    x 1.718640 0.000000 -0.000520 
#    y 0.000000 1.783670 0.000000 
#    z -0.000520 0.000000 1.668090 
# 
# From -- ./inp_files/60872.got.cif
#   From: 2010.05.17/outbox.cif.g08.bks.cpg/sg11_31_cif.got.tgz:60872.got - 2010.06.03 12:22:45.
