data_PCOD9167739
_publ_section_title
;
Structure prediction by ZEFSAII (Michael W. Deem and Ramdas Pophale) SiO2 
 PCOD9167739
Probable space group: P 21/M
;
_chemical_formula_sum "Si O2"
_cell_formula_units_Z 32
_cell_length_a 9.000000
_cell_length_b 15.000000
_cell_length_c 12.000000
_cell_angle_alpha 90.000000
_cell_angle_beta 90.000000
_cell_angle_gamma 90.000000
_cell_volume 1620.000000
_symmetry_space_group_name_H-M "P 21/M"
_symmetry_group_IT_number 11
_symmetry_cell_setting 'monoclinic'
loop_
_space_group_symop_operation_xyz
x,y,z
-x,1/2+y,-z
-x,-y,-z
x,1/2-y,z
loop_
_atom_site_type_symbol
_atom_site_label
_atom_site_fract_x
_atom_site_fract_y
_atom_site_fract_z
Si Si1 0.394996 0.650996 0.710400
Si Si2 0.880500 0.151465 0.712434
Si Si3 0.278920 0.546342 0.095151
Si Si4 0.840178 0.906108 0.198824
Si Si5 0.516867 0.958485 0.254217
Si Si6 0.186966 0.154065 0.048767
Si Si7 0.362202 0.648111 0.448397
Si Si8 0.867342 0.105577 0.130133
O O1 0.458787 0.750000 0.725694
O O2 0.487115 0.565514 0.748949
O O3 0.374144 0.634487 0.578875
O O4 0.239082 0.646869 0.776731
O O5 0.838253 0.250000 0.754118
O O6 0.817542 0.081174 0.800732
O O7 0.807186 0.140954 0.592879
O O8 0.054418 0.140556 0.713730
O O9 0.441338 0.571372 0.138644
O O10 0.262831 0.440241 0.078422
O O11 0.225550 0.595541 0.984417
O O12 0.682040 0.924024 0.250209
O O13 0.898829 0.003997 0.165534
O O14 0.834754 0.851811 0.084447
O O15 0.444293 0.919195 0.365478
O O16 0.257529 0.250000 0.076744
O O17 0.023593 0.150372 0.104332
O O18 0.412494 0.750000 0.424646
#
# Coordination Sequence:
#
# PCOD9167739 Si02
#       8
#     4   4   4   4   4   4   4   4
#     4  10  21  37  58  81 112 152 192 222 271 338
#     4  10  18  33  59  82 107 142 185 237 281 317
#     4  10  20  37  55  84 116 144 186 224 272 336
#     4  10  19  33  53  85 110 140 183 231 278 329
#     4  10  22  37  60  82 115 148 183 231 282 323
#     4  11  20  32  55  83 118 149 179 227 277 328
#     4   9  20  38  59  82 109 146 190 235 276 325
#     4  10  19  34  55  81 111 146 182 228 276 325
#
# _framework density 19.753086
#
# number of rings (size 3 to 8) (size 9 to 14) (size 15 to 20)
#    0.000    2.000    2.500    1.875    0.000    6.500 
#    0.000    2.500    2.750    0.000    0.000    0.000 
#    0.000    0.000    0.000    0.000    0.000    0.000 
#
# Total GULP energy -178216.942659 kJ/mol
# GULP energy per Si atom -5569.279458 kJ/mol
# Density = 1.970813 g / cm^3
# Si number density = 19.753086 Si / 1000 Ang^3
#
#
#
# Elastic Constant Matrix: (Units=GPa)
#
#
# Indices 1 2 3 4 5 6 
#
# 1 38.3867 16.4312 40.0469 0.0000 17.8391 0.0000
# 2 16.4312 30.6092 -17.0288 0.0000 -11.1851 0.0000
# 3 40.0469 -17.0288 7.1145 0.0000 -19.7885 0.0000
# 4 0.0000 0.0000 0.0000 68.9674 0.0000 -15.4058
# 5 17.8391 -11.1851 -19.7885 0.0000 7.0277 0.0000
# 6 0.0000 0.0000 0.0000 -15.4058 0.0000 7.7174
#
#
#
# Elastic Compliance Matrix: (Units=1/GPa)
#
#
# Indices 1 2 3 4 5 6 
#
# 1 0.007857 0.005811 0.008792 0.000000 0.014061 0.000000
# 2 0.005811 0.020625 -0.009797 0.000000 -0.009510 0.000000
# 3 0.008792 -0.009797 0.005536 0.000000 -0.022322 0.000000
# 4 0.000000 0.000000 0.000000 0.026169 0.000000 0.052239
# 5 0.014061 -0.009510 -0.022322 0.000000 0.028614 0.000000
# 6 0.000000 0.000000 0.000000 0.052239 0.000000 0.233859
#
#
# Mechanical properties :
#
#
# Convention : Reuss Voigt Hill
#
# Bulk Modulus (GPa) = 22.91964 17.22321 20.07143
# Shear Modulus (GPa) = 15.26302 19.18659 17.22480
#
# Velocity S-wave (km/s) = 2.78275 3.11998 2.95618
# Velocity P-wave (km/s) = 4.68542 4.66018 4.67282
#
# Compressibility (1/GPa) = 0.04363070
#
# Stress axis : x y z
#
# Youngs Moduli (GPa) = 127.27477 48.48463 180.65037
#
# Poissons Ratio (x) = -0.28176 -1.58823
# Poissons Ratio (y) = -0.73964 1.76975
# Poissons Ratio (z) = -1.11896 0.47498
#
# Static dielectric constant tensor:
#      x y z
#    x 1.766580 0.000000 0.022790 
#    y 0.000000 1.760070 0.000000 
#    z 0.022790 0.000000 1.653380 
# 
# From -- ./inp_files/31872.got.cif
#   From: 2010.05.17/outbox.ucp.g08.bks.cvg/sg11_16_cif.got.tgz:31872.got - 2010.06.11 11:38:39.
