data_PCOD9167869
_publ_section_title
;
Structure prediction by ZEFSAII (Michael W. Deem and Ramdas Pophale) SiO2 
 PCOD9167869
Probable space group: P 21/M
;
_chemical_formula_sum "Si O2"
_cell_formula_units_Z 28
_cell_length_a 9.000000
_cell_length_b 15.000000
_cell_length_c 18.000000
_cell_angle_alpha 90.000000
_cell_angle_beta 40.000000
_cell_angle_gamma 90.000000
_cell_volume 1561.973892
_symmetry_space_group_name_H-M "P 21/M"
_symmetry_group_IT_number 11
_symmetry_cell_setting 'monoclinic'
loop_
_space_group_symop_operation_xyz
x,y,z
-x,1/2+y,-z
-x,-y,-z
x,1/2-y,z
loop_
_atom_site_type_symbol
_atom_site_label
_atom_site_fract_x
_atom_site_fract_y
_atom_site_fract_z
Si Si1 0.809227 0.356222 0.322847
Si Si2 0.070948 0.009266 0.324488
Si Si3 0.955998 0.649559 0.916202
Si Si4 0.284119 0.352024 0.521564
Si Si5 0.686363 0.154930 0.092147
Si Si6 0.448321 0.484895 0.934675
Si Si7 0.777673 0.652019 0.630847
O O1 0.837861 0.250000 0.321305
O O2 0.544852 0.376219 0.444725
O O3 0.987498 0.412747 0.301700
O O4 0.867037 0.380503 0.215703
O O5 0.321391 0.976783 0.202247
O O6 0.897012 0.927094 0.386814
O O7 0.086017 0.064236 0.395713
O O8 0.894046 0.750000 0.920224
O O9 0.093736 0.649021 0.939600
O O10 0.725370 0.594954 0.008726
O O11 0.233006 0.250000 0.565877
O O12 0.280156 0.350471 0.433465
O O13 0.681495 0.250000 0.054598
O O14 0.459055 0.151003 0.231271
O O15 0.682087 0.073224 0.040359
O O16 0.500000 0.500000 0.000000
O O17 0.889520 0.750000 0.602809
#
# Coordination Sequence:
#
# PCOD9167869 Si02
#       7
#     4   4   4   4   4   4   4
#     4  10  19  34  56  77  99 132 178 222 257 302
#     4  11  21  33  52  79 110 136 170 211 270 314
#     4  10  19  35  56  75 100 140 180 218 259 304
#     4  10  20  35  54  75 103 138 173 210 259 318
#     4   9  18  34  57  78 100 136 180 220 257 300
#     4  11  22  34  50  81 113 138 171 216 263 313
#     4   9  17  32  54  80 103 128 171 221 260 301
#
# _framework density 17.926036
#
# number of rings (size 3 to 8) (size 9 to 14) (size 15 to 20)
#    0.000    2.000    2.857    1.714    0.000    1.714 
#    0.000    0.000    0.000    0.000    0.000    0.000 
#    0.000    0.000    0.000    0.000    0.000    0.000 
#
# Total GULP energy -155912.841176 kJ/mol
# GULP energy per Si atom -5568.315756 kJ/mol
# Density = 1.788524 g / cm^3
# Si number density = 17.926036 Si / 1000 Ang^3
#
#
#
# Elastic Constant Matrix: (Units=GPa)
#
#
# Indices 1 2 3 4 5 6 
#
# 1 24.5244 27.1650 11.1930 0.0000 -10.3726 0.0000
# 2 27.1650 36.0593 33.5700 0.0000 -24.9219 0.0000
# 3 11.1930 33.5700 33.5446 0.0000 -19.8275 0.0000
# 4 0.0000 0.0000 0.0000 22.8792 0.0000 -9.4726
# 5 -10.3726 -24.9219 -19.8275 0.0000 26.1803 0.0000
# 6 0.0000 0.0000 0.0000 -9.4726 0.0000 35.9019
#
#
#
# Elastic Compliance Matrix: (Units=1/GPa)
#
#
# Indices 1 2 3 4 5 6 
#
# 1 -0.003382 0.072864 -0.057182 0.000000 0.024715 0.000000
# 2 0.072864 -0.098587 0.065069 0.000000 -0.015700 0.000000
# 3 -0.057182 0.065069 0.012663 0.000000 0.048876 0.000000
# 4 0.000000 0.000000 0.000000 0.049068 0.000000 0.012946
# 5 0.024715 -0.015700 0.048876 0.000000 0.070059 0.000000
# 6 0.000000 0.000000 0.000000 0.012946 0.000000 0.031270
#
#
# Mechanical properties :
#
#
# Convention : Reuss Voigt Hill
#
# Bulk Modulus (GPa) = 13.85140 26.44269 20.14704
# Shear Modulus (GPa) = -65.49010 18.47232 -23.50889
#
# Velocity S-wave (km/s) = -6.05085 3.21358 -3.62531
# Velocity P-wave (km/s) = 6.40885 5.34345 2.50208
#
# Compressibility (1/GPa) = 0.07219487
#
# Stress axis : x y z
#
# Youngs Moduli (GPa) = -295.65908 -10.14330 78.97278
#
# Poissons Ratio (x) = 0.73908 4.51582
# Poissons Ratio (y) = 21.54292 -5.13867
# Poissons Ratio (z) = -16.90638 0.66001
#
# Static dielectric constant tensor:
#      x y z
#    x 1.642800 0.000000 0.002460 
#    y 0.000000 1.607500 0.000000 
#    z 0.002460 0.000000 1.585160 
# 
# From -- ./inp_files/17682.got.cif
#   From: 2010.05.17/outbox.ucp.g08.bks.cvg/sg11_9_cif.got.tgz:17682.got - 2010.06.11 11:38:39.
