data_PCOD9167172
_publ_section_title
;
Structure prediction by ZEFSAII (Michael W. Deem and Ramdas Pophale) SiO2 
 PCOD9167172
Probable space group: P 21/M
;
_chemical_formula_sum "Si O2"
_cell_formula_units_Z 20
_cell_length_a 9.859104
_cell_length_b 8.544647
_cell_length_c 19.728719
_cell_angle_alpha 90.000000
_cell_angle_beta 41.449820
_cell_angle_gamma 90.000000
_cell_volume 1100.182510
_symmetry_space_group_name_H-M "P 21/M"
_symmetry_group_IT_number 11
_symmetry_cell_setting 'monoclinic'
loop_
_space_group_symop_operation_xyz
x,y,z
-x,1/2+y,-z
-x,-y,-z
x,1/2-y,z
loop_
_atom_site_type_symbol
_atom_site_label
_atom_site_fract_x
_atom_site_fract_y
_atom_site_fract_z
Si Si1 0.672530 0.562469 0.884988
Si Si2 0.874602 0.937187 0.276820
Si Si3 0.294775 0.562812 0.276890
Si Si4 0.160377 0.937231 0.559783
Si Si5 0.505912 0.063392 0.329394
O O1 0.675848 0.750000 0.882759
O O2 0.637837 0.498984 0.821902
O O3 0.896453 0.499032 0.821951
O O4 0.500000 0.500000 0.000000
O O5 0.876038 0.750000 0.281364
O O6 0.808528 0.007697 0.374419
O O7 0.715686 0.993585 0.280081
O O8 0.279716 0.750000 0.281455
O O9 0.443894 0.506374 0.280153
O O10 0.068070 0.492295 0.374467
O O11 0.174078 0.750000 0.550652
O O12 0.327259 0.013503 0.448537
O O13 0.518284 0.250000 0.321157
#
# Coordination Sequence:
#
# PCOD9167172 Si02
#       5
#     4   4   4   4   4
#     4  11  22  41  65  88 111 145 186 231 281 336
#     4  11  22  38  58  85 115 149 190 235 280 333
#     4  11  22  38  58  85 115 149 190 235 280 333
#     4  11  21  36  56  82 115 156 195 231 274 332
#     4  12  23  37  55  82 118 155 189 232 282 334
#
# _framework density 18.178802999999998
#
# number of rings (size 3 to 8) (size 9 to 14) (size 15 to 20)
#    0.000    0.800    0.000   12.600    0.000    0.000 
#    0.000    1.000    0.000    0.000    0.000    0.000 
#    0.000    0.000    0.000    0.000    0.000    0.000 
#
# Total GULP energy -111931.989260 kJ/mol
# GULP energy per Si atom -5596.599463 kJ/mol
# Density = 1.813743 g / cm^3
# Si number density = 18.178803 Si / 1000 Ang^3
#
#
#
# Elastic Constant Matrix: (Units=GPa)
#
#
# Indices 1 2 3 4 5 6 
#
# 1 160.8537 21.6202 52.4416 0.0000 10.1463 0.0000
# 2 21.6202 128.6153 7.9166 0.0000 0.9025 0.0000
# 3 52.4416 7.9166 111.2365 0.0000 -7.2387 0.0000
# 4 0.0000 0.0000 0.0000 31.8372 0.0000 0.2234
# 5 10.1463 0.9025 -7.2387 0.0000 -14.6728 0.0000
# 6 0.0000 0.0000 0.0000 0.2234 0.0000 34.8153
#
#
#
# Elastic Compliance Matrix: (Units=1/GPa)
#
#
# Indices 1 2 3 4 5 6 
#
# 1 0.006877 -0.001028 -0.002775 0.000000 0.006061 0.000000
# 2 -0.001028 0.007955 -0.000093 0.000000 -0.000176 0.000000
# 3 -0.002775 -0.000093 0.009863 0.000000 -0.006790 0.000000
# 4 0.000000 0.000000 0.000000 0.031411 0.000000 -0.000202
# 5 0.006061 -0.000176 -0.006790 0.000000 -0.060623 0.000000
# 6 0.000000 0.000000 0.000000 -0.000202 0.000000 0.028724
#
#
# Mechanical properties :
#
#
# Convention : Reuss Voigt Hill
#
# Bulk Modulus (GPa) = 59.15806 62.74027 60.94917
# Shear Modulus (GPa) = 132.86213 31.64441 82.25327
#
# Velocity S-wave (km/s) = 8.55833 4.17673 6.73387
# Velocity P-wave (km/s) = 11.41372 7.60578 9.69848
#
# Compressibility (1/GPa) = 0.01690387
#
# Stress axis : x y z
#
# Youngs Moduli (GPa) = 145.40733 125.70938 101.39225
#
# Poissons Ratio (x) = 0.12921 0.28133
# Poissons Ratio (y) = 0.14945 0.00943
# Poissons Ratio (z) = 0.40345 0.01169
#
# Static dielectric constant tensor:
#      x y z
#    x 1.618640 0.000000 0.002020 
#    y 0.000000 1.600860 0.000000 
#    z 0.002020 0.000000 1.591770 
# 
# From -- ./inp_files/25672.got.cif
#   From: 2010.05.17/outbox.cif.g08.bks.cpg/sg11_13_cif.got.tgz:25672.got - 2010.06.03 12:22:45.
