data_PCOD9167222
_publ_section_title
;
Structure prediction by ZEFSAII (Michael W. Deem and Ramdas Pophale) SiO2 
 PCOD9167222
Probable space group: P 21/M
;
_chemical_formula_sum "Si O2"
_cell_formula_units_Z 28
_cell_length_a 6.582683
_cell_length_b 16.837499
_cell_length_c 14.124880
_cell_angle_alpha 90.000000
_cell_angle_beta 57.859175
_cell_angle_gamma 90.000000
_cell_volume 1325.613571
_symmetry_space_group_name_H-M "P 21/M"
_symmetry_group_IT_number 11
_symmetry_cell_setting 'monoclinic'
loop_
_space_group_symop_operation_xyz
x,y,z
-x,1/2+y,-z
-x,-y,-z
x,1/2-y,z
loop_
_atom_site_type_symbol
_atom_site_label
_atom_site_fract_x
_atom_site_fract_y
_atom_site_fract_z
Si Si1 0.670609 0.659186 0.038754
Si Si2 0.784561 0.432934 0.872135
Si Si3 0.940836 0.155022 0.343325
Si Si4 0.103311 0.924368 0.849307
Si Si5 0.394833 0.947072 0.442770
Si Si6 0.246621 0.160332 0.760347
Si Si7 0.649622 0.542034 0.731396
O O1 0.615424 0.750000 0.027012
O O2 0.478254 0.600324 0.037362
O O3 0.661130 0.650910 0.154722
O O4 0.942810 0.639317 0.943617
O O5 0.936000 0.496947 0.894605
O O6 0.750780 0.479360 0.781920
O O7 0.965643 0.359223 0.822179
O O8 0.917445 0.250000 0.344389
O O9 0.788804 0.115413 0.465816
O O10 0.864153 0.111556 0.264473
O O11 0.212817 0.124976 0.290404
O O12 0.367361 0.945581 0.818408
O O13 0.611280 0.900195 0.339910
O O14 0.500000 0.000000 0.500000
O O15 0.299488 0.004853 0.384138
O O16 0.294245 0.250000 0.718862
#
# Coordination Sequence:
#
# PCOD9167222 Si02
#       7
#     4   4   4   4   4   4   4
#     4  11  24  41  64  94 134 171 213 271 328 383
#     4  11  21  42  66  96 126 167 220 264 319 388
#     4  11  25  41  65  98 130 167 216 270 325 383
#     4  11  23  43  67  94 130 173 217 267 321 392
#     4  12  21  46  67  92 127 170 220 264 320 389
#     4  11  24  42  65  98 133 168 214 271 329 381
#     4  11  23  44  67  93 129 171 216 262 320 390
#
# _framework density 21.122292999999999
#
# number of rings (size 3 to 8) (size 9 to 14) (size 15 to 20)
#    0.000    0.857    4.286    3.000    0.000    5.714 
#    0.000    2.857    0.000    0.000    0.000    0.000 
#    0.000    0.000    0.000    0.000    0.000    0.000 
#
# Total GULP energy -156553.202271 kJ/mol
# GULP energy per Si atom -5591.185795 kJ/mol
# Density = 2.107422 g / cm^3
# Si number density = 21.122293 Si / 1000 Ang^3
#
#
#
# Elastic Constant Matrix: (Units=GPa)
#
#
# Indices 1 2 3 4 5 6 
#
# 1 86.7746 20.8195 0.2542 0.0000 -14.5018 0.0000
# 2 20.8195 84.6344 -4.3881 0.0000 -8.5813 0.0000
# 3 0.2542 -4.3881 50.6028 0.0000 -12.1513 0.0000
# 4 0.0000 0.0000 0.0000 34.8513 0.0000 -4.3469
# 5 -14.5018 -8.5813 -12.1513 0.0000 28.8879 0.0000
# 6 0.0000 0.0000 0.0000 -4.3469 0.0000 27.5804
#
#
#
# Elastic Compliance Matrix: (Units=1/GPa)
#
#
# Indices 1 2 3 4 5 6 
#
# 1 0.013198 -0.002533 0.001251 0.000000 0.006399 0.000000
# 2 -0.002533 0.012881 0.001939 0.000000 0.003370 0.000000
# 3 0.001251 0.001939 0.022484 0.000000 0.010661 0.000000
# 4 0.000000 0.000000 0.000000 0.029269 0.000000 0.004613
# 5 0.006399 0.003370 0.010661 0.000000 0.043314 0.000000
# 6 0.000000 0.000000 0.000000 0.004613 0.000000 0.036985
#
#
# Mechanical properties :
#
#
# Convention : Reuss Voigt Hill
#
# Bulk Modulus (GPa) = 20.04981 28.37586 24.21283
# Shear Modulus (GPa) = 28.82815 31.95234 30.39025
#
# Velocity S-wave (km/s) = 3.69836 3.89360 3.79723
# Velocity P-wave (km/s) = 5.26782 5.80317 5.54196
#
# Compressibility (1/GPa) = 0.04987579
#
# Stress axis : x y z
#
# Youngs Moduli (GPa) = 75.77183 77.63453 44.47661
#
# Poissons Ratio (x) = 0.19664 -0.05562
# Poissons Ratio (y) = 0.19192 -0.08624
# Poissons Ratio (z) = -0.09476 -0.15054
#
# Static dielectric constant tensor:
#      x y z
#    x 1.762440 0.000000 0.003300 
#    y 0.000000 1.758760 0.000000 
#    z 0.003300 0.000000 1.777250 
# 
# From -- ./inp_files/6765.got.cif
#   From: 2010.05.17/outbox.cif.g08.bks.cpg/sg11_4_cif.got.tgz:6765.got - 2010.06.03 12:22:45.
