data_PCOD9167838
_publ_section_title
;
Structure prediction by ZEFSAII (Michael W. Deem and Ramdas Pophale) SiO2 
 PCOD9167838
Probable space group: P 21/M
;
_chemical_formula_sum "Si O2"
_cell_formula_units_Z 24
_cell_length_a 12.000000
_cell_length_b 18.000000
_cell_length_c 12.000000
_cell_angle_alpha 90.000000
_cell_angle_beta 30.000000
_cell_angle_gamma 90.000000
_cell_volume 1296.000000
_symmetry_space_group_name_H-M "P 21/M"
_symmetry_group_IT_number 11
_symmetry_cell_setting 'monoclinic'
loop_
_space_group_symop_operation_xyz
x,y,z
-x,1/2+y,-z
-x,-y,-z
x,1/2-y,z
loop_
_atom_site_type_symbol
_atom_site_label
_atom_site_fract_x
_atom_site_fract_y
_atom_site_fract_z
Si Si1 0.108006 0.661997 0.270446
Si Si2 0.525555 0.077557 0.920273
Si Si3 0.987443 0.045390 0.845388
Si Si4 0.103254 0.167047 0.304002
Si Si5 0.659627 0.954614 0.278916
Si Si6 0.262708 0.589488 0.495503
O O1 0.104215 0.750000 0.245857
O O2 0.347280 0.635314 0.109626
O O3 0.048168 0.607856 0.218811
O O4 0.957762 0.651730 0.513040
O O5 0.661842 0.062598 0.691045
O O6 0.284948 0.110088 0.104194
O O7 0.500000 0.000000 0.000000
O O8 0.139191 0.074369 0.817675
O O9 0.119370 0.975263 0.677982
O O10 0.766975 0.010090 0.093727
O O11 0.191125 0.250000 0.221974
O O12 0.892004 0.158057 0.405200
O O13 0.489722 0.897657 0.367454
O O14 0.500000 0.000000 0.500000
#
# Coordination Sequence:
#
# PCOD9167838 Si02
#       6
#     4   4   4   4   4   4
#     4  10  21  35  52  79 112 142 173 213 270 332
#     4  11  20  32  54  80 105 138 178 219 262 317
#     4  10  19  35  56  79 108 141 180 229 273 314
#     4  10  21  35  51  76 112 145 173 216 272 327
#     4   9  19  34  56  79 102 134 179 227 268 311
#     4  10  19  33  54  79 102 135 181 222 263 315
#
# _framework density 18.518519000000001
#
# number of rings (size 3 to 8) (size 9 to 14) (size 15 to 20)
#    0.000    2.000    0.000    4.500    0.000    4.667 
#    0.000    0.833    0.000   13.000    0.000    0.000 
#    0.000    0.000    0.000    0.000    0.000    0.000 
#
# Total GULP energy -133671.703660 kJ/mol
# GULP energy per Si atom -5569.654319 kJ/mol
# Density = 1.847637 g / cm^3
# Si number density = 18.518519 Si / 1000 Ang^3
#
#
#
# Elastic Constant Matrix: (Units=GPa)
#
#
# Indices 1 2 3 4 5 6 
#
# 1 87.9775 26.1622 17.1867 0.0000 3.8681 0.0000
# 2 26.1622 56.3331 38.6204 0.0000 9.6678 0.0000
# 3 17.1867 38.6204 82.1900 0.0000 1.3356 0.0000
# 4 0.0000 0.0000 0.0000 18.3521 0.0000 -2.3603
# 5 3.8681 9.6678 1.3356 0.0000 22.8485 0.0000
# 6 0.0000 0.0000 0.0000 -2.3603 0.0000 24.9408
#
#
#
# Elastic Compliance Matrix: (Units=1/GPa)
#
#
# Indices 1 2 3 4 5 6 
#
# 1 0.013194 -0.006354 0.000219 0.000000 0.000442 0.000000
# 2 -0.006354 0.031957 -0.013498 0.000000 -0.011657 0.000000
# 3 0.000219 -0.013498 0.018389 0.000000 0.004599 0.000000
# 4 0.000000 0.000000 0.000000 0.055161 0.000000 0.005220
# 5 0.000442 -0.011657 0.004599 0.000000 0.048355 0.000000
# 6 0.000000 0.000000 0.000000 0.005220 0.000000 0.040589
#
#
# Mechanical properties :
#
#
# Convention : Reuss Voigt Hill
#
# Bulk Modulus (GPa) = 41.19527 43.38214 42.28870
# Shear Modulus (GPa) = 19.60772 22.86370 21.23571
#
# Velocity S-wave (km/s) = 3.25748 3.51756 3.39001
# Velocity P-wave (km/s) = 6.03672 6.32256 6.18129
#
# Compressibility (1/GPa) = 0.02427463
#
# Stress axis : x y z
#
# Youngs Moduli (GPa) = 75.79404 31.29210 54.38029
#
# Poissons Ratio (x) = 0.19882 -0.01193
# Poissons Ratio (y) = 0.48157 0.73404
# Poissons Ratio (z) = -0.01663 0.42239
#
# Static dielectric constant tensor:
#      x y z
#    x 1.811360 0.000000 -0.086140 
#    y 0.000000 1.609270 0.000000 
#    z -0.086140 0.000000 1.680770 
# 
# From -- ./inp_files/4603.got.cif
#   From: 2010.05.17/outbox.ucp.g08.bks.cvg/sg11_3_cif.got.tgz:4603.got - 2010.06.11 11:38:39.
