data_PCOD9167142
_publ_section_title
;
Structure prediction by ZEFSAII (Michael W. Deem and Ramdas Pophale) SiO2 
 PCOD9167142
Probable space group: P 21/M
;
_chemical_formula_sum "Si O2"
_cell_formula_units_Z 32
_cell_length_a 22.495933
_cell_length_b 8.615183
_cell_length_c 28.947392
_cell_angle_alpha 90.000000
_cell_angle_beta 18.709482
_cell_angle_gamma 90.000000
_cell_volume 1799.580813
_symmetry_space_group_name_H-M "P 21/M"
_symmetry_group_IT_number 11
_symmetry_cell_setting 'monoclinic'
loop_
_space_group_symop_operation_xyz
x,y,z
-x,1/2+y,-z
-x,-y,-z
x,1/2-y,z
loop_
_atom_site_type_symbol
_atom_site_label
_atom_site_fract_x
_atom_site_fract_y
_atom_site_fract_z
Si Si1 0.082539 0.061960 0.591803
Si Si2 0.557623 0.436527 0.407984
Si Si3 0.626506 0.937872 0.549360
Si Si4 0.306369 0.936041 0.160699
Si Si5 0.367486 0.934155 0.305994
Si Si6 0.047079 0.063543 0.914580
Si Si7 0.657989 0.436618 0.160000
Si Si8 0.201615 0.065224 0.337934
O O1 0.094542 0.250000 0.580076
O O2 0.184939 0.012446 0.563725
O O3 0.869559 0.017107 0.741619
O O4 0.204716 0.994549 0.459927
O O5 0.500000 0.500000 0.500000
O O6 0.553442 0.250000 0.411946
O O7 0.421940 0.492074 0.466300
O O8 0.762934 0.492001 0.243419
O O9 0.630629 0.750000 0.544500
O O10 0.459695 0.979370 0.707347
O O11 0.312910 0.750000 0.156683
O O12 0.263357 0.997040 0.243568
O O13 0.500000 0.000000 0.000000
O O14 0.353419 0.750000 0.311657
O O15 0.557333 0.982356 0.191432
O O16 0.338579 0.013747 0.278016
O O17 0.062033 0.250000 0.905604
O O18 0.871378 0.024651 0.011511
O O19 0.000000 0.000000 0.000000
O O20 0.640539 0.250000 0.167532
O O21 0.191770 0.250000 0.342408
O O22 0.000000 0.000000 0.500000
#
# Coordination Sequence:
#
# PCOD9167142 Si02
#       8
#     4   4   4   4   4   4   4   4
#     4   9  18  35  58  81 110 150 193 235 288 350
#     4  11  22  38  57  83 117 155 197 245 293 349
#     4   8  15  32  56  80 107 144 189 234 284 346
#     4  11  23  39  60  86 118 156 196 244 294 349
#     4  11  21  33  55  88 119 148 189 244 296 340
#     4  11  21  36  59  86 116 152 192 240 291 346
#     4   9  18  35  56  81 114 152 191 235 292 351
#     4  12  23  38  60  86 117 153 194 240 290 347
#
# _framework density 17.781918999999998
#
# number of rings (size 3 to 8) (size 9 to 14) (size 15 to 20)
#    0.000    1.750    2.500    4.125    0.000    1.500 
#    0.000    1.875    0.000    6.000    0.000    0.000 
#    0.000    0.000    0.000    0.000    0.000    0.000 
#
# Total GULP energy -178656.227053 kJ/mol
# GULP energy per Si atom -5583.007095 kJ/mol
# Density = 1.774145 g / cm^3
# Si number density = 17.781919 Si / 1000 Ang^3
#
#
#
# Elastic Constant Matrix: (Units=GPa)
#
#
# Indices 1 2 3 4 5 6 
#
# 1 164.9350 41.3942 88.9107 0.0000 -12.9492 0.0000
# 2 41.3942 59.9756 41.8493 0.0000 -7.4577 0.0000
# 3 88.9107 41.8493 129.1399 0.0000 -9.0704 0.0000
# 4 0.0000 0.0000 0.0000 30.1265 0.0000 0.6977
# 5 -12.9492 -7.4577 -9.0704 0.0000 29.8272 0.0000
# 6 0.0000 0.0000 0.0000 0.6977 0.0000 29.7771
#
#
#
# Elastic Compliance Matrix: (Units=1/GPa)
#
#
# Indices 1 2 3 4 5 6 
#
# 1 0.010074 -0.002544 -0.005976 0.000000 0.001920 0.000000
# 2 -0.002544 0.022517 -0.005342 0.000000 0.002901 0.000000
# 3 -0.005976 -0.005342 0.013604 0.000000 0.000207 0.000000
# 4 0.000000 0.000000 0.000000 0.033211 0.000000 -0.000778
# 5 0.001920 0.002901 0.000207 0.000000 0.035148 0.000000
# 6 0.000000 0.000000 0.000000 -0.000778 0.000000 0.033601
#
#
# Mechanical properties :
#
#
# Convention : Reuss Voigt Hill
#
# Bulk Modulus (GPa) = 54.13980 77.59546 65.86763
# Shear Modulus (GPa) = 27.46693 30.07256 28.76975
#
# Velocity S-wave (km/s) = 3.93447 4.11687 4.02670
# Velocity P-wave (km/s) = 7.15212 8.14433 7.66430
#
# Compressibility (1/GPa) = 0.01847070
#
# Stress axis : x y z
#
# Youngs Moduli (GPa) = 99.26649 44.41031 73.50864
#
# Poissons Ratio (x) = 0.11297 0.43932
# Poissons Ratio (y) = 0.25252 0.39267
# Poissons Ratio (z) = 0.59326 0.23723
#
# Static dielectric constant tensor:
#      x y z
#    x 1.631660 0.000000 -0.040360 
#    y 0.000000 1.596710 0.000000 
#    z -0.040360 0.000000 1.583400 
# 
# From -- ./inp_files/72013.got.cif
#   From: 2010.05.17/outbox.cif.g08.bks.cpg/sg11_37_cif.got.tgz:72013.got - 2010.06.03 12:22:45.
