data_PCOD9167665
_publ_section_title
;
Structure prediction by ZEFSAII (Michael W. Deem and Ramdas Pophale) SiO2 
 PCOD9167665
Probable space group: P 21/M
;
_chemical_formula_sum "Si O2"
_cell_formula_units_Z 24
_cell_length_a 9.847321
_cell_length_b 15.382679
_cell_length_c 14.286884
_cell_angle_alpha 90.000000
_cell_angle_beta 27.142098
_cell_angle_gamma 90.000000
_cell_volume 987.283306
_symmetry_space_group_name_H-M "P 21/M"
_symmetry_group_IT_number 11
_symmetry_cell_setting 'monoclinic'
loop_
_space_group_symop_operation_xyz
x,y,z
-x,1/2+y,-z
-x,-y,-z
x,1/2-y,z
loop_
_atom_site_type_symbol
_atom_site_label
_atom_site_fract_x
_atom_site_fract_y
_atom_site_fract_z
Si Si1 0.388924 0.644822 0.167522
Si Si2 0.588317 0.346017 0.253913
Si Si3 0.386414 0.853906 0.971069
Si Si4 0.945520 0.928559 0.916455
Si Si5 0.531801 0.521749 0.348482
Si Si6 0.076908 0.646204 0.555770
O O1 0.431309 0.750000 0.140730
O O2 0.199334 0.626570 0.376306
O O3 0.257056 0.615065 0.148860
O O4 0.710537 0.599798 0.983826
O O5 0.449820 0.250000 0.334758
O O6 0.709728 0.370655 0.076070
O O7 0.859669 0.349347 0.160821
O O8 0.395965 0.427564 0.405617
O O9 0.364733 0.750000 0.989050
O O10 0.733266 0.879223 0.763407
O O11 0.209447 0.998954 0.734136
O O12 0.738166 0.955006 0.131696
O O13 0.286569 0.596014 0.500730
O O14 0.095690 0.750000 0.560078
#
# Coordination Sequence:
#
# PCOD9167665 Si02
#       6
#     4   4   4   4   4   4
#     4   9  16  29  51  71  92 128 164 198 238 280
#     4   9  16  28  48  70  98 130 155 197 250 281
#     4   9  18  30  47  74  97 122 168 200 230 293
#     4   8  15  29  45  69  96 120 161 200 228 286
#     4   8  16  29  47  70  98 122 167 200 227 295
#     4   9  17  31  49  69  98 131 158 199 244 277
#
# _framework density 24.309131000000001
#
# number of rings (size 3 to 8) (size 9 to 14) (size 15 to 20)
#    1.000    2.333    0.000    0.500    0.000    1.333 
#    0.000    4.167    0.000    4.000    0.000   16.333 
#    0.000    0.000    0.000    0.000    0.000    0.000 
#
# Total GULP energy -133632.971756 kJ/mol
# GULP energy per Si atom -5568.040490 kJ/mol
# Density = 2.425380 g / cm^3
# Si number density = 24.309131 Si / 1000 Ang^3
#
#
#
# Elastic Constant Matrix: (Units=GPa)
#
#
# Indices 1 2 3 4 5 6 
#
# 1 62.8696 -2.2419 14.2969 0.0000 18.8339 0.0000
# 2 -2.2419 57.9369 30.9718 0.0000 -3.2434 0.0000
# 3 14.2969 30.9718 66.4876 0.0000 -4.9323 0.0000
# 4 0.0000 0.0000 0.0000 8.8996 0.0000 -0.7231
# 5 18.8339 -3.2434 -4.9323 0.0000 21.0714 0.0000
# 6 0.0000 0.0000 0.0000 -0.7231 0.0000 30.5344
#
#
#
# Elastic Compliance Matrix: (Units=1/GPa)
#
#
# Indices 1 2 3 4 5 6 
#
# 1 0.025504 0.004690 -0.009471 0.000000 -0.024290 0.000000
# 2 0.004690 0.023869 -0.012381 0.000000 -0.003416 0.000000
# 3 -0.009471 -0.012381 0.023743 0.000000 0.012117 0.000000
# 4 0.000000 0.000000 0.000000 0.112582 0.000000 0.002666
# 5 -0.024290 -0.003416 0.012117 0.000000 0.071479 0.000000
# 6 0.000000 0.000000 0.000000 0.002666 0.000000 0.032813
#
#
# Mechanical properties :
#
#
# Convention : Reuss Voigt Hill
#
# Bulk Modulus (GPa) = 25.77817 30.37197 28.07507
# Shear Modulus (GPa) = 14.82610 21.71889 18.27250
#
# Velocity S-wave (km/s) = 2.47229 2.99230 2.74464
# Velocity P-wave (km/s) = 4.33324 4.94567 4.64955
#
# Compressibility (1/GPa) = 0.03879251
#
# Stress axis : x y z
#
# Youngs Moduli (GPa) = 39.21021 41.89565 42.11764
#
# Poissons Ratio (x) = -0.19649 0.39888
# Poissons Ratio (y) = -0.18389 0.52144
# Poissons Ratio (z) = 0.37135 0.51870
#
# Static dielectric constant tensor:
#      x y z
#    x 1.995300 0.000000 0.016950 
#    y 0.000000 1.944050 0.000000 
#    z 0.016950 0.000000 1.954290 
# 
# From -- ./inp_files/41758.got.cif
#   From: 2010.05.17/outbox.cif.g08.bks.cpg/sg11_21_cif.got.tgz:41758.got - 2010.06.03 12:22:45.
