data_PCOD9167126
_publ_section_title
;
Structure prediction by ZEFSAII (Michael W. Deem and Ramdas Pophale) SiO2 
 PCOD9167126
Probable space group: P 21/M
;
_chemical_formula_sum "Si O2"
_cell_formula_units_Z 28
_cell_length_a 16.743858
_cell_length_b 8.903249
_cell_length_c 19.099255
_cell_angle_alpha 90.000000
_cell_angle_beta 36.955539
_cell_angle_gamma 90.000000
_cell_volume 1711.732581
_symmetry_space_group_name_H-M "P 21/M"
_symmetry_group_IT_number 11
_symmetry_cell_setting 'monoclinic'
loop_
_space_group_symop_operation_xyz
x,y,z
-x,1/2+y,-z
-x,-y,-z
x,1/2-y,z
loop_
_atom_site_type_symbol
_atom_site_label
_atom_site_fract_x
_atom_site_fract_y
_atom_site_fract_z
Si Si1 0.981228 0.432140 0.746630
Si Si2 0.261325 0.571215 0.504029
Si Si3 0.191046 0.421614 0.413474
Si Si4 0.122246 0.922881 0.324745
Si Si5 0.797876 0.069477 0.166525
Si Si6 0.503427 0.430824 0.420185
Si Si7 0.035096 0.569338 0.083926
O O1 0.995711 0.250000 0.732032
O O2 0.124207 0.505489 0.631677
O O3 0.882871 0.475943 0.752106
O O4 0.936100 0.472994 0.856255
O O5 0.263035 0.750000 0.509841
O O6 0.261317 0.523073 0.422450
O O7 0.383594 0.497627 0.459021
O O8 0.236347 0.250000 0.387819
O O9 0.198577 0.480949 0.329049
O O10 0.033890 0.424376 0.543584
O O11 0.166972 0.750000 0.296626
O O12 0.808725 0.250000 0.164023
O O13 0.645670 0.029529 0.286436
O O14 0.855427 0.023271 0.050314
O O15 0.895762 0.998182 0.155328
O O16 0.500000 0.500000 0.500000
O O17 0.492510 0.250000 0.431319
O O18 0.025109 0.750000 0.088702
#
# Coordination Sequence:
#
# PCOD9167126 Si02
#       7
#     4   4   4   4   4   4   4
#     4   9  17  29  46  68  94 122 151 185 226 272
#     4  11  21  31  45  66  93 124 156 188 225 268
#     4   9  16  27  42  61  88 121 153 184 222 268
#     4   8  14  24  39  62  90 118 147 180 221 269
#     4   9  19  33  48  67  90 118 151 187 226 266
#     4  11  22  35  49  67  93 122 154 189 225 267
#     4   9  17  31  50  69  90 117 149 185 225 268
#
# _framework density 16.357695
#
# number of rings (size 3 to 8) (size 9 to 14) (size 15 to 20)
#    0.000    2.571    0.000    3.857    0.000    7.429 
#    0.000    0.000    0.000    0.000    0.000    1.000 
#    0.000    0.000    0.000    0.000    0.000    0.000 
#
# Total GULP energy -156054.614122 kJ/mol
# GULP energy per Si atom -5573.379076 kJ/mol
# Density = 1.632046 g / cm^3
# Si number density = 16.357695 Si / 1000 Ang^3
#
#
#
# Elastic Constant Matrix: (Units=GPa)
#
#
# Indices 1 2 3 4 5 6 
#
# 1 113.2195 35.0180 43.2984 0.0000 26.8657 0.0000
# 2 35.0180 47.7000 22.7070 0.0000 3.5997 0.0000
# 3 43.2984 22.7070 49.1220 0.0000 12.4844 0.0000
# 4 0.0000 0.0000 0.0000 15.0889 0.0000 2.6699
# 5 26.8657 3.5997 12.4844 0.0000 28.0705 0.0000
# 6 0.0000 0.0000 0.0000 2.6699 0.0000 29.4732
#
#
#
# Elastic Compliance Matrix: (Units=1/GPa)
#
#
# Indices 1 2 3 4 5 6 
#
# 1 0.017332 -0.007673 -0.008754 0.000000 -0.011711 0.000000
# 2 -0.007673 0.030414 -0.009212 0.000000 0.007541 0.000000
# 3 -0.008754 -0.009212 0.033713 0.000000 -0.005434 0.000000
# 4 0.000000 0.000000 0.000000 0.067354 0.000000 -0.006101
# 5 -0.011711 0.007541 -0.005434 0.000000 0.048283 0.000000
# 6 0.000000 0.000000 0.000000 -0.006101 0.000000 0.034482
#
#
# Mechanical properties :
#
#
# Convention : Reuss Voigt Hill
#
# Bulk Modulus (GPa) = 33.13382 45.78759 39.46071
# Shear Modulus (GPa) = 17.06971 21.79438 19.43205
#
# Velocity S-wave (km/s) = 3.23387 3.65411 3.45040
# Velocity P-wave (km/s) = 5.85181 6.77168 6.32848
#
# Compressibility (1/GPa) = 0.03018064
#
# Stress axis : x y z
#
# Youngs Moduli (GPa) = 57.69528 32.88009 29.66186
#
# Poissons Ratio (x) = 0.25229 0.25967
# Poissons Ratio (y) = 0.44270 0.27324
# Poissons Ratio (z) = 0.50508 0.30289
#
# Static dielectric constant tensor:
#      x y z
#    x 1.550490 0.000000 0.032620 
#    y 0.000000 1.557070 0.000000 
#    z 0.032620 0.000000 1.546490 
# 
# From -- ./inp_files/42382.got.cif
#   From: 2010.05.17/outbox.cif.g08.bks.cpg/sg11_22_cif.got.tgz:42382.got - 2010.06.03 12:22:45.
