data_PCOD9167461
_publ_section_title
;
Structure prediction by ZEFSAII (Michael W. Deem and Ramdas Pophale) SiO2 
 PCOD9167461
Probable space group: P 21/M
;
_chemical_formula_sum "Si O2"
_cell_formula_units_Z 20
_cell_length_a 5.784497
_cell_length_b 22.631925
_cell_length_c 8.208475
_cell_angle_alpha 90.000000
_cell_angle_beta 125.304235
_cell_angle_gamma 90.000000
_cell_volume 876.981084
_symmetry_space_group_name_H-M "P 21/M"
_symmetry_group_IT_number 11
_symmetry_cell_setting 'monoclinic'
loop_
_space_group_symop_operation_xyz
x,y,z
-x,1/2+y,-z
-x,-y,-z
x,1/2-y,z
loop_
_atom_site_type_symbol
_atom_site_label
_atom_site_fract_x
_atom_site_fract_y
_atom_site_fract_z
Si Si1 0.173736 0.624496 0.274008
Si Si2 0.167961 0.629791 0.881518
Si Si3 0.339448 0.442229 0.995467
Si Si4 0.816434 0.250000 0.580609
Si Si5 0.333047 0.056991 0.372512
Si Si6 0.119483 0.250000 0.344926
O O1 0.088262 0.690004 0.291552
O O2 0.458626 0.609064 0.485626
O O3 0.202867 0.621298 0.090226
O O4 0.941946 0.573970 0.217641
O O5 0.477174 0.617857 0.938239
O O6 0.978938 0.580143 0.710327
O O7 0.016735 0.691600 0.790339
O O8 0.290222 0.452379 0.164155
O O9 0.500000 0.500000 0.000000
O O10 0.464461 0.250000 0.455509
O O11 0.981123 0.250000 0.472619
O O12 0.500000 0.000000 0.500000
#
# Coordination Sequence:
#
# PCOD9167461 Si02
#       6
#     4   4   4   2   4   2
#     4  11  25  44  69 100 139 184 237 291 360 421
#     4  11  25  44  69  98 141 181 235 296 354 424
#     4  11  25  42  67 104 139 184 238 294 357 427
#     4  12  27  47  76 107 140 192 240 294 359 428
#     4  11  23  42  67  97 139 182 235 292 354 426
#     4  12  27  47  76 105 144 186 244 294 357 426
#
# _framework density 22.805510000000002
#
# number of rings (size 3 to 8) (size 9 to 14) (size 15 to 20)
#    0.000    0.800    2.000    4.200    5.600   10.400 
#    0.000    0.000    0.000    0.000    0.000    0.000 
#    0.000    0.000    0.000    0.000    0.000    0.000 
#
# Total GULP energy -111608.251208 kJ/mol
# GULP energy per Si atom -5580.412560 kJ/mol
# Density = 2.275360 g / cm^3
# Si number density = 22.805510 Si / 1000 Ang^3
#
#
#
# Elastic Constant Matrix: (Units=GPa)
#
#
# Indices 1 2 3 4 5 6 
#
# 1 51.8530 -6.5421 15.3641 0.0000 15.5841 0.0000
# 2 -6.5421 95.8472 14.1015 0.0000 7.2376 0.0000
# 3 15.3641 14.1015 83.7753 0.0000 19.1414 0.0000
# 4 0.0000 0.0000 0.0000 56.8834 0.0000 1.0112
# 5 15.5841 7.2376 19.1414 0.0000 32.0715 0.0000
# 6 0.0000 0.0000 0.0000 1.0112 0.0000 32.9755
#
#
#
# Elastic Compliance Matrix: (Units=1/GPa)
#
#
# Indices 1 2 3 4 5 6 
#
# 1 0.023530 0.002756 -0.002344 0.000000 -0.010656 0.000000
# 2 0.002756 0.011088 -0.001730 0.000000 -0.002809 0.000000
# 3 -0.002344 -0.001730 0.014252 0.000000 -0.006976 0.000000
# 4 0.000000 0.000000 0.000000 0.017589 0.000000 -0.000539
# 5 -0.010656 -0.002809 -0.006976 0.000000 0.041156 0.000000
# 6 0.000000 0.000000 0.000000 -0.000539 0.000000 0.030342
#
#
# Mechanical properties :
#
#
# Convention : Reuss Voigt Hill
#
# Bulk Modulus (GPa) = 21.62973 30.81363 26.22168
# Shear Modulus (GPa) = 32.05004 38.28954 35.16979
#
# Velocity S-wave (km/s) = 3.75289 4.10196 3.93130
# Velocity P-wave (km/s) = 5.31826 5.99796 5.66831
#
# Compressibility (1/GPa) = 0.04623265
#
# Stress axis : x y z
#
# Youngs Moduli (GPa) = 42.49834 90.18771 70.16636
#
# Poissons Ratio (x) = -0.24853 0.16450
# Poissons Ratio (y) = -0.11711 0.12139
# Poissons Ratio (z) = 0.09963 0.15603
#
# Static dielectric constant tensor:
#      x y z
#    x 1.928420 0.000000 0.040420 
#    y 0.000000 1.894350 0.000000 
#    z 0.040420 0.000000 1.811180 
# 
# From -- ./inp_files/823.got.cif
#   From: 2010.05.17/outbox.cif.g08.bks.cpg/sg11_1_cif.got.tgz:823.got - 2010.06.03 12:22:45.
