data_PCOD9167311
_publ_section_title
;
Structure prediction by ZEFSAII (Michael W. Deem and Ramdas Pophale) SiO2 
 PCOD9167311
Probable space group: P 21/M
;
_chemical_formula_sum "Si O2"
_cell_formula_units_Z 16
_cell_length_a 8.374257
_cell_length_b 18.970009
_cell_length_c 9.570399
_cell_angle_alpha 90.000000
_cell_angle_beta 148.645911
_cell_angle_gamma 90.000000
_cell_volume 791.077422
_symmetry_space_group_name_H-M "P 21/M"
_symmetry_group_IT_number 11
_symmetry_cell_setting 'monoclinic'
loop_
_space_group_symop_operation_xyz
x,y,z
-x,1/2+y,-z
-x,-y,-z
x,1/2-y,z
loop_
_atom_site_type_symbol
_atom_site_label
_atom_site_fract_x
_atom_site_fract_y
_atom_site_fract_z
Si Si1 0.523755 0.573943 0.600816
Si Si2 0.657792 0.666838 0.437153
Si Si3 0.840819 0.561093 0.127300
Si Si4 0.295683 0.898321 0.913447
O O1 0.500000 0.500000 0.500000
O O2 0.613212 0.633113 0.556547
O O3 0.185031 0.586621 0.410141
O O4 0.761778 0.567591 0.904803
O O5 0.610543 0.750000 0.402093
O O6 0.423671 0.629683 0.156099
O O7 0.003738 0.647081 0.650315
O O8 0.579794 0.601047 0.019351
O O9 0.816157 0.479010 0.152544
#
# Coordination Sequence:
#
# PCOD9167311 Si02
#       4
#     4   4   4   4
#     4  12  21  39  64  95 124 157 203 260 301 359
#     4  12  25  41  61  89 127 168 200 244 315 375
#     4  11  22  38  66  95 118 152 211 261 303 340
#     4  11  22  41  63  92 121 158 206 256 300 368
#
# _framework density 20.225580999999998
#
# number of rings (size 3 to 8) (size 9 to 14) (size 15 to 20)
#    0.000    0.500    5.000    4.500    0.000    4.000 
#    0.000    7.500    0.000    0.000    0.000    0.000 
#    0.000    0.000    0.000    0.000    0.000    0.000 
#
# Total GULP energy -89571.845061 kJ/mol
# GULP energy per Si atom -5598.240316 kJ/mol
# Density = 2.017955 g / cm^3
# Si number density = 20.225581 Si / 1000 Ang^3
#
#
#
# Elastic Constant Matrix: (Units=GPa)
#
#
# Indices 1 2 3 4 5 6 
#
# 1 74.4864 24.0314 -14.1016 0.0000 17.7832 0.0000
# 2 24.0314 53.2218 -19.9369 0.0000 7.2303 0.0000
# 3 -14.1016 -19.9369 53.5885 0.0000 9.7469 0.0000
# 4 0.0000 0.0000 0.0000 4.5037 0.0000 -7.4820
# 5 17.7832 7.2303 9.7469 0.0000 43.3783 0.0000
# 6 0.0000 0.0000 0.0000 -7.4820 0.0000 14.5451
#
#
#
# Elastic Compliance Matrix: (Units=1/GPa)
#
#
# Indices 1 2 3 4 5 6 
#
# 1 0.017668 -0.005541 0.003897 0.000000 -0.007195 0.000000
# 2 -0.005541 0.025009 0.008540 0.000000 -0.003816 0.000000
# 3 0.003897 0.008540 0.024411 0.000000 -0.008506 0.000000
# 4 0.000000 0.000000 0.000000 1.527004 0.000000 0.785498
# 5 -0.007195 -0.003816 -0.008506 0.000000 0.028550 0.000000
# 6 0.000000 0.000000 0.000000 0.785498 0.000000 0.472815
#
#
# Mechanical properties :
#
#
# Convention : Reuss Voigt Hill
#
# Bulk Modulus (GPa) = 12.36396 17.92028 15.14212
# Shear Modulus (GPa) = 2.37121 25.23899 13.80510
#
# Velocity S-wave (km/s) = 1.08394 3.53636 2.61541
# Velocity P-wave (km/s) = 2.77360 5.05509 4.07718
#
# Compressibility (1/GPa) = 0.08088024
#
# Stress axis : x y z
#
# Youngs Moduli (GPa) = 56.59825 39.98611 40.96597
#
# Poissons Ratio (x) = 0.22155 -0.15963
# Poissons Ratio (y) = 0.31359 -0.34986
# Poissons Ratio (z) = -0.22055 -0.34149
#
# Static dielectric constant tensor:
#      x y z
#    x 1.749940 0.000000 0.014150 
#    y 0.000000 1.670290 0.000000 
#    z 0.014150 0.000000 1.698050 
# 
# From -- ./inp_files/1388.got.cif
#   From: 2010.05.17/outbox.cif.g08.bks.cpg/sg11_1_cif.got.tgz:1388.got - 2010.06.03 12:22:45.
