data_PCOD9167617
_publ_section_title
;
Structure prediction by ZEFSAII (Michael W. Deem and Ramdas Pophale) SiO2 
 PCOD9167617
Probable space group: P 21/M
;
_chemical_formula_sum "Si O2"
_cell_formula_units_Z 32
_cell_length_a 13.343531
_cell_length_b 11.551820
_cell_length_c 7.244251
_cell_angle_alpha 90.000000
_cell_angle_beta 86.819998
_cell_angle_gamma 90.000000
_cell_volume 1114.924409
_symmetry_space_group_name_H-M "P 21/M"
_symmetry_group_IT_number 11
_symmetry_cell_setting 'monoclinic'
loop_
_space_group_symop_operation_xyz
x,y,z
-x,1/2+y,-z
-x,-y,-z
x,1/2-y,z
loop_
_atom_site_type_symbol
_atom_site_label
_atom_site_fract_x
_atom_site_fract_y
_atom_site_fract_z
Si Si1 0.635816 0.875139 0.926911
Si Si2 0.596236 0.375865 0.369189
Si Si3 0.600107 0.874613 0.354723
Si Si4 0.631621 0.375318 0.951259
Si Si5 0.125256 0.626172 0.458908
Si Si6 0.873139 0.872323 0.005505
Si Si7 0.900820 0.874723 0.595607
Si Si8 0.147057 0.625721 0.887261
O O1 0.618567 0.750000 0.834918
O O2 0.583003 0.874612 0.134609
O O3 0.754625 0.873132 0.966344
O O4 0.617879 0.003452 0.847090
O O5 0.645447 0.250000 0.395604
O O6 0.499807 0.375818 0.511544
O O7 0.649553 0.500463 0.388527
O O8 0.570232 0.375842 0.151845
O O9 0.650854 0.750000 0.384037
O O10 0.617331 0.250000 0.859988
O O11 0.745251 0.377726 0.020424
O O12 0.155574 0.750000 0.367441
O O13 0.156683 0.497032 0.398365
O O14 0.155967 0.633805 0.667713
O O15 0.002941 0.621158 0.466719
O O16 0.888870 0.750000 0.107049
O O17 0.895965 0.996914 0.084047
O O18 0.931109 0.867103 0.806488
O O19 0.850494 0.750000 0.561890
O O20 0.102869 0.750000 0.955967
#
# Coordination Sequence:
#
# PCOD9167617 Si02
#       8
#     4   4   4   4   4   4   4   4
#     4   8  13  21  32  47  70  98 124 152 187 224
#     4   8  12  17  26  41  62  90 122 151 179 215
#     4   8  12  17  26  41  62  90 122 151 179 215
#     4   8  13  21  32  47  70  98 124 152 187 224
#     4   9  18  32  47  62  81 105 133 165 200 237
#     4   9  17  28  42  61  84 108 133 162 197 237
#     4   9  18  32  47  62  81 105 133 165 200 237
#     4   9  17  28  42  61  84 108 133 162 197 237
#
# _framework density 28.701498999999998
#
# number of rings (size 3 to 8) (size 9 to 14) (size 15 to 20)
#    0.000    3.500    0.000    0.000    0.000    1.500 
#    0.000    0.000    0.000    0.000    0.000    0.000 
#    0.000    1.000    0.000    0.750    0.000   15.000 
#
# Total GULP energy -178585.916258 kJ/mol
# GULP energy per Si atom -5580.809883 kJ/mol
# Density = 2.863617 g / cm^3
# Si number density = 28.701499 Si / 1000 Ang^3
#
#
#
# Elastic Constant Matrix: (Units=GPa)
#
#
# Indices 1 2 3 4 5 6 
#
# 1 81.9692 51.3538 7.1287 0.0000 1.6918 0.0000
# 2 51.3538 456.3367 23.4859 0.0000 8.9634 0.0000
# 3 7.1287 23.4859 99.3405 0.0000 4.4115 0.0000
# 4 0.0000 0.0000 0.0000 2.0646 0.0000 53.8848
# 5 1.6918 8.9634 4.4115 0.0000 27.3521 0.0000
# 6 0.0000 0.0000 0.0000 53.8848 0.0000 -98.2880
#
#
#
# Elastic Compliance Matrix: (Units=1/GPa)
#
#
# Indices 1 2 3 4 5 6 
#
# 1 0.013162 -0.001446 -0.000592 0.000000 -0.000245 0.000000
# 2 -0.001446 0.002389 -0.000433 0.000000 -0.000623 0.000000
# 3 -0.000592 -0.000433 0.010277 0.000000 -0.001479 0.000000
# 4 0.000000 0.000000 0.000000 0.031640 0.000000 0.017346
# 5 -0.000245 -0.000623 -0.001479 0.000000 0.037018 0.000000
# 6 0.000000 0.000000 0.000000 0.017346 0.000000 -0.000665
#
#
# Mechanical properties :
#
#
# Convention : Reuss Voigt Hill
#
# Bulk Modulus (GPa) = 47.87964 89.06480 68.47222
# Shear Modulus (GPa) = 47.29256 23.27091 35.28174
#
# Velocity S-wave (km/s) = 4.06364 2.85053 3.50989
# Velocity P-wave (km/s) = 6.22380 6.47555 6.35092
#
# Compressibility (1/GPa) = 0.02088570
#
# Stress axis : x y z
#
# Youngs Moduli (GPa) = 75.97573 418.65060 97.30494
#
# Poissons Ratio (x) = 0.60534 0.05758
# Poissons Ratio (y) = 0.10986 0.04216
# Poissons Ratio (z) = 0.04496 0.18139
#
# Static dielectric constant tensor:
#      x y z
#    x 2.262040 0.000000 -0.065450 
#    y 0.000000 2.238400 0.000000 
#    z -0.065450 0.000000 2.140990 
# 
# From -- ./inp_files/24478.got.cif
#   From: 2010.05.17/outbox.cif.g08.bks.cpg/sg11_13_cif.got.tgz:24478.got - 2010.06.03 12:22:45.
