data_PCOD9167825
_publ_section_title
;
Structure prediction by ZEFSAII (Michael W. Deem and Ramdas Pophale) SiO2 
 PCOD9167825
Probable space group: P 21/M
;
_chemical_formula_sum "Si O2"
_cell_formula_units_Z 32
_cell_length_a 12.000000
_cell_length_b 9.000000
_cell_length_c 30.000000
_cell_angle_alpha 90.000000
_cell_angle_beta 150.000000
_cell_angle_gamma 90.000000
_cell_volume 1620.000000
_symmetry_space_group_name_H-M "P 21/M"
_symmetry_group_IT_number 11
_symmetry_cell_setting 'monoclinic'
loop_
_space_group_symop_operation_xyz
x,y,z
-x,1/2+y,-z
-x,-y,-z
x,1/2-y,z
loop_
_atom_site_type_symbol
_atom_site_label
_atom_site_fract_x
_atom_site_fract_y
_atom_site_fract_z
Si Si1 0.121506 0.920715 0.149956
Si Si2 0.184733 0.076246 0.812080
Si Si3 0.361664 0.083265 0.047831
Si Si4 0.302442 0.915572 0.115541
Si Si5 0.655366 0.072429 0.401872
Si Si6 0.196797 0.076625 0.264048
Si Si7 0.835949 0.585948 0.297689
Si Si8 0.088169 0.923555 0.590492
O O1 0.197873 0.750000 0.186708
O O2 0.210889 0.958168 0.131875
O O3 0.185577 0.043626 0.207612
O O4 0.853654 0.916975 0.057604
O O5 0.197354 0.250000 0.825645
O O6 0.109361 0.055931 0.734583
O O7 0.433908 0.011266 0.899855
O O8 0.004119 0.003649 0.781291
O O9 0.445374 0.250000 0.083146
O O10 0.267723 0.024437 0.062442
O O11 0.213355 0.750000 0.074264
O O12 0.569194 0.904912 0.209198
O O13 0.634623 0.250000 0.395764
O O14 0.446625 0.014974 0.358149
O O15 0.693375 0.030385 0.362796
O O16 0.883084 0.019113 0.502117
O O17 0.181643 0.250000 0.269068
O O18 0.925238 0.750000 0.341332
O O19 0.898158 0.458376 0.353066
O O20 0.050120 0.750000 0.568880
#
# Coordination Sequence:
#
# PCOD9167825 Si02
#       8
#     4   4   4   4   4   4   4   4
#     4  10  21  35  53  79 110 143 178 218 268 325
#     4  10  22  40  58  75 102 142 183 223 268 317
#     4  10  20  34  54  80 108 140 179 223 269 314
#     4   9  18  33  53  79 111 145 178 215 265 319
#     4   9  20  37  54  79 114 142 167 208 261 312
#     4  11  23  38  57  79 104 138 180 225 270 313
#     4   9  18  33  54  78 105 139 175 214 262 312
#     4  10  19  32  56  86 111 138 171 207 253 312
#
# _framework density 19.753086
#
# number of rings (size 3 to 8) (size 9 to 14) (size 15 to 20)
#    0.000    2.250    0.000    3.375    0.000    6.000 
#    0.000    0.625    0.000    0.000    0.000    0.000 
#    0.000    0.000    0.000    0.000    0.000    0.000 
#
# Total GULP energy -178187.246008 kJ/mol
# GULP energy per Si atom -5568.351438 kJ/mol
# Density = 1.970813 g / cm^3
# Si number density = 19.753086 Si / 1000 Ang^3
#
#
#
# Elastic Constant Matrix: (Units=GPa)
#
#
# Indices 1 2 3 4 5 6 
#
# 1 88.2104 26.9236 27.9991 0.0000 40.5190 0.0000
# 2 26.9236 17.5666 8.8399 0.0000 3.5169 0.0000
# 3 27.9991 8.8399 16.8978 0.0000 -2.2105 0.0000
# 4 0.0000 0.0000 0.0000 15.0143 0.0000 -4.1116
# 5 40.5190 3.5169 -2.2105 0.0000 -8.6368 0.0000
# 6 0.0000 0.0000 0.0000 -4.1116 0.0000 30.1691
#
#
#
# Elastic Compliance Matrix: (Units=1/GPa)
#
#
# Indices 1 2 3 4 5 6 
#
# 1 0.005585 -0.012852 0.000205 0.000000 0.020918 0.000000
# 2 -0.012852 0.094552 -0.030015 0.000000 -0.014108 0.000000
# 3 0.000205 -0.030015 0.070701 0.000000 -0.029357 0.000000
# 4 0.000000 0.000000 0.000000 0.069185 0.000000 0.009429
# 5 0.020918 -0.014108 -0.029357 0.000000 -0.015878 0.000000
# 6 0.000000 0.000000 0.000000 0.009429 0.000000 0.034432
#
#
# Mechanical properties :
#
#
# Convention : Reuss Voigt Hill
#
# Bulk Modulus (GPa) = 11.69377 27.79999 19.74688
# Shear Modulus (GPa) = 13.42622 11.23679 12.33151
#
# Velocity S-wave (km/s) = 2.60994 2.38767 2.50128
# Velocity P-wave (km/s) = 3.87494 4.65893 4.28490
#
# Compressibility (1/GPa) = 0.08551562
#
# Stress axis : x y z
#
# Youngs Moduli (GPa) = 179.03698 10.57621 14.14398
#
# Poissons Ratio (x) = 0.13592 -0.00290
# Poissons Ratio (y) = 2.30089 0.42453
# Poissons Ratio (z) = -0.03665 0.31744
#
# Static dielectric constant tensor:
#      x y z
#    x 1.689850 0.000000 -0.008910 
#    y 0.000000 1.706560 0.000000 
#    z -0.008910 0.000000 1.760360 
# 
# From -- ./inp_files/73133.got.cif
#   From: 2010.05.17/outbox.ucp.g08.bks.cvg/sg11_37_cif.got.tgz:73133.got - 2010.06.11 11:38:39.
