data_PCOD9167018
_publ_section_title
;
Structure prediction by ZEFSAII (Michael W. Deem and Ramdas Pophale) SiO2 
 PCOD9167018
Probable space group: P 21/M
;
_chemical_formula_sum "Si O2"
_cell_formula_units_Z 32
_cell_length_a 13.859703
_cell_length_b 25.953303
_cell_length_c 8.757419
_cell_angle_alpha 90.000000
_cell_angle_beta 27.558036
_cell_angle_gamma 90.000000
_cell_volume 1457.378292
_symmetry_space_group_name_H-M "P 21/M"
_symmetry_group_IT_number 11
_symmetry_cell_setting 'monoclinic'
loop_
_space_group_symop_operation_xyz
x,y,z
-x,1/2+y,-z
-x,-y,-z
x,1/2-y,z
loop_
_atom_site_type_symbol
_atom_site_label
_atom_site_fract_x
_atom_site_fract_y
_atom_site_fract_z
Si Si1 0.253677 0.389238 0.652484
Si Si2 0.532028 0.389185 0.764887
Si Si3 0.410318 0.807137 0.761087
Si Si4 0.231450 0.807686 0.356509
Si Si5 0.073408 0.540725 0.772092
Si Si6 0.692364 0.962408 0.710248
Si Si7 0.047513 0.191707 0.718226
Si Si8 0.225658 0.309548 0.123024
O O1 0.438945 0.355505 0.458767
O O2 0.323124 0.431327 0.427808
O O3 0.119311 0.349153 0.740786
O O4 0.109976 0.417758 0.977537
O O5 0.652307 0.351848 0.714756
O O6 0.715311 0.429894 0.467861
O O7 0.342560 0.421300 0.107956
O O8 0.412370 0.348563 0.826530
O O9 0.501940 0.750000 0.601909
O O10 0.331974 0.806419 0.047212
O O11 0.199396 0.812604 0.960692
O O12 0.258428 0.750000 0.385757
O O13 0.985293 0.817249 0.677960
O O14 0.119142 0.503398 0.564340
O O15 0.000000 0.500000 0.000000
O O16 0.500000 0.000000 0.000000
O O17 0.097984 0.250000 0.696705
O O18 0.157260 0.184588 0.398463
O O19 0.288583 0.250000 0.017414
#
# Coordination Sequence:
#
# PCOD9167018 Si02
#       8
#     4   4   4   4   4   4   4   4
#     4  11  17  33  55  72 101 143 165 200 261 306
#     4  11  17  33  59  76  97 141 175 203 260 314
#     4   9  17  29  50  82 110 132 167 205 241 306
#     4   9  17  29  50  84 113 129 161 210 251 300
#     4   9  22  36  52  75 102 132 176 224 262 293
#     4   9  18  32  54  75  92 126 176 222 253 287
#     4   9  17  29  50  82 110 132 167 205 241 306
#     4   9  17  29  50  84 113 129 161 210 251 300
#
# _framework density 21.957236000000002
#
# number of rings (size 3 to 8) (size 9 to 14) (size 15 to 20)
#    0.000    2.500    2.500    2.250    0.000    2.000 
#    0.000    3.750    0.000   33.000    0.000    0.000 
#    0.000    0.000    0.000    0.000    0.000    0.000 
#
# Total GULP energy -178548.634304 kJ/mol
# GULP energy per Si atom -5579.644822 kJ/mol
# Density = 2.190726 g / cm^3
# Si number density = 21.957236 Si / 1000 Ang^3
#
#
#
# Elastic Constant Matrix: (Units=GPa)
#
#
# Indices 1 2 3 4 5 6 
#
# 1 43.9430 34.4692 17.2014 0.0000 -7.6317 0.0000
# 2 34.4692 165.0115 70.9789 0.0000 -6.4609 0.0000
# 3 17.2014 70.9789 99.6222 0.0000 -5.3276 0.0000
# 4 0.0000 0.0000 0.0000 73.3412 0.0000 3.8454
# 5 -7.6317 -6.4609 -5.3276 0.0000 15.4020 0.0000
# 6 0.0000 0.0000 0.0000 3.8454 0.0000 7.7452
#
#
#
# Elastic Compliance Matrix: (Units=1/GPa)
#
#
# Indices 1 2 3 4 5 6 
#
# 1 0.029315 -0.005409 -0.000563 0.000000 0.012062 0.000000
# 2 -0.005409 0.009772 -0.006065 0.000000 -0.000679 0.000000
# 3 -0.000563 -0.006065 0.014575 0.000000 0.002219 0.000000
# 4 0.000000 0.000000 0.000000 0.013999 0.000000 -0.006950
# 5 0.012062 -0.000679 0.002219 0.000000 0.071386 0.000000
# 6 0.000000 0.000000 0.000000 -0.006950 0.000000 0.132564
#
#
# Mechanical properties :
#
#
# Convention : Reuss Voigt Hill
#
# Bulk Modulus (GPa) = 33.79703 61.54172 47.66938
# Shear Modulus (GPa) = 16.36407 31.69282 24.02845
#
# Velocity S-wave (km/s) = 2.73293 3.80332 3.31165
# Velocity P-wave (km/s) = 5.03827 6.88301 6.03158
#
# Compressibility (1/GPa) = 0.02958840
#
# Stress axis : x y z
#
# Youngs Moduli (GPa) = 34.11238 102.32961 68.61134
#
# Poissons Ratio (x) = 0.55353 0.03860
# Poissons Ratio (y) = 0.18452 0.41612
# Poissons Ratio (z) = 0.01919 0.62062
#
# Static dielectric constant tensor:
#      x y z
#    x 1.813700 0.000000 0.063280 
#    y 0.000000 1.835650 0.000000 
#    z 0.063280 0.000000 1.884290 
# 
# From -- ./inp_files/42041.got.cif
#   From: 2010.05.17/outbox.cif.g08.bks.cpg/sg11_22_cif.got.tgz:42041.got - 2010.06.03 12:22:45.
