data_PCOD9167741
_publ_section_title
;
Structure prediction by ZEFSAII (Michael W. Deem and Ramdas Pophale) SiO2 
 PCOD9167741
Probable space group: P 21/M
;
_chemical_formula_sum "Si O2"
_cell_formula_units_Z 32
_cell_length_a 21.000000
_cell_length_b 9.000000
_cell_length_c 27.000000
_cell_angle_alpha 90.000000
_cell_angle_beta 160.000000
_cell_angle_gamma 90.000000
_cell_volume 1745.328791
_symmetry_space_group_name_H-M "P 21/M"
_symmetry_group_IT_number 11
_symmetry_cell_setting 'monoclinic'
loop_
_space_group_symop_operation_xyz
x,y,z
-x,1/2+y,-z
-x,-y,-z
x,1/2-y,z
loop_
_atom_site_type_symbol
_atom_site_label
_atom_site_fract_x
_atom_site_fract_y
_atom_site_fract_z
Si Si1 0.051196 0.424109 0.384675
Si Si2 0.628340 0.428503 0.052367
Si Si3 0.373202 0.929189 0.062810
Si Si4 0.333620 0.916407 0.653539
Si Si5 0.951898 0.424732 0.016949
Si Si6 0.295885 0.073634 0.464060
Si Si7 0.021063 0.430985 0.176615
Si Si8 0.582076 0.917157 0.736449
O O1 0.068182 0.250000 0.408468
O O2 0.141252 0.513107 0.495437
O O3 0.156650 0.444630 0.409151
O O4 0.839435 0.463720 0.221086
O O5 0.605512 0.250000 0.036415
O O6 0.500000 0.500000 0.000000
O O7 0.603993 0.477637 0.977530
O O8 0.368648 0.750000 0.060066
O O9 0.543850 0.987632 0.219783
O O10 0.176604 0.979440 0.943800
O O11 0.312366 0.750000 0.657357
O O12 0.445379 0.909925 0.683259
O O13 0.984804 0.250000 0.037415
O O14 0.040965 0.479918 0.133948
O O15 0.735262 0.463699 0.863730
O O16 0.000000 0.500000 0.000000
O O17 0.341636 0.250000 0.494449
O O18 0.187698 0.027152 0.335398
O O19 0.473382 0.976268 0.608916
O O20 0.016533 0.250000 0.172812
O O21 0.657213 0.750000 0.783487
#
# Coordination Sequence:
#
# PCOD9167741 Si02
#       8
#     4   4   4   4   4   4   4   4
#     4   9  17  32  54  78 105 140 178 217 263 320
#     4  10  21  36  56  81 111 144 180 222 270 326
#     4  10  18  34  57  81 106 139 184 225 263 318
#     4  10  20  32  51  82 113 138 172 225 273 312
#     4  11  22  37  57  80 109 146 181 220 269 321
#     4   9  16  31  56  82 104 132 177 226 266 310
#     4   9  17  32  57  83 104 133 181 227 263 311
#     4  10  20  34  51  79 114 143 174 215 268 324
#
# _framework density 18.334654
#
# number of rings (size 3 to 8) (size 9 to 14) (size 15 to 20)
#    0.000    2.250    2.500    1.125    0.000    2.000 
#    0.000    3.125    0.000    0.000    0.000    0.000 
#    0.000    0.000    0.000    0.000    0.000    0.000 
#
# Total GULP energy -178304.604844 kJ/mol
# GULP energy per Si atom -5572.018901 kJ/mol
# Density = 1.829292 g / cm^3
# Si number density = 18.334654 Si / 1000 Ang^3
#
#
#
# Elastic Constant Matrix: (Units=GPa)
#
#
# Indices 1 2 3 4 5 6 
#
# 1 43.9637 4.2170 23.4687 0.0000 -23.1400 0.0000
# 2 4.2170 3.7204 15.5959 0.0000 -4.1951 0.0000
# 3 23.4687 15.5959 22.5106 0.0000 -21.4247 0.0000
# 4 0.0000 0.0000 0.0000 3.6280 0.0000 1.7874
# 5 -23.1400 -4.1951 -21.4247 0.0000 19.3249 0.0000
# 6 0.0000 0.0000 0.0000 1.7874 0.0000 25.7338
#
#
#
# Elastic Compliance Matrix: (Units=1/GPa)
#
#
# Indices 1 2 3 4 5 6 
#
# 1 0.062325 0.012599 0.001357 0.000000 0.078868 0.000000
# 2 0.012599 0.012621 0.089054 0.000000 0.116556 0.000000
# 3 0.001357 0.089054 -0.022761 0.000000 -0.004278 0.000000
# 4 0.000000 0.000000 0.000000 0.285398 0.000000 -0.019823
# 5 0.078868 0.116556 -0.004278 0.000000 0.166744 0.000000
# 6 0.000000 0.000000 0.000000 -0.019823 0.000000 0.040236
#
#
# Mechanical properties :
#
#
# Convention : Reuss Voigt Hill
#
# Bulk Modulus (GPa) = 3.87290 17.41756 10.64523
# Shear Modulus (GPa) = 11.77545 11.53154 11.65350
#
# Velocity S-wave (km/s) = 2.53702 2.51060 2.52384
# Velocity P-wave (km/s) = 3.27091 4.23375 3.78309
#
# Compressibility (1/GPa) = 0.25820441
#
# Stress axis : x y z
#
# Youngs Moduli (GPa) = 16.04495 79.23056 -43.93412
#
# Poissons Ratio (x) = -0.99824 0.05961
# Poissons Ratio (y) = -0.20215 3.91250
# Poissons Ratio (z) = -0.02177 -7.05577
#
# Static dielectric constant tensor:
#      x y z
#    x 1.647450 0.000000 0.026090 
#    y 0.000000 1.636620 0.000000 
#    z 0.026090 0.000000 1.636820 
# 
# From -- ./inp_files/72065.got.cif
#   From: 2010.05.17/outbox.ucp.g08.bks.cvg/sg11_37_cif.got.tgz:72065.got - 2010.06.11 11:38:39.
