data_PCOD9167165
_publ_section_title
;
Structure prediction by ZEFSAII (Michael W. Deem and Ramdas Pophale) SiO2 
 PCOD9167165
Probable space group: P 21/M
;
_chemical_formula_sum "Si O2"
_cell_formula_units_Z 20
_cell_length_a 16.342790
_cell_length_b 8.336448
_cell_length_c 7.920382
_cell_angle_alpha 90.000000
_cell_angle_beta 133.444385
_cell_angle_gamma 90.000000
_cell_volume 783.457121
_symmetry_space_group_name_H-M "P 21/M"
_symmetry_group_IT_number 11
_symmetry_cell_setting 'monoclinic'
loop_
_space_group_symop_operation_xyz
x,y,z
-x,1/2+y,-z
-x,-y,-z
x,1/2-y,z
loop_
_atom_site_type_symbol
_atom_site_label
_atom_site_fract_x
_atom_site_fract_y
_atom_site_fract_z
Si Si1 0.462289 0.060943 0.208923
Si Si2 0.278941 0.935631 0.727483
Si Si3 0.133054 0.437314 0.830108
Si Si4 0.069879 0.060636 0.258523
Si Si5 0.681414 0.064820 0.687733
O O1 0.450159 0.250000 0.234151
O O2 0.595346 0.025654 0.413169
O O3 0.401174 0.955345 0.265929
O O4 0.391586 0.030518 0.939281
O O5 0.308388 0.750000 0.754222
O O6 0.198690 0.968293 0.777474
O O7 0.192841 0.984567 0.457531
O O8 0.125263 0.250000 0.774964
O O9 0.012959 0.509892 0.706458
O O10 0.213585 0.456246 0.109925
O O11 0.081919 0.250000 0.271302
O O12 0.000000 0.000000 0.000000
O O13 0.718238 0.250000 0.726956
#
# Coordination Sequence:
#
# PCOD9167165 Si02
#       5
#     4   4   4   4   4
#     4   9  16  27  46  75 109 142 176 217 265 314
#     4  11  21  35  56  83 112 144 182 223 268 316
#     4  11  21  35  56  83 112 144 182 223 268 316
#     4  12  25  42  59  78 106 140 180 224 273 326
#     4   9  16  27  46  75 109 142 176 217 265 314
#
# _framework density 25.527881000000001
#
# number of rings (size 3 to 8) (size 9 to 14) (size 15 to 20)
#    0.000    1.600    0.000    9.600    0.000    2.400 
#    0.000    0.000    0.000    1.200    0.000    0.000 
#    0.000    0.000    0.000    0.000    0.000    0.000 
#
# Total GULP energy -112011.162113 kJ/mol
# GULP energy per Si atom -5600.558106 kJ/mol
# Density = 2.546978 g / cm^3
# Si number density = 25.527881 Si / 1000 Ang^3
#
#
#
# Elastic Constant Matrix: (Units=GPa)
#
#
# Indices 1 2 3 4 5 6 
#
# 1 79.0958 -8.6464 14.5091 0.0000 20.9909 0.0000
# 2 -8.6464 105.7995 20.3811 0.0000 12.5809 0.0000
# 3 14.5091 20.3811 193.0762 0.0000 16.5422 0.0000
# 4 0.0000 0.0000 0.0000 47.6166 0.0000 5.1893
# 5 20.9909 12.5809 16.5422 0.0000 61.1163 0.0000
# 6 0.0000 0.0000 0.0000 5.1893 0.0000 17.3697
#
#
#
# Elastic Compliance Matrix: (Units=1/GPa)
#
#
# Indices 1 2 3 4 5 6 
#
# 1 0.014366 0.001944 -0.000847 0.000000 -0.005105 0.000000
# 2 0.001944 0.010098 -0.001000 0.000000 -0.002476 0.000000
# 3 -0.000847 -0.001000 0.005432 0.000000 -0.000973 0.000000
# 4 0.000000 0.000000 0.000000 0.021708 0.000000 -0.006485
# 5 -0.005105 -0.002476 -0.000973 0.000000 0.018889 0.000000
# 6 0.000000 0.000000 0.000000 -0.006485 0.000000 0.059509
#
#
# Mechanical properties :
#
#
# Convention : Reuss Voigt Hill
#
# Bulk Modulus (GPa) = 33.23438 47.82879 40.53158
# Shear Modulus (GPa) = 35.75597 48.66903 42.21250
#
# Velocity S-wave (km/s) = 3.74660 4.37109 4.07084
# Velocity P-wave (km/s) = 5.63588 6.65220 6.16502
#
# Compressibility (1/GPa) = 0.03008932
#
# Stress axis : x y z
#
# Youngs Moduli (GPa) = 69.61044 99.03186 184.09667
#
# Poissons Ratio (x) = -0.19255 0.15600
# Poissons Ratio (y) = -0.13534 0.18408
# Poissons Ratio (z) = 0.05899 0.09902
#
# Static dielectric constant tensor:
#      x y z
#    x 2.065790 0.000000 -0.101200 
#    y 0.000000 1.828810 0.000000 
#    z -0.101200 0.000000 2.114430 
# 
# From -- ./inp_files/26000.got.cif
#   From: 2010.05.17/outbox.cif.g08.bks.cpg/sg11_13_cif.got.tgz:26000.got - 2010.06.03 12:22:45.
