data_PCOD9167226
_publ_section_title
;
Structure prediction by ZEFSAII (Michael W. Deem and Ramdas Pophale) SiO2 
 PCOD9167226
Probable space group: P 21/M
;
_chemical_formula_sum "Si O2"
_cell_formula_units_Z 26
_cell_length_a 7.858854
_cell_length_b 15.477152
_cell_length_c 12.478112
_cell_angle_alpha 90.000000
_cell_angle_beta 132.287314
_cell_angle_gamma 90.000000
_cell_volume 1122.798404
_symmetry_space_group_name_H-M "P 21/M"
_symmetry_group_IT_number 11
_symmetry_cell_setting 'monoclinic'
loop_
_space_group_symop_operation_xyz
x,y,z
-x,1/2+y,-z
-x,-y,-z
x,1/2-y,z
loop_
_atom_site_type_symbol
_atom_site_label
_atom_site_fract_x
_atom_site_fract_y
_atom_site_fract_z
Si Si1 0.929219 0.153987 0.676693
Si Si2 0.866036 0.408558 0.432003
Si Si3 0.211417 0.250000 0.574909
Si Si4 0.973281 0.344911 0.125157
Si Si5 0.341282 0.629008 0.219541
Si Si6 0.365727 0.067697 0.180620
Si Si7 0.767011 0.516437 0.102238
O O1 0.015911 0.250000 0.681193
O O2 0.782726 0.116826 0.517523
O O3 0.792958 0.156752 0.729702
O O4 0.140573 0.089261 0.780318
O O5 0.629937 0.413044 0.266072
O O6 0.000000 0.500000 0.500000
O O7 0.026733 0.328670 0.468780
O O8 0.415121 0.175666 0.681282
O O9 0.951242 0.250000 0.164385
O O10 0.905982 0.427475 0.167576
O O11 0.231382 0.362062 0.193069
O O12 0.803599 0.350133 0.949541
O O13 0.366633 0.525755 0.236559
O O14 0.212770 0.054499 0.009188
O O15 0.500000 0.500000 0.000000
#
# Coordination Sequence:
#
# PCOD9167226 Si02
#       7
#     4   4   2   4   4   4   4
#     4  12  24  43  71 104 128 179 241 271 332 415
#     4  12  27  45  69 100 141 186 221 284 351 408
#     4  12  24  44  68 102 136 184 236 270 346 420
#     4  11  22  40  71 102 138 185 227 277 351 406
#     4  11  21  43  72  99 131 185 240 281 320 419
#     4  11  23  45  67  97 142 185 221 285 348 398
#     4  11  24  41  69 103 140 172 230 288 336 401
#
# _framework density 23.156427000000001
#
# number of rings (size 3 to 8) (size 9 to 14) (size 15 to 20)
#    0.000    0.615    6.923    1.846    3.231    1.231 
#    0.000    0.000   11.846    0.000    0.000    0.000 
#    0.000    0.000    0.000    0.000    0.000    0.000 
#
# Total GULP energy -144957.548588 kJ/mol
# GULP energy per Si atom -5575.290330 kJ/mol
# Density = 2.310372 g / cm^3
# Si number density = 23.156427 Si / 1000 Ang^3
#
#
#
# Elastic Constant Matrix: (Units=GPa)
#
#
# Indices 1 2 3 4 5 6 
#
# 1 32.7430 25.7990 19.5322 0.0000 16.2492 0.0000
# 2 25.7990 177.7420 49.1315 0.0000 15.1015 0.0000
# 3 19.5322 49.1315 80.8047 0.0000 26.2806 0.0000
# 4 0.0000 0.0000 0.0000 36.0931 0.0000 16.4007
# 5 16.2492 15.1015 26.2806 0.0000 45.8784 0.0000
# 6 0.0000 0.0000 0.0000 16.4007 0.0000 30.8077
#
#
#
# Elastic Compliance Matrix: (Units=1/GPa)
#
#
# Indices 1 2 3 4 5 6 
#
# 1 0.041593 -0.003982 -0.004016 0.000000 -0.011120 0.000000
# 2 -0.003982 0.007145 -0.003780 0.000000 0.001224 0.000000
# 3 -0.004016 -0.003780 0.018161 0.000000 -0.007736 0.000000
# 4 0.000000 0.000000 0.000000 0.036547 0.000000 -0.019456
# 5 -0.011120 0.001224 -0.007736 0.000000 0.029764 0.000000
# 6 0.000000 0.000000 0.000000 -0.019456 0.000000 0.042817
#
#
# Mechanical properties :
#
#
# Convention : Reuss Voigt Hill
#
# Bulk Modulus (GPa) = 23.07202 53.35725 38.21464
# Shear Modulus (GPa) = 23.36128 35.67765 29.51947
#
# Velocity S-wave (km/s) = 3.17968 3.92946 3.57429
# Velocity P-wave (km/s) = 4.84414 6.60906 5.79419
#
# Compressibility (1/GPa) = 0.04334253
#
# Stress axis : x y z
#
# Youngs Moduli (GPa) = 24.04271 139.95837 55.06427
#
# Poissons Ratio (x) = 0.55735 0.22113
# Poissons Ratio (y) = 0.09574 0.20813
# Poissons Ratio (z) = 0.09655 0.52901
#
# Static dielectric constant tensor:
#      x y z
#    x 2.424390 0.000000 -0.364180 
#    y 0.000000 1.862160 0.000000 
#    z -0.364180 0.000000 2.030000 
# 
# From -- ./inp_files/47784.got.cif
#   From: 2010.05.17/outbox.cif.g08.bks.cpg/sg11_24_cif.got.tgz:47784.got - 2010.06.03 12:22:45.
