data_PCOD9167579
_publ_section_title
;
Structure prediction by ZEFSAII (Michael W. Deem and Ramdas Pophale) SiO2 
 PCOD9167579
Probable space group: P 21/M
;
_chemical_formula_sum "Si O2"
_cell_formula_units_Z 24
_cell_length_a 11.323216
_cell_length_b 22.049660
_cell_length_c 12.389271
_cell_angle_alpha 90.000000
_cell_angle_beta 24.668447
_cell_angle_gamma 90.000000
_cell_volume 1291.026713
_symmetry_space_group_name_H-M "P 21/M"
_symmetry_group_IT_number 11
_symmetry_cell_setting 'monoclinic'
loop_
_space_group_symop_operation_xyz
x,y,z
-x,1/2+y,-z
-x,-y,-z
x,1/2-y,z
loop_
_atom_site_type_symbol
_atom_site_label
_atom_site_fract_x
_atom_site_fract_y
_atom_site_fract_z
Si Si1 0.038508 0.750000 0.769964
Si Si2 0.808020 0.622340 0.292465
Si Si3 0.302209 0.250000 0.725813
Si Si4 0.975047 0.383639 0.295346
Si Si5 0.741813 0.957119 0.749320
Si Si6 0.352628 0.061915 0.794298
Si Si7 0.427323 0.922058 0.797969
O O1 0.358130 0.750000 0.550206
O O2 0.002523 0.811475 0.732745
O O3 0.824303 0.750000 0.048570
O O4 0.797091 0.689314 0.251631
O O5 0.730938 0.576559 0.258843
O O6 0.583599 0.614581 0.574107
O O7 0.118509 0.604926 0.075458
O O8 0.648711 0.404232 0.572300
O O9 0.144737 0.411249 0.254694
O O10 0.112428 0.411964 0.073000
O O11 0.612872 0.924714 0.751826
O O12 0.000000 0.000000 0.500000
O O13 0.500000 0.000000 0.000000
O O14 0.392669 0.991204 0.785323
#
# Coordination Sequence:
#
# PCOD9167579 Si02
#       7
#     2   4   2   4   4   4   4
#     4  12  22  42  66  94 126 164 220 270 312 370
#     4  12  24  41  62  97 129 170 212 262 322 386
#     4  12  24  44  66  88 132 174 214 258 318 394
#     4  12  22  40  67  97 124 165 219 265 318 367
#     4  12  23  43  66  92 130 170 213 261 316 387
#     4  12  22  40  65  98 132 159 206 278 318 379
#     4  12  24  40  64  96 136 167 207 258 331 389
#
# _framework density 18.589855
#
# number of rings (size 3 to 8) (size 9 to 14) (size 15 to 20)
#    0.000    0.000    6.667    5.000    0.000    0.000 
#    0.000    1.667    0.000    0.000    0.000    0.000 
#    0.000    0.000    0.000    0.000    0.000    0.000 
#
# Total GULP energy -134371.822138 kJ/mol
# GULP energy per Si atom -5598.825922 kJ/mol
# Density = 1.854754 g / cm^3
# Si number density = 18.589855 Si / 1000 Ang^3
#
#
#
# Elastic Constant Matrix: (Units=GPa)
#
#
# Indices 1 2 3 4 5 6 
#
# 1 82.3737 0.4768 -19.5251 0.0000 -9.5344 0.0000
# 2 0.4768 91.1418 7.1131 0.0000 1.6273 0.0000
# 3 -19.5251 7.1131 56.5017 0.0000 -4.9447 0.0000
# 4 0.0000 0.0000 0.0000 24.4387 0.0000 -3.1227
# 5 -9.5344 1.6273 -4.9447 0.0000 26.2780 0.0000
# 6 0.0000 0.0000 0.0000 -3.1227 0.0000 26.6253
#
#
#
# Elastic Compliance Matrix: (Units=1/GPa)
#
#
# Indices 1 2 3 4 5 6 
#
# 1 0.014171 -0.000616 0.005519 0.000000 0.006218 0.000000
# 2 -0.000616 0.011132 -0.001722 0.000000 -0.001237 0.000000
# 3 0.005519 -0.001722 0.020342 0.000000 0.005937 0.000000
# 4 0.000000 0.000000 0.000000 0.041541 0.000000 0.004872
# 5 0.006218 -0.001237 0.005937 0.000000 0.041505 0.000000
# 6 0.000000 0.000000 0.000000 0.004872 0.000000 0.038130
#
#
# Mechanical properties :
#
#
# Convention : Reuss Voigt Hill
#
# Bulk Modulus (GPa) = 19.22857 22.90522 21.06690
# Shear Modulus (GPa) = 28.12230 31.59854 29.86042
#
# Velocity S-wave (km/s) = 3.89366 4.12730 4.01218
# Velocity P-wave (km/s) = 5.52993 5.92123 5.72892
#
# Compressibility (1/GPa) = 0.05200594
#
# Stress axis : x y z
#
# Youngs Moduli (GPa) = 70.56554 89.83398 49.15912
#
# Poissons Ratio (x) = 0.05533 -0.27130
# Poissons Ratio (y) = 0.04346 0.08467
# Poissons Ratio (z) = -0.38944 0.15474
#
# Static dielectric constant tensor:
#      x y z
#    x 1.619600 0.000000 -0.001860 
#    y 0.000000 1.618530 0.000000 
#    z -0.001860 0.000000 1.625710 
# 
# From -- ./inp_files/4838.got.cif
#   From: 2010.05.17/outbox.cif.g08.bks.cpg/sg11_3_cif.got.tgz:4838.got - 2010.06.03 12:22:45.
