data_PCOD9167871
_publ_section_title
;
Structure prediction by ZEFSAII (Michael W. Deem and Ramdas Pophale) SiO2 
 PCOD9167871
Probable space group: P 21/M
;
_chemical_formula_sum "Si O2"
_cell_formula_units_Z 32
_cell_length_a 12.000000
_cell_length_b 9.000000
_cell_length_c 15.000000
_cell_angle_alpha 90.000000
_cell_angle_beta 90.000000
_cell_angle_gamma 90.000000
_cell_volume 1620.000000
_symmetry_space_group_name_H-M "P 21/M"
_symmetry_group_IT_number 11
_symmetry_cell_setting 'monoclinic'
loop_
_space_group_symop_operation_xyz
x,y,z
-x,1/2+y,-z
-x,-y,-z
x,1/2-y,z
loop_
_atom_site_type_symbol
_atom_site_label
_atom_site_fract_x
_atom_site_fract_y
_atom_site_fract_z
Si Si1 0.509484 0.422743 0.095226
Si Si2 0.353776 0.069415 0.253651
Si Si3 0.394978 0.072868 0.453976
Si Si4 0.807551 0.925697 0.891144
Si Si5 0.822820 0.076395 0.494421
Si Si6 0.994961 0.924813 0.362865
Si Si7 0.036672 0.929006 0.825807
Si Si8 0.754368 0.077733 0.068201
O O1 0.478321 0.250000 0.082873
O O2 0.440273 0.482250 0.178196
O O3 0.638785 0.430241 0.118969
O O4 0.500000 0.500000 0.000000
O O5 0.358708 0.250000 0.258695
O O6 0.378482 0.016235 0.352351
O O7 0.237992 0.029346 0.206017
O O8 0.405928 0.250000 0.452835
O O9 0.500000 0.000000 0.500000
O O10 0.285843 0.022925 0.506476
O O11 0.791130 0.750000 0.898266
O O12 0.937286 0.957597 0.894474
O O13 0.746688 0.000645 0.972970
O O14 0.796882 0.250000 0.482570
O O15 0.886378 0.056358 0.588538
O O16 0.908272 0.020290 0.420386
O O17 0.967740 0.750000 0.367424
O O18 0.989589 0.986606 0.264281
O O19 0.041133 0.750000 0.809050
O O20 0.149164 0.983942 0.870345
O O21 0.780463 0.250000 0.050457
#
# Coordination Sequence:
#
# PCOD9167871 Si02
#       8
#     4   4   4   4   4   4   4   4
#     4  10  19  35  56  78 106 141 185 232 280 334
#     4   9  19  35  57  81 107 146 191 233 288 345
#     4  11  23  40  61  87 120 157 199 247 296 355
#     4  10  19  34  56  78 106 147 192 232 277 341
#     4  10  21  39  62  86 116 152 190 239 297 352
#     4  10  21  37  60  89 116 148 192 241 291 349
#     4  10  21  35  52  79 115 152 188 227 285 349
#     4  10  21  34  51  79 112 147 185 233 288 339
#
# _framework density 19.753086
#
# number of rings (size 3 to 8) (size 9 to 14) (size 15 to 20)
#    0.000    2.000    1.250    2.250    0.000    4.500 
#    0.000    5.000    0.000    0.000    0.000    0.000 
#    0.000    0.000    0.000    0.000    0.000    0.000 
#
# Total GULP energy -178387.906166 kJ/mol
# GULP energy per Si atom -5574.622068 kJ/mol
# Density = 1.970813 g / cm^3
# Si number density = 19.753086 Si / 1000 Ang^3
#
#
#
# Elastic Constant Matrix: (Units=GPa)
#
#
# Indices 1 2 3 4 5 6 
#
# 1 88.9847 33.5351 33.0198 0.0000 7.7614 0.0000
# 2 33.5351 22.1536 18.8613 0.0000 6.2896 0.0000
# 3 33.0198 18.8613 39.6792 0.0000 3.6673 0.0000
# 4 0.0000 0.0000 0.0000 24.7221 0.0000 4.1972
# 5 7.7614 6.2896 3.6673 0.0000 11.9517 0.0000
# 6 0.0000 0.0000 0.0000 4.1972 0.0000 18.4708
#
#
#
# Elastic Compliance Matrix: (Units=1/GPa)
#
#
# Indices 1 2 3 4 5 6 
#
# 1 0.026904 -0.037723 -0.004814 0.000000 0.003857 0.000000
# 2 -0.037723 0.140549 -0.031746 0.000000 -0.039726 0.000000
# 3 -0.004814 -0.031746 0.043705 0.000000 0.006422 0.000000
# 4 0.000000 0.000000 0.000000 0.042073 0.000000 -0.009561
# 5 0.003857 -0.039726 0.006422 0.000000 0.100101 0.000000
# 6 0.000000 0.000000 0.000000 -0.009561 0.000000 0.056312
#
#
# Mechanical properties :
#
#
# Convention : Reuss Voigt Hill
#
# Bulk Modulus (GPa) = 15.97626 35.73885 25.85756
# Shear Modulus (GPa) = 8.63449 15.38899 12.01174
#
# Velocity S-wave (km/s) = 2.09301 2.79421 2.46863
# Velocity P-wave (km/s) = 3.73450 5.34249 4.60916
#
# Compressibility (1/GPa) = 0.06259288
#
# Stress axis : x y z
#
# Youngs Moduli (GPa) = 37.16889 7.11495 22.88082
#
# Poissons Ratio (x) = 0.26840 0.11015
# Poissons Ratio (y) = 1.40212 0.72637
# Poissons Ratio (z) = 0.17893 0.22587
#
# Static dielectric constant tensor:
#      x y z
#    x 1.744170 0.000000 0.015910 
#    y 0.000000 1.667330 0.000000 
#    z 0.015910 0.000000 1.660070 
# 
# From -- ./inp_files/49304.got.cif
#   From: 2010.05.17/outbox.ucp.g08.bks.cvg/sg11_25_cif.got.tgz:49304.got - 2010.06.11 11:38:39.
