data_PCOD9167935
_publ_section_title
;
Structure prediction by ZEFSAII (Michael W. Deem and Ramdas Pophale) SiO2 
 PCOD9167935
Probable space group: P 21/M
;
_chemical_formula_sum "Si O2"
_cell_formula_units_Z 32
_cell_length_a 27.000000
_cell_length_b 9.000000
_cell_length_c 21.000000
_cell_angle_alpha 90.000000
_cell_angle_beta 160.000000
_cell_angle_gamma 90.000000
_cell_volume 1745.328791
_symmetry_space_group_name_H-M "P 21/M"
_symmetry_group_IT_number 11
_symmetry_cell_setting 'monoclinic'
loop_
_space_group_symop_operation_xyz
x,y,z
-x,1/2+y,-z
-x,-y,-z
x,1/2-y,z
loop_
_atom_site_type_symbol
_atom_site_label
_atom_site_fract_x
_atom_site_fract_y
_atom_site_fract_z
Si Si1 0.267420 0.927707 0.718313
Si Si2 0.937061 0.926289 0.288546
Si Si3 0.635500 0.073073 0.942031
Si Si4 0.125658 0.425015 0.936670
Si Si5 0.556017 0.929362 0.711476
Si Si6 0.996778 0.573173 0.899348
Si Si7 0.482208 0.425974 0.078147
Si Si8 0.233258 0.571231 0.289685
O O1 0.273506 0.750000 0.739310
O O2 0.364518 0.951702 0.772181
O O3 0.098765 0.969120 0.506176
O O4 0.354054 0.016568 0.876965
O O5 0.918121 0.750000 0.278539
O O6 0.922361 0.946078 0.194464
O O7 0.800196 0.013899 0.151579
O O8 0.636443 0.250000 0.940005
O O9 0.577209 0.004303 0.805723
O O10 0.536286 0.013915 0.879065
O O11 0.111396 0.250000 0.934314
O O12 0.029933 0.518691 0.868924
O O13 0.296143 0.466480 0.147556
O O14 0.557141 0.750000 0.721023
O O15 0.402284 0.972770 0.494901
O O16 0.981943 0.750000 0.884783
O O17 0.855156 0.498133 0.758414
O O18 0.136689 0.528614 0.111644
O O19 0.467100 0.250000 0.070606
O O20 0.228916 0.750000 0.289149
#
# Coordination Sequence:
#
# PCOD9167935 Si02
#       8
#     4   4   4   4   4   4   4   4
#     4   9  19  36  57  79 102 133 176 220 256 297
#     4   9  19  37  57  76 102 137 176 214 255 306
#     4  11  22  35  53  79 108 136 170 213 259 306
#     4   9  18  33  53  76 102 135 172 211 258 310
#     4   9  19  37  57  75  99 135 177 215 255 306
#     4  10  20  33  51  78 108 136 170 213 258 304
#     4  10  20  35  55  79 108 140 171 208 258 311
#     4   9  19  36  55  74 101 138 176 213 255 305
#
# _framework density 18.334654
#
# number of rings (size 3 to 8) (size 9 to 14) (size 15 to 20)
#    0.000    2.500    0.000    2.625    0.000    6.000 
#    0.000    2.500    0.000    0.000    0.000    0.000 
#    0.000    0.000    0.000    0.000    0.000    0.000 
#
# Total GULP energy -178536.374918 kJ/mol
# GULP energy per Si atom -5579.261716 kJ/mol
# Density = 1.829292 g / cm^3
# Si number density = 18.334654 Si / 1000 Ang^3
#
#
#
# Elastic Constant Matrix: (Units=GPa)
#
#
# Indices 1 2 3 4 5 6 
#
# 1 25.9029 3.9169 -37.8176 0.0000 1.2600 0.0000
# 2 3.9169 15.8274 -7.6138 0.0000 0.8619 0.0000
# 3 -37.8176 -7.6138 41.9467 0.0000 4.8924 0.0000
# 4 0.0000 0.0000 0.0000 24.9839 0.0000 0.4479
# 5 1.2600 0.8619 4.8924 0.0000 9.0768 0.0000
# 6 0.0000 0.0000 0.0000 0.4479 0.0000 23.9860
#
#
#
# Elastic Compliance Matrix: (Units=1/GPa)
#
#
# Indices 1 2 3 4 5 6 
#
# 1 -0.075906 -0.022170 -0.078892 0.000000 0.055165 0.000000
# 2 -0.022170 0.064520 -0.008453 0.000000 0.001507 0.000000
# 3 -0.078892 -0.008453 -0.053559 0.000000 0.040622 0.000000
# 4 0.000000 0.000000 0.000000 0.040039 0.000000 -0.000748
# 5 0.055165 0.001507 0.040622 0.000000 0.080475 0.000000
# 6 0.000000 0.000000 0.000000 -0.000748 0.000000 0.041705
#
#
# Mechanical properties :
#
#
# Convention : Reuss Voigt Hill
#
# Bulk Modulus (GPa) = -3.52142 0.07200 -1.72471
# Shear Modulus (GPa) = 22.55844 19.95544 21.25694
#
# Velocity S-wave (km/s) = 3.51147 3.30267 3.40867
# Velocity P-wave (km/s) = 3.80996 3.81875 3.81436
#
# Compressibility (1/GPa) = -0.28397600
#
# Stress axis : x y z
#
# Youngs Moduli (GPa) = -13.17416 15.49907 -18.67105
#
# Poissons Ratio (x) = 0.34362 -1.47300
# Poissons Ratio (y) = -0.29208 -0.15782
# Poissons Ratio (z) = -1.03934 0.13101
#
# Static dielectric constant tensor:
#      x y z
#    x 1.624140 0.000000 -0.001810 
#    y 0.000000 1.607820 0.000000 
#    z -0.001810 0.000000 1.625570 
# 
# From -- ./inp_files/67177.got.cif
#   From: 2010.05.17/outbox.ucp.g08.bks.cvg/sg11_34_cif.got.tgz:67177.got - 2010.06.11 11:38:39.
