data_PCOD9167832
_publ_section_title
;
Structure prediction by ZEFSAII (Michael W. Deem and Ramdas Pophale) SiO2 
 PCOD9167832
Probable space group: P 21/M
;
_chemical_formula_sum "Si O2"
_cell_formula_units_Z 32
_cell_length_a 9.000000
_cell_length_b 9.000000
_cell_length_c 24.000000
_cell_angle_alpha 90.000000
_cell_angle_beta 120.000000
_cell_angle_gamma 90.000000
_cell_volume 1683.553385
_symmetry_space_group_name_H-M "P 21/M"
_symmetry_group_IT_number 11
_symmetry_cell_setting 'monoclinic'
loop_
_space_group_symop_operation_xyz
x,y,z
-x,1/2+y,-z
-x,-y,-z
x,1/2-y,z
loop_
_atom_site_type_symbol
_atom_site_label
_atom_site_fract_x
_atom_site_fract_y
_atom_site_fract_z
Si Si1 0.326067 0.577838 0.827196
Si Si2 0.170590 0.573394 0.906122
Si Si3 0.006240 0.573292 0.561714
Si Si4 0.326145 0.076953 0.035339
Si Si5 0.637507 0.927235 0.487167
Si Si6 0.849603 0.078610 0.898302
Si Si7 0.376316 0.573472 0.636789
Si Si8 0.498994 0.580319 0.237792
O O1 0.305266 0.750000 0.806644
O O2 0.179160 0.531142 0.842626
O O3 0.492416 0.568326 0.899039
O O4 0.362300 0.481912 0.779996
O O5 0.200169 0.750000 0.915183
O O6 0.990816 0.525297 0.897693
O O7 0.307865 0.488745 0.970447
O O8 0.010655 0.750000 0.554762
O O9 0.821107 0.535527 0.550135
O O10 0.000000 0.500000 0.500000
O O11 0.184492 0.534094 0.623576
O O12 0.279396 0.250000 0.026053
O O13 0.200403 0.981046 0.050488
O O14 0.622577 0.750000 0.480592
O O15 0.500000 0.000000 0.500000
O O16 0.617400 0.995756 0.421872
O O17 0.905585 0.250000 0.911265
O O18 0.679455 0.071952 0.828712
O O19 0.391645 0.750000 0.632866
O O20 0.505047 0.514619 0.706974
O O21 0.535852 0.750000 0.259104
#
# Coordination Sequence:
#
# PCOD9167832 Si02
#       8
#     4   4   4   4   4   4   4   4
#     4   9  20  36  53  74 100 131 167 210 257 306
#     4  11  21  33  51  76 103 130 165 210 261 311
#     4   8  16  30  50  76 104 134 167 204 243 287
#     4  10  19  33  53  75 100 131 167 207 257 313
#     4  10  19  33  53  81 115 143 171 208 252 297
#     4  10  21  36  52  72 101 135 171 211 256 307
#     4  10  19  34  57  80 103 136 175 211 252 302
#     4  10  21  37  56  76  99 132 174 215 254 301
#
# _framework density 19.007415999999999
#
# number of rings (size 3 to 8) (size 9 to 14) (size 15 to 20)
#    0.000    2.250    0.000    3.000    0.000    4.000 
#    0.000    1.250    0.000    1.500    0.000    0.000 
#    0.000    0.000    0.000    0.000    0.000    0.000 
#
# Total GULP energy -178264.875967 kJ/mol
# GULP energy per Si atom -5570.777374 kJ/mol
# Density = 1.896415 g / cm^3
# Si number density = 19.007416 Si / 1000 Ang^3
#
#
#
# Elastic Constant Matrix: (Units=GPa)
#
#
# Indices 1 2 3 4 5 6 
#
# 1 61.1517 13.0369 23.5386 0.0000 -2.3111 0.0000
# 2 13.0369 42.5937 39.6100 0.0000 -0.3362 0.0000
# 3 23.5386 39.6100 51.9730 0.0000 -14.0245 0.0000
# 4 0.0000 0.0000 0.0000 26.3636 0.0000 -5.0865
# 5 -2.3111 -0.3362 -14.0245 0.0000 10.5207 0.0000
# 6 0.0000 0.0000 0.0000 -5.0865 0.0000 21.7642
#
#
#
# Elastic Compliance Matrix: (Units=1/GPa)
#
#
# Indices 1 2 3 4 5 6 
#
# 1 0.012003 -0.038073 0.037426 0.000000 0.051310 0.000000
# 2 -0.038073 -0.164692 0.217217 0.000000 0.275932 0.000000
# 3 0.037426 0.217217 -0.248582 0.000000 -0.316206 0.000000
# 4 0.000000 0.000000 0.000000 0.039722 0.000000 0.009283
# 5 0.051310 0.275932 -0.316206 0.000000 -0.306374 0.000000
# 6 0.000000 0.000000 0.000000 0.009283 0.000000 0.048117
#
#
# Mechanical properties :
#
#
# Convention : Reuss Voigt Hill
#
# Bulk Modulus (GPa) = 31.37813 34.23215 32.80514
# Shear Modulus (GPa) = -4.79697 17.03189 6.11746
#
# Velocity S-wave (km/s) = -1.59035 2.99668 1.79595
# Velocity P-wave (km/s) = 3.62931 5.47928 4.64728
#
# Compressibility (1/GPa) = 0.03186933
#
# Stress axis : x y z
#
# Youngs Moduli (GPa) = 83.31577 -6.07194 -4.02282
#
# Poissons Ratio (x) = -0.23118 0.15056
# Poissons Ratio (y) = 3.17208 0.87383
# Poissons Ratio (z) = -3.11819 1.31893
#
# Static dielectric constant tensor:
#      x y z
#    x 1.737780 0.000000 0.038500 
#    y 0.000000 1.634580 0.000000 
#    z 0.038500 0.000000 1.664850 
# 
# From -- ./inp_files/67888.got.cif
#   From: 2010.05.17/outbox.ucp.g08.bks.cvg/sg11_34_cif.got.tgz:67888.got - 2010.06.11 11:38:39.
