data_PCOD9167388
_publ_section_title
;
Structure prediction by ZEFSAII (Michael W. Deem and Ramdas Pophale) SiO2 
 PCOD9167388
Probable space group: P 21/M
;
_chemical_formula_sum "Si O2"
_cell_formula_units_Z 24
_cell_length_a 12.451005
_cell_length_b 13.655403
_cell_length_c 10.094535
_cell_angle_alpha 90.000000
_cell_angle_beta 143.509920
_cell_angle_gamma 90.000000
_cell_volume 1020.660270
_symmetry_space_group_name_H-M "P 21/M"
_symmetry_group_IT_number 11
_symmetry_cell_setting 'monoclinic'
loop_
_space_group_symop_operation_xyz
x,y,z
-x,1/2+y,-z
-x,-y,-z
x,1/2-y,z
loop_
_atom_site_type_symbol
_atom_site_label
_atom_site_fract_x
_atom_site_fract_y
_atom_site_fract_z
Si Si1 0.631369 0.142684 0.622691
Si Si2 0.589980 0.460852 0.956252
Si Si3 0.898000 0.066338 0.688962
Si Si4 0.234185 0.361503 0.509318
Si Si5 0.931157 0.363125 0.424348
Si Si6 0.284630 0.438795 0.162834
O O1 0.663680 0.250000 0.710730
O O2 0.735812 0.129673 0.587100
O O3 0.420002 0.123700 0.385988
O O4 0.705360 0.051652 0.779328
O O5 0.441908 0.389923 0.742057
O O6 0.632800 0.551263 0.902296
O O7 0.500000 0.500000 0.000000
O O8 0.776124 0.408076 0.177640
O O9 0.928303 0.084585 0.563457
O O10 0.847846 0.951418 0.656556
O O11 0.079713 0.093093 0.946601
O O12 0.214629 0.250000 0.440797
O O13 0.120775 0.367095 0.534637
O O14 0.888551 0.250000 0.406148
#
# Coordination Sequence:
#
# PCOD9167388 Si02
#       6
#     4   4   4   4   4   4
#     4  11  26  47  68  96 129 173 226 274 327 390
#     4  12  21  40  67  93 134 174 212 267 329 395
#     4  12  22  44  68  95 134 173 219 273 332 389
#     4  11  23  37  61  97 131 171 220 265 324 391
#     4  11  23  38  63  97 133 174 217 268 330 397
#     4  11  25  44  70  97 131 174 218 274 331 387
#
# _framework density 23.514189999999999
#
# number of rings (size 3 to 8) (size 9 to 14) (size 15 to 20)
#    0.000    0.667    5.000    3.000    0.000    3.333 
#    0.000    2.500    0.000    0.000    0.000    0.000 
#    0.000    0.000    0.000    0.000    0.000    0.000 
#
# Total GULP energy -134419.600246 kJ/mol
# GULP energy per Si atom -5600.816677 kJ/mol
# Density = 2.346067 g / cm^3
# Si number density = 23.514190 Si / 1000 Ang^3
#
#
#
# Elastic Constant Matrix: (Units=GPa)
#
#
# Indices 1 2 3 4 5 6 
#
# 1 77.9709 -2.6480 4.9164 0.0000 13.0389 0.0000
# 2 -2.6480 70.7069 -12.7913 0.0000 8.1560 0.0000
# 3 4.9164 -12.7913 119.3980 0.0000 27.6408 0.0000
# 4 0.0000 0.0000 0.0000 12.2197 0.0000 0.4036
# 5 13.0389 8.1560 27.6408 0.0000 36.2926 0.0000
# 6 0.0000 0.0000 0.0000 0.4036 0.0000 26.8567
#
#
#
# Elastic Compliance Matrix: (Units=1/GPa)
#
#
# Indices 1 2 3 4 5 6 
#
# 1 0.013817 0.001387 0.000973 0.000000 -0.006017 0.000000
# 2 0.001387 0.015476 0.003061 0.000000 -0.006308 0.000000
# 3 0.000973 0.003061 0.010809 0.000000 -0.009270 0.000000
# 4 0.000000 0.000000 0.000000 0.081876 0.000000 -0.001230
# 5 -0.006017 -0.006308 -0.009270 0.000000 0.038193 0.000000
# 6 0.000000 0.000000 0.000000 -0.001230 0.000000 0.037253
#
#
# Mechanical properties :
#
#
# Convention : Reuss Voigt Hill
#
# Bulk Modulus (GPa) = 19.62908 27.44778 23.53843
# Shear Modulus (GPa) = 24.56229 33.64704 29.10467
#
# Velocity S-wave (km/s) = 3.23549 3.78686 3.52198
# Velocity P-wave (km/s) = 4.72480 5.55145 5.15472
#
# Compressibility (1/GPa) = 0.05094482
#
# Stress axis : x y z
#
# Youngs Moduli (GPa) = 72.37337 64.61520 92.51383
#
# Poissons Ratio (x) = -0.08965 -0.08997
# Poissons Ratio (y) = -0.10041 -0.28320
# Poissons Ratio (z) = -0.07039 -0.19780
#
# Static dielectric constant tensor:
#      x y z
#    x 1.937150 0.000000 -0.025990 
#    y 0.000000 1.860220 0.000000 
#    z -0.025990 0.000000 1.854610 
# 
# From -- ./inp_files/39733.got.cif
#   From: 2010.05.17/outbox.cif.g08.bks.cpg/sg11_20_cif.got.tgz:39733.got - 2010.06.03 12:22:45.
