data_PCOD9167668
_publ_section_title
;
Structure prediction by ZEFSAII (Michael W. Deem and Ramdas Pophale) SiO2 
 PCOD9167668
Probable space group: P 21/M
;
_chemical_formula_sum "Si O2"
_cell_formula_units_Z 20
_cell_length_a 15.233921
_cell_length_b 9.915940
_cell_length_c 7.004467
_cell_angle_alpha 90.000000
_cell_angle_beta 53.547531
_cell_angle_gamma 90.000000
_cell_volume 851.070950
_symmetry_space_group_name_H-M "P 21/M"
_symmetry_group_IT_number 11
_symmetry_cell_setting 'monoclinic'
loop_
_space_group_symop_operation_xyz
x,y,z
-x,1/2+y,-z
-x,-y,-z
x,1/2-y,z
loop_
_atom_site_type_symbol
_atom_site_label
_atom_site_fract_x
_atom_site_fract_y
_atom_site_fract_z
Si Si1 0.921736 0.601535 0.338614
Si Si2 0.255858 0.901873 0.460300
Si Si3 0.450474 0.403261 0.298600
Si Si4 0.365883 0.399192 0.845317
Si Si5 0.151644 0.998147 0.960243
O O1 0.893978 0.750000 0.447922
O O2 0.845138 0.479844 0.506927
O O3 0.897224 0.598420 0.139769
O O4 0.048777 0.568778 0.194189
O O5 0.276022 0.750000 0.367982
O O6 0.218456 0.898435 0.732770
O O7 0.357091 0.003776 0.327216
O O8 0.458164 0.250000 0.218260
O O9 0.412842 0.393598 0.568424
O O10 0.563225 0.484412 0.149861
O O11 0.380925 0.250000 0.909119
O O12 0.239214 0.433726 0.983382
#
# Coordination Sequence:
#
# PCOD9167668 Si02
#       5
#     4   4   4   4   4
#     4   9  15  22  28  33  39  45  51  56  61  67
#     4   9  15  21  28  34  39  45  51  56  62  68
#     4   9  16  22  27  33  39  44  50  57  63  68
#     4   9  15  22  28  32  38  45  51  56  61  68
#     4   8  16  19  29  32  40  42  50  56  62  66
#
# _framework density 23.499804999999999
#
# number of rings (size 3 to 8) (size 9 to 14) (size 15 to 20)
#    1.200    2.000    0.000    2.400    0.000    6.400 
#    0.000    0.000    0.000    0.000    0.000    0.000 
#    0.000    0.000    0.000    0.000    0.000    0.000 
#
# Total GULP energy -111557.873790 kJ/mol
# GULP energy per Si atom -5577.893689 kJ/mol
# Density = 2.344632 g / cm^3
# Si number density = 23.499805 Si / 1000 Ang^3
#
#
#
# Elastic Constant Matrix: (Units=GPa)
#
#
# Indices 1 2 3 4 5 6 
#
# 1 37.5950 47.2873 116.9769 0.0000 -22.2981 0.0000
# 2 47.2873 240.1679 76.6454 0.0000 -38.3506 0.0000
# 3 116.9769 76.6454 14.6773 0.0000 -26.9708 0.0000
# 4 0.0000 0.0000 0.0000 5.4627 0.0000 -10.3445
# 5 -22.2981 -38.3506 -26.9708 0.0000 52.2143 0.0000
# 6 0.0000 0.0000 0.0000 -10.3445 0.0000 -16.1139
#
#
#
# Elastic Compliance Matrix: (Units=1/GPa)
#
#
# Indices 1 2 3 4 5 6 
#
# 1 0.001481 -0.002879 0.009932 0.000000 0.003648 0.000000
# 2 -0.002879 0.005352 -0.000802 0.000000 0.002287 0.000000
# 3 0.009932 -0.000802 -0.002409 0.000000 0.002408 0.000000
# 4 0.000000 0.000000 0.000000 0.082621 0.000000 -0.053039
# 5 0.003648 0.002287 0.002408 0.000000 0.023633 0.000000
# 6 0.000000 0.000000 0.000000 -0.053039 0.000000 -0.028009
#
#
# Mechanical properties :
#
#
# Convention : Reuss Voigt Hill
#
# Bulk Modulus (GPa) = 59.08061 86.02883 72.55472
# Shear Modulus (GPa) = 65.95473 11.74800 38.85137
#
# Velocity S-wave (km/s) = 5.30349 2.23831 4.07045
# Velocity P-wave (km/s) = 7.91822 6.58543 7.28238
#
# Compressibility (1/GPa) = 0.01692603
#
# Stress axis : x y z
#
# Youngs Moduli (GPa) = 675.15232 186.85367 -415.17300
#
# Poissons Ratio (x) = 0.53788 4.12341
# Poissons Ratio (y) = 1.94349 -0.33310
# Poissons Ratio (z) = -6.70547 0.14992
#
# Static dielectric constant tensor:
#      x y z
#    x 1.882550 0.000000 0.012600 
#    y 0.000000 1.848870 0.000000 
#    z 0.012600 0.000000 1.880900 
# 
# From -- ./inp_files/55188.got.cif
#   From: 2010.05.17/outbox.cif.g08.bks.cpg/sg11_28_cif.got.tgz:55188.got - 2010.06.03 12:22:45.
