data_PCOD9167207
_publ_section_title
;
Structure prediction by ZEFSAII (Michael W. Deem and Ramdas Pophale) SiO2 
 PCOD9167207
Probable space group: P 21/M
;
_chemical_formula_sum "Si O2"
_cell_formula_units_Z 26
_cell_length_a 8.327639
_cell_length_b 21.400861
_cell_length_c 12.343961
_cell_angle_alpha 90.000000
_cell_angle_beta 145.870536
_cell_angle_gamma 90.000000
_cell_volume 1234.299799
_symmetry_space_group_name_H-M "P 21/M"
_symmetry_group_IT_number 11
_symmetry_cell_setting 'monoclinic'
loop_
_space_group_symop_operation_xyz
x,y,z
-x,1/2+y,-z
-x,-y,-z
x,1/2-y,z
loop_
_atom_site_type_symbol
_atom_site_label
_atom_site_fract_x
_atom_site_fract_y
_atom_site_fract_z
Si Si1 0.108193 0.447972 0.308887
Si Si2 0.514285 0.380034 0.956104
Si Si3 0.278668 0.681885 0.509407
Si Si4 0.693493 0.750000 0.216259
Si Si5 0.688658 0.969216 0.349618
Si Si6 0.300491 0.086200 0.178140
Si Si7 0.978871 0.092387 0.799491
O O1 0.294144 0.439846 0.520770
O O2 0.230378 0.423340 0.264457
O O3 0.079565 0.522774 0.275681
O O4 0.808157 0.412963 0.155697
O O5 0.531503 0.307274 0.933577
O O6 0.394813 0.420888 0.789295
O O7 0.291489 0.388231 0.929804
O O8 0.406246 0.750000 0.556831
O O9 0.475858 0.643158 0.700220
O O10 0.958635 0.696882 0.373959
O O11 0.229976 0.641426 0.374043
O O12 0.456410 0.024313 0.222470
O O13 0.000000 0.000000 0.500000
O O14 0.014884 0.095288 0.948304
#
# Coordination Sequence:
#
# PCOD9167207 Si02
#       7
#     4   4   4   2   4   4   4
#     4  12  24  38  62  99 133 158 206 267 327 370
#     4  11  22  41  64  92 127 163 217 259 312 377
#     4   9  21  42  62  87 125 165 216 251 301 380
#     4   8  20  44  62  84 124 168 210 262 300 376
#     4  12  22  38  66  95 124 167 208 264 311 371
#     4  12  24  38  65  97 130 161 207 261 326 379
#     4  11  21  39  66  94 122 168 203 260 312 375
#
# _framework density 21.064575000000001
#
# number of rings (size 3 to 8) (size 9 to 14) (size 15 to 20)
#    0.462    0.615    4.615    3.231    0.000    0.615 
#    1.385    0.769    3.385    0.000    0.000    0.000 
#    0.000    0.000    0.000    0.000    0.000    0.000 
#
# Total GULP energy -144765.240825 kJ/mol
# GULP energy per Si atom -5567.893878 kJ/mol
# Density = 2.101663 g / cm^3
# Si number density = 21.064575 Si / 1000 Ang^3
#
#
#
# Elastic Constant Matrix: (Units=GPa)
#
#
# Indices 1 2 3 4 5 6 
#
# 1 35.4009 3.4033 -5.0707 0.0000 -13.6057 0.0000
# 2 3.4033 126.1173 50.1365 0.0000 -2.4129 0.0000
# 3 -5.0707 50.1365 113.7234 0.0000 -25.8033 0.0000
# 4 0.0000 0.0000 0.0000 21.4453 0.0000 1.4940
# 5 -13.6057 -2.4129 -25.8033 0.0000 24.7509 0.0000
# 6 0.0000 0.0000 0.0000 1.4940 0.0000 8.2218
#
#
#
# Elastic Compliance Matrix: (Units=1/GPa)
#
#
# Indices 1 2 3 4 5 6 
#
# 1 0.045350 -0.005745 0.013208 0.000000 0.038139 0.000000
# 2 -0.005745 0.010752 -0.007171 0.000000 -0.009586 0.000000
# 3 0.013208 -0.007171 0.018380 0.000000 0.025723 0.000000
# 4 0.000000 0.000000 0.000000 0.047228 0.000000 -0.008582
# 5 0.038139 -0.009586 0.025723 0.000000 0.087250 0.000000
# 6 0.000000 0.000000 0.000000 -0.008582 0.000000 0.123187
#
#
# Mechanical properties :
#
#
# Convention : Reuss Voigt Hill
#
# Bulk Modulus (GPa) = 13.32153 41.35331 27.33742
# Shear Modulus (GPa) = 14.02191 26.00178 20.01184
#
# Velocity S-wave (km/s) = 2.58284 3.51719 3.08559
# Velocity P-wave (km/s) = 3.90290 6.01402 5.06957
#
# Compressibility (1/GPa) = 0.07506643
#
# Stress axis : x y z
#
# Youngs Moduli (GPa) = 22.05069 93.00989 54.40648
#
# Poissons Ratio (x) = 0.53433 -0.71862
# Poissons Ratio (y) = 0.12668 0.39015
# Poissons Ratio (z) = -0.29125 0.66698
#
# Static dielectric constant tensor:
#      x y z
#    x 1.824660 0.000000 0.020240 
#    y 0.000000 1.762770 0.000000 
#    z 0.020240 0.000000 1.760740 
# 
# From -- ./inp_files/32868.got.cif
#   From: 2010.05.17/outbox.cif.g08.bks.cpg/sg11_17_cif.got.tgz:32868.got - 2010.06.03 12:22:45.
