data_PCOD9167105
_publ_section_title
;
Structure prediction by ZEFSAII (Michael W. Deem and Ramdas Pophale) SiO2 
 PCOD9167105
Probable space group: P 21/M
;
_chemical_formula_sum "Si O2"
_cell_formula_units_Z 32
_cell_length_a 10.939704
_cell_length_b 18.987634
_cell_length_c 14.400772
_cell_angle_alpha 90.000000
_cell_angle_beta 147.051190
_cell_angle_gamma 90.000000
_cell_volume 1626.945065
_symmetry_space_group_name_H-M "P 21/M"
_symmetry_group_IT_number 11
_symmetry_cell_setting 'monoclinic'
loop_
_space_group_symop_operation_xyz
x,y,z
-x,1/2+y,-z
-x,-y,-z
x,1/2-y,z
loop_
_atom_site_type_symbol
_atom_site_label
_atom_site_fract_x
_atom_site_fract_y
_atom_site_fract_z
Si Si1 0.868737 0.035479 0.774809
Si Si2 0.370421 0.059190 0.122783
Si Si3 0.247872 0.666887 0.963197
Si Si4 0.111421 0.828657 0.336907
Si Si5 0.408374 0.168680 0.985599
Si Si6 0.413664 0.171417 0.299768
Si Si7 0.563130 0.424126 0.748650
Si Si8 0.754715 0.610728 0.616844
O O1 0.843418 0.109047 0.705535
O O2 0.755719 0.046716 0.802095
O O3 0.754292 0.970620 0.649634
O O4 0.135282 0.023042 0.945364
O O5 0.451297 0.110102 0.091821
O O6 0.312554 0.112155 0.170003
O O7 0.524705 0.994978 0.255463
O O8 0.221390 0.750000 0.963785
O O9 0.433997 0.657138 0.001907
O O10 0.010743 0.636540 0.776699
O O11 0.331763 0.628295 0.109450
O O12 0.126200 0.750000 0.304027
O O13 0.315956 0.832272 0.539620
O O14 0.856536 0.836831 0.209262
O O15 0.442884 0.250000 0.040794
O O16 0.335584 0.250000 0.226639
O O17 0.357946 0.154843 0.371257
O O18 0.379781 0.387599 0.565239
#
# Coordination Sequence:
#
# PCOD9167105 Si02
#       8
#     4   4   4   4   4   4   4   4
#     4  11  20  38  62  90 131 163 199 253 318 374
#     4  11  21  37  65  92 123 164 215 260 315 364
#     4  11  26  46  64  90 127 170 215 255 306 377
#     4   9  19  36  60  88 119 159 205 259 312 361
#     4   9  21  44  65  84 123 170 212 264 311 356
#     4  11  21  35  60  96 127 158 209 262 313 379
#     4  12  23  39  66  95 128 167 205 256 318 379
#     4  12  23  41  64  95 134 168 198 252 322 379
#
# _framework density 19.668765
#
# number of rings (size 3 to 8) (size 9 to 14) (size 15 to 20)
#    0.000    1.250    3.750    3.000    0.000    2.500 
#    2.250    0.625    0.000    0.000    0.000    0.000 
#    0.000    0.000    0.000    0.000    0.000    0.000 
#
# Total GULP energy -178639.538885 kJ/mol
# GULP energy per Si atom -5582.485590 kJ/mol
# Density = 1.962400 g / cm^3
# Si number density = 19.668765 Si / 1000 Ang^3
#
#
#
# Elastic Constant Matrix: (Units=GPa)
#
#
# Indices 1 2 3 4 5 6 
#
# 1 68.6377 32.0891 26.5857 0.0000 7.2082 0.0000
# 2 32.0891 103.0577 31.3301 0.0000 -0.4659 0.0000
# 3 26.5857 31.3301 60.4599 0.0000 -8.9951 0.0000
# 4 0.0000 0.0000 0.0000 22.2935 0.0000 -10.9274
# 5 7.2082 -0.4659 -8.9951 0.0000 21.9902 0.0000
# 6 0.0000 0.0000 0.0000 -10.9274 0.0000 22.9852
#
#
#
# Elastic Compliance Matrix: (Units=1/GPa)
#
#
# Indices 1 2 3 4 5 6 
#
# 1 0.020869 -0.003895 -0.008719 0.000000 -0.010490 0.000000
# 2 -0.003895 0.012359 -0.004752 0.000000 -0.000405 0.000000
# 3 -0.008719 -0.004752 0.024753 0.000000 0.012883 0.000000
# 4 0.000000 0.000000 0.000000 0.058485 0.000000 0.027804
# 5 -0.010490 -0.000405 0.012883 0.000000 0.054174 0.000000
# 6 0.000000 0.000000 0.000000 0.027804 0.000000 0.056725
#
#
# Mechanical properties :
#
#
# Convention : Reuss Voigt Hill
#
# Bulk Modulus (GPa) = 43.01210 45.79610 44.40410
# Shear Modulus (GPa) = 18.52913 22.93048 20.72981
#
# Velocity S-wave (km/s) = 3.07263 3.41813 3.24997
# Velocity P-wave (km/s) = 5.87399 6.23798 6.05872
#
# Compressibility (1/GPa) = 0.02324927
#
# Stress axis : x y z
#
# Youngs Moduli (GPa) = 47.91828 80.91404 40.39929
#
# Poissons Ratio (x) = 0.31514 0.35224
# Poissons Ratio (y) = 0.18663 0.19198
# Poissons Ratio (z) = 0.41780 0.38450
#
# Static dielectric constant tensor:
#      x y z
#    x 1.662410 0.000000 0.011750 
#    y 0.000000 1.702430 0.000000 
#    z 0.011750 0.000000 1.728270 
# 
# From -- ./inp_files/50693.got.cif
#   From: 2010.05.17/outbox.cif.g08.bks.cpg/sg11_26_cif.got.tgz:50693.got - 2010.06.03 12:22:45.
