data_PCOD9167312
_publ_section_title
;
Structure prediction by ZEFSAII (Michael W. Deem and Ramdas Pophale) SiO2 
 PCOD9167312
Probable space group: P 21/M
;
_chemical_formula_sum "Si O2"
_cell_formula_units_Z 32
_cell_length_a 12.240124
_cell_length_b 20.191078
_cell_length_c 9.434866
_cell_angle_alpha 90.000000
_cell_angle_beta 48.533566
_cell_angle_gamma 90.000000
_cell_volume 1747.278637
_symmetry_space_group_name_H-M "P 21/M"
_symmetry_group_IT_number 11
_symmetry_cell_setting 'monoclinic'
loop_
_space_group_symop_operation_xyz
x,y,z
-x,1/2+y,-z
-x,-y,-z
x,1/2-y,z
loop_
_atom_site_type_symbol
_atom_site_label
_atom_site_fract_x
_atom_site_fract_y
_atom_site_fract_z
Si Si1 0.515237 0.172610 0.111719
Si Si2 0.859201 0.325396 0.863225
Si Si3 0.061437 0.175164 0.948782
Si Si4 0.891585 0.963067 0.983610
Si Si5 0.894117 0.457003 0.687637
Si Si6 0.369574 0.173100 0.527609
Si Si7 0.570129 0.439853 0.854496
Si Si8 0.556436 0.555936 0.348255
O O1 0.490084 0.250000 0.101635
O O2 0.409153 0.152658 0.332654
O O3 0.684427 0.165046 0.015178
O O4 0.506294 0.126378 0.982419
O O5 0.888918 0.250000 0.788861
O O6 0.932181 0.382099 0.704265
O O7 0.922220 0.331376 0.966848
O O8 0.067529 0.250000 0.002947
O O9 0.063964 0.114693 0.056335
O O10 0.200952 0.168540 0.722128
O O11 0.725872 0.960765 0.178839
O O12 0.885762 0.001483 0.840693
O O13 0.000000 0.000000 0.000000
O O14 0.741574 0.447109 0.737099
O O15 0.000000 0.500000 0.500000
O O16 0.412986 0.250000 0.501852
O O17 0.453884 0.126087 0.563450
O O18 0.527042 0.443254 0.728312
O O19 0.500000 0.500000 0.000000
O O20 0.500000 0.500000 0.500000
#
# Coordination Sequence:
#
# PCOD9167312 Si02
#       8
#     4   4   4   4   4   4   4   4
#     4   9  19  36  59  84 114 152 189 233 289 349
#     4   9  18  35  58  82 110 149 192 232 281 340
#     4   9  18  34  58  84 113 149 189 240 285 337
#     4  11  22  39  59  86 116 150 195 239 291 349
#     4  11  24  39  58  86 118 156 191 242 295 346
#     4   9  19  35  56  84 114 147 192 234 286 349
#     4  11  22  39  57  82 119 152 193 241 292 348
#     4  11  24  37  59  86 114 153 193 246 290 344
#
# _framework density 18.314195000000002
#
# number of rings (size 3 to 8) (size 9 to 14) (size 15 to 20)
#    0.000    2.000    2.500    0.750    3.500    1.500 
#    0.000    0.625    0.000    0.000    0.000    0.000 
#    0.000    0.000    0.000    0.000    0.000    0.000 
#
# Total GULP energy -178415.035232 kJ/mol
# GULP energy per Si atom -5575.469851 kJ/mol
# Density = 1.827251 g / cm^3
# Si number density = 18.314195 Si / 1000 Ang^3
#
#
#
# Elastic Constant Matrix: (Units=GPa)
#
#
# Indices 1 2 3 4 5 6 
#
# 1 97.5162 41.6215 22.8559 0.0000 24.0060 0.0000
# 2 41.6215 110.1545 43.3960 0.0000 13.3091 0.0000
# 3 22.8559 43.3960 59.7634 0.0000 21.8317 0.0000
# 4 0.0000 0.0000 0.0000 32.5933 0.0000 5.4008
# 5 24.0060 13.3091 21.8317 0.0000 22.2159 0.0000
# 6 0.0000 0.0000 0.0000 5.4008 0.0000 28.9863
#
#
#
# Elastic Compliance Matrix: (Units=1/GPa)
#
#
# Indices 1 2 3 4 5 6 
#
# 1 0.016217 -0.005771 0.004878 0.000000 -0.018861 0.000000
# 2 -0.005771 0.014843 -0.011857 0.000000 0.008996 0.000000
# 3 0.004878 -0.011857 0.035580 0.000000 -0.033133 0.000000
# 4 0.000000 0.000000 0.000000 0.031659 0.000000 -0.005899
# 5 -0.018861 0.008996 -0.033133 0.000000 0.092564 0.000000
# 6 0.000000 0.000000 0.000000 -0.005899 0.000000 0.035598
#
#
# Mechanical properties :
#
#
# Convention : Reuss Voigt Hill
#
# Bulk Modulus (GPa) = 24.30652 53.68678 38.99665
# Shear Modulus (GPa) = 18.82000 27.39647 23.10824
#
# Velocity S-wave (km/s) = 3.20913 3.87190 3.55599
# Velocity P-wave (km/s) = 5.19924 7.02615 6.18057
#
# Compressibility (1/GPa) = 0.04114123
#
# Stress axis : x y z
#
# Youngs Moduli (GPa) = 61.66203 67.37253 28.10534
#
# Poissons Ratio (x) = 0.38878 -0.13709
# Poissons Ratio (y) = 0.35583 0.33325
# Poissons Ratio (z) = -0.30078 0.79884
#
# Static dielectric constant tensor:
#      x y z
#    x 1.634110 0.000000 -0.003560 
#    y 0.000000 1.658730 0.000000 
#    z -0.003560 0.000000 1.626310 
# 
# From -- ./inp_files/19388.got.cif
#   From: 2010.05.17/outbox.cif.g08.bks.cpg/sg11_10_cif.got.tgz:19388.got - 2010.06.03 12:22:45.
