data_PCOD9167247
_publ_section_title
;
Structure prediction by ZEFSAII (Michael W. Deem and Ramdas Pophale) SiO2 
 PCOD9167247
Probable space group: P 21/M
;
_chemical_formula_sum "Si O2"
_cell_formula_units_Z 24
_cell_length_a 17.296854
_cell_length_b 7.703049
_cell_length_c 14.692463
_cell_angle_alpha 90.000000
_cell_angle_beta 152.953366
_cell_angle_gamma 90.000000
_cell_volume 890.152050
_symmetry_space_group_name_H-M "P 21/M"
_symmetry_group_IT_number 11
_symmetry_cell_setting 'monoclinic'
loop_
_space_group_symop_operation_xyz
x,y,z
-x,1/2+y,-z
-x,-y,-z
x,1/2-y,z
loop_
_atom_site_type_symbol
_atom_site_label
_atom_site_fract_x
_atom_site_fract_y
_atom_site_fract_z
Si Si1 0.599635 0.954801 0.497850
Si Si2 0.172874 0.044424 0.732968
Si Si3 0.848430 0.045612 0.911245
Si Si4 0.623211 0.043179 0.893622
Si Si5 0.674702 0.536446 0.285223
Si Si6 0.080955 0.457849 0.306954
O O1 0.576819 0.750000 0.485179
O O2 0.440992 0.026490 0.271606
O O3 0.759524 0.980259 0.596035
O O4 0.674963 0.013154 0.673919
O O5 0.187404 0.250000 0.753714
O O6 0.309258 0.975054 0.801366
O O7 0.000000 0.000000 0.500000
O O8 0.204688 0.978778 0.868283
O O9 0.849064 0.250000 0.927081
O O10 0.918239 0.970293 0.080562
O O11 0.000000 0.000000 0.000000
O O12 0.604149 0.250000 0.863869
O O13 0.484536 0.978043 0.821846
O O14 0.673885 0.750000 0.284345
O O15 0.840697 0.476020 0.516601
O O16 0.059610 0.250000 0.295959
#
# Coordination Sequence:
#
# PCOD9167247 Si02
#       6
#     4   4   4   4   4   4
#     4   8  14  24  39  60  88 119 146 177 221 269
#     4  11  22  34  49  69  93 122 155 192 234 279
#     4   9  14  20  34  57  88 121 148 178 217 261
#     4   9  17  32  52  71  93 121 154 193 233 274
#     4   8  15  29  49  70  92 121 156 191 229 274
#     4   7  11  21  37  59  86 116 148 179 215 261
#
# _framework density 26.961686
#
# number of rings (size 3 to 8) (size 9 to 14) (size 15 to 20)
#    0.000    3.333    0.000    4.500    0.000    0.667 
#    0.000    0.833    0.000   10.000    0.000    1.167 
#    0.000    0.000    0.000    0.000    0.000    0.000 
#
# Total GULP energy -134008.032114 kJ/mol
# GULP energy per Si atom -5583.668005 kJ/mol
# Density = 2.690032 g / cm^3
# Si number density = 26.961686 Si / 1000 Ang^3
#
#
#
# Elastic Constant Matrix: (Units=GPa)
#
#
# Indices 1 2 3 4 5 6 
#
# 1 127.0924 -6.1832 62.7224 0.0000 -53.8999 0.0000
# 2 -6.1832 46.3063 9.2718 0.0000 -13.5077 0.0000
# 3 62.7224 9.2718 255.8932 0.0000 -43.0505 0.0000
# 4 0.0000 0.0000 0.0000 29.7632 0.0000 -4.1789
# 5 -53.8999 -13.5077 -43.0505 0.0000 79.8918 0.0000
# 6 0.0000 0.0000 0.0000 -4.1789 0.0000 4.0243
#
#
#
# Elastic Compliance Matrix: (Units=1/GPa)
#
#
# Indices 1 2 3 4 5 6 
#
# 1 0.012448 0.004409 -0.001839 0.000000 0.008152 0.000000
# 2 0.004409 0.024286 -0.000846 0.000000 0.006624 0.000000
# 3 -0.001839 -0.000846 0.004571 0.000000 0.001079 0.000000
# 4 0.000000 0.000000 0.000000 0.039333 0.000000 0.040844
# 5 0.008152 0.006624 0.001079 0.000000 0.019719 0.000000
# 6 0.000000 0.000000 0.000000 0.040844 0.000000 0.290902
#
#
# Mechanical properties :
#
#
# Convention : Reuss Voigt Hill
#
# Bulk Modulus (GPa) = 22.34594 62.32378 42.33486
# Shear Modulus (GPa) = 12.41530 46.96794 29.69162
#
# Velocity S-wave (km/s) = 2.14821 4.17829 3.32211
# Velocity P-wave (km/s) = 3.80251 6.81493 5.51826
#
# Compressibility (1/GPa) = 0.04475086
#
# Stress axis : x y z
#
# Youngs Moduli (GPa) = 80.33458 41.17637 218.77409
#
# Poissons Ratio (x) = -0.18153 0.40240
# Poissons Ratio (y) = -0.35416 0.18509
# Poissons Ratio (z) = 0.14776 0.03484
#
# Static dielectric constant tensor:
#      x y z
#    x 1.569510 0.000000 0.737220 
#    y 0.000000 1.986700 0.000000 
#    z 0.737220 0.000000 1.589960 
# 
# From -- ./inp_files/61887.got.cif
#   From: 2010.05.17/outbox.cif.g08.bks.cpg/sg11_31_cif.got.tgz:61887.got - 2010.06.03 12:22:45.
