data_PCOD9167903
_publ_section_title
;
Structure prediction by ZEFSAII (Michael W. Deem and Ramdas Pophale) SiO2 
 PCOD9167903
Probable space group: P 21/M
;
_chemical_formula_sum "Si O2"
_cell_formula_units_Z 32
_cell_length_a 15.000000
_cell_length_b 21.000000
_cell_length_c 15.000000
_cell_angle_alpha 90.000000
_cell_angle_beta 160.000000
_cell_angle_gamma 90.000000
_cell_volume 1616.045177
_symmetry_space_group_name_H-M "P 21/M"
_symmetry_group_IT_number 11
_symmetry_cell_setting 'monoclinic'
loop_
_space_group_symop_operation_xyz
x,y,z
-x,1/2+y,-z
-x,-y,-z
x,1/2-y,z
loop_
_atom_site_type_symbol
_atom_site_label
_atom_site_fract_x
_atom_site_fract_y
_atom_site_fract_z
Si Si1 0.808185 0.404822 0.692228
Si Si2 0.606432 0.134897 0.682189
Si Si3 0.024482 0.176211 0.214324
Si Si4 0.133609 0.325001 0.623275
Si Si5 0.319835 0.490438 0.193923
Si Si6 0.085922 0.601291 0.419350
Si Si7 0.588639 0.984093 0.927908
Si Si8 0.302671 0.624513 0.916461
O O1 0.691718 0.355737 0.657504
O O2 0.575401 0.455466 0.468691
O O3 0.858990 0.383160 0.635314
O O4 0.070023 0.443417 0.968217
O O5 0.306339 0.147391 0.439365
O O6 0.685601 0.060707 0.770897
O O7 0.812594 0.172992 0.936114
O O8 0.080152 0.250000 0.291278
O O9 0.856470 0.144447 0.140154
O O10 0.089736 0.250000 0.568294
O O11 0.036330 0.343363 0.632623
O O12 0.929678 0.364996 0.372036
O O13 0.433568 0.338716 0.871201
O O14 0.370463 0.500141 0.137182
O O15 0.343731 0.565008 0.700452
O O16 0.852361 0.550699 0.203501
O O17 0.587543 0.052337 0.974549
#
# Coordination Sequence:
#
# PCOD9167903 Si02
#       8
#     4   4   4   4   4   4   4   4
#     4  10  21  37  62  94 127 159 204 249 315 365
#     4  12  22  38  64  90 126 169 208 249 309 369
#     4  12  26  42  60  89 128 170 214 262 308 372
#     4  12  26  44  65  90 120 169 220 258 307 373
#     4  10  19  35  59  95 128 159 196 251 304 388
#     4  10  23  41  64  94 132 158 205 265 310 379
#     4  10  21  38  64  96 129 160 196 255 334 377
#     4  12  25  43  68  91 126 161 215 262 320 381
#
# _framework density 19.801427
#
# number of rings (size 3 to 8) (size 9 to 14) (size 15 to 20)
#    0.000    1.000    1.250    6.000    3.500    3.000 
#    0.000    1.250    0.000    0.000    0.000    0.000 
#    0.000    0.000    0.000    0.000    0.000    0.000 
#
# Total GULP energy -178248.386228 kJ/mol
# GULP energy per Si atom -5570.262070 kJ/mol
# Density = 1.975636 g / cm^3
# Si number density = 19.801427 Si / 1000 Ang^3
#
#
#
# Elastic Constant Matrix: (Units=GPa)
#
#
# Indices 1 2 3 4 5 6 
#
# 1 115.8521 26.1730 23.4837 0.0000 27.7073 0.0000
# 2 26.1730 30.1755 1.2280 0.0000 2.9290 0.0000
# 3 23.4837 1.2280 108.1379 0.0000 38.5397 0.0000
# 4 0.0000 0.0000 0.0000 20.3727 0.0000 10.1172
# 5 27.7073 2.9290 38.5397 0.0000 35.2460 0.0000
# 6 0.0000 0.0000 0.0000 10.1172 0.0000 21.8485
#
#
#
# Elastic Compliance Matrix: (Units=1/GPa)
#
#
# Indices 1 2 3 4 5 6 
#
# 1 0.013402 -0.010617 0.001066 0.000000 -0.010818 0.000000
# 2 -0.010617 0.041886 0.000157 0.000000 0.004693 0.000000
# 3 0.001066 0.000157 0.015267 0.000000 -0.017545 0.000000
# 4 0.000000 0.000000 0.000000 0.063744 0.000000 -0.029517
# 5 -0.010818 0.004693 -0.017545 0.000000 0.055670 0.000000
# 6 0.000000 0.000000 0.000000 -0.029517 0.000000 0.059438
#
#
# Mechanical properties :
#
#
# Convention : Reuss Voigt Hill
#
# Bulk Modulus (GPa) = 19.31747 39.54830 29.43289
# Shear Modulus (GPa) = 17.51614 29.04548 23.28081
#
# Velocity S-wave (km/s) = 2.97743 3.83409 3.43259
# Velocity P-wave (km/s) = 4.64725 6.29413 5.53232
#
# Compressibility (1/GPa) = 0.05176662
#
# Stress axis : x y z
#
# Youngs Moduli (GPa) = 74.61817 23.87405 65.50076
#
# Poissons Ratio (x) = 0.25348 -0.06981
# Poissons Ratio (y) = 0.79224 -0.01030
# Poissons Ratio (z) = -0.07952 -0.00376
#
# Static dielectric constant tensor:
#      x y z
#    x 1.814710 0.000000 -0.060430 
#    y 0.000000 1.718080 0.000000 
#    z -0.060430 0.000000 1.709560 
# 
# From -- ./inp_files/52685.got.cif
#   From: 2010.05.17/outbox.ucp.g08.bks.cvg/sg11_27_cif.got.tgz:52685.got - 2010.06.11 11:38:39.
