data_PCOD9167728
_publ_section_title
;
Structure prediction by ZEFSAII (Michael W. Deem and Ramdas Pophale) SiO2 
 PCOD9167728
Probable space group: P 21/M
;
_chemical_formula_sum "Si O2"
_cell_formula_units_Z 28
_cell_length_a 15.000000
_cell_length_b 9.000000
_cell_length_c 15.000000
_cell_angle_alpha 90.000000
_cell_angle_beta 60.000000
_cell_angle_gamma 90.000000
_cell_volume 1753.701443
_symmetry_space_group_name_H-M "P 21/M"
_symmetry_group_IT_number 11
_symmetry_cell_setting 'monoclinic'
loop_
_space_group_symop_operation_xyz
x,y,z
-x,1/2+y,-z
-x,-y,-z
x,1/2-y,z
loop_
_atom_site_type_symbol
_atom_site_label
_atom_site_fract_x
_atom_site_fract_y
_atom_site_fract_z
Si Si1 0.497689 0.429801 0.399694
Si Si2 0.099893 0.570061 0.398718
Si Si3 0.286303 0.926130 0.437634
Si Si4 0.175381 0.081158 0.650288
Si Si5 0.931142 0.074354 0.792299
Si Si6 0.704428 0.576341 0.223375
Si Si7 0.101193 0.069970 0.999659
O O1 0.500000 0.500000 0.500000
O O2 0.496089 0.250000 0.408094
O O3 0.394301 0.487816 0.400552
O O4 0.599453 0.484188 0.294112
O O5 0.087730 0.750000 0.408398
O O6 0.207323 0.532763 0.396228
O O7 0.103336 0.528432 0.291282
O O8 0.000000 0.500000 0.500000
O O9 0.307510 0.750000 0.420704
O O10 0.219691 0.964466 0.558645
O O11 0.190618 0.250000 0.607056
O O12 0.235203 0.070330 0.712986
O O13 0.054948 0.060778 0.727457
O O14 0.905884 0.250000 0.815799
O O15 0.895406 0.987389 0.899249
O O16 0.677209 0.750000 0.219856
O O17 0.791505 0.531446 0.106330
O O18 0.091362 0.250000 0.001705
O O19 0.000000 0.000000 0.000000
#
# Coordination Sequence:
#
# PCOD9167728 Si02
#       7
#     4   4   4   4   4   4   4
#     4  12  24  37  56  81 109 145 183 226 277 330
#     4  10  21  35  55  82 113 149 187 227 275 325
#     4  11  22  35  53  81 113 147 186 226 270 327
#     4  10  18  31  53  78 112 150 180 219 269 322
#     4  10  20  36  54  79 115 150 183 225 272 323
#     4  10  21  37  54  78 112 146 181 224 273 323
#     4  11  22  36  56  82 112 147 184 225 275 328
#
# _framework density 15.966229999999999
#
# number of rings (size 3 to 8) (size 9 to 14) (size 15 to 20)
#    0.000    1.429    4.286    2.143    0.000    2.857 
#    0.000    0.000    0.000    0.857    0.000    0.000 
#    0.000    0.000    0.000    0.000    0.000    0.000 
#
# Total GULP energy -156159.317073 kJ/mol
# GULP energy per Si atom -5577.118467 kJ/mol
# Density = 1.592989 g / cm^3
# Si number density = 15.966230 Si / 1000 Ang^3
#
#
#
# Elastic Constant Matrix: (Units=GPa)
#
#
# Indices 1 2 3 4 5 6 
#
# 1 128.0612 48.5938 55.9592 0.0000 -1.4599 0.0000
# 2 48.5938 83.0340 47.3211 0.0000 -4.8719 0.0000
# 3 55.9592 47.3211 124.5436 0.0000 0.2183 0.0000
# 4 0.0000 0.0000 0.0000 33.0900 0.0000 -3.2696
# 5 -1.4599 -4.8719 0.2183 0.0000 31.5727 0.0000
# 6 0.0000 0.0000 0.0000 -3.2696 0.0000 27.2913
#
#
#
# Elastic Compliance Matrix: (Units=1/GPa)
#
#
# Indices 1 2 3 4 5 6 
#
# 1 0.010938 -0.004609 -0.003163 0.000000 -0.000184 0.000000
# 2 -0.004609 0.017500 -0.004583 0.000000 0.002519 0.000000
# 3 -0.003163 -0.004583 0.011193 0.000000 -0.000931 0.000000
# 4 0.000000 0.000000 0.000000 0.030583 0.000000 0.003664
# 5 -0.000184 0.002519 -0.000931 0.000000 0.032060 0.000000
# 6 0.000000 0.000000 0.000000 0.003664 0.000000 0.037081
#
#
# Mechanical properties :
#
#
# Convention : Reuss Voigt Hill
#
# Bulk Modulus (GPa) = 67.01716 71.04300 69.03008
# Shear Modulus (GPa) = 29.57916 30.64178 30.11047
#
# Velocity S-wave (km/s) = 4.30886 4.38558 4.34739
# Velocity P-wave (km/s) = 8.17438 8.38074 8.27820
#
# Compressibility (1/GPa) = 0.01492155
#
# Stress axis : x y z
#
# Youngs Moduli (GPa) = 91.42604 57.14196 89.33938
#
# Poissons Ratio (x) = 0.26339 0.28256
# Poissons Ratio (y) = 0.42142 0.40942
# Poissons Ratio (z) = 0.28916 0.26186
#
# Static dielectric constant tensor:
#      x y z
#    x 1.542670 0.000000 0.004810 
#    y 0.000000 1.557200 0.000000 
#    z 0.004810 0.000000 1.526960 
# 
# From -- ./inp_files/51119.got.cif
#   From: 2010.05.17/outbox.ucp.g08.bks.cvg/sg11_26_cif.got.tgz:51119.got - 2010.06.11 11:38:39.
