data_PCOD9167393
_publ_section_title
;
Structure prediction by ZEFSAII (Michael W. Deem and Ramdas Pophale) SiO2 
 PCOD9167393
Probable space group: P 21/M
;
_chemical_formula_sum "Si O2"
_cell_formula_units_Z 28
_cell_length_a 23.887495
_cell_length_b 7.808999
_cell_length_c 20.052089
_cell_angle_alpha 90.000000
_cell_angle_beta 21.965803
_cell_angle_gamma 90.000000
_cell_volume 1399.132681
_symmetry_space_group_name_H-M "P 21/M"
_symmetry_group_IT_number 11
_symmetry_cell_setting 'monoclinic'
loop_
_space_group_symop_operation_xyz
x,y,z
-x,1/2+y,-z
-x,-y,-z
x,1/2-y,z
loop_
_atom_site_type_symbol
_atom_site_label
_atom_site_fract_x
_atom_site_fract_y
_atom_site_fract_z
Si Si1 0.327346 0.043427 0.672662
Si Si2 0.254203 0.043812 0.892993
Si Si3 0.522920 0.543079 0.773076
Si Si4 0.616565 0.952696 0.813816
Si Si5 0.401389 0.456202 0.451429
Si Si6 0.818828 0.543071 0.885162
Si Si7 0.953037 0.452708 0.477350
O O1 0.314482 0.250000 0.685529
O O2 0.231727 0.979845 0.841926
O O3 0.305357 0.979859 0.621010
O O4 0.500000 0.000000 0.500000
O O5 0.240202 0.250000 0.906588
O O6 0.426331 0.000036 0.721021
O O7 0.162945 0.980626 0.058349
O O8 0.534317 0.750000 0.760675
O O9 0.575713 0.474179 0.786070
O O10 0.615823 0.480622 0.605447
O O11 0.348773 0.500040 0.953761
O O12 0.609234 0.750000 0.815290
O O13 0.782788 0.999931 0.651648
O O14 0.500000 0.000000 0.000000
O O15 0.387053 0.250000 0.466173
O O16 0.829166 0.750000 0.875819
O O17 0.937442 0.474211 0.700761
O O18 0.966116 0.250000 0.458418
O O19 0.000000 0.500000 0.500000
#
# Coordination Sequence:
#
# PCOD9167393 Si02
#       7
#     4   4   4   4   4   4   4
#     4   8  12  18  32  54  83 116 148 182 222 266
#     4   8  13  22  36  58  87 118 150 185 225 270
#     4   9  18  31  48  70  97 126 157 193 235 281
#     4  11  23  38  55  75  98 126 159 198 241 288
#     4   8  13  22  36  58  87 118 150 185 225 270
#     4   9  18  31  48  70  97 126 157 193 235 281
#     4  11  23  38  55  75  98 126 159 198 241 288
#
# _framework density 20.012398999999998
#
# number of rings (size 3 to 8) (size 9 to 14) (size 15 to 20)
#    0.000    2.857    0.000    1.714    0.000    4.571 
#    0.000    0.000    0.000    0.000    0.000    1.000 
#    0.000    0.000    0.000    0.000    0.000    0.000 
#
# Total GULP energy -155894.029595 kJ/mol
# GULP energy per Si atom -5567.643914 kJ/mol
# Density = 1.996685 g / cm^3
# Si number density = 20.012399 Si / 1000 Ang^3
#
#
#
# Elastic Constant Matrix: (Units=GPa)
#
#
# Indices 1 2 3 4 5 6 
#
# 1 201.8791 10.6698 108.1818 0.0000 65.7216 0.0000
# 2 10.6698 31.9647 3.1880 0.0000 7.0008 0.0000
# 3 108.1818 3.1880 93.3388 0.0000 36.9757 0.0000
# 4 0.0000 0.0000 0.0000 15.8779 0.0000 -1.2622
# 5 65.7216 7.0008 36.9757 0.0000 39.4815 0.0000
# 6 0.0000 0.0000 0.0000 -1.2622 0.0000 14.5438
#
#
#
# Elastic Compliance Matrix: (Units=1/GPa)
#
#
# Indices 1 2 3 4 5 6 
#
# 1 0.018068 -0.001001 -0.014408 0.000000 -0.016405 0.000000
# 2 -0.001001 0.032810 0.002678 0.000000 -0.006659 0.000000
# 3 -0.014408 0.002678 0.028631 0.000000 -0.003304 0.000000
# 4 0.000000 0.000000 0.000000 0.063418 0.000000 0.005504
# 5 -0.016405 -0.006659 -0.003304 0.000000 0.056912 0.000000
# 6 0.000000 0.000000 0.000000 0.005504 0.000000 0.069235
#
#
# Mechanical properties :
#
#
# Convention : Reuss Voigt Hill
#
# Bulk Modulus (GPa) = 18.50303 63.47353 40.98828
# Shear Modulus (GPa) = 15.99732 27.65685 21.82708
#
# Velocity S-wave (km/s) = 2.83038 3.72154 3.30612
# Velocity P-wave (km/s) = 4.46624 7.08890 5.92451
#
# Compressibility (1/GPa) = 0.05404521
#
# Stress axis : x y z
#
# Youngs Moduli (GPa) = 55.34616 30.47839 34.92766
#
# Poissons Ratio (x) = 0.03051 0.50325
# Poissons Ratio (y) = 0.05541 -0.09353
# Poissons Ratio (z) = 0.79745 -0.08161
#
# Static dielectric constant tensor:
#      x y z
#    x 1.792130 0.000000 0.085940 
#    y 0.000000 1.807790 0.000000 
#    z 0.085940 0.000000 1.701510 
# 
# From -- ./inp_files/29072.got.cif
#   From: 2010.05.17/outbox.cif.g08.bks.cpg/sg11_15_cif.got.tgz:29072.got - 2010.06.03 12:22:45.
