data_PCOD9167601
_publ_section_title
;
Structure prediction by ZEFSAII (Michael W. Deem and Ramdas Pophale) SiO2 
 PCOD9167601
Probable space group: P 21/M
;
_chemical_formula_sum "Si O2"
_cell_formula_units_Z 28
_cell_length_a 12.245403
_cell_length_b 14.926969
_cell_length_c 8.218794
_cell_angle_alpha 90.000000
_cell_angle_beta 129.715673
_cell_angle_gamma 90.000000
_cell_volume 1155.596141
_symmetry_space_group_name_H-M "P 21/M"
_symmetry_group_IT_number 11
_symmetry_cell_setting 'monoclinic'
loop_
_space_group_symop_operation_xyz
x,y,z
-x,1/2+y,-z
-x,-y,-z
x,1/2-y,z
loop_
_atom_site_type_symbol
_atom_site_label
_atom_site_fract_x
_atom_site_fract_y
_atom_site_fract_z
Si Si1 0.481843 0.101247 0.044928
Si Si2 0.989954 0.351804 0.566256
Si Si3 0.119099 0.089457 0.363600
Si Si4 0.814345 0.104790 0.941440
Si Si5 0.732217 0.399077 0.508756
Si Si6 0.252472 0.250000 0.321807
Si Si7 0.653863 0.250000 0.010070
Si Si8 0.227047 0.100254 0.017521
O O1 0.571870 0.107972 0.298623
O O2 0.547637 0.171598 0.983711
O O3 0.321447 0.116974 0.947073
O O4 0.500000 0.000000 0.000000
O O5 0.028873 0.250000 0.567743
O O6 0.040537 0.409117 0.462504
O O7 0.067310 0.383725 0.803406
O O8 0.824305 0.353498 0.453353
O O9 0.220907 0.172053 0.428391
O O10 0.208806 0.999876 0.431898
O O11 0.985769 0.100397 0.113121
O O12 0.761517 0.138102 0.715237
O O13 0.754511 0.171800 0.019097
O O14 0.759520 0.003344 0.917949
O O15 0.264547 0.170573 0.192625
#
# Coordination Sequence:
#
# PCOD9167601 Si02
#       8
#     4   4   4   4   4   2   2   4
#     4  12  28  53  77 109 150 201 254 306 372 448
#     4  12  26  43  74 112 145 195 254 305 372 448
#     4  12  24  45  71 114 152 190 249 314 371 439
#     4  12  26  47  76 111 149 193 249 315 377 438
#     4  12  27  47  77 107 152 199 246 309 376 445
#     4  12  24  44  71 106 154 195 239 311 373 441
#     4  12  28  50  77 104 150 197 251 311 367 441
#     4  12  25  50  75 106 151 196 247 310 377 448
#
# _framework density 24.229917
#
# number of rings (size 3 to 8) (size 9 to 14) (size 15 to 20)
#    0.000    0.000    5.714    4.286    4.000    0.571 
#    0.000    2.857    0.000    0.000    0.000    0.000 
#    0.000    0.000    0.000    0.000    0.000    0.000 
#
# Total GULP energy -155887.518776 kJ/mol
# GULP energy per Si atom -5567.411385 kJ/mol
# Density = 2.417477 g / cm^3
# Si number density = 24.229917 Si / 1000 Ang^3
#
#
#
# Elastic Constant Matrix: (Units=GPa)
#
#
# Indices 1 2 3 4 5 6 
#
# 1 65.9388 25.3519 0.1780 0.0000 -6.6222 0.0000
# 2 25.3519 179.9121 -12.8489 0.0000 -4.8256 0.0000
# 3 0.1780 -12.8489 68.8054 0.0000 -1.3427 0.0000
# 4 0.0000 0.0000 0.0000 -30.2166 0.0000 -16.3757
# 5 -6.6222 -4.8256 -1.3427 0.0000 28.9278 0.0000
# 6 0.0000 0.0000 0.0000 -16.3757 0.0000 78.9194
#
#
#
# Elastic Compliance Matrix: (Units=1/GPa)
#
#
# Indices 1 2 3 4 5 6 
#
# 1 0.016366 -0.002245 -0.000396 0.000000 0.003354 0.000000
# 2 -0.002245 0.005970 0.001131 0.000000 0.000535 0.000000
# 3 -0.000396 0.001131 0.014761 0.000000 0.000783 0.000000
# 4 0.000000 0.000000 0.000000 -0.029749 0.000000 -0.006173
# 5 0.003354 0.000535 0.000783 0.000000 0.035462 0.000000
# 6 0.000000 0.000000 0.000000 -0.006173 0.000000 0.011390
#
#
# Mechanical properties :
#
#
# Convention : Reuss Voigt Hill
#
# Bulk Modulus (GPa) = 29.34428 37.77982 33.56205
# Shear Modulus (GPa) = 72.90830 35.65781 54.28306
#
# Velocity S-wave (km/s) = 5.49140 3.84036 4.73835
# Velocity P-wave (km/s) = 7.23494 5.94059 6.61948
#
# Compressibility (1/GPa) = 0.03407819
#
# Stress axis : x y z
#
# Youngs Moduli (GPa) = 61.10059 167.51342 67.74489
#
# Poissons Ratio (x) = 0.37600 0.02683
# Poissons Ratio (y) = 0.13714 -0.07662
# Poissons Ratio (z) = 0.02420 -0.18946
#
# Static dielectric constant tensor:
#      x y z
#    x 1.882750 0.000000 -0.027160 
#    y 0.000000 1.886830 0.000000 
#    z -0.027160 0.000000 1.971660 
# 
# From -- ./inp_files/18173.got.cif
#   From: 2010.05.17/outbox.cif.g08.bks.cpg/sg11_10_cif.got.tgz:18173.got - 2010.06.03 12:22:45.
