data_PCOD9167718
_publ_section_title
;
Structure prediction by ZEFSAII (Michael W. Deem and Ramdas Pophale) SiO2 
 PCOD9167718
Probable space group: P 21/M
;
_chemical_formula_sum "Si O2"
_cell_formula_units_Z 32
_cell_length_a 30.000000
_cell_length_b 9.000000
_cell_length_c 21.000000
_cell_angle_alpha 90.000000
_cell_angle_beta 20.000000
_cell_angle_gamma 90.000000
_cell_volume 1939.254213
_symmetry_space_group_name_H-M "P 21/M"
_symmetry_group_IT_number 11
_symmetry_cell_setting 'monoclinic'
loop_
_space_group_symop_operation_xyz
x,y,z
-x,1/2+y,-z
-x,-y,-z
x,1/2-y,z
loop_
_atom_site_type_symbol
_atom_site_label
_atom_site_fract_x
_atom_site_fract_y
_atom_site_fract_z
Si Si1 0.913115 0.068308 0.310417
Si Si2 0.378198 0.918826 0.294367
Si Si3 0.097615 0.430146 0.816805
Si Si4 0.624708 0.422521 0.547329
Si Si5 0.651175 0.069836 0.088464
Si Si6 0.099635 0.427635 0.180353
Si Si7 0.661938 0.568466 0.931805
Si Si8 0.924377 0.071853 0.541440
O O1 0.910411 0.250000 0.306597
O O2 0.765347 0.020048 0.530071
O O3 0.021016 0.033540 0.220275
O O4 0.932476 0.994899 0.214315
O O5 0.379148 0.750000 0.268446
O O6 0.380480 0.915631 0.368531
O O7 0.523121 0.981308 0.087260
O O8 0.091868 0.250000 0.823568
O O9 0.242388 0.486883 0.642640
O O10 0.000000 0.500000 0.000000
O O11 0.630885 0.250000 0.516967
O O12 0.492627 0.504084 0.701610
O O13 0.649322 0.250000 0.088224
O O14 0.766166 0.012910 0.981369
O O15 0.676151 0.000830 0.984033
O O16 0.127151 0.250000 0.140615
O O17 0.003956 0.452422 0.369314
O O18 0.663016 0.750000 0.935205
O O19 0.783909 0.506685 0.728944
O O20 0.912085 0.250000 0.567369
O O21 0.000000 0.000000 0.500000
#
# Coordination Sequence:
#
# PCOD9167718 Si02
#       8
#     4   4   4   4   4   4   4   4
#     4   9  18  36  57  77 103 140 181 219 262 317
#     4   7  13  27  49  71  93 126 167 212 261 309
#     4  11  21  35  58  88 116 141 172 211 256 308
#     4   9  17  32  53  78 108 138 173 216 260 308
#     4  11  20  30  49  76 105 137 178 225 269 315
#     4  10  21  35  52  72 102 143 184 223 271 323
#     4  10  18  30  48  70  98 132 175 226 277 321
#     4  11  21  32  47  70 100 137 181 229 274 319
#
# _framework density 16.501189
#
# number of rings (size 3 to 8) (size 9 to 14) (size 15 to 20)
#    0.000    2.250    1.250    4.875    0.000    1.000 
#    0.000    1.250    0.000    0.750    0.000    0.000 
#    0.000    0.000    0.000    0.000    0.000    0.000 
#
# Total GULP energy -178256.167297 kJ/mol
# GULP energy per Si atom -5570.505228 kJ/mol
# Density = 1.646363 g / cm^3
# Si number density = 16.501189 Si / 1000 Ang^3
#
#
#
# Elastic Constant Matrix: (Units=GPa)
#
#
# Indices 1 2 3 4 5 6 
#
# 1 95.4749 42.1400 49.9814 0.0000 -23.5362 0.0000
# 2 42.1400 114.3595 53.6516 0.0000 -10.3163 0.0000
# 3 49.9814 53.6516 126.2213 0.0000 -21.2323 0.0000
# 4 0.0000 0.0000 0.0000 31.3440 0.0000 -3.2183
# 5 -23.5362 -10.3163 -21.2323 0.0000 31.0272 0.0000
# 6 0.0000 0.0000 0.0000 -3.2183 0.0000 21.9762
#
#
#
# Elastic Compliance Matrix: (Units=1/GPa)
#
#
# Indices 1 2 3 4 5 6 
#
# 1 0.015900 -0.003507 -0.003359 0.000000 0.008596 0.000000
# 2 -0.003507 0.011703 -0.003818 0.000000 -0.001382 0.000000
# 3 -0.003359 -0.003818 0.011565 0.000000 0.004096 0.000000
# 4 0.000000 0.000000 0.000000 0.032391 0.000000 0.004744
# 5 0.008596 -0.001382 0.004096 0.000000 0.041094 0.000000
# 6 0.000000 0.000000 0.000000 0.004744 0.000000 0.046198
#
#
# Mechanical properties :
#
#
# Convention : Reuss Voigt Hill
#
# Bulk Modulus (GPa) = 56.18549 69.73351 62.95950
# Shear Modulus (GPa) = 26.85951 29.55500 28.20726
#
# Velocity S-wave (km/s) = 4.03889 4.23671 4.13898
# Velocity P-wave (km/s) = 7.47486 8.14152 7.81530
#
# Compressibility (1/GPa) = 0.01779819
#
# Stress axis : x y z
#
# Youngs Moduli (GPa) = 62.89457 85.44482 86.46927
#
# Poissons Ratio (x) = 0.29969 0.29046
# Poissons Ratio (y) = 0.22060 0.33017
# Poissons Ratio (z) = 0.21127 0.32625
#
# Static dielectric constant tensor:
#      x y z
#    x 1.537610 0.000000 -0.017890 
#    y 0.000000 1.559670 0.000000 
#    z -0.017890 0.000000 1.598360 
# 
# From -- ./inp_files/67394.got.cif
#   From: 2010.05.17/outbox.ucp.g08.bks.cvg/sg11_34_cif.got.tgz:67394.got - 2010.06.11 11:38:39.
