data_PCOD9168221
_publ_section_title
;
Structure prediction by ZEFSAII (Michael W. Deem and Ramdas Pophale) SiO2 
 PCOD9168221
Probable space group: P 21/M
;
_chemical_formula_sum "Si O2"
_cell_formula_units_Z 28
_cell_length_a 30.000000
_cell_length_b 9.000000
_cell_length_c 30.000000
_cell_angle_alpha 90.000000
_cell_angle_beta 170.000000
_cell_angle_gamma 90.000000
_cell_volume 1406.550239
_symmetry_space_group_name_H-M "P 21/M"
_symmetry_group_IT_number 11
_symmetry_cell_setting 'monoclinic'
loop_
_space_group_symop_operation_xyz
x,y,z
-x,1/2+y,-z
-x,-y,-z
x,1/2-y,z
loop_
_atom_site_type_symbol
_atom_site_label
_atom_site_fract_x
_atom_site_fract_y
_atom_site_fract_z
Si Si1 0.043813 0.436223 0.208974
Si Si2 0.437148 0.071161 0.313820
Si Si3 0.761464 0.925662 0.240124
Si Si4 0.926249 0.415116 0.316825
Si Si5 0.973065 0.250000 0.750433
Si Si6 0.491528 0.750000 0.774453
Si Si7 0.541133 0.577060 0.209510
Si Si8 0.260391 0.421020 0.241701
O O1 0.058854 0.250000 0.233733
O O2 0.051183 0.583425 0.250116
O O3 0.289205 0.485788 0.420287
O O4 0.767156 0.472632 0.914999
O O5 0.457324 0.250000 0.319976
O O6 0.319368 0.074388 0.247221
O O7 0.750272 0.750000 0.236367
O O8 0.820290 0.964219 0.246711
O O9 0.000000 0.000000 0.500000
O O10 0.500000 0.000000 0.000000
O O11 0.910486 0.250000 0.322549
O O12 0.216357 0.435526 0.585389
O O13 0.731218 0.415726 0.083519
O O14 0.742552 0.250000 0.489427
O O15 0.242612 0.250000 0.990386
O O16 0.468165 0.585437 0.775274
O O17 0.572351 0.750000 0.260683
O O18 0.500000 0.500000 0.500000
O O19 0.246283 0.250000 0.241808
O O20 0.000000 0.500000 0.000000
#
# Coordination Sequence:
#
# PCOD9168221 Si02
#       8
#     4   4   4   4   2   2   4   4
#     4  12  25  43  71  99 128 175 224 263 332 399
#     4  11  22  43  66  91 133 176 220 278 325 385
#     4  12  25  40  62  92 130 173 220 271 328 385
#     4  10  21  40  64  89 125 165 210 272 314 373
#     4  12  26  46  66 100 136 166 208 286 324 394
#     4  12  26  42  72  94 132 172 208 264 342 394
#     4  10  23  41  65  96 127 164 216 262 319 391
#     4  11  24  39  61  91 132 175 216 274 330 379
#
# _framework density 19.906860999999999
#
# number of rings (size 3 to 8) (size 9 to 14) (size 15 to 20)
#    0.000    0.857    1.429    5.571    2.000    8.000 
#    0.000    0.000    0.000    0.000    0.000    0.000 
#    0.000    0.000    0.000    0.000    0.000    0.000 
#
# Total GULP energy -155916.385374 kJ/mol
# GULP energy per Si atom -5568.442335 kJ/mol
# Density = 1.986155 g / cm^3
# Si number density = 19.906861 Si / 1000 Ang^3
#
#
#
# Elastic Constant Matrix: (Units=GPa)
#
#
# Indices 1 2 3 4 5 6 
#
# 1 45.5274 50.8958 9.7848 0.0000 11.4297 0.0000
# 2 50.8958 228.6931 37.8760 0.0000 7.0087 0.0000
# 3 9.7848 37.8760 100.7452 0.0000 18.6206 0.0000
# 4 0.0000 0.0000 0.0000 41.9026 0.0000 6.3910
# 5 11.4297 7.0087 18.6206 0.0000 39.4663 0.0000
# 6 0.0000 0.0000 0.0000 6.3910 0.0000 42.6189
#
#
#
# Elastic Compliance Matrix: (Units=1/GPa)
#
#
# Indices 1 2 3 4 5 6 
#
# 1 0.031633 -0.006964 0.001107 0.000000 -0.008447 0.000000
# 2 -0.006964 0.006196 -0.001997 0.000000 0.001859 0.000000
# 3 0.001107 -0.001997 0.011572 0.000000 -0.005426 0.000000
# 4 0.000000 0.000000 0.000000 0.024423 0.000000 -0.003662
# 5 -0.008447 0.001859 -0.005426 0.000000 0.030014 0.000000
# 6 0.000000 0.000000 0.000000 -0.003662 0.000000 0.024013
#
#
# Mechanical properties :
#
#
# Convention : Reuss Voigt Hill
#
# Bulk Modulus (GPa) = 29.67921 63.56431 46.62176
# Shear Modulus (GPa) = 32.30157 43.22484 37.76321
#
# Velocity S-wave (km/s) = 4.03256 4.66483 4.36018
# Velocity P-wave (km/s) = 6.05174 7.81117 6.98706
#
# Compressibility (1/GPa) = 0.03369362
#
# Stress axis : x y z
#
# Youngs Moduli (GPa) = 31.61243 161.38527 86.41533
#
# Poissons Ratio (x) = 1.12397 -0.09568
# Poissons Ratio (y) = 0.22016 0.17254
# Poissons Ratio (z) = -0.03500 0.32223
#
# Static dielectric constant tensor:
#      x y z
#    x 1.744010 0.000000 -0.043030 
#    y 0.000000 1.764290 0.000000 
#    z -0.043030 0.000000 1.667300 
# 
# From -- ./inp_files/73888.got.cif
#   From: 2010.05.17/outbox.ucp.g08.bks.cvg/sg11_37_cif.got.tgz:73888.got - 2010.06.11 11:38:39.
