data_PCOD9168877
_publ_section_title
;
Structure prediction by ZEFSAII (Michael W. Deem and Ramdas Pophale) SiO2 
 PCOD9168877
Probable space group: C 2/M
;
_chemical_formula_sum "Si O2"
_cell_formula_units_Z 50
_cell_length_a 5.283638
_cell_length_b 14.256247
_cell_length_c 31.531541
_cell_angle_alpha 90.000000
_cell_angle_beta 78.104909
_cell_angle_gamma 90.000000
_cell_volume 2324.107005
_symmetry_space_group_name_H-M "C 2/M"
_symmetry_group_IT_number 12
_symmetry_cell_setting 'monoclinic'
loop_
_space_group_symop_operation_xyz
x,y,z
-x,y,-z
-x,-y,-z
x,-y,z
1/2+x,1/2+y,z
1/2-x,1/2+y,-z
1/2-x,1/2-y,-z
1/2+x,1/2-y,z
loop_
_atom_site_type_symbol
_atom_site_label
_atom_site_fract_x
_atom_site_fract_y
_atom_site_fract_z
Si Si1 0.929945 0.887782 0.210755
Si Si2 0.273688 0.642379 0.980748
Si Si3 0.000000 0.000000 0.500000
Si Si4 0.372320 0.888772 0.257023
Si Si5 0.945087 0.191376 0.883457
Si Si6 0.599355 0.806609 0.652567
Si Si7 0.774012 0.183955 0.553031
O O1 0.637714 0.852676 0.227011
O O2 0.119071 0.852823 0.241484
O O3 0.041876 0.863228 0.161042
O O4 0.917644 0.000000 0.214533
O O5 0.342015 0.640847 0.929053
O O6 0.500000 0.599775 0.000000
O O7 0.250000 0.750000 0.000000
O O8 0.000000 0.599972 0.000000
O O9 0.818129 0.086292 0.526823
O O10 0.376943 0.869397 0.306744
O O11 0.369980 0.000000 0.251048
O O12 0.733829 0.273165 0.883706
O O13 0.300955 0.777901 0.655886
O O14 0.705052 0.843542 0.604070
O O15 0.535583 0.250963 0.545902
#
# Coordination Sequence:
#
# PCOD9168877 Si02
#       7
#     8   8   2   8   8   8   8
#     4  10  23  39  52  79 116 151 178 230 293 339
#     4  10  16  30  48  73 102 129 166 223 278 313
#     4  12  24  42  76  92 136 190 220 270 344 396
#     4  10  21  38  59  77 110 153 195 229 279 358
#     4  12  21  32  55  83 101 136 183 229 265 340
#     4  10  21  38  61  88 123 154 193 259 309 342
#     4  10  24  43  63 100 136 170 224 279 327 389
#
# _framework density 21.513636999999999
#
# number of rings (size 3 to 8) (size 9 to 14) (size 15 to 20)
#    0.000    1.600    3.200    2.400    1.120    5.120 
#    0.000    0.000    0.000    0.960    0.000    0.000 
#    0.000    0.000    0.000    0.000    0.000    0.000 
#
# Total GULP energy -139276.546434 kJ/mol
# GULP energy per Si atom -5571.061857 kJ/mol
# Density = 2.146467 g / cm^3
# Si number density = 21.513637 Si / 1000 Ang^3
#
#
#
# Elastic Constant Matrix: (Units=GPa)
#
#
# Indices 1 2 3 4 5 6 
#
# 1 105.5568 9.7286 28.6546 0.0000 -11.8786 0.0000
# 2 9.7286 95.8721 8.5139 0.0000 -10.5144 0.0000
# 3 28.6546 8.5139 92.9097 0.0000 -2.3878 0.0000
# 4 0.0000 0.0000 0.0000 140.2485 0.0000 43.4287
# 5 -11.8786 -10.5144 -2.3878 0.0000 34.3259 0.0000
# 6 0.0000 0.0000 0.0000 43.4287 0.0000 4.5145
#
#
#
# Elastic Compliance Matrix: (Units=1/GPa)
#
#
# Indices 1 2 3 4 5 6 
#
# 1 0.010759 -0.000439 -0.003192 0.000000 0.003367 0.000000
# 2 -0.000439 0.010888 -0.000782 0.000000 0.003129 0.000000
# 3 -0.003192 -0.000782 0.011806 0.000000 -0.000523 0.000000
# 4 0.000000 0.000000 0.000000 -0.003603 0.000000 0.034662
# 5 0.003367 0.003129 -0.000523 0.000000 0.031220 0.000000
# 6 0.000000 0.000000 0.000000 0.034662 0.000000 -0.111938
#
#
# Mechanical properties :
#
#
# Convention : Reuss Voigt Hill
#
# Bulk Modulus (GPa) = 40.60489 43.12585 41.86537
# Shear Modulus (GPa) = -147.77610 52.31386 -47.73112
#
# Velocity S-wave (km/s) = -8.29690 4.93654 -4.71536
# Velocity P-wave (km/s) = 8.53638 7.25134 3.18496
#
# Compressibility (1/GPa) = 0.02462757
#
# Stress axis : x y z
#
# Youngs Moduli (GPa) = 92.94292 91.84687 84.70506
#
# Poissons Ratio (x) = 0.04033 0.27034
# Poissons Ratio (y) = 0.04081 0.06623
# Poissons Ratio (z) = 0.29663 0.07181
#
# Static dielectric constant tensor:
#      x y z
#    x 1.799250 0.000000 -0.003290 
#    y 0.000000 1.736470 0.000000 
#    z -0.003290 0.000000 1.787930 
# 
# From -- ./inp_files/371472.got.cif
#   From: 2010.05.17/outbox.cif.g08.bks.cpg/sg12_186_cif.got.tgz:371472.got - 2010.06.03 13:09:07.
