data_PCOD9168549
_publ_section_title
;
Structure prediction by ZEFSAII (Michael W. Deem and Ramdas Pophale) SiO2 
 PCOD9168549
Probable space group: C 2/M
;
_chemical_formula_sum "Si O2"
_cell_formula_units_Z 52
_cell_length_a 13.432409
_cell_length_b 24.852841
_cell_length_c 7.139541
_cell_angle_alpha 90.000000
_cell_angle_beta 65.510731
_cell_angle_gamma 90.000000
_cell_volume 2169.003278
_symmetry_space_group_name_H-M "C 2/M"
_symmetry_group_IT_number 12
_symmetry_cell_setting 'monoclinic'
loop_
_space_group_symop_operation_xyz
x,y,z
-x,y,-z
-x,-y,-z
x,-y,z
1/2+x,1/2+y,z
1/2-x,1/2+y,-z
1/2-x,1/2-y,-z
1/2+x,1/2-y,z
loop_
_atom_site_type_symbol
_atom_site_label
_atom_site_fract_x
_atom_site_fract_y
_atom_site_fract_z
Si Si1 0.349772 0.097696 0.933873
Si Si2 0.515840 0.372023 0.716088
Si Si3 0.702610 0.309514 0.072730
Si Si4 0.219390 0.500000 0.493405
Si Si5 0.282402 0.500000 0.864365
Si Si6 0.475841 0.500000 0.270957
Si Si7 0.905408 0.398714 0.339673
Si Si8 0.762010 0.813425 0.514341
O O1 0.466233 0.092057 0.746250
O O2 0.290600 0.151085 0.913081
O O3 0.259390 0.051078 0.989691
O O4 0.378659 0.099612 0.135488
O O5 0.500000 0.376291 0.500000
O O6 0.419942 0.332405 0.868400
O O7 0.510356 0.434332 0.788902
O O8 0.633701 0.343741 0.658012
O O9 0.714493 0.319586 0.284185
O O10 0.750000 0.250000 0.000000
O O11 0.218716 0.500000 0.720568
O O12 0.345637 0.500000 0.347729
O O13 0.157376 0.445389 0.499968
O O14 0.408866 0.500000 0.701889
O O15 0.852005 0.342684 0.441802
O O16 0.750000 0.750000 0.500000
#
# Coordination Sequence:
#
# PCOD9168549 Si02
#       8
#     8   8   8   4   4   4   8   8
#     4   9  17  28  43  66  96 128 161 201 249 300
#     4  10  19  32  51  77 106 134 171 219 266 309
#     4  10  21  35  51  73 102 136 172 209 249 300
#     4  10  16  24  41  67  98 127 156 199 257 309
#     4  10  16  24  41  67  98 127 156 199 257 309
#     4  12  17  26  48  74 105 134 161 208 275 322
#     4   9  17  28  43  66  96 128 161 201 249 300
#     4  10  21  35  51  73 102 136 172 209 249 300
#
# _framework density 23.974145
#
# number of rings (size 3 to 8) (size 9 to 14) (size 15 to 20)
#    0.000    2.154    3.077    1.846    2.154    1.846 
#    0.000    0.000    0.000    0.000    0.000    5.385 
#    0.000    2.462    0.000    0.000    0.000    0.000 
#
# Total GULP energy -144803.994610 kJ/mol
# GULP energy per Si atom -5569.384408 kJ/mol
# Density = 2.391958 g / cm^3
# Si number density = 23.974145 Si / 1000 Ang^3
#
#
#
# Elastic Constant Matrix: (Units=GPa)
#
#
# Indices 1 2 3 4 5 6 
#
# 1 72.5948 33.5345 52.4658 0.0000 -22.8676 0.0000
# 2 33.5345 195.5368 31.7759 0.0000 -43.0067 0.0000
# 3 52.4658 31.7759 86.5893 0.0000 -19.6291 0.0000
# 4 0.0000 0.0000 0.0000 28.7106 0.0000 -13.9971
# 5 -22.8676 -43.0067 -19.6291 0.0000 54.5355 0.0000
# 6 0.0000 0.0000 0.0000 -13.9971 0.0000 13.2501
#
#
#
# Elastic Compliance Matrix: (Units=1/GPa)
#
#
# Indices 1 2 3 4 5 6 
#
# 1 0.026220 -0.001066 -0.014366 0.000000 0.004983 0.000000
# 2 -0.001066 0.006361 -0.000710 0.000000 0.004314 0.000000
# 3 -0.014366 -0.000710 0.020712 0.000000 0.000870 0.000000
# 4 0.000000 0.000000 0.000000 0.071817 0.000000 0.075866
# 5 0.004983 0.004314 0.000870 0.000000 0.024141 0.000000
# 6 0.000000 0.000000 0.000000 0.075866 0.000000 0.155614
#
#
# Mechanical properties :
#
#
# Convention : Reuss Voigt Hill
#
# Bulk Modulus (GPa) = 47.60360 65.58595 56.59477
# Shear Modulus (GPa) = 14.52842 35.09555 24.81199
#
# Velocity S-wave (km/s) = 2.46439 3.83023 3.22055
# Velocity P-wave (km/s) = 5.29121 6.85400 6.12267
#
# Compressibility (1/GPa) = 0.02100681
#
# Stress axis : x y z
#
# Youngs Moduli (GPa) = 38.13878 157.20339 48.28211
#
# Poissons Ratio (x) = 0.16761 0.69364
# Poissons Ratio (y) = 0.04066 0.03430
# Poissons Ratio (z) = 0.54791 0.11169
#
# Static dielectric constant tensor:
#      x y z
#    x 1.917740 0.000000 0.106000 
#    y 0.000000 2.038850 0.000000 
#    z 0.106000 0.000000 2.010340 
# 
# From -- ./inp_files/159509.got.cif
#   From: 2010.05.17/outbox.cif.g08.bks.cpg/sg12_80_cif.got.tgz:159509.got - 2010.06.03 13:09:07.
