data_PCOD9168224
_publ_section_title
;
Structure prediction by ZEFSAII (Michael W. Deem and Ramdas Pophale) SiO2 
 PCOD9168224
Probable space group: P 21/M
;
_chemical_formula_sum "Si O2"
_cell_formula_units_Z 32
_cell_length_a 12.000000
_cell_length_b 9.000000
_cell_length_c 30.000000
_cell_angle_alpha 90.000000
_cell_angle_beta 30.000000
_cell_angle_gamma 90.000000
_cell_volume 1620.000000
_symmetry_space_group_name_H-M "P 21/M"
_symmetry_group_IT_number 11
_symmetry_cell_setting 'monoclinic'
loop_
_space_group_symop_operation_xyz
x,y,z
-x,1/2+y,-z
-x,-y,-z
x,1/2-y,z
loop_
_atom_site_type_symbol
_atom_site_label
_atom_site_fract_x
_atom_site_fract_y
_atom_site_fract_z
Si Si1 0.024566 0.923662 0.858410
Si Si2 0.186642 0.925621 0.333070
Si Si3 0.227616 0.922067 0.474542
Si Si4 0.132093 0.572305 0.995479
Si Si5 0.654770 0.574758 0.808780
Si Si6 0.395035 0.077901 0.580080
Si Si7 0.021351 0.072587 0.225887
Si Si8 0.552676 0.922243 0.685813
O O1 0.957842 0.750000 0.885869
O O2 0.292874 0.929489 0.764478
O O3 0.954831 0.980492 0.833410
O O4 0.941507 0.009730 0.930819
O O5 0.163107 0.750000 0.342994
O O6 0.211659 0.982374 0.274235
O O7 0.400495 0.982129 0.286486
O O8 0.983828 0.003855 0.428911
O O9 0.184415 0.750000 0.477648
O O10 0.422029 0.925838 0.444037
O O11 0.306117 0.011025 0.403872
O O12 0.100829 0.750000 0.005487
O O13 0.394133 0.540226 0.898087
O O14 0.000000 0.500000 0.000000
O O15 0.684155 0.750000 0.788108
O O16 0.757207 0.548943 0.821966
O O17 0.345708 0.250000 0.586256
O O18 0.500000 0.000000 0.500000
O O19 0.178670 0.000181 0.676447
O O20 0.975910 0.250000 0.239191
O O21 0.611711 0.750000 0.673195
#
# Coordination Sequence:
#
# PCOD9168224 Si02
#       8
#     4   4   4   4   4   4   4   4
#     4  10  22  40  65  94 124 161 202 252 312 371
#     4  12  25  39  59  88 122 161 206 256 309 366
#     4  11  23  39  58  85 121 161 204 252 306 364
#     4  11  24  42  66  95 126 162 204 253 308 369
#     4  10  23  43  64  89 123 161 204 253 306 363
#     4  11  23  37  58  87 122 163 209 257 304 361
#     4  10  21  41  65  89 122 162 205 253 307 366
#     4  11  22  39  62  88 121 160 204 253 306 367
#
# _framework density 19.753086
#
# number of rings (size 3 to 8) (size 9 to 14) (size 15 to 20)
#    0.000    1.250    1.250    4.500    0.000   11.000 
#    0.000    0.000    0.000    0.000    0.000    0.000 
#    0.000    0.000    0.000    0.000    0.000    0.000 
#
# Total GULP energy -178934.599672 kJ/mol
# GULP energy per Si atom -5591.706240 kJ/mol
# Density = 1.970813 g / cm^3
# Si number density = 19.753086 Si / 1000 Ang^3
#
#
#
# Elastic Constant Matrix: (Units=GPa)
#
#
# Indices 1 2 3 4 5 6 
#
# 1 83.9866 25.7942 18.7366 0.0000 14.3626 0.0000
# 2 25.7942 77.0360 42.0860 0.0000 7.5854 0.0000
# 3 18.7366 42.0860 66.0915 0.0000 23.2604 0.0000
# 4 0.0000 0.0000 0.0000 28.0679 0.0000 8.8554
# 5 14.3626 7.5854 23.2604 0.0000 39.5422 0.0000
# 6 0.0000 0.0000 0.0000 8.8554 0.0000 31.0003
#
#
#
# Elastic Compliance Matrix: (Units=1/GPa)
#
#
# Indices 1 2 3 4 5 6 
#
# 1 0.013946 -0.004494 0.000489 0.000000 -0.004491 0.000000
# 2 -0.004494 0.022037 -0.014938 0.000000 0.006192 0.000000
# 3 0.000489 -0.014938 0.029709 0.000000 -0.014788 0.000000
# 4 0.000000 0.000000 0.000000 0.039157 0.000000 -0.011185
# 5 -0.004491 0.006192 -0.014788 0.000000 0.034432 0.000000
# 6 0.000000 0.000000 0.000000 -0.011185 0.000000 0.035453
#
#
# Mechanical properties :
#
#
# Convention : Reuss Voigt Hill
#
# Bulk Modulus (GPa) = 35.96521 44.48307 40.22414
# Shear Modulus (GPa) = 22.53391 29.08859 25.81125
#
# Velocity S-wave (km/s) = 3.38121 3.84162 3.61874
# Velocity P-wave (km/s) = 5.78708 6.49968 6.15371
#
# Compressibility (1/GPa) = 0.02780465
#
# Stress axis : x y z
#
# Youngs Moduli (GPa) = 71.70551 45.37840 33.66029
#
# Poissons Ratio (x) = 0.20395 -0.01646
# Poissons Ratio (y) = 0.32228 0.50281
# Poissons Ratio (z) = -0.03506 0.67786
#
# Static dielectric constant tensor:
#      x y z
#    x 1.719330 0.000000 -0.031600 
#    y 0.000000 1.675170 0.000000 
#    z -0.031600 0.000000 1.660220 
# 
# From -- ./inp_files/73084.got.cif
#   From: 2010.05.17/outbox.ucp.g08.bks.cvg/sg11_37_cif.got.tgz:73084.got - 2010.06.11 11:38:39.
