data_PCOD9168012
_publ_section_title
;
Structure prediction by ZEFSAII (Michael W. Deem and Ramdas Pophale) SiO2 
 PCOD9168012
Probable space group: P 21/M
;
_chemical_formula_sum "Si O2"
_cell_formula_units_Z 28
_cell_length_a 15.000000
_cell_length_b 9.000000
_cell_length_c 12.000000
_cell_angle_alpha 90.000000
_cell_angle_beta 60.000000
_cell_angle_gamma 90.000000
_cell_volume 1402.961154
_symmetry_space_group_name_H-M "P 21/M"
_symmetry_group_IT_number 11
_symmetry_cell_setting 'monoclinic'
loop_
_space_group_symop_operation_xyz
x,y,z
-x,1/2+y,-z
-x,-y,-z
x,1/2-y,z
loop_
_atom_site_type_symbol
_atom_site_label
_atom_site_fract_x
_atom_site_fract_y
_atom_site_fract_z
Si Si1 0.794135 0.570946 0.641943
Si Si2 0.386007 0.573950 0.827001
Si Si3 0.291099 0.924741 0.647133
Si Si4 0.033459 0.078955 0.093034
Si Si5 0.242942 0.422995 0.082390
Si Si6 0.599979 0.075785 0.643660
Si Si7 0.897638 0.926566 0.357726
O O1 0.794673 0.750000 0.638518
O O2 0.797113 0.527894 0.770228
O O3 0.689355 0.509848 0.653664
O O4 0.880048 0.522832 0.496919
O O5 0.403060 0.750000 0.816833
O O6 0.320828 0.540414 0.755004
O O7 0.491843 0.487981 0.747210
O O8 0.331389 0.522645 0.974288
O O9 0.259394 0.750000 0.662018
O O10 0.382987 0.941997 0.500160
O O11 0.202923 0.027959 0.651081
O O12 0.001040 0.250000 0.105471
O O13 0.153765 0.072481 0.045043
O O14 0.985086 0.006374 0.233203
O O15 0.000000 0.000000 0.000000
O O16 0.275426 0.250000 0.073092
O O17 0.609041 0.250000 0.662490
O O18 0.912183 0.750000 0.347071
#
# Coordination Sequence:
#
# PCOD9168012 Si02
#       7
#     4   4   4   4   4   4   4
#     4   9  20  40  60  80 109 144 186 230 271 321
#     4  11  22  35  54  81 112 147 185 228 278 327
#     4   9  19  35  55  82 114 146 184 228 273 326
#     4  11  23  39  60  86 115 146 181 223 273 328
#     4  10  23  41  58  78 108 147 188 229 271 321
#     4  10  20  35  57  83 111 145 184 227 276 330
#     4  10  20  35  59  86 112 145 181 224 278 328
#
# _framework density 19.957787
#
# number of rings (size 3 to 8) (size 9 to 14) (size 15 to 20)
#    0.000    2.000    0.000    3.000    0.000    7.429 
#    0.000    0.000    0.000    0.000    0.000    0.000 
#    0.000    0.000    0.000    0.000    0.000    0.000 
#
# Total GULP energy -156219.261977 kJ/mol
# GULP energy per Si atom -5579.259356 kJ/mol
# Density = 1.991236 g / cm^3
# Si number density = 19.957787 Si / 1000 Ang^3
#
#
#
# Elastic Constant Matrix: (Units=GPa)
#
#
# Indices 1 2 3 4 5 6 
#
# 1 26.8145 4.6320 21.4915 0.0000 11.3838 0.0000
# 2 4.6320 10.4466 31.4565 0.0000 0.6886 0.0000
# 3 21.4915 31.4565 126.4934 0.0000 11.8959 0.0000
# 4 0.0000 0.0000 0.0000 34.0330 0.0000 2.3780
# 5 11.3838 0.6886 11.8959 0.0000 34.4767 0.0000
# 6 0.0000 0.0000 0.0000 2.3780 0.0000 19.7553
#
#
#
# Elastic Compliance Matrix: (Units=1/GPa)
#
#
# Indices 1 2 3 4 5 6 
#
# 1 0.048702 0.001489 -0.007369 0.000000 -0.013568 0.000000
# 2 0.001489 0.404979 -0.103516 0.000000 0.027137 0.000000
# 3 -0.007369 -0.103516 0.035633 0.000000 -0.007794 0.000000
# 4 0.000000 0.000000 0.000000 0.029632 0.000000 -0.003567
# 5 -0.013568 0.027137 -0.007794 0.000000 0.035632 0.000000
# 6 0.000000 0.000000 0.000000 -0.003567 0.000000 0.051049
#
#
# Mechanical properties :
#
#
# Convention : Reuss Voigt Hill
#
# Bulk Modulus (GPa) = 3.69654 30.99050 17.34352
# Shear Modulus (GPa) = 5.46691 24.73129 15.09910
#
# Velocity S-wave (km/s) = 1.65686 3.52402 2.75353
# Velocity P-wave (km/s) = 2.34871 5.66745 4.33800
#
# Compressibility (1/GPa) = 0.27052330
#
# Stress axis : x y z
#
# Youngs Moduli (GPa) = 20.53291 2.46926 28.06390
#
# Poissons Ratio (x) = -0.00368 0.20680
# Poissons Ratio (y) = -0.03057 2.90506
# Poissons Ratio (z) = 0.15131 0.25561
#
# Static dielectric constant tensor:
#      x y z
#    x 1.716880 0.000000 -0.046100 
#    y 0.000000 1.670890 0.000000 
#    z -0.046100 0.000000 1.732880 
# 
# From -- ./inp_files/37875.got.cif
#   From: 2010.05.17/outbox.ucp.g08.bks.cvg/sg11_19_cif.got.tgz:37875.got - 2010.06.11 11:38:39.
