data_PCOD9168496
_publ_section_title
;
Structure prediction by ZEFSAII (Michael W. Deem and Ramdas Pophale) SiO2 
 PCOD9168496
Probable space group: C 2/M
;
_chemical_formula_sum "Si O2"
_cell_formula_units_Z 64
_cell_length_a 8.235396
_cell_length_b 18.626228
_cell_length_c 22.152130
_cell_angle_alpha 90.000000
_cell_angle_beta 90.865936
_cell_angle_gamma 90.000000
_cell_volume 3397.623810
_symmetry_space_group_name_H-M "C 2/M"
_symmetry_group_IT_number 12
_symmetry_cell_setting 'monoclinic'
loop_
_space_group_symop_operation_xyz
x,y,z
-x,y,-z
-x,-y,-z
x,-y,z
1/2+x,1/2+y,z
1/2-x,1/2+y,-z
1/2-x,1/2-y,-z
1/2+x,1/2-y,z
loop_
_atom_site_type_symbol
_atom_site_label
_atom_site_fract_x
_atom_site_fract_y
_atom_site_fract_z
Si Si1 0.942857 0.082476 0.436721
Si Si2 0.584681 0.807065 0.938454
Si Si3 0.415663 0.183552 0.814974
Si Si4 0.060270 0.672216 0.317035
Si Si5 0.032000 0.152939 0.811252
Si Si6 0.956343 0.853430 0.936997
Si Si7 0.551003 0.083065 0.433671
Si Si8 0.047996 0.836766 0.680555
O O1 0.747320 0.083124 0.434080
O O2 0.008631 0.122305 0.378805
O O3 0.000000 0.115471 0.500000
O O4 0.998285 0.000000 0.435449
O O5 0.500827 0.837992 0.877812
O O6 0.771496 0.827645 0.939413
O O7 0.564130 0.720211 0.936551
O O8 0.500000 0.830855 0.000000
O O9 0.487189 0.152257 0.752522
O O10 0.225025 0.167135 0.815850
O O11 0.441077 0.269802 0.812620
O O12 0.996673 0.627426 0.374138
O O13 0.255803 0.665724 0.319125
O O14 0.012512 0.755241 0.322611
O O15 0.998091 0.126179 0.743428
O O16 0.983792 0.111451 0.871763
O O17 0.000000 0.891911 0.000000
O O18 0.500000 0.110361 0.500000
O O19 0.495730 0.000000 0.428713
#
# Coordination Sequence:
#
# PCOD9168496 Si02
#       8
#     8   8   8   8   8   8   8   8
#     4   9  18  33  50  67  88 115 147 181 218 260
#     4  10  16  22  32  48  72 104 140 173 207 247
#     4   9  15  24  36  52  76 105 137 171 210 252
#     4   9  18  30  45  65  89 117 146 180 220 262
#     4   9  15  24  36  52  76 105 137 171 210 252
#     4  10  16  22  32  48  72 104 140 173 207 247
#     4   9  18  33  50  67  88 115 147 181 218 260
#     4   9  18  30  45  65  89 117 146 180 220 262
#
# _framework density 18.836693
#
# number of rings (size 3 to 8) (size 9 to 14) (size 15 to 20)
#    0.000    2.750    0.000    5.250    0.000    2.500 
#    0.000    2.500    0.000    0.000    0.000    0.000 
#    0.000    1.000    0.000    1.750    0.000   10.250 
#
# Total GULP energy -178193.467483 kJ/mol
# GULP energy per Si atom -5568.545859 kJ/mol
# Density = 1.879382 g / cm^3
# Si number density = 18.836693 Si / 1000 Ang^3
#
#
#
# Elastic Constant Matrix: (Units=GPa)
#
#
# Indices 1 2 3 4 5 6 
#
# 1 23.3391 0.5670 21.2781 0.0000 -4.8681 0.0000
# 2 0.5670 14.5030 41.4486 0.0000 -1.9520 0.0000
# 3 21.2781 41.4486 243.6807 0.0000 -5.7812 0.0000
# 4 0.0000 0.0000 0.0000 -15.5467 0.0000 0.2767
# 5 -4.8681 -1.9520 -5.7812 0.0000 31.4978 0.0000
# 6 0.0000 0.0000 0.0000 0.2767 0.0000 6.7881
#
#
#
# Elastic Compliance Matrix: (Units=1/GPa)
#
#
# Indices 1 2 3 4 5 6 
#
# 1 0.051267 0.022011 -0.008035 0.000000 0.007813 0.000000
# 2 0.022011 0.144168 -0.026266 0.000000 0.007516 0.000000
# 3 -0.008035 -0.026266 0.009245 0.000000 -0.001173 0.000000
# 4 0.000000 0.000000 0.000000 -0.064276 0.000000 0.002620
# 5 0.007813 0.007516 -0.001173 0.000000 0.033206 0.000000
# 6 0.000000 0.000000 0.000000 0.002620 0.000000 0.147211
#
#
# Mechanical properties :
#
#
# Convention : Reuss Voigt Hill
#
# Bulk Modulus (GPa) = 5.55244 45.34560 25.44902
# Shear Modulus (GPa) = 12.33245 19.09644 15.71445
#
# Velocity S-wave (km/s) = 2.56149 3.18746 2.89147
# Velocity P-wave (km/s) = 3.42088 6.13774 4.96861
#
# Compressibility (1/GPa) = 0.18010096
#
# Stress axis : x y z
#
# Youngs Moduli (GPa) = 19.50570 6.93635 108.16413
#
# Poissons Ratio (x) = -0.15268 0.86913
# Poissons Ratio (y) = -0.42935 2.84102
# Poissons Ratio (z) = 0.15673 0.18219
#
# Static dielectric constant tensor:
#      x y z
#    x 1.658310 0.000000 -0.004170 
#    y 0.000000 1.620830 0.000000 
#    z -0.004170 0.000000 1.757750 
# 
# From -- ./inp_files/301430.got.cif
#   From: 2010.05.17/outbox.cif.g08.bks.cpg/sg12_151_cif.got.tgz:301430.got - 2010.06.03 13:09:07.
