data_PCOD9168298
_publ_section_title
;
Structure prediction by ZEFSAII (Michael W. Deem and Ramdas Pophale) SiO2 
 PCOD9168298
Probable space group: C 2/M
;
_chemical_formula_sum "Si O2"
_cell_formula_units_Z 52
_cell_length_a 5.271674
_cell_length_b 14.787687
_cell_length_c 33.016688
_cell_angle_alpha 90.000000
_cell_angle_beta 85.398663
_cell_angle_gamma 90.000000
_cell_volume 2565.548992
_symmetry_space_group_name_H-M "C 2/M"
_symmetry_group_IT_number 12
_symmetry_cell_setting 'monoclinic'
loop_
_space_group_symop_operation_xyz
x,y,z
-x,y,-z
-x,-y,-z
x,-y,z
1/2+x,1/2+y,z
1/2-x,1/2+y,-z
1/2-x,1/2-y,-z
1/2+x,1/2-y,z
loop_
_atom_site_type_symbol
_atom_site_label
_atom_site_fract_x
_atom_site_fract_y
_atom_site_fract_z
Si Si1 0.531726 0.891534 0.826194
Si Si2 0.759047 0.145603 0.482037
Si Si3 0.054016 0.108616 0.781766
Si Si4 0.853956 0.191298 0.390526
Si Si5 0.712903 0.691007 0.695512
Si Si6 0.000000 0.312973 0.000000
Si Si7 0.400077 0.190128 0.087415
O O1 0.265650 0.858121 0.811074
O O2 0.571808 0.866188 0.872199
O O3 0.772999 0.857916 0.797047
O O4 0.527298 0.000000 0.823086
O O5 0.500000 0.103711 0.500000
O O6 0.750000 0.250000 0.500000
O O7 0.788101 0.144594 0.433549
O O8 0.000000 0.103488 0.500000
O O9 0.140669 0.135256 0.735937
O O10 0.046631 0.000000 0.784408
O O11 0.641654 0.271416 0.390416
O O12 0.818376 0.142590 0.347771
O O13 0.498592 0.770392 0.695957
O O14 0.034988 0.360065 0.955957
O O15 0.250000 0.250000 0.000000
O O16 0.616513 0.268365 0.088201
#
# Coordination Sequence:
#
# PCOD9168298 Si02
#       7
#     8   8   8   8   8   4   8
#     4  10  21  35  52  73  98 124 161 206 244 280
#     4  10  14  20  34  52  77 115 142 166 211 279
#     4  10  21  37  52  68  95 131 162 195 241 295
#     4  10  16  25  36  57  86 115 141 180 226 270
#     4  10  21  32  48  70  97 122 152 201 242 275
#     4   8  16  30  47  70 103 130 160 190 236 282
#     4  10  19  32  52  77 100 132 163 200 235 288
#
# _framework density 20.268567000000001
#
# number of rings (size 3 to 8) (size 9 to 14) (size 15 to 20)
#    0.000    2.154    3.077    1.846    0.000    3.692 
#    0.000    0.385    0.000    0.000    0.000    9.692 
#    0.000    1.231    0.000    0.000    0.000    6.154 
#
# Total GULP energy -144923.108428 kJ/mol
# GULP energy per Si atom -5573.965709 kJ/mol
# Density = 2.022243 g / cm^3
# Si number density = 20.268567 Si / 1000 Ang^3
#
#
#
# Elastic Constant Matrix: (Units=GPa)
#
#
# Indices 1 2 3 4 5 6 
#
# 1 109.9568 -1.5450 -0.8800 0.0000 -5.4829 0.0000
# 2 -1.5450 25.7445 -5.5288 0.0000 -0.6911 0.0000
# 3 -0.8800 -5.5288 127.0807 0.0000 1.3209 0.0000
# 4 0.0000 0.0000 0.0000 -28.6539 0.0000 -1.8439
# 5 -5.4829 -0.6911 1.3209 0.0000 35.3754 0.0000
# 6 0.0000 0.0000 0.0000 -1.8439 0.0000 -2.4371
#
#
#
# Elastic Compliance Matrix: (Units=1/GPa)
#
#
# Indices 1 2 3 4 5 6 
#
# 1 0.009175 0.000605 0.000075 0.000000 0.001431 0.000000
# 2 0.000605 0.039267 0.001704 0.000000 0.000797 0.000000
# 3 0.000075 0.001704 0.007946 0.000000 -0.000252 0.000000
# 4 0.000000 0.000000 0.000000 -0.036685 0.000000 0.027757
# 5 0.001431 0.000797 -0.000252 0.000000 0.028515 0.000000
# 6 0.000000 0.000000 0.000000 0.027757 0.000000 -0.431332
#
#
# Mechanical properties :
#
#
# Convention : Reuss Voigt Hill
#
# Bulk Modulus (GPa) = 16.35138 27.43049 21.89093
# Shear Modulus (GPa) = -13.60553 18.90594 2.65020
#
# Velocity S-wave (km/s) = -2.59368 3.05744 1.14472
# Velocity P-wave (km/s) = 0.94060 5.10165 3.54557
#
# Compressibility (1/GPa) = 0.06115692
#
# Stress axis : x y z
#
# Youngs Moduli (GPa) = 108.99246 25.46674 125.84475
#
# Poissons Ratio (x) = -0.01541 -0.00944
# Poissons Ratio (y) = -0.06595 -0.21447
# Poissons Ratio (z) = -0.00817 -0.04340
#
# Static dielectric constant tensor:
#      x y z
#    x 1.723290 0.000000 0.004270 
#    y 0.000000 1.690390 0.000000 
#    z 0.004270 0.000000 1.753760 
# 
# From -- ./inp_files/354888.got.cif
#   From: 2010.05.17/outbox.cif.g08.bks.cpg/sg12_178_cif.got.tgz:354888.got - 2010.06.03 13:09:07.
