data_PCOD9168355
_publ_section_title
;
Structure prediction by ZEFSAII (Michael W. Deem and Ramdas Pophale) SiO2 
 PCOD9168355
Probable space group: C 2/M
;
_chemical_formula_sum "Si O2"
_cell_formula_units_Z 40
_cell_length_a 7.262993
_cell_length_b 23.969030
_cell_length_c 13.323653
_cell_angle_alpha 90.000000
_cell_angle_beta 128.739128
_cell_angle_gamma 90.000000
_cell_volume 1809.196773
_symmetry_space_group_name_H-M "C 2/M"
_symmetry_group_IT_number 12
_symmetry_cell_setting 'monoclinic'
loop_
_space_group_symop_operation_xyz
x,y,z
-x,y,-z
-x,-y,-z
x,-y,z
1/2+x,1/2+y,z
1/2-x,1/2+y,-z
1/2-x,1/2-y,-z
1/2+x,1/2-y,z
loop_
_atom_site_type_symbol
_atom_site_label
_atom_site_fract_x
_atom_site_fract_y
_atom_site_fract_z
Si Si1 0.075937 0.000000 0.407436
Si Si2 0.443114 0.000000 0.863062
Si Si3 0.228750 0.883510 0.504934
Si Si4 0.829957 0.789253 0.862063
Si Si5 0.988900 0.381256 0.793436
Si Si6 0.952849 0.182893 0.267541
O O1 0.217492 0.942550 0.443568
O O2 0.000000 0.000000 0.500000
O O3 0.837172 0.000000 0.260717
O O4 0.541385 0.056588 0.847221
O O5 0.500000 0.000000 0.000000
O O6 0.437265 0.880656 0.655976
O O7 0.000000 0.882261 0.500000
O O8 0.179301 0.833666 0.411471
O O9 0.689191 0.835642 0.875720
O O10 0.652906 0.744558 0.752664
O O11 0.975030 0.817911 0.823198
O O12 0.000000 0.759222 0.000000
O O13 0.755329 0.359677 0.772293
#
# Coordination Sequence:
#
# PCOD9168355 Si02
#       6
#     4   4   8   8   8   8
#     4  10  14  36  65  95 127 176 232 264 333 401
#     4  12  24  38  74 106 136 187 224 275 343 418
#     4   9  18  37  67  97 129 172 227 284 333 399
#     4  12  27  42  65  96 140 184 226 281 343 417
#     4  11  24  45  67 101 136 177 225 284 343 399
#     4  11  23  42  67  98 126 183 228 277 339 403
#
# _framework density 22.109258000000001
#
# number of rings (size 3 to 8) (size 9 to 14) (size 15 to 20)
#    0.000    1.200    8.000    0.600    2.800    1.600 
#    3.600    2.500    0.000    2.400    0.000    0.000 
#    0.000    0.000    0.000    0.000    0.000    0.000 
#
# Total GULP energy -111716.641089 kJ/mol
# GULP energy per Si atom -5585.832054 kJ/mol
# Density = 2.205894 g / cm^3
# Si number density = 22.109258 Si / 1000 Ang^3
#
#
#
# Elastic Constant Matrix: (Units=GPa)
#
#
# Indices 1 2 3 4 5 6 
#
# 1 62.3293 18.2148 19.8611 0.0000 -10.9292 0.0000
# 2 18.2148 151.1640 54.1198 0.0000 -6.8301 0.0000
# 3 19.8611 54.1198 147.6207 0.0000 -19.7920 0.0000
# 4 0.0000 0.0000 0.0000 27.5780 0.0000 -6.0204
# 5 -10.9292 -6.8301 -19.7920 0.0000 19.1000 0.0000
# 6 0.0000 0.0000 0.0000 -6.0204 0.0000 -6.3546
#
#
#
# Elastic Compliance Matrix: (Units=1/GPa)
#
#
# Indices 1 2 3 4 5 6 
#
# 1 0.018330 -0.001556 -0.000655 0.000000 0.009253 0.000000
# 2 -0.001556 0.007748 -0.002763 0.000000 -0.000983 0.000000
# 3 -0.000655 -0.002763 0.008934 0.000000 0.007894 0.000000
# 4 0.000000 0.000000 0.000000 0.030046 0.000000 -0.028466
# 5 0.009253 -0.000983 0.007894 0.000000 0.065480 0.000000
# 6 0.000000 0.000000 0.000000 -0.028466 0.000000 -0.130398
#
#
# Mechanical properties :
#
#
# Convention : Reuss Voigt Hill
#
# Bulk Modulus (GPa) = 39.89914 60.61172 50.25543
# Shear Modulus (GPa) = 271.12418 25.99257 148.55838
#
# Velocity S-wave (km/s) = 11.08582 3.43248 8.20602
# Velocity P-wave (km/s) = 13.48874 6.57141 10.60966
#
# Compressibility (1/GPa) = 0.02506320
#
# Stress axis : x y z
#
# Youngs Moduli (GPa) = 54.55593 129.07299 111.93758
#
# Poissons Ratio (x) = 0.20085 0.07332
# Poissons Ratio (y) = 0.08489 0.30926
# Poissons Ratio (z) = 0.03573 0.35660
#
# Static dielectric constant tensor:
#      x y z
#    x 1.831880 0.000000 0.022060 
#    y 0.000000 1.817160 0.000000 
#    z 0.022060 0.000000 1.861020 
# 
# From -- ./inp_files/196787.got.cif
#   From: 2010.05.17/outbox.cif.g08.bks.cpg/sg12_99_cif.got.tgz:196787.got - 2010.06.03 13:09:07.
