data_PCOD9168932
_publ_section_title
;
Structure prediction by ZEFSAII (Michael W. Deem and Ramdas Pophale) SiO2 
 PCOD9168932
Probable space group: C 2/M
;
_chemical_formula_sum "Si O2"
_cell_formula_units_Z 44
_cell_length_a 29.308539
_cell_length_b 15.643974
_cell_length_c 5.378008
_cell_angle_alpha 90.000000
_cell_angle_beta 79.426582
_cell_angle_gamma 90.000000
_cell_volume 2423.959237
_symmetry_space_group_name_H-M "C 2/M"
_symmetry_group_IT_number 12
_symmetry_cell_setting 'monoclinic'
loop_
_space_group_symop_operation_xyz
x,y,z
-x,y,-z
-x,-y,-z
x,-y,z
1/2+x,1/2+y,z
1/2-x,1/2+y,-z
1/2-x,1/2-y,-z
1/2+x,1/2-y,z
loop_
_atom_site_type_symbol
_atom_site_label
_atom_site_fract_x
_atom_site_fract_y
_atom_site_fract_z
Si Si1 0.968766 0.688177 0.781234
Si Si2 0.621585 0.699502 0.128414
Si Si3 0.745203 0.854020 0.504797
Si Si4 0.147398 0.099243 0.602601
Si Si5 0.790683 0.677113 0.959318
Si Si6 0.969069 0.500000 0.780931
O O1 0.928734 0.758057 0.821266
O O2 0.945649 0.592958 0.804351
O O3 0.000000 0.695213 0.500000
O O4 0.000000 0.695213 0.000000
O O5 0.629454 0.644818 0.370519
O O6 0.661114 0.772845 0.088884
O O7 0.629454 0.644818 0.870570
O O8 0.750000 0.750000 0.500000
O O9 0.796699 0.891077 0.453300
O O10 0.717861 0.875412 0.282128
O O11 0.717861 0.875412 0.782149
O O12 0.134784 0.000000 0.615215
O O13 0.750000 0.750000 0.000000
O O14 0.000000 0.500000 0.500000
O O15 0.000000 0.500000 0.000000
#
# Coordination Sequence:
#
# PCOD9168932 Si02
#       6
#     8   8   8   8   8   4
#     4  10  21  38  62  90 113 146 189 235 289 356
#     4  12  21  36  60  83 114 155 189 243 282 342
#     4  10  16  32  53  73 108 137 186 224 282 322
#     4  12  23  35  55  84 114 157 205 236 272 340
#     4  10  16  30  55  79 102 140 182 223 280 331
#     4   8  16  34  60  86 114 138 170 226 284 346
#
# _framework density 18.152121000000001
#
# number of rings (size 3 to 8) (size 9 to 14) (size 15 to 20)
#    0.000    1.455    7.273    1.636    0.000    0.000 
#    0.000    0.000    4.000   10.909    0.000    0.000 
#    0.000    0.000    0.000    0.000    0.000    0.000 
#
# Total GULP energy -122665.611635 kJ/mol
# GULP energy per Si atom -5575.709620 kJ/mol
# Density = 1.811081 g / cm^3
# Si number density = 18.152121 Si / 1000 Ang^3
#
#
#
# Elastic Constant Matrix: (Units=GPa)
#
#
# Indices 1 2 3 4 5 6 
#
# 1 91.1294 56.1129 61.5457 0.0000 -0.6118 0.0000
# 2 56.1129 87.9495 64.2445 0.0000 1.6878 0.0000
# 3 61.5457 64.2445 212.9586 0.0000 25.9133 0.0000
# 4 0.0000 0.0000 0.0000 2.6379 0.0000 -2.7216
# 5 -0.6118 1.6878 25.9133 0.0000 18.8311 0.0000
# 6 0.0000 0.0000 0.0000 -2.7216 0.0000 15.7409
#
#
#
# Elastic Compliance Matrix: (Units=1/GPa)
#
#
# Indices 1 2 3 4 5 6 
#
# 1 0.019495 -0.010128 -0.003322 0.000000 0.006113 0.000000
# 2 -0.010128 0.020374 -0.003552 0.000000 0.002732 0.000000
# 3 -0.003322 -0.003552 0.008050 0.000000 -0.010867 0.000000
# 4 0.000000 0.000000 0.000000 0.461394 0.000000 0.079774
# 5 0.006113 0.002732 -0.010867 0.000000 0.068011 0.000000
# 6 0.000000 0.000000 0.000000 0.079774 0.000000 0.077322
#
#
# Mechanical properties :
#
#
# Convention : Reuss Voigt Hill
#
# Bulk Modulus (GPa) = 71.87184 83.98263 77.92723
# Shear Modulus (GPa) = 7.21201 21.45094 14.33147
#
# Velocity S-wave (km/s) = 1.99542 3.44136 2.81289
# Velocity P-wave (km/s) = 6.70739 7.88398 7.31936
#
# Compressibility (1/GPa) = 0.01391366
#
# Stress axis : x y z
#
# Youngs Moduli (GPa) = 51.29564 49.08175 124.22771
#
# Poissons Ratio (x) = 0.49711 0.41274
# Poissons Ratio (y) = 0.51954 0.44123
# Poissons Ratio (z) = 0.17043 0.17433
#
# Static dielectric constant tensor:
#      x y z
#    x 1.575840 0.000000 -0.018350 
#    y 0.000000 1.629900 0.000000 
#    z -0.018350 0.000000 1.487500 
# 
# From -- ./inp_files/27920.got.cif
#   From: 2010.05.17/outbox.cif.g08.bks.cpg/sg12_14_cif.got.tgz:27920.got - 2010.06.03 13:09:07.
