data_PCOD9168731
_publ_section_title
;
Structure prediction by ZEFSAII (Michael W. Deem and Ramdas Pophale) SiO2 
 PCOD9168731
Probable space group: C 2/M
;
_chemical_formula_sum "Si O2"
_cell_formula_units_Z 64
_cell_length_a 23.490302
_cell_length_b 17.236004
_cell_length_c 21.155796
_cell_angle_alpha 90.000000
_cell_angle_beta 23.719316
_cell_angle_gamma 90.000000
_cell_volume 3445.542194
_symmetry_space_group_name_H-M "C 2/M"
_symmetry_group_IT_number 12
_symmetry_cell_setting 'monoclinic'
loop_
_space_group_symop_operation_xyz
x,y,z
-x,y,-z
-x,-y,-z
x,-y,z
1/2+x,1/2+y,z
1/2-x,1/2+y,-z
1/2-x,1/2-y,-z
1/2+x,1/2-y,z
loop_
_atom_site_type_symbol
_atom_site_label
_atom_site_fract_x
_atom_site_fract_y
_atom_site_fract_z
Si Si1 0.321687 0.290844 0.254252
Si Si2 0.761440 0.118726 0.630879
Si Si3 0.341404 0.918606 0.133334
Si Si4 0.282032 0.406817 0.408006
Si Si5 0.031385 0.588880 0.762314
Si Si6 0.735674 0.201484 0.952061
Si Si7 0.507903 0.588606 0.284344
Si Si8 0.157117 0.756656 0.908147
O O1 0.249625 0.211812 0.352173
O O2 0.283385 0.359865 0.341021
O O3 0.289504 0.295690 0.211341
O O4 0.491698 0.277457 0.083200
O O5 0.758660 0.085859 0.703957
O O6 0.623241 0.091342 0.733123
O O7 0.892236 0.091281 0.457274
O O8 0.327510 0.836638 0.114439
O O9 0.318722 0.000000 0.121103
O O10 0.500000 0.918624 0.000000
O O11 0.286546 0.500000 0.393737
O O12 0.143089 0.390744 0.592578
O O13 0.419597 0.385632 0.311320
O O14 0.982715 0.500000 0.801498
O O15 0.907376 0.650572 0.896861
O O16 0.750000 0.250000 0.000000
O O17 0.866255 0.142557 0.820757
O O18 0.733823 0.264253 0.896830
O O19 0.554559 0.500000 0.226365
#
# Coordination Sequence:
#
# PCOD9168731 Si02
#       8
#     8   8   8   8   8   8   8   8
#     4  10  18  35  59  80 117 138 188 246 271 318
#     4  10  18  32  57  85 110 144 184 225 276 324
#     4  10  16  27  49  77 108 139 176 220 265 315
#     4   9  20  37  61  88 109 142 190 241 293 330
#     4  10  20  35  58  86 112 143 191 235 273 334
#     4  12  24  37  55  80 115 151 188 222 287 346
#     4  10  22  36  53  83 121 147 178 229 288 345
#     4  10  20  36  50  85 106 150 192 229 270 335
#
# _framework density 18.574725000000001
#
# number of rings (size 3 to 8) (size 9 to 14) (size 15 to 20)
#    0.000    1.875    3.750    3.000    1.750    3.000 
#    0.000    3.750    0.000    5.250    0.000    1.750 
#    0.000    0.000    0.000    0.000    0.000    0.000 
#
# Total GULP energy -178433.496238 kJ/mol
# GULP energy per Si atom -5576.046757 kJ/mol
# Density = 1.853245 g / cm^3
# Si number density = 18.574725 Si / 1000 Ang^3
#
#
#
# Elastic Constant Matrix: (Units=GPa)
#
#
# Indices 1 2 3 4 5 6 
#
# 1 101.3783 21.9205 34.6329 -0.0002 21.6271 -0.0004
# 2 21.9205 37.3898 22.3582 -0.0034 9.3912 0.0021
# 3 34.6329 22.3582 59.0680 -0.0056 3.6764 0.0030
# 4 -0.0002 -0.0034 -0.0056 21.3191 0.0015 18.2041
# 5 21.6271 9.3912 3.6764 0.0015 30.5406 -0.0004
# 6 -0.0004 0.0021 0.0030 18.2041 -0.0004 17.7063
#
#
#
# Elastic Compliance Matrix: (Units=1/GPa)
#
#
# Indices 1 2 3 4 5 6 
#
# 1 0.014693 -0.002012 -0.007299 -0.000023 -0.008907 0.000025
# 2 -0.002012 0.037567 -0.012503 0.000045 -0.008622 -0.000049
# 3 -0.007299 -0.012503 0.025572 0.000055 0.005935 -0.000060
# 4 -0.000023 0.000045 0.000055 0.384140 -0.000029 -0.394939
# 5 -0.008907 -0.008622 0.005935 -0.000029 0.040988 0.000030
# 6 0.000025 -0.000049 -0.000060 -0.394939 0.000030 0.462519
#
#
# Mechanical properties :
#
#
# Convention : Reuss Voigt Hill
#
# Bulk Modulus (GPa) = 29.23651 39.51769 34.37710
# Shear Modulus (GPa) = 4.89952 21.84148 13.37050
#
# Velocity S-wave (km/s) = 1.62587 3.43282 2.68586
# Velocity P-wave (km/s) = 4.39303 6.08551 5.30717
#
# Compressibility (1/GPa) = 0.03420380
#
# Stress axis : x y z
#
# Youngs Moduli (GPa) = 68.06111 26.61888 39.10478
#
# Poissons Ratio (x) = 0.05357 0.28541
# Poissons Ratio (y) = 0.13696 0.48894
# Poissons Ratio (z) = 0.49675 0.33283
#
# Static dielectric constant tensor:
#      x y z
#    x 1.660250 0.000000 0.054350 
#    y 0.000000 1.652450 0.000000 
#    z 0.054350 0.000000 1.575780 
# 
# From -- ./inp_files/326081.got.cif
#   From: 2010.05.17/outbox.cif.g08.bks.cpg/sg12_164_cif.got.tgz:326081.got - 2010.06.03 13:09:07.
