data_PCOD9168460
_publ_section_title
;
Structure prediction by ZEFSAII (Michael W. Deem and Ramdas Pophale) SiO2 
 PCOD9168460
Probable space group: C 2/M
;
_chemical_formula_sum "Si O2"
_cell_formula_units_Z 56
_cell_length_a 12.644821
_cell_length_b 13.739946
_cell_length_c 17.112509
_cell_angle_alpha 90.000000
_cell_angle_beta 125.836063
_cell_angle_gamma 90.000000
_cell_volume 2410.289176
_symmetry_space_group_name_H-M "C 2/M"
_symmetry_group_IT_number 12
_symmetry_cell_setting 'monoclinic'
loop_
_space_group_symop_operation_xyz
x,y,z
-x,y,-z
-x,-y,-z
x,-y,z
1/2+x,1/2+y,z
1/2-x,1/2+y,-z
1/2-x,1/2-y,-z
1/2+x,1/2-y,z
loop_
_atom_site_type_symbol
_atom_site_label
_atom_site_fract_x
_atom_site_fract_y
_atom_site_fract_z
Si Si1 0.858764 0.184373 0.411803
Si Si2 0.813352 0.703240 0.949152
Si Si3 0.097499 0.114337 0.739098
Si Si4 0.083168 0.295477 0.330462
Si Si5 0.961737 0.393828 0.140252
Si Si6 0.375215 0.109143 0.353979
Si Si7 0.801330 0.105233 0.866949
O O1 0.839622 0.137923 0.318085
O O2 0.731250 0.172963 0.408889
O O3 0.866045 0.301738 0.408333
O O4 0.000000 0.148383 0.500000
O O5 0.700627 0.650082 0.849874
O O6 0.863719 0.793841 0.919656
O O7 0.750000 0.750000 0.000000
O O8 0.919301 0.634280 0.035200
O O9 0.970016 0.185190 0.683273
O O10 0.069673 0.000000 0.735992
O O11 0.050610 0.319745 0.226056
O O12 0.993210 0.361671 0.347105
O O13 0.024139 0.500000 0.168152
O O14 0.829395 0.398789 0.135568
O O15 0.248576 0.112368 0.243091
O O16 0.388228 0.000000 0.390021
O O17 0.867419 0.000000 0.905344
#
# Coordination Sequence:
#
# PCOD9168460 Si02
#       7
#     8   8   8   8   8   8   8
#     4  11  25  43  63  89 125 163 204 260 320 369
#     4  10  15  31  56  90 123 162 202 248 302 364
#     4  11  23  40  62  94 130 164 205 256 307 365
#     4  10  20  40  62  88 123 163 205 255 310 368
#     4   9  16  28  53  85 114 154 203 242 290 360
#     4   9  18  37  64  89 114 156 207 251 300 366
#     4   8  13  25  50  81 111 148 196 238 282 345
#
# _framework density 23.233725
#
# number of rings (size 3 to 8) (size 9 to 14) (size 15 to 20)
#    0.000    2.286    5.714    1.714    0.000    5.143 
#    0.000    2.143    0.000    1.714    0.000    3.000 
#    0.000    0.000    0.000    0.000    0.000    0.000 
#
# Total GULP energy -156241.362227 kJ/mol
# GULP energy per Si atom -5580.048651 kJ/mol
# Density = 2.318084 g / cm^3
# Si number density = 23.233725 Si / 1000 Ang^3
#
#
#
# Elastic Constant Matrix: (Units=GPa)
#
#
# Indices 1 2 3 4 5 6 
#
# 1 46.9898 -16.4649 -0.7355 0.0000 17.7330 0.0000
# 2 -16.4649 103.4284 -10.6334 0.0000 6.2609 0.0000
# 3 -0.7355 -10.6334 41.5882 0.0000 1.9683 0.0000
# 4 0.0000 0.0000 0.0000 -5.2234 0.0000 -5.8891
# 5 17.7330 6.2609 1.9683 0.0000 26.8425 0.0000
# 6 0.0000 0.0000 0.0000 -5.8891 0.0000 -0.0772
#
#
#
# Elastic Compliance Matrix: (Units=1/GPa)
#
#
# Indices 1 2 3 4 5 6 
#
# 1 0.032618 0.006967 0.003467 0.000000 -0.023428 0.000000
# 2 0.006967 0.011589 0.003444 0.000000 -0.007558 0.000000
# 3 0.003467 0.003444 0.025221 0.000000 -0.004943 0.000000
# 4 0.000000 0.000000 0.000000 0.002252 0.000000 -0.171803
# 5 -0.023428 -0.007558 -0.004943 0.000000 0.054857 0.000000
# 6 0.000000 0.000000 0.000000 -0.171803 0.000000 0.152383
#
#
# Mechanical properties :
#
#
# Convention : Reuss Voigt Hill
#
# Bulk Modulus (GPa) = 10.28970 15.14876 12.71923
# Shear Modulus (GPa) = 17.63303 18.96440 18.29871
#
# Velocity S-wave (km/s) = 2.75788 2.86010 2.80945
# Velocity P-wave (km/s) = 3.81832 4.17627 4.00130
#
# Compressibility (1/GPa) = 0.09718453
#
# Stress axis : x y z
#
# Youngs Moduli (GPa) = 30.65813 86.28688 39.64928
#
# Poissons Ratio (x) = -0.60117 -0.13746
# Poissons Ratio (y) = -0.21360 -0.13656
# Poissons Ratio (z) = -0.10629 -0.29718
#
# Static dielectric constant tensor:
#      x y z
#    x 1.932250 0.000000 0.034180 
#    y 0.000000 1.911090 0.000000 
#    z 0.034180 0.000000 1.929740 
# 
# From -- ./inp_files/263410.got.cif
#   From: 2010.05.17/outbox.cif.g08.bks.cpg/sg12_132_cif.got.tgz:263410.got - 2010.06.03 13:09:07.
