data_PCOD9168153
_publ_section_title
;
Structure prediction by ZEFSAII (Michael W. Deem and Ramdas Pophale) SiO2 
 PCOD9168153
Probable space group: P 21/M
;
_chemical_formula_sum "Si O2"
_cell_formula_units_Z 28
_cell_length_a 15.000000
_cell_length_b 9.000000
_cell_length_c 21.000000
_cell_angle_alpha 90.000000
_cell_angle_beta 150.000000
_cell_angle_gamma 90.000000
_cell_volume 1417.500000
_symmetry_space_group_name_H-M "P 21/M"
_symmetry_group_IT_number 11
_symmetry_cell_setting 'monoclinic'
loop_
_space_group_symop_operation_xyz
x,y,z
-x,1/2+y,-z
-x,-y,-z
x,1/2-y,z
loop_
_atom_site_type_symbol
_atom_site_label
_atom_site_fract_x
_atom_site_fract_y
_atom_site_fract_z
Si Si1 0.351138 0.072566 0.564542
Si Si2 0.811244 0.572575 0.399864
Si Si3 0.120079 0.927582 0.316710
Si Si4 0.446734 0.575103 0.862621
Si Si5 0.000184 0.075859 0.897028
Si Si6 0.269454 0.924504 0.151011
Si Si7 0.238618 0.576180 0.868044
O O1 0.364714 0.250000 0.561540
O O2 0.223698 0.049475 0.546597
O O3 0.541493 0.016212 0.708001
O O4 0.280166 0.997496 0.456509
O O5 0.812511 0.750000 0.389162
O O6 0.657793 0.499168 0.260814
O O7 0.000000 0.500000 0.500000
O O8 0.137410 0.750000 0.327852
O O9 0.088564 0.977627 0.223775
O O10 0.940402 0.981418 0.240132
O O11 0.481637 0.750000 0.871934
O O12 0.324386 0.565909 0.850776
O O13 0.624946 0.490004 0.995267
O O14 0.039089 0.250000 0.912321
O O15 0.861398 0.060236 0.869323
O O16 0.178421 0.998220 0.033369
O O17 0.291446 0.750000 0.150521
O O18 0.203083 0.750000 0.858961
#
# Coordination Sequence:
#
# PCOD9168153 Si02
#       7
#     4   4   4   4   4   4   4
#     4  10  23  40  58  84 116 153 198 242 285 347
#     4  11  23  38  56  81 114 153 197 242 290 344
#     4  11  23  37  56  86 119 153 190 239 293 343
#     4  10  21  37  57  82 110 147 192 242 294 343
#     4   9  20  38  60  88 119 149 187 239 292 347
#     4   9  19  39  63  86 115 151 192 237 289 349
#     4  10  21  37  57  81 113 150 192 237 284 346
#
# _framework density 19.753086
#
# number of rings (size 3 to 8) (size 9 to 14) (size 15 to 20)
#    0.000    2.000    0.000    2.571    2.000    8.571 
#    0.000    0.000    0.000    0.000    0.000    0.000 
#    0.000    0.000    0.000    0.000    0.000    0.000 
#
# Total GULP energy -156397.820669 kJ/mol
# GULP energy per Si atom -5585.636452 kJ/mol
# Density = 1.970813 g / cm^3
# Si number density = 19.753086 Si / 1000 Ang^3
#
#
#
# Elastic Constant Matrix: (Units=GPa)
#
#
# Indices 1 2 3 4 5 6 
#
# 1 17.6555 34.1993 37.0072 0.0000 -29.8843 0.0000
# 2 34.1993 64.0962 51.1205 0.0000 -19.3658 0.0000
# 3 37.0072 51.1205 156.7444 0.0000 -33.2111 0.0000
# 4 0.0000 0.0000 0.0000 42.2288 0.0000 -9.8958
# 5 -29.8843 -19.3658 -33.2111 0.0000 36.5969 0.0000
# 6 0.0000 0.0000 0.0000 -9.8958 0.0000 18.9273
#
#
#
# Elastic Compliance Matrix: (Units=1/GPa)
#
#
# Indices 1 2 3 4 5 6 
#
# 1 -0.076640 0.026875 -0.001135 0.000000 -0.049392 0.000000
# 2 0.026875 0.012818 -0.005495 0.000000 0.023741 0.000000
# 3 -0.001135 -0.005495 0.009443 0.000000 0.004735 0.000000
# 4 0.000000 0.000000 0.000000 0.026987 0.000000 0.014110
# 5 -0.049392 0.023741 0.004735 0.000000 0.003852 0.000000
# 6 0.000000 0.000000 0.000000 0.014110 0.000000 0.060210
#
#
# Mechanical properties :
#
#
# Convention : Reuss Voigt Hill
#
# Bulk Modulus (GPa) = -71.99056 53.68335 -9.15360
# Shear Modulus (GPa) = -591.88681 27.29521 -282.29580
#
# Velocity S-wave (km/s) = -17.32897 3.72132 -11.96756
# Velocity P-wave (km/s) = 20.90252 6.76021 13.98597
#
# Compressibility (1/GPa) = -0.01389071
#
# Stress axis : x y z
#
# Youngs Moduli (GPa) = -13.04799 78.01395 105.89563
#
# Poissons Ratio (x) = -2.09660 0.12023
# Poissons Ratio (y) = 0.35066 0.58193
# Poissons Ratio (z) = -0.01481 0.42871
#
# Static dielectric constant tensor:
#      x y z
#    x 1.711670 0.000000 0.023940 
#    y 0.000000 1.669810 0.000000 
#    z 0.023940 0.000000 1.689160 
# 
# From -- ./inp_files/65439.got.cif
#   From: 2010.05.17/outbox.ucp.g08.bks.cvg/sg11_33_cif.got.tgz:65439.got - 2010.06.11 11:38:39.
