data_PCOD9168490
_publ_section_title
;
Structure prediction by ZEFSAII (Michael W. Deem and Ramdas Pophale) SiO2 
 PCOD9168490
Probable space group: C 2/M
;
_chemical_formula_sum "Si O2"
_cell_formula_units_Z 56
_cell_length_a 15.404242
_cell_length_b 8.998926
_cell_length_c 18.517547
_cell_angle_alpha 90.000000
_cell_angle_beta 99.164491
_cell_angle_gamma 90.000000
_cell_volume 2534.166140
_symmetry_space_group_name_H-M "C 2/M"
_symmetry_group_IT_number 12
_symmetry_cell_setting 'monoclinic'
loop_
_space_group_symop_operation_xyz
x,y,z
-x,y,-z
-x,-y,-z
x,-y,z
1/2+x,1/2+y,z
1/2-x,1/2+y,-z
1/2-x,1/2-y,-z
1/2+x,1/2-y,z
loop_
_atom_site_type_symbol
_atom_site_label
_atom_site_fract_x
_atom_site_fract_y
_atom_site_fract_z
Si Si1 0.621548 0.168554 0.878788
Si Si2 0.730969 0.670216 0.685545
Si Si3 0.310085 0.668070 0.824247
Si Si4 0.627870 0.680535 0.538638
Si Si5 0.961166 0.171241 0.260665
Si Si6 0.459080 0.177933 0.598069
Si Si7 0.604441 0.672370 0.022842
O O1 0.555079 0.264929 0.821227
O O2 0.589365 0.000000 0.881797
O O3 0.713156 0.165024 0.847459
O O4 0.639457 0.238920 0.958924
O O5 0.759669 0.500000 0.684788
O O6 0.797302 0.755961 0.745746
O O7 0.708910 0.721547 0.601546
O O8 0.635515 0.674351 0.713455
O O9 0.340690 0.500000 0.816509
O O10 0.369109 0.736316 0.895663
O O11 0.620286 0.500000 0.536011
O O12 0.620131 0.749672 0.458160
O O13 0.544807 0.752597 0.569618
O O14 0.026326 0.268455 0.318263
O O15 0.988608 0.000000 0.263406
O O16 0.457628 0.000000 0.592540
O O17 0.635548 0.500000 0.024271
O O18 0.500000 0.672266 0.000000
#
# Coordination Sequence:
#
# PCOD9168490 Si02
#       7
#     8   8   8   8   8   8   8
#     4  10  19  31  49  72  94 117 152 196 237 274
#     4   8  15  25  39  59  83 114 151 189 226 269
#     4   9  18  31  48  69  92 120 154 193 233 274
#     4   9  15  23  33  49  78 117 154 184 223 274
#     4   9  16  27  41  58  84 118 152 185 225 274
#     4  10  16  21  32  53  81 114 151 189 227 265
#     4  10  21  36  51  68  93 124 155 186 227 282
#
# _framework density 22.097998
#
# number of rings (size 3 to 8) (size 9 to 14) (size 15 to 20)
#    0.000    2.714    0.000    4.714    0.000    5.429 
#    0.000    0.000    0.000    0.000    0.000    0.000 
#    0.000    1.143    0.000    3.429    0.000   10.143 
#
# Total GULP energy -156269.585834 kJ/mol
# GULP energy per Si atom -5581.056637 kJ/mol
# Density = 2.204770 g / cm^3
# Si number density = 22.097998 Si / 1000 Ang^3
#
#
#
# Elastic Constant Matrix: (Units=GPa)
#
#
# Indices 1 2 3 4 5 6 
#
# 1 41.2894 18.4572 46.2894 0.0000 -23.1615 0.0000
# 2 18.4572 103.9667 68.1334 0.0000 22.7225 0.0000
# 3 46.2894 68.1334 185.7240 0.0000 71.2597 0.0000
# 4 0.0000 0.0000 0.0000 38.4754 0.0000 12.5274
# 5 -23.1615 22.7225 71.2597 0.0000 16.5637 0.0000
# 6 0.0000 0.0000 0.0000 12.5274 0.0000 -5.7964
#
#
#
# Elastic Compliance Matrix: (Units=1/GPa)
#
#
# Indices 1 2 3 4 5 6 
#
# 1 0.005479 -0.000990 0.006859 0.000000 -0.020489 0.000000
# 2 -0.000990 0.012670 -0.004301 0.000000 -0.000263 0.000000
# 3 0.006859 -0.004301 0.001062 0.000000 0.010922 0.000000
# 4 0.000000 0.000000 0.000000 0.015256 0.000000 0.032971
# 5 -0.020489 -0.000263 0.010922 0.000000 -0.014906 0.000000
# 6 0.000000 0.000000 0.000000 0.032971 0.000000 -0.101263
#
#
# Mechanical properties :
#
#
# Convention : Reuss Voigt Hill
#
# Bulk Modulus (GPa) = 44.74690 66.30446 55.52568
# Shear Modulus (GPa) = -64.60761 23.05521 -20.77620
#
# Velocity S-wave (km/s) = -5.41298 3.23355 -3.06957
# Velocity P-wave (km/s) = 4.33288 6.63408 3.55226
#
# Compressibility (1/GPa) = 0.02234792
#
# Stress axis : x y z
#
# Youngs Moduli (GPa) = 182.51972 78.92736 941.70380
#
# Poissons Ratio (x) = 0.07810 -6.45894
# Poissons Ratio (y) = 0.18061 4.04992
# Poissons Ratio (z) = -1.25186 0.33944
#
# Static dielectric constant tensor:
#      x y z
#    x 1.867310 0.000000 -0.000920 
#    y 0.000000 1.756870 0.000000 
#    z -0.000920 0.000000 1.845090 
# 
# From -- ./inp_files/291672.got.cif
#   From: 2010.05.17/outbox.cif.g08.bks.cpg/sg12_146_cif.got.tgz:291672.got - 2010.06.03 13:09:07.
