data_PCOD9168909
_publ_section_title
;
Structure prediction by ZEFSAII (Michael W. Deem and Ramdas Pophale) SiO2 
 PCOD9168909
Probable space group: C 2/M
;
_chemical_formula_sum "Si O2"
_cell_formula_units_Z 28
_cell_length_a 8.972852
_cell_length_b 8.667421
_cell_length_c 13.566511
_cell_angle_alpha 90.000000
_cell_angle_beta 110.964667
_cell_angle_gamma 90.000000
_cell_volume 985.242226
_symmetry_space_group_name_H-M "C 2/M"
_symmetry_group_IT_number 12
_symmetry_cell_setting 'monoclinic'
loop_
_space_group_symop_operation_xyz
x,y,z
-x,y,-z
-x,-y,-z
x,-y,z
1/2+x,1/2+y,z
1/2-x,1/2+y,-z
1/2-x,1/2-y,-z
1/2+x,1/2-y,z
loop_
_atom_site_type_symbol
_atom_site_label
_atom_site_fract_x
_atom_site_fract_y
_atom_site_fract_z
Si Si1 0.035776 0.000000 0.795951
Si Si2 0.526898 0.167121 0.788071
Si Si3 0.329530 0.000000 0.015927
Si Si4 0.836849 0.000000 0.397548
Si Si5 0.663030 0.833241 0.600620
O O1 0.950125 0.834206 0.788430
O O2 0.104696 0.000000 0.701734
O O3 0.182066 0.000000 0.908012
O O4 0.606619 0.169633 0.700469
O O5 0.438546 0.000000 0.774181
O O6 0.659608 0.142503 0.904688
O O7 0.500000 0.000000 0.000000
O O8 0.756458 0.833132 0.400854
O O9 0.000000 0.000000 0.500000
O O10 0.500000 0.833957 0.500000
O O11 0.743149 0.000000 0.599946
#
# Coordination Sequence:
#
# PCOD9168909 Si02
#       5
#     4   8   4   4   8
#     4  10  16  30  51  65  85 120 149 187 224 251
#     4   8  17  28  46  67  89 112 152 186 218 258
#     4  10  20  32  43  64  97 121 147 183 222 266
#     4   8  14  22  38  67  86  99 136 184 218 251
#     4   8  12  21  37  62  88 102 132 180 222 245
#
# _framework density 28.419405000000001
#
# number of rings (size 3 to 8) (size 9 to 14) (size 15 to 20)
#    0.857    2.571    0.000    0.857    0.000    0.000 
#    0.000    0.714    0.000    0.000    0.000   32.000 
#    0.000    0.000    0.000    0.000    0.000    0.000 
#
# Total GULP energy -78300.773779 kJ/mol
# GULP energy per Si atom -5592.912413 kJ/mol
# Density = 2.835472 g / cm^3
# Si number density = 28.419405 Si / 1000 Ang^3
#
#
#
# Elastic Constant Matrix: (Units=GPa)
#
#
# Indices 1 2 3 4 5 6 
#
# 1 113.9505 32.4964 60.5807 0.0000 8.3475 0.0000
# 2 32.4964 386.9998 38.1847 0.0000 25.3458 0.0000
# 3 60.5807 38.1847 221.2800 0.0000 -12.1101 0.0000
# 4 0.0000 0.0000 0.0000 51.4059 0.0000 15.5022
# 5 8.3475 25.3458 -12.1101 0.0000 29.6886 0.0000
# 6 0.0000 0.0000 0.0000 15.5022 0.0000 30.0477
#
#
#
# Elastic Compliance Matrix: (Units=1/GPa)
#
#
# Indices 1 2 3 4 5 6 
#
# 1 0.010830 -0.000337 -0.003128 0.000000 -0.004033 0.000000
# 2 -0.000337 0.002832 -0.000536 0.000000 -0.002541 0.000000
# 3 -0.003128 -0.000536 0.005667 0.000000 0.003648 0.000000
# 4 0.000000 0.000000 0.000000 0.023037 0.000000 -0.011885
# 5 -0.004033 -0.002541 0.003648 0.000000 0.038475 0.000000
# 6 0.000000 0.000000 0.000000 -0.011885 0.000000 0.039412
#
#
# Mechanical properties :
#
#
# Convention : Reuss Voigt Hill
#
# Bulk Modulus (GPa) = 88.26556 109.41710 98.84133
# Shear Modulus (GPa) = 37.87047 61.62635 49.74841
#
# Velocity S-wave (km/s) = 3.65438 4.66172 4.18845
# Velocity P-wave (km/s) = 6.99511 8.21949 7.63189
#
# Compressibility (1/GPa) = 0.01132945
#
# Stress axis : x y z
#
# Youngs Moduli (GPa) = 92.33633 353.16817 176.44483
#
# Poissons Ratio (x) = 0.11889 0.55185
# Poissons Ratio (y) = 0.03108 0.09449
# Poissons Ratio (z) = 0.28879 0.18913
#
# Static dielectric constant tensor:
#      x y z
#    x 2.024760 0.000000 0.102730 
#    y 0.000000 2.331220 0.000000 
#    z 0.102730 0.000000 2.313990 
# 
# From -- ./inp_files/138064.got.cif
#   From: 2010.05.17/outbox.cif.g08.bks.cpg/sg12_70_cif.got.tgz:138064.got - 2010.06.03 13:09:07.
