data_PCOD9168765
_publ_section_title
;
Structure prediction by ZEFSAII (Michael W. Deem and Ramdas Pophale) SiO2 
 PCOD9168765
Probable space group: C 2/M
;
_chemical_formula_sum "Si O2"
_cell_formula_units_Z 56
_cell_length_a 10.338886
_cell_length_b 16.640362
_cell_length_c 13.570776
_cell_angle_alpha 90.000000
_cell_angle_beta 84.488154
_cell_angle_gamma 90.000000
_cell_volume 2323.959317
_symmetry_space_group_name_H-M "C 2/M"
_symmetry_group_IT_number 12
_symmetry_cell_setting 'monoclinic'
loop_
_space_group_symop_operation_xyz
x,y,z
-x,y,-z
-x,-y,-z
x,-y,z
1/2+x,1/2+y,z
1/2-x,1/2+y,-z
1/2-x,1/2-y,-z
1/2+x,1/2-y,z
loop_
_atom_site_type_symbol
_atom_site_label
_atom_site_fract_x
_atom_site_fract_y
_atom_site_fract_z
Si Si1 0.479719 0.909803 0.872395
Si Si2 0.132761 0.173051 0.782692
Si Si3 0.746187 0.088260 0.395281
Si Si4 0.911076 0.238433 0.410108
Si Si5 0.820584 0.908462 0.033097
Si Si6 0.545518 0.087886 0.637684
Si Si7 0.782716 0.302065 0.095697
O O1 0.329916 0.902638 0.915707
O O2 0.500916 0.906893 0.754218
O O3 0.573548 0.840103 0.905933
O O4 0.525162 0.000000 0.897975
O O5 0.206622 0.101221 0.721280
O O6 0.039388 0.207187 0.702914
O O7 0.095325 0.141822 0.893717
O O8 0.228447 0.246608 0.807323
O O9 0.802157 0.170574 0.435572
O O10 0.591361 0.089173 0.409879
O O11 0.792947 0.000000 0.425002
O O12 0.000000 0.235253 0.500000
O O13 0.878210 0.331230 0.391817
O O14 0.858715 0.000000 0.033750
O O15 0.809990 0.876672 0.921980
O O16 0.608270 0.000000 0.618694
O O17 0.750000 0.250000 0.000000
#
# Coordination Sequence:
#
# PCOD9168765 Si02
#       7
#     8   8   8   8   8   8   8
#     4  10  16  28  48  72  97 123 165 218 260 305
#     4   9  18  32  46  73 109 137 169 220 270 312
#     4   9  18  35  57  81 108 139 180 227 272 315
#     4  10  21  35  55  83 113 143 180 222 271 327
#     4  10  18  29  49  74 100 130 169 217 266 311
#     4  10  19  34  59  82 106 143 180 221 274 323
#     4  10  19  28  40  66 106 131 161 200 264 320
#
# _framework density 24.096809
#
# number of rings (size 3 to 8) (size 9 to 14) (size 15 to 20)
#    0.857    1.429    2.857    1.286    0.000    2.286 
#    0.000    0.000    0.000    0.857    0.000    0.000 
#    0.000   33.143    0.000    0.000    0.000    0.000 
#
# Total GULP energy -155917.296753 kJ/mol
# GULP energy per Si atom -5568.474884 kJ/mol
# Density = 2.404196 g / cm^3
# Si number density = 24.096809 Si / 1000 Ang^3
#
#
#
# Elastic Constant Matrix: (Units=GPa)
#
#
# Indices 1 2 3 4 5 6 
#
# 1 77.2778 42.7185 12.4182 0.0000 1.6347 0.0000
# 2 42.7185 205.5161 46.7346 0.0000 11.0930 0.0000
# 3 12.4182 46.7346 117.2731 0.0000 28.8706 0.0000
# 4 0.0000 0.0000 0.0000 18.8674 0.0000 20.8376
# 5 1.6347 11.0930 28.8706 0.0000 20.1272 0.0000
# 6 0.0000 0.0000 0.0000 20.8376 0.0000 11.8379
#
#
#
# Elastic Compliance Matrix: (Units=1/GPa)
#
#
# Indices 1 2 3 4 5 6 
#
# 1 0.014664 -0.002960 -0.000744 0.000000 0.001508 0.000000
# 2 -0.002960 0.005949 -0.002024 0.000000 -0.000135 0.000000
# 3 -0.000744 -0.002024 0.014103 0.000000 -0.019054 0.000000
# 4 0.000000 0.000000 0.000000 -0.056143 0.000000 0.098824
# 5 0.001508 -0.000135 -0.019054 0.000000 0.076967 0.000000
# 6 0.000000 0.000000 0.000000 0.098824 0.000000 -0.089481
#
#
# Mechanical properties :
#
#
# Convention : Reuss Voigt Hill
#
# Bulk Modulus (GPa) = 42.99401 67.08998 55.04199
# Shear Modulus (GPa) = -339.45887 30.04621 -154.70633
#
# Velocity S-wave (km/s) = -11.88187 3.53497 -8.02131
# Velocity P-wave (km/s) = 13.05210 6.67560 7.93076
#
# Compressibility (1/GPa) = 0.02325906
#
# Stress axis : x y z
#
# Youngs Moduli (GPa) = 68.19208 168.10553 70.90576
#
# Poissons Ratio (x) = 0.49764 0.05279
# Poissons Ratio (y) = 0.20187 0.14350
# Poissons Ratio (z) = 0.05077 0.34023
#
# Static dielectric constant tensor:
#      x y z
#    x 1.928940 0.000000 -0.030120 
#    y 0.000000 2.004870 0.000000 
#    z -0.030120 0.000000 2.004930 
# 
# From -- ./inp_files/269607.got.cif
#   From: 2010.05.17/outbox.cif.g08.bks.cpg/sg12_135_cif.got.tgz:269607.got - 2010.06.03 13:09:07.
