data_PCOD9168411
_publ_section_title
;
Structure prediction by ZEFSAII (Michael W. Deem and Ramdas Pophale) SiO2 
 PCOD9168411
Probable space group: C 2/M
;
_chemical_formula_sum "Si O2"
_cell_formula_units_Z 44
_cell_length_a 21.340800
_cell_length_b 7.976289
_cell_length_c 14.888106
_cell_angle_alpha 90.000000
_cell_angle_beta 58.275491
_cell_angle_gamma 90.000000
_cell_volume 2155.606027
_symmetry_space_group_name_H-M "C 2/M"
_symmetry_group_IT_number 12
_symmetry_cell_setting 'monoclinic'
loop_
_space_group_symop_operation_xyz
x,y,z
-x,y,-z
-x,-y,-z
x,-y,z
1/2+x,1/2+y,z
1/2-x,1/2+y,-z
1/2-x,1/2-y,-z
1/2+x,1/2-y,z
loop_
_atom_site_type_symbol
_atom_site_label
_atom_site_fract_x
_atom_site_fract_y
_atom_site_fract_z
Si Si1 0.709478 0.702228 0.754816
Si Si2 0.602360 0.303189 0.690221
Si Si3 0.144635 0.303461 0.466912
Si Si4 0.050389 0.310622 0.260835
Si Si5 0.500000 0.250532 0.500000
Si Si6 0.716723 0.202939 0.120491
O O1 0.703218 0.500000 0.768681
O O2 0.636362 0.760332 0.758191
O O3 0.777810 0.735128 0.636308
O O4 0.733201 0.766502 0.834606
O O5 0.619686 0.500000 0.669701
O O6 0.641351 0.214946 0.576153
O O7 0.515248 0.280407 0.741939
O O8 0.126870 0.500000 0.457787
O O9 0.079782 0.188203 0.474905
O O10 0.052618 0.500000 0.223912
O O11 0.026903 0.320366 0.383271
O O12 0.132166 0.236591 0.192957
O O13 0.713468 0.000000 0.130601
O O14 0.750000 0.250000 0.000000
#
# Coordination Sequence:
#
# PCOD9168411 Si02
#       6
#     8   8   8   8   4   8
#     4   9  18  34  55  76 104 144 184 217 260 323
#     4  10  20  32  49  79 115 143 170 215 272 323
#     4  10  17  29  51  77 106 144 184 215 254 319
#     4  10  19  34  57  80 105 141 184 220 260 320
#     4  10  15  26  53  82 101 132 179 218 251 308
#     4  10  21  39  61  82 103 137 186 232 267 309
#
# _framework density 20.411891000000001
#
# number of rings (size 3 to 8) (size 9 to 14) (size 15 to 20)
#    0.000    2.182    1.818    3.818    0.000    0.727 
#    0.000   11.818    0.000    5.455    0.000    0.000 
#    0.000    0.000    0.000    0.000    0.000    0.000 
#
# Total GULP energy -122475.057421 kJ/mol
# GULP energy per Si atom -5567.048065 kJ/mol
# Density = 2.036543 g / cm^3
# Si number density = 20.411891 Si / 1000 Ang^3
#
#
#
# Elastic Constant Matrix: (Units=GPa)
#
#
# Indices 1 2 3 4 5 6 
#
# 1 188.3895 15.3199 82.7832 0.0000 29.4252 0.0000
# 2 15.3199 35.4879 0.4654 0.0001 1.7078 0.0000
# 3 82.7832 0.4654 91.9048 0.0000 8.7251 0.0000
# 4 0.0000 0.0001 0.0000 14.0714 0.0000 -0.3915
# 5 29.4252 1.7078 8.7251 0.0000 25.9682 0.0000
# 6 0.0000 0.0000 0.0000 -0.3915 0.0000 13.5886
#
#
#
# Elastic Compliance Matrix: (Units=1/GPa)
#
#
# Indices 1 2 3 4 5 6 
#
# 1 0.011088 -0.004223 -0.009089 0.000000 -0.009232 0.000000
# 2 -0.004223 0.029877 0.003496 0.000000 0.001646 0.000000
# 3 -0.009089 0.003496 0.018691 0.000000 0.003790 0.000000
# 4 0.000000 0.000000 0.000000 0.071123 0.000000 0.002049
# 5 -0.009232 0.001646 0.003790 0.000000 0.047588 0.000000
# 6 0.000000 0.000000 0.000000 0.002049 0.000000 0.073650
#
#
# Mechanical properties :
#
#
# Convention : Reuss Voigt Hill
#
# Bulk Modulus (GPa) = 24.98579 56.99102 40.98840
# Shear Modulus (GPa) = 17.54450 25.20654 21.37552
#
# Velocity S-wave (km/s) = 2.93494 3.51792 3.23957
# Velocity P-wave (km/s) = 4.87366 6.66949 5.84101
#
# Compressibility (1/GPa) = 0.04002275
#
# Stress axis : x y z
#
# Youngs Moduli (GPa) = 90.19046 33.47106 53.50289
#
# Poissons Ratio (x) = 0.14135 0.48631
# Poissons Ratio (y) = 0.38087 -0.18706
# Poissons Ratio (z) = 0.81977 -0.11702
#
# Static dielectric constant tensor:
#      x y z
#    x 1.775110 0.000000 0.001440 
#    y 0.000000 1.763660 0.000000 
#    z 0.001440 0.000000 1.670000 
# 
# From -- ./inp_files/229750.got.cif
#   From: 2010.05.17/outbox.cif.g08.bks.cpg/sg12_115_cif.got.tgz:229750.got - 2010.06.03 13:09:07.
