data_PCOD9168020
_publ_section_title
;
Structure prediction by ZEFSAII (Michael W. Deem and Ramdas Pophale) SiO2 
 PCOD9168020
Probable space group: P 21/M
;
_chemical_formula_sum "Si O2"
_cell_formula_units_Z 28
_cell_length_a 12.000000
_cell_length_b 9.000000
_cell_length_c 15.000000
_cell_angle_alpha 90.000000
_cell_angle_beta 120.000000
_cell_angle_gamma 90.000000
_cell_volume 1402.961154
_symmetry_space_group_name_H-M "P 21/M"
_symmetry_group_IT_number 11
_symmetry_cell_setting 'monoclinic'
loop_
_space_group_symop_operation_xyz
x,y,z
-x,1/2+y,-z
-x,-y,-z
x,1/2-y,z
loop_
_atom_site_type_symbol
_atom_site_label
_atom_site_fract_x
_atom_site_fract_y
_atom_site_fract_z
Si Si1 0.022366 0.080002 0.274486
Si Si2 0.626545 0.573885 0.304283
Si Si3 0.114790 0.071222 0.489247
Si Si4 0.350264 0.926576 0.185615
Si Si5 0.614186 0.923689 0.989894
Si Si6 0.738534 0.081960 0.183356
Si Si7 0.066390 0.926951 0.112079
O O1 0.053489 0.250000 0.261741
O O2 0.116118 0.019832 0.387334
O O3 0.885907 0.083509 0.270995
O O4 0.011540 0.985762 0.182092
O O5 0.631645 0.750000 0.281421
O O6 0.746915 0.541051 0.413739
O O7 0.485857 0.544235 0.287860
O O8 0.648339 0.474445 0.225787
O O9 0.096476 0.250000 0.481470
O O10 0.000000 0.000000 0.500000
O O11 0.342310 0.750000 0.167644
O O12 0.216935 0.971820 0.175304
O O13 0.362650 0.003647 0.095374
O O14 0.595727 0.750000 0.975025
O O15 0.500000 0.000000 0.000000
O O16 0.731428 0.967102 0.100090
O O17 0.706225 0.250000 0.141549
O O18 0.054961 0.750000 0.100187
O O19 0.000000 0.000000 0.000000
#
# Coordination Sequence:
#
# PCOD9168020 Si02
#       7
#     4   4   4   4   4   4   4
#     4  10  22  39  59  86 122 157 196 247 298 350
#     4  10  20  35  58  84 115 153 191 235 296 356
#     4  10  20  36  59  89 121 157 197 243 297 356
#     4  10  22  40  58  82 116 153 195 249 301 346
#     4  12  23  34  52  81 115 151 191 235 291 357
#     4  11  21  34  54  83 118 152 190 240 294 347
#     4  11  24  42  64  87 116 155 203 251 297 355
#
# _framework density 19.957787
#
# number of rings (size 3 to 8) (size 9 to 14) (size 15 to 20)
#    0.000    1.429    2.857    3.000    0.000    6.286 
#    0.000    0.714    0.000    0.000    0.000    0.000 
#    0.000    0.000    0.000    0.000    0.000    0.000 
#
# Total GULP energy -156062.179943 kJ/mol
# GULP energy per Si atom -5573.649284 kJ/mol
# Density = 1.991236 g / cm^3
# Si number density = 19.957787 Si / 1000 Ang^3
#
#
#
# Elastic Constant Matrix: (Units=GPa)
#
#
# Indices 1 2 3 4 5 6 
#
# 1 108.5990 38.1240 41.0283 0.0000 15.6736 0.0000
# 2 38.1240 -33.7705 9.8757 0.0000 12.2120 0.0000
# 3 41.0283 9.8757 88.0421 0.0000 8.0906 0.0000
# 4 0.0000 0.0000 0.0000 19.7836 0.0000 -0.8727
# 5 15.6736 12.2120 8.0906 0.0000 21.9154 0.0000
# 6 0.0000 0.0000 0.0000 -0.8727 0.0000 20.5346
#
#
#
# Elastic Compliance Matrix: (Units=1/GPa)
#
#
# Indices 1 2 3 4 5 6 
#
# 1 0.009918 0.006585 -0.004525 0.000000 -0.009092 0.000000
# 2 0.006585 -0.020069 -0.001462 0.000000 0.007013 0.000000
# 3 -0.004525 -0.001462 0.013724 0.000000 -0.001016 0.000000
# 4 0.000000 0.000000 0.000000 0.050642 0.000000 0.002152
# 5 -0.009092 0.007013 -0.001016 0.000000 0.048600 0.000000
# 6 0.000000 0.000000 0.000000 0.002152 0.000000 0.048790
#
#
# Mechanical properties :
#
#
# Convention : Reuss Voigt Hill
#
# Bulk Modulus (GPa) = 209.64353 37.88074 123.76214
# Shear Modulus (GPa) = 32.89504 17.36957 25.13231
#
# Velocity S-wave (km/s) = 4.06425 2.95331 3.55247
# Velocity P-wave (km/s) = 11.28254 5.53634 8.88669
#
# Compressibility (1/GPa) = 0.00477000
#
# Stress axis : x y z
#
# Youngs Moduli (GPa) = 100.82513 -49.82861 72.86367
#
# Poissons Ratio (x) = 0.32815 0.32971
# Poissons Ratio (y) = -0.66398 0.10654
# Poissons Ratio (z) = 0.45624 -0.07286
#
# Static dielectric constant tensor:
#      x y z
#    x 1.736330 0.000000 0.086890 
#    y 0.000000 1.677420 0.000000 
#    z 0.086890 0.000000 1.780360 
# 
# From -- ./inp_files/37857.got.cif
#   From: 2010.05.17/outbox.ucp.g08.bks.cvg/sg11_19_cif.got.tgz:37857.got - 2010.06.11 11:38:39.
