data_PCOD9168901
_publ_section_title
;
Structure prediction by ZEFSAII (Michael W. Deem and Ramdas Pophale) SiO2 
 PCOD9168901
Probable space group: C 2/M
;
_chemical_formula_sum "Si O2"
_cell_formula_units_Z 60
_cell_length_a 12.230199
_cell_length_b 28.557731
_cell_length_c 20.315426
_cell_angle_alpha 90.000000
_cell_angle_beta 23.507588
_cell_angle_gamma 90.000000
_cell_volume 2830.186738
_symmetry_space_group_name_H-M "C 2/M"
_symmetry_group_IT_number 12
_symmetry_cell_setting 'monoclinic'
loop_
_space_group_symop_operation_xyz
x,y,z
-x,y,-z
-x,-y,-z
x,-y,z
1/2+x,1/2+y,z
1/2-x,1/2+y,-z
1/2-x,1/2-y,-z
1/2+x,1/2-y,z
loop_
_atom_site_type_symbol
_atom_site_label
_atom_site_fract_x
_atom_site_fract_y
_atom_site_fract_z
Si Si1 0.918963 0.303055 0.353340
Si Si2 0.782287 0.148783 0.058071
Si Si3 0.207754 0.597292 0.519478
Si Si4 0.447657 0.316587 0.222692
Si Si5 0.249215 0.854354 0.181416
Si Si6 0.691106 0.268139 0.296590
Si Si7 0.177785 0.447924 0.155491
Si Si8 0.000000 0.393940 0.500000
O O1 0.897617 0.349366 0.410910
O O2 0.616260 0.282926 0.514546
O O3 0.028759 0.322218 0.224782
O O4 0.130806 0.267623 0.269355
O O5 0.687634 0.095283 0.099747
O O6 0.000000 0.149040 0.000000
O O7 0.894187 0.171013 0.930916
O O8 0.535874 0.607937 0.330691
O O9 0.045605 0.567938 0.665205
O O10 0.108104 0.578861 0.503723
O O11 0.598875 0.322583 0.208552
O O12 0.328984 0.265151 0.274612
O O13 0.231438 0.358509 0.347859
O O14 0.327623 0.815391 0.192776
O O15 0.500000 0.875021 0.000000
O O16 0.105742 0.500000 0.171999
O O17 0.500000 0.450262 0.000000
#
# Coordination Sequence:
#
# PCOD9168901 Si02
#       8
#     8   8   8   8   8   8   8   4
#     4   9  17  30  49  70 104 138 179 231 268 317
#     4  10  17  31  53  79 107 142 175 215 273 335
#     4   9  17  33  54  73 110 146 174 219 280 330
#     4  11  21  34  56  71 102 147 183 230 278 320
#     4  10  24  38  51  76 106 147 193 236 271 318
#     4  10  19  34  50  71 101 140 190 235 263 312
#     4   9  17  30  55  89 116 136 166 215 278 347
#     4  10  16  30  49  80  94 142 190 206 265 342
#
# _framework density 21.200015
#
# number of rings (size 3 to 8) (size 9 to 14) (size 15 to 20)
#    0.000    2.267    2.667    1.600    3.733    0.533 
#    0.000    0.333    0.000    6.000    0.000    0.933 
#    0.000    0.000    0.000    0.000    0.000    0.000 
#
# Total GULP energy -167242.806316 kJ/mol
# GULP energy per Si atom -5574.760211 kJ/mol
# Density = 2.115176 g / cm^3
# Si number density = 21.200015 Si / 1000 Ang^3
#
#
#
# Elastic Constant Matrix: (Units=GPa)
#
#
# Indices 1 2 3 4 5 6 
#
# 1 61.9851 3.1865 6.2414 -0.0240 1.9465 -0.0178
# 2 3.1865 79.5665 11.5017 -0.0250 -3.7194 -0.0204
# 3 6.2414 11.5017 96.5948 0.0162 10.5915 -0.0632
# 4 -0.0240 -0.0250 0.0162 14.0654 0.0004 -5.3186
# 5 1.9465 -3.7194 10.5915 0.0004 24.3067 -0.0069
# 6 -0.0178 -0.0204 -0.0632 -5.3186 -0.0069 5.1855
#
#
#
# Elastic Compliance Matrix: (Units=1/GPa)
#
#
# Indices 1 2 3 4 5 6 
#
# 1 0.016282 -0.000573 -0.000873 0.000071 -0.001011 0.000114
# 2 -0.000573 0.012986 -0.001819 0.000058 0.002826 0.000090
# 3 -0.000873 -0.001819 0.011183 0.000045 -0.005081 0.000166
# 4 0.000071 0.000058 0.000045 0.116140 0.000015 0.119121
# 5 -0.001011 0.002826 -0.005081 0.000015 0.043868 0.000020
# 6 0.000114 0.000090 0.000166 0.119121 0.000020 0.315026
#
#
# Mechanical properties :
#
#
# Convention : Reuss Voigt Hill
#
# Bulk Modulus (GPa) = 29.48030 31.11173 30.29602
# Shear Modulus (GPa) = 9.37519 23.19264 16.28392
#
# Velocity S-wave (km/s) = 2.10520 3.31114 2.77448
# Velocity P-wave (km/s) = 4.45479 5.41529 4.95835
#
# Compressibility (1/GPa) = 0.03392095
#
# Stress axis : x y z
#
# Youngs Moduli (GPa) = 61.41722 77.00521 89.42330
#
# Poissons Ratio (x) = 0.04413 0.07806
# Poissons Ratio (y) = 0.03520 0.16266
# Poissons Ratio (z) = 0.05361 0.14008
#
# Static dielectric constant tensor:
#      x y z
#    x 1.797960 -0.000020 -0.074330 
#    y -0.000020 1.728400 0.000110 
#    z -0.074330 0.000110 1.793350 
# 
# From -- ./inp_files/341654.got.cif
#   From: 2010.05.17/outbox.cif.g08.bks.cpg/sg12_171_cif.got.tgz:341654.got - 2010.06.03 13:09:07.
