data_PCOD9168409
_publ_section_title
;
Structure prediction by ZEFSAII (Michael W. Deem and Ramdas Pophale) SiO2 
 PCOD9168409
Probable space group: C 2/M
;
_chemical_formula_sum "Si O2"
_cell_formula_units_Z 52
_cell_length_a 14.746685
_cell_length_b 13.885831
_cell_length_c 13.724553
_cell_angle_alpha 90.000000
_cell_angle_beta 138.185216
_cell_angle_gamma 90.000000
_cell_volume 1873.747641
_symmetry_space_group_name_H-M "C 2/M"
_symmetry_group_IT_number 12
_symmetry_cell_setting 'monoclinic'
loop_
_space_group_symop_operation_xyz
x,y,z
-x,y,-z
-x,-y,-z
x,-y,z
1/2+x,1/2+y,z
1/2-x,1/2+y,-z
1/2-x,1/2-y,-z
1/2+x,1/2-y,z
loop_
_atom_site_type_symbol
_atom_site_label
_atom_site_fract_x
_atom_site_fract_y
_atom_site_fract_z
Si Si1 0.709942 0.390265 0.543743
Si Si2 0.191091 0.101051 0.295944
Si Si3 0.799595 0.887005 0.002915
Si Si4 0.091339 0.884681 0.695286
Si Si5 0.643141 0.767486 0.120173
Si Si6 0.000000 0.358502 0.500000
Si Si7 0.997801 0.384215 0.720902
O O1 0.720204 0.500000 0.586964
O O2 0.690733 0.391884 0.411187
O O3 0.561734 0.354658 0.458649
O O4 0.863075 0.349863 0.669489
O O5 0.348185 0.099681 0.388134
O O6 0.127038 0.190599 0.193185
O O7 0.125778 0.000000 0.215116
O O8 0.637336 0.875841 0.891564
O O9 0.815513 0.000000 0.984925
O O10 0.883868 0.871052 0.168840
O O11 0.830818 0.805324 0.949223
O O12 0.097345 0.000000 0.685840
O O13 0.223734 0.832809 0.755988
O O14 0.500000 0.822382 0.000000
O O15 0.987212 0.332430 0.372245
O O16 0.980337 0.500000 0.685892
#
# Coordination Sequence:
#
# PCOD9168409 Si02
#       7
#     8   8   8   8   8   4   8
#     4   8  16  32  57  83 109 141 176 222 277 336
#     4  10  18  30  54  87 118 142 167 212 280 344
#     4  10  20  35  57  85 115 145 173 218 282 344
#     4  10  22  41  58  73 105 152 198 235 270 316
#     4  12  24  35  54  81 111 146 185 234 278 328
#     4  10  15  26  50  82 119 148 165 200 262 344
#     4   9  15  26  51  84 114 140 169 210 273 339
#
# _framework density 27.751868999999999
#
# number of rings (size 3 to 8) (size 9 to 14) (size 15 to 20)
#    0.000    2.154    1.538    4.154    0.000    2.769 
#    0.000    0.769    3.385    0.000    0.000    0.538 
#    0.000    0.000    0.000    0.000    0.000    0.000 
#
# Total GULP energy -145409.945536 kJ/mol
# GULP energy per Si atom -5592.690213 kJ/mol
# Density = 2.768870 g / cm^3
# Si number density = 27.751869 Si / 1000 Ang^3
#
#
#
# Elastic Constant Matrix: (Units=GPa)
#
#
# Indices 1 2 3 4 5 6 
#
# 1 137.4421 24.7113 65.0880 0.0000 33.1785 0.0000
# 2 24.7113 106.3068 33.7464 0.0000 9.7527 0.0000
# 3 65.0880 33.7464 242.2731 0.0000 60.0371 0.0000
# 4 0.0000 0.0000 0.0000 -0.2427 0.0000 -6.6152
# 5 33.1785 9.7527 60.0371 0.0000 67.8236 0.0000
# 6 0.0000 0.0000 0.0000 -6.6152 0.0000 -47.4928
#
#
#
# Elastic Compliance Matrix: (Units=1/GPa)
#
#
# Indices 1 2 3 4 5 6 
#
# 1 0.008913 -0.001334 -0.001506 0.000000 -0.002835 0.000000
# 2 -0.001334 0.010045 -0.001082 0.000000 0.000166 0.000000
# 3 -0.001506 -0.001082 0.005716 0.000000 -0.004167 0.000000
# 4 0.000000 0.000000 0.000000 1.473340 0.000000 -0.205220
# 5 -0.002835 0.000166 -0.004167 0.000000 0.019796 0.000000
# 6 0.000000 0.000000 0.000000 -0.205220 0.000000 0.007529
#
#
# Mechanical properties :
#
#
# Convention : Reuss Voigt Hill
#
# Bulk Modulus (GPa) = 59.41731 81.45702 70.43716
# Shear Modulus (GPa) = 3.24930 28.18270 15.71600
#
# Velocity S-wave (km/s) = 1.08323 3.19019 2.38230
# Velocity P-wave (km/s) = 4.79804 6.55632 5.74485
#
# Compressibility (1/GPa) = 0.01683011
#
# Stress axis : x y z
#
# Youngs Moduli (GPa) = 112.19185 99.55195 174.96137
#
# Poissons Ratio (x) = 0.13277 0.26354
# Poissons Ratio (y) = 0.14963 0.18930
# Poissons Ratio (z) = 0.16899 0.10771
#
# Static dielectric constant tensor:
#      x y z
#    x 2.192530 0.000000 0.006820 
#    y 0.000000 2.142530 0.000000 
#    z 0.006820 0.000000 2.159530 
# 
# From -- ./inp_files/316512.got.cif
#   From: 2010.05.17/outbox.cif.g08.bks.cpg/sg12_159_cif.got.tgz:316512.got - 2010.06.03 13:09:07.
