data_PCOD9168392
_publ_section_title
;
Structure prediction by ZEFSAII (Michael W. Deem and Ramdas Pophale) SiO2 
 PCOD9168392
Probable space group: C 2/M
;
_chemical_formula_sum "Si O2"
_cell_formula_units_Z 44
_cell_length_a 6.996518
_cell_length_b 21.783843
_cell_length_c 12.322969
_cell_angle_alpha 90.000000
_cell_angle_beta 95.245887
_cell_angle_gamma 90.000000
_cell_volume 1870.289969
_symmetry_space_group_name_H-M "C 2/M"
_symmetry_group_IT_number 12
_symmetry_cell_setting 'monoclinic'
loop_
_space_group_symop_operation_xyz
x,y,z
-x,y,-z
-x,-y,-z
x,-y,z
1/2+x,1/2+y,z
1/2-x,1/2+y,-z
1/2-x,1/2-y,-z
1/2+x,1/2-y,z
loop_
_atom_site_type_symbol
_atom_site_label
_atom_site_fract_x
_atom_site_fract_y
_atom_site_fract_z
Si Si1 0.308649 0.159564 0.714685
Si Si2 0.206896 0.096729 0.143794
Si Si3 0.252177 0.929045 0.900821
Si Si4 0.868749 0.800382 0.708183
Si Si5 0.807391 0.500000 0.335141
Si Si6 0.226657 0.884785 0.483449
O O1 0.348506 0.116523 0.819428
O O2 0.390405 0.227941 0.719125
O O3 0.337696 0.126320 0.601443
O O4 0.080852 0.172294 0.708061
O O5 0.217551 0.165916 0.190736
O O6 0.979644 0.078219 0.125699
O O7 0.294322 0.052959 0.238798
O O8 0.287810 0.087142 0.027968
O O9 0.300734 0.000000 0.881621
O O10 0.761688 0.825306 0.595108
O O11 0.789388 0.445866 0.426515
O O12 0.000000 0.892806 0.500000
#
# Coordination Sequence:
#
# PCOD9168392 Si02
#       6
#     8   8   8   8   4   8
#     4  10  20  32  49  74 102 133 160 203 239 294
#     4   9  16  28  46  70 101 127 157 201 252 292
#     4  10  17  27  47  74 102 124 157 209 253 285
#     4   9  19  33  48  72  99 134 168 193 245 286
#     4  10  15  25  44  70 101 128 154 202 254 296
#     4   9  18  27  45  70 101 127 161 200 245 290
#
# _framework density 23.525763000000001
#
# number of rings (size 3 to 8) (size 9 to 14) (size 15 to 20)
#    0.000    2.545    1.818    2.455    1.273    0.727 
#    0.000    0.000    0.000    0.000    9.455    6.364 
#    0.000    0.000    0.000    0.000    0.000    0.000 
#
# Total GULP energy -122624.825954 kJ/mol
# GULP energy per Si atom -5573.855725 kJ/mol
# Density = 2.347222 g / cm^3
# Si number density = 23.525763 Si / 1000 Ang^3
#
#
#
# Elastic Constant Matrix: (Units=GPa)
#
#
# Indices 1 2 3 4 5 6 
#
# 1 74.0848 35.5203 28.4277 0.0000 -3.4110 0.0000
# 2 35.5203 206.8508 160.2317 0.0000 -19.7897 0.0000
# 3 28.4277 160.2317 217.6857 0.0000 -20.6273 0.0000
# 4 0.0000 0.0000 0.0000 28.7378 0.0000 -3.8165
# 5 -3.4110 -19.7897 -20.6273 0.0000 14.4777 0.0000
# 6 0.0000 0.0000 0.0000 -3.8165 0.0000 9.4070
#
#
#
# Elastic Compliance Matrix: (Units=1/GPa)
#
#
# Indices 1 2 3 4 5 6 
#
# 1 0.014711 -0.002417 -0.000146 0.000000 -0.000047 0.000000
# 2 -0.002417 0.011863 -0.008016 0.000000 0.004225 0.000000
# 3 -0.000146 -0.008016 0.010950 0.000000 0.004610 0.000000
# 4 0.000000 0.000000 0.000000 0.036779 0.000000 0.014922
# 5 -0.000047 0.004225 0.004610 0.000000 0.081404 0.000000
# 6 0.000000 0.000000 0.000000 0.014922 0.000000 0.112358
#
#
# Mechanical properties :
#
#
# Convention : Reuss Voigt Hill
#
# Bulk Modulus (GPa) = 61.10611 105.22011 83.16311
# Shear Modulus (GPa) = 16.96757 28.82059 22.89408
#
# Velocity S-wave (km/s) = 2.68849 3.50389 3.12292
# Velocity P-wave (km/s) = 5.97226 7.82255 6.95917
#
# Compressibility (1/GPa) = 0.01636498
#
# Stress axis : x y z
#
# Youngs Moduli (GPa) = 67.97628 84.29426 91.32397
#
# Poissons Ratio (x) = 0.20377 0.01335
# Poissons Ratio (y) = 0.16433 0.73206
# Poissons Ratio (z) = 0.00994 0.67571
#
# Static dielectric constant tensor:
#      x y z
#    x 2.020480 0.000000 0.013690 
#    y 0.000000 1.832560 0.000000 
#    z 0.013690 0.000000 1.841380 
# 
# From -- ./inp_files/120697.got.cif
#   From: 2010.05.17/outbox.cif.g08.bks.cpg/sg12_61_cif.got.tgz:120697.got - 2010.06.03 13:09:07.
