data_PCOD9168621
_publ_section_title
;
Structure prediction by ZEFSAII (Michael W. Deem and Ramdas Pophale) SiO2 
 PCOD9168621
Probable space group: C 2/M
;
_chemical_formula_sum "Si O2"
_cell_formula_units_Z 56
_cell_length_a 5.232255
_cell_length_b 26.609443
_cell_length_c 18.588384
_cell_angle_alpha 90.000000
_cell_angle_beta 111.663178
_cell_angle_gamma 90.000000
_cell_volume 2405.220916
_symmetry_space_group_name_H-M "C 2/M"
_symmetry_group_IT_number 12
_symmetry_cell_setting 'monoclinic'
loop_
_space_group_symop_operation_xyz
x,y,z
-x,y,-z
-x,-y,-z
x,-y,z
1/2+x,1/2+y,z
1/2-x,1/2+y,-z
1/2-x,1/2-y,-z
1/2+x,1/2-y,z
loop_
_atom_site_type_symbol
_atom_site_label
_atom_site_fract_x
_atom_site_fract_y
_atom_site_fract_z
Si Si1 0.519283 0.059248 0.691158
Si Si2 0.655899 0.558910 0.788986
Si Si3 0.984641 0.191821 0.753831
Si Si4 0.099618 0.694411 0.307596
Si Si5 0.818640 0.361652 0.552221
Si Si6 0.324594 0.558835 0.048640
Si Si7 0.321154 0.215955 0.921981
O O1 0.385127 0.073639 0.754513
O O2 0.397717 0.093630 0.615452
O O3 0.849487 0.063258 0.726003
O O4 0.451731 0.000000 0.673001
O O5 0.717108 0.500000 0.807417
O O6 0.643422 0.581557 0.868208
O O7 0.905766 0.249460 0.725261
O O8 0.691279 0.170375 0.745409
O O9 0.126815 0.170463 0.697772
O O10 0.216180 0.190610 0.838706
O O11 0.116291 0.688577 0.394471
O O12 0.500000 0.363581 0.500000
O O13 0.000000 0.363993 0.500000
O O14 0.417148 0.500000 0.062609
O O15 0.500000 0.581117 0.000000
O O16 0.000000 0.559346 0.000000
O O17 0.541016 0.259478 0.923587
O O18 0.500000 0.186107 0.000000
#
# Coordination Sequence:
#
# PCOD9168621 Si02
#       7
#     8   8   8   8   8   8   8
#     4  10  21  38  60  81 105 141 181 231 292 353
#     4   9  17  31  52  80 108 136 178 219 260 327
#     4  10  17  35  55  83 115 154 193 214 257 328
#     4  10  20  35  57  79 109 146 182 223 265 326
#     4  12  26  43  59  83 110 134 179 239 295 352
#     4   9  15  23  40  72 111 141 167 209 258 298
#     4  10  16  25  46  82 120 148 186 233 261 289
#
# _framework density 23.282684
#
# number of rings (size 3 to 8) (size 9 to 14) (size 15 to 20)
#    0.000    2.000    2.857    2.571    0.000    4.000 
#    0.000    8.571    0.000    0.000    0.000   13.000 
#    0.000    0.000    0.000    0.000    0.000    0.000 
#
# Total GULP energy -156286.687743 kJ/mol
# GULP energy per Si atom -5581.667419 kJ/mol
# Density = 2.322969 g / cm^3
# Si number density = 23.282684 Si / 1000 Ang^3
#
#
#
# Elastic Constant Matrix: (Units=GPa)
#
#
# Indices 1 2 3 4 5 6 
#
# 1 187.9745 -0.1810 50.4088 0.0000 -20.7570 0.0000
# 2 -0.1810 79.9112 10.0568 0.0000 -11.6266 0.0000
# 3 50.4088 10.0568 154.3920 0.0000 -5.4187 0.0000
# 4 0.0000 0.0000 0.0000 -208.6213 0.0000 58.9127
# 5 -20.7570 -11.6266 -5.4187 0.0000 43.4073 0.0000
# 6 0.0000 0.0000 0.0000 58.9127 0.0000 2.1107
#
#
#
# Elastic Compliance Matrix: (Units=1/GPa)
#
#
# Indices 1 2 3 4 5 6 
#
# 1 0.006164 0.000680 -0.001955 0.000000 0.002885 0.000000
# 2 0.000680 0.013179 -0.000949 0.000000 0.003736 0.000000
# 3 -0.001955 -0.000949 0.007167 0.000000 -0.000295 0.000000
# 4 0.000000 0.000000 0.000000 -0.000540 0.000000 0.015063
# 5 0.002885 0.003736 -0.000295 0.000000 0.025381 0.000000
# 6 0.000000 0.000000 0.000000 0.015063 0.000000 0.053342
#
#
# Mechanical properties :
#
#
# Convention : Reuss Voigt Hill
#
# Bulk Modulus (GPa) = 45.33219 60.31632 52.82425
# Shear Modulus (GPa) = 42.92030 -8.48778 17.21626
#
# Velocity S-wave (km/s) = 4.29819 -1.91140 2.72222
# Velocity P-wave (km/s) = 6.64419 4.59250 5.71123
#
# Compressibility (1/GPa) = 0.02205938
#
# Stress axis : x y z
#
# Youngs Moduli (GPa) = 162.24519 75.88100 139.52946
#
# Poissons Ratio (x) = -0.05159 0.27284
# Poissons Ratio (y) = -0.11030 0.13245
# Poissons Ratio (z) = 0.31725 0.07203
#
# Static dielectric constant tensor:
#      x y z
#    x 1.891960 0.000000 -0.054310 
#    y 0.000000 2.135320 0.000000 
#    z -0.054310 0.000000 1.920380 
# 
# From -- ./inp_files/254047.got.cif
#   From: 2010.05.17/outbox.cif.g08.bks.cpg/sg12_128_cif.got.tgz:254047.got - 2010.06.03 13:09:07.
