data_PCOD9168101
_publ_section_title
;
Structure prediction by ZEFSAII (Michael W. Deem and Ramdas Pophale) SiO2 
 PCOD9168101
Probable space group: P 21/M
;
_chemical_formula_sum "Si O2"
_cell_formula_units_Z 28
_cell_length_a 12.000000
_cell_length_b 9.000000
_cell_length_c 15.000000
_cell_angle_alpha 90.000000
_cell_angle_beta 60.000000
_cell_angle_gamma 90.000000
_cell_volume 1402.961154
_symmetry_space_group_name_H-M "P 21/M"
_symmetry_group_IT_number 11
_symmetry_cell_setting 'monoclinic'
loop_
_space_group_symop_operation_xyz
x,y,z
-x,1/2+y,-z
-x,-y,-z
x,1/2-y,z
loop_
_atom_site_type_symbol
_atom_site_label
_atom_site_fract_x
_atom_site_fract_y
_atom_site_fract_z
Si Si1 0.362042 0.924549 0.521601
Si Si2 0.427869 0.073879 0.820592
Si Si3 0.009505 0.428588 0.094106
Si Si4 0.233866 0.076540 0.733270
Si Si5 0.679068 0.572039 0.755814
Si Si6 0.144009 0.928118 0.453034
Si Si7 0.295546 0.426895 0.052649
O O1 0.390179 0.750000 0.494093
O O2 0.256047 0.969229 0.484684
O O3 0.500000 0.000000 0.500000
O O4 0.282073 0.961601 0.641245
O O5 0.461993 0.250000 0.811611
O O6 0.319749 0.061724 0.788310
O O7 0.551516 0.974907 0.753409
O O8 0.375927 0.017553 0.936449
O O9 0.982967 0.250000 0.101300
O O10 0.908724 0.524805 0.189032
O O11 0.148017 0.448038 0.083887
O O12 0.000000 0.500000 0.000000
O O13 0.242301 0.250000 0.701795
O O14 0.699100 0.750000 0.744961
O O15 0.791374 0.482424 0.663940
O O16 0.670579 0.520236 0.862293
O O17 0.129431 0.750000 0.466475
O O18 0.000000 0.000000 0.500000
O O19 0.317870 0.250000 0.045480
#
# Coordination Sequence:
#
# PCOD9168101 Si02
#       7
#     4   4   4   4   4   4   4
#     4  11  25  45  69  97 129 167 214 270 329 386
#     4  10  20  39  61  87 127 167 201 246 304 367
#     4  11  21  38  60  87 124 165 207 254 309 371
#     4  11  23  39  63  93 125 164 206 254 314 375
#     4  11  23  39  63  92 122 160 207 256 307 368
#     4  11  26  47  68  93 127 169 213 267 327 383
#     4   9  20  38  59  85 124 165 199 246 306 362
#
# _framework density 19.957787
#
# number of rings (size 3 to 8) (size 9 to 14) (size 15 to 20)
#    0.000    1.429    1.429    3.429    2.000    6.857 
#    0.000    2.857    0.000    0.000    0.000    0.000 
#    0.000    0.000    0.000    0.000    0.000    0.000 
#
# Total GULP energy -155950.413794 kJ/mol
# GULP energy per Si atom -5569.657635 kJ/mol
# Density = 1.991236 g / cm^3
# Si number density = 19.957787 Si / 1000 Ang^3
#
#
#
# Elastic Constant Matrix: (Units=GPa)
#
#
# Indices 1 2 3 4 5 6 
#
# 1 93.8456 29.4914 20.1399 0.0000 4.2580 0.0000
# 2 29.4914 45.8518 -0.3271 0.0000 5.9010 0.0000
# 3 20.1399 -0.3271 72.8941 0.0000 -5.5166 0.0000
# 4 0.0000 0.0000 0.0000 27.0964 0.0000 0.5923
# 5 4.2580 5.9010 -5.5166 0.0000 24.9299 0.0000
# 6 0.0000 0.0000 0.0000 0.5923 0.0000 34.7910
#
#
#
# Elastic Compliance Matrix: (Units=1/GPa)
#
#
# Indices 1 2 3 4 5 6 
#
# 1 0.014487 -0.009191 -0.004136 0.000000 -0.001214 0.000000
# 2 -0.009191 0.028333 0.002317 0.000000 -0.004624 0.000000
# 3 -0.004136 0.002317 0.015137 0.000000 0.003508 0.000000
# 4 0.000000 0.000000 0.000000 0.036919 0.000000 -0.000629
# 5 -0.001214 -0.004624 0.003508 0.000000 0.042191 0.000000
# 6 0.000000 0.000000 0.000000 -0.000629 0.000000 0.028754
#
#
# Mechanical properties :
#
#
# Convention : Reuss Voigt Hill
#
# Bulk Modulus (GPa) = 27.82708 34.57776 31.20242
# Shear Modulus (GPa) = 25.02270 28.24926 26.63598
#
# Velocity S-wave (km/s) = 3.54472 3.76633 3.65720
# Velocity P-wave (km/s) = 5.54316 6.02301 5.78806
#
# Compressibility (1/GPa) = 0.03593622
#
# Stress axis : x y z
#
# Youngs Moduli (GPa) = 69.02859 35.29504 66.06313
#
# Poissons Ratio (x) = 0.32440 0.27322
# Poissons Ratio (y) = 0.63444 -0.15304
# Poissons Ratio (z) = 0.28548 -0.08176
#
# Static dielectric constant tensor:
#      x y z
#    x 1.713480 0.000000 -0.037440 
#    y 0.000000 1.681870 0.000000 
#    z -0.037440 0.000000 1.817410 
# 
# From -- ./inp_files/38417.got.cif
#   From: 2010.05.17/outbox.ucp.g08.bks.cvg/sg11_20_cif.got.tgz:38417.got - 2010.06.11 11:38:39.
