data_PCOD9168566
_publ_section_title
;
Structure prediction by ZEFSAII (Michael W. Deem and Ramdas Pophale) SiO2 
 PCOD9168566
Probable space group: C 2/M
;
_chemical_formula_sum "Si O2"
_cell_formula_units_Z 38
_cell_length_a 8.866830
_cell_length_b 29.778155
_cell_length_c 12.526618
_cell_angle_alpha 90.000000
_cell_angle_beta 147.904147
_cell_angle_gamma 90.000000
_cell_volume 1757.398605
_symmetry_space_group_name_H-M "C 2/M"
_symmetry_group_IT_number 12
_symmetry_cell_setting 'monoclinic'
loop_
_space_group_symop_operation_xyz
x,y,z
-x,y,-z
-x,-y,-z
x,-y,z
1/2+x,1/2+y,z
1/2-x,1/2+y,-z
1/2-x,1/2-y,-z
1/2+x,1/2-y,z
loop_
_atom_site_type_symbol
_atom_site_label
_atom_site_fract_x
_atom_site_fract_y
_atom_site_fract_z
Si Si1 0.794371 0.688337 0.247450
Si Si2 0.500000 0.843174 0.000000
Si Si3 0.441610 0.729641 0.211391
Si Si4 0.179833 0.579619 0.947883
Si Si5 0.149139 0.587383 0.694179
Si Si6 0.500000 0.000000 0.000000
O O1 0.693395 0.705942 0.300968
O O2 0.984528 0.726321 0.307261
O O3 0.927479 0.639644 0.335719
O O4 0.500000 0.683717 0.000000
O O5 0.764157 0.808787 0.166410
O O6 0.445928 0.875410 0.070270
O O7 0.250000 0.750000 0.000000
O O8 0.072525 0.567768 0.763982
O O9 0.515874 0.586316 0.130663
O O10 0.117788 0.539256 0.989502
O O11 0.000000 0.568164 0.500000
#
# Coordination Sequence:
#
# PCOD9168566 Si02
#       6
#     8   4   8   8   8   2
#     4  10  17  30  51  83 117 158 212 249 282 336
#     4  11  16  31  60  84 114 162 202 249 310 349
#     4  10  16  24  50  82 112 159 209 249 292 332
#     4  10  22  42  66  90 119 151 194 249 304 367
#     4  11  22  39  63  91 124 162 199 239 296 357
#     4  10  24  46  74  96 116 148 192 244 310 376
#
# _framework density 21.622869000000001
#
# number of rings (size 3 to 8) (size 9 to 14) (size 15 to 20)
#    0.000    1.684    7.368    1.263    0.000    1.684 
#    0.000    8.421    0.000    0.000    0.000    0.000 
#    0.000    0.000    0.000    0.000    0.000    0.000 
#
# Total GULP energy -105834.225713 kJ/mol
# GULP energy per Si atom -5570.222406 kJ/mol
# Density = 2.157365 g / cm^3
# Si number density = 21.622869 Si / 1000 Ang^3
#
#
#
# Elastic Constant Matrix: (Units=GPa)
#
#
# Indices 1 2 3 4 5 6 
#
# 1 143.9168 40.8901 20.1540 0.0000 -22.2878 0.0000
# 2 40.8901 107.9341 -6.2728 0.0000 -4.2776 0.0000
# 3 20.1540 -6.2728 66.0980 0.0000 -21.4994 0.0000
# 4 0.0000 0.0000 0.0000 -4.5974 0.0000 -11.9101
# 5 -22.2878 -4.2776 -21.4994 0.0000 26.3320 0.0000
# 6 0.0000 0.0000 0.0000 -11.9101 0.0000 28.0864
#
#
#
# Elastic Compliance Matrix: (Units=1/GPa)
#
#
# Indices 1 2 3 4 5 6 
#
# 1 0.008969 -0.003209 -0.001007 0.000000 0.006248 0.000000
# 2 -0.003209 0.010647 0.002271 0.000000 0.000868 0.000000
# 3 -0.001007 0.002271 0.021097 0.000000 0.016742 0.000000
# 4 0.000000 0.000000 0.000000 -0.103649 0.000000 -0.043953
# 5 0.006248 0.000868 0.016742 0.000000 0.057075 0.000000
# 6 0.000000 0.000000 0.000000 -0.043953 0.000000 0.016966
#
#
# Mechanical properties :
#
#
# Convention : Reuss Voigt Hill
#
# Bulk Modulus (GPa) = 27.15640 47.49909 37.32774
# Shear Modulus (GPa) = 183.36173 27.50936 105.43555
#
# Velocity S-wave (km/s) = 9.21868 3.57071 6.99049
# Velocity P-wave (km/s) = 11.22044 6.24618 9.08056
#
# Compressibility (1/GPa) = 0.03682373
#
# Stress axis : x y z
#
# Youngs Moduli (GPa) = 111.49894 93.92431 47.39970
#
# Poissons Ratio (x) = 0.30137 0.04773
# Poissons Ratio (y) = 0.35776 -0.10765
# Poissons Ratio (z) = 0.11227 -0.21331
#
# Static dielectric constant tensor:
#      x y z
#    x 1.822950 0.000000 0.044780 
#    y 0.000000 1.730700 0.000000 
#    z 0.044780 0.000000 2.134530 
# 
# From -- ./inp_files/125499.got.cif
#   From: 2010.05.17/outbox.cif.g08.bks.cpg/sg12_63_cif.got.tgz:125499.got - 2010.06.03 13:09:07.
