data_PCOD9168400
_publ_section_title
;
Structure prediction by ZEFSAII (Michael W. Deem and Ramdas Pophale) SiO2 
 PCOD9168400
Probable space group: C 2/M
;
_chemical_formula_sum "Si O2"
_cell_formula_units_Z 48
_cell_length_a 5.392228
_cell_length_b 30.631058
_cell_length_c 21.473798
_cell_angle_alpha 90.000000
_cell_angle_beta 120.570599
_cell_angle_gamma 90.000000
_cell_volume 3053.822821
_symmetry_space_group_name_H-M "C 2/M"
_symmetry_group_IT_number 12
_symmetry_cell_setting 'monoclinic'
loop_
_space_group_symop_operation_xyz
x,y,z
-x,y,-z
-x,-y,-z
x,-y,z
1/2+x,1/2+y,z
1/2-x,1/2+y,-z
1/2-x,1/2-y,-z
1/2+x,1/2-y,z
loop_
_atom_site_type_symbol
_atom_site_label
_atom_site_fract_x
_atom_site_fract_y
_atom_site_fract_z
Si Si1 0.710498 0.451609 0.086198
Si Si2 0.704135 0.446675 0.708335
Si Si3 0.167333 0.946838 0.459004
Si Si4 0.649759 0.132663 0.952697
Si Si5 0.070141 0.268369 0.916378
Si Si6 0.866817 0.052205 0.786617
O O1 0.850781 0.500000 0.110599
O O2 0.905129 0.410004 0.095968
O O3 0.546118 0.442120 0.129822
O O4 0.500000 0.454516 0.000000
O O5 0.710566 0.500000 0.709617
O O6 0.506716 0.433605 0.624849
O O7 0.560638 0.431362 0.754722
O O8 0.034564 0.432246 0.741992
O O9 0.500000 0.932644 0.500000
O O10 0.000000 0.933023 0.500000
O O11 0.170319 0.000000 0.459825
O O12 0.545827 0.179700 0.916489
O O13 0.500000 0.125628 0.000000
O O14 0.000000 0.136884 0.000000
O O15 0.260794 0.253469 0.883008
O O16 0.250000 0.250000 0.000000
O O17 0.858294 0.000000 0.776442
#
# Coordination Sequence:
#
# PCOD9168400 Si02
#       6
#     8   8   8   8   8   8
#     4   9  20  34  45  58  78 104 139 183 223 252
#     4   9  16  26  40  54  69  94 124 151 190 241
#     4   9  15  22  34  54  76  91 108 143 190 234
#     4  11  19  29  44  61  77  98 124 158 209 262
#     4  10  15  26  43  61  79  95 114 145 195 262
#     4   9  17  29  41  51  67  95 130 163 196 238
#
# _framework density 15.718004000000001
#
# number of rings (size 3 to 8) (size 9 to 14) (size 15 to 20)
#    0.000    2.500    3.333    1.000    0.000    7.000 
#    0.000    5.000    0.000    0.000    0.000    0.000 
#    0.000    0.000    0.000    0.000    0.000    0.000 
#
# Total GULP energy -133620.189201 kJ/mol
# GULP energy per Si atom -5567.507883 kJ/mol
# Density = 1.568223 g / cm^3
# Si number density = 15.718004 Si / 1000 Ang^3
#
#
#
# Elastic Constant Matrix: (Units=GPa)
#
#
# Indices 1 2 3 4 5 6 
#
# 1 117.8220 7.4085 46.2772 0.0000 -20.5685 0.0000
# 2 7.4085 77.9022 3.1556 0.0000 -14.8668 0.0000
# 3 46.2772 3.1556 96.3154 0.0000 -5.4726 0.0000
# 4 0.0000 0.0000 0.0000 1.3526 0.0000 -2.2216
# 5 -20.5685 -14.8668 -5.4726 0.0000 26.1404 0.0000
# 6 0.0000 0.0000 0.0000 -2.2216 0.0000 4.4092
#
#
#
# Elastic Compliance Matrix: (Units=1/GPa)
#
#
# Indices 1 2 3 4 5 6 
#
# 1 0.012068 0.000749 -0.005323 0.000000 0.008808 0.000000
# 2 0.000749 0.014446 -0.000337 0.000000 0.008734 0.000000
# 3 -0.005323 -0.000337 0.012855 0.000000 -0.001688 0.000000
# 4 0.000000 0.000000 0.000000 4.288915 0.000000 2.161019
# 5 0.008808 0.008734 -0.001688 0.000000 0.049799 0.000000
# 6 0.000000 0.000000 0.000000 2.161019 0.000000 1.315652
#
#
# Mechanical properties :
#
#
# Convention : Reuss Voigt Hill
#
# Bulk Modulus (GPa) = 33.84321 45.08023 39.46172
# Shear Modulus (GPa) = 0.87513 22.06031 11.46772
#
# Velocity S-wave (km/s) = 0.74698 3.75040 2.70403
# Velocity P-wave (km/s) = 4.72464 6.89180 5.90843
#
# Compressibility (1/GPa) = 0.02954802
#
# Stress axis : x y z
#
# Youngs Moduli (GPa) = 82.86054 69.22368 77.79030
#
# Poissons Ratio (x) = -0.05183 0.41405
# Poissons Ratio (y) = -0.06204 0.02620
# Poissons Ratio (z) = 0.44104 0.02331
#
# Static dielectric constant tensor:
#      x y z
#    x 1.689300 0.000000 0.049380 
#    y 0.000000 1.521870 0.000000 
#    z 0.049380 0.000000 1.550590 
# 
# From -- ./inp_files/253815.got.cif
#   From: 2010.05.17/outbox.cif.g08.bks.cpg/sg12_127_cif.got.tgz:253815.got - 2010.06.03 13:09:07.
