data_PCOD9168526
_publ_section_title
;
Structure prediction by ZEFSAII (Michael W. Deem and Ramdas Pophale) SiO2 
 PCOD9168526
Probable space group: C 2/M
;
_chemical_formula_sum "Si O2"
_cell_formula_units_Z 48
_cell_length_a 16.047763
_cell_length_b 8.747984
_cell_length_c 20.016521
_cell_angle_alpha 90.000000
_cell_angle_beta 134.863004
_cell_angle_gamma 90.000000
_cell_volume 1991.737102
_symmetry_space_group_name_H-M "C 2/M"
_symmetry_group_IT_number 12
_symmetry_cell_setting 'monoclinic'
loop_
_space_group_symop_operation_xyz
x,y,z
-x,y,-z
-x,-y,-z
x,-y,z
1/2+x,1/2+y,z
1/2-x,1/2+y,-z
1/2-x,1/2-y,-z
1/2+x,1/2-y,z
loop_
_atom_site_type_symbol
_atom_site_label
_atom_site_fract_x
_atom_site_fract_y
_atom_site_fract_z
Si Si1 0.167721 0.818869 0.107832
Si Si2 0.120174 0.316920 0.944933
Si Si3 0.722957 0.177809 0.556412
Si Si4 0.919561 0.181414 0.209888
Si Si5 0.718236 0.176985 0.274411
Si Si6 0.496363 0.673488 0.398107
O O1 0.096654 0.743110 0.006280
O O2 0.302189 0.772403 0.165157
O O3 0.156106 0.757716 0.176521
O O4 0.151742 0.000000 0.096668
O O5 0.121473 0.500000 0.944759
O O6 0.250000 0.250000 0.000000
O O7 0.043853 0.250889 0.840487
O O8 0.750000 0.250000 0.500000
O O9 0.788319 0.251762 0.656137
O O10 0.583184 0.211474 0.483298
O O11 0.747529 0.000000 0.569684
O O12 0.002304 0.194339 0.321108
O O13 0.892809 0.000000 0.186934
O O14 0.859110 0.184282 0.338065
O O15 0.683115 0.000000 0.254803
O O16 0.535300 0.500000 0.436488
#
# Coordination Sequence:
#
# PCOD9168526 Si02
#       6
#     8   8   8   8   8   8
#     4  10  17  26  42  67  99 133 170 208 250 301
#     4  10  16  23  37  61  96 134 169 206 250 298
#     4  12  25  39  56  77 103 135 173 215 260 311
#     4   9  16  27  43  66  98 134 168 206 254 302
#     4  10  20  36  56  78 106 137 171 213 261 309
#     4   9  19  35  55  78 106 138 171 212 261 309
#
# _framework density 24.099567
#
# number of rings (size 3 to 8) (size 9 to 14) (size 15 to 20)
#    0.000    2.000    0.000    9.000    0.000    6.000 
#    0.000    0.000    0.000    0.000    0.000    1.167 
#    0.000    9.333    0.000    0.000    0.000    0.000 
#
# Total GULP energy -134326.562143 kJ/mol
# GULP energy per Si atom -5596.940089 kJ/mol
# Density = 2.404472 g / cm^3
# Si number density = 24.099567 Si / 1000 Ang^3
#
#
#
# Elastic Constant Matrix: (Units=GPa)
#
#
# Indices 1 2 3 4 5 6 
#
# 1 91.7974 30.7502 50.9822 0.0000 -23.7275 0.0000
# 2 30.7502 194.5147 102.5004 0.0000 -26.5447 0.0000
# 3 50.9822 102.5004 211.2218 0.0000 -38.3559 0.0000
# 4 0.0000 0.0000 0.0000 45.7791 0.0000 -13.5017
# 5 -23.7275 -26.5447 -38.3559 0.0000 58.3130 0.0000
# 6 0.0000 0.0000 0.0000 -13.5017 0.0000 8.3972
#
#
#
# Elastic Compliance Matrix: (Units=1/GPa)
#
#
# Indices 1 2 3 4 5 6 
#
# 1 0.013278 -0.000349 -0.002366 0.000000 0.003688 0.000000
# 2 -0.000349 0.006975 -0.003123 0.000000 0.000979 0.000000
# 3 -0.002366 -0.003123 0.007254 0.000000 0.002387 0.000000
# 4 0.000000 0.000000 0.000000 0.041545 0.000000 0.066800
# 5 0.003688 0.000979 0.002387 0.000000 0.020665 0.000000
# 6 0.000000 0.000000 0.000000 0.066800 0.000000 0.226495
#
#
# Mechanical properties :
#
#
# Convention : Reuss Voigt Hill
#
# Bulk Modulus (GPa) = 63.16404 96.22215 79.69309
# Shear Modulus (GPa) = 15.00754 43.38460 29.19607
#
# Velocity S-wave (km/s) = 2.49816 4.24751 3.48440
# Velocity P-wave (km/s) = 5.88112 8.00429 7.02340
#
# Compressibility (1/GPa) = 0.01583179
#
# Stress axis : x y z
#
# Youngs Moduli (GPa) = 75.31521 143.35985 137.84784
#
# Poissons Ratio (x) = 0.05005 0.32611
# Poissons Ratio (y) = 0.02630 0.43049
# Poissons Ratio (z) = 0.17817 0.44770
#
# Static dielectric constant tensor:
#      x y z
#    x 2.141240 0.000000 0.419320 
#    y 0.000000 1.803450 0.000000 
#    z 0.419320 0.000000 3.358770 
# 
# From -- ./inp_files/280538.got.cif
#   From: 2010.05.17/outbox.cif.g08.bks.cpg/sg12_141_cif.got.tgz:280538.got - 2010.06.03 13:09:07.
