data_PCOD9168903
_publ_section_title
;
Structure prediction by ZEFSAII (Michael W. Deem and Ramdas Pophale) SiO2 
 PCOD9168903
Probable space group: C 2/M
;
_chemical_formula_sum "Si O2"
_cell_formula_units_Z 52
_cell_length_a 24.548906
_cell_length_b 8.230122
_cell_length_c 25.366892
_cell_angle_alpha 90.000000
_cell_angle_beta 144.693185
_cell_angle_gamma 90.000000
_cell_volume 2962.098335
_symmetry_space_group_name_H-M "C 2/M"
_symmetry_group_IT_number 12
_symmetry_cell_setting 'monoclinic'
loop_
_space_group_symop_operation_xyz
x,y,z
-x,y,-z
-x,-y,-z
x,-y,z
1/2+x,1/2+y,z
1/2-x,1/2+y,-z
1/2-x,1/2-y,-z
1/2+x,1/2-y,z
loop_
_atom_site_type_symbol
_atom_site_label
_atom_site_fract_x
_atom_site_fract_y
_atom_site_fract_z
Si Si1 0.704780 0.500000 0.260839
Si Si2 0.402521 0.185157 0.782060
Si Si3 0.436615 0.176226 0.003370
Si Si4 0.112310 0.000000 0.073749
Si Si5 0.015177 0.823459 0.574940
Si Si6 0.354383 0.192937 0.519142
Si Si7 0.910947 0.500000 0.390199
Si Si8 0.132357 0.805018 0.353486
O O1 0.665170 0.334926 0.255323
O O2 0.669577 0.500000 0.172815
O O3 0.816703 0.500000 0.349559
O O4 0.491982 0.197360 0.891488
O O5 0.424128 0.218799 0.737918
O O6 0.364997 0.000000 0.758658
O O7 0.389239 0.000000 0.970509
O O8 0.500000 0.169493 0.000000
O O9 0.372682 0.334217 0.946171
O O10 0.000000 0.000000 0.000000
O O11 0.916480 0.786955 0.525656
O O12 0.000000 0.831196 0.500000
O O13 0.080491 0.666313 0.635805
O O14 0.051727 0.000000 0.620875
O O15 0.243223 0.232748 0.429987
O O16 0.388370 0.240859 0.604569
O O17 0.364566 0.000000 0.519200
O O18 0.000000 0.500000 0.500000
O O19 0.121147 0.000000 0.342954
#
# Coordination Sequence:
#
# PCOD9168903 Si02
#       8
#     4   8   8   4   8   8   4   8
#     4  12  22  34  52  76 110 144 181 220 260 314
#     4  11  21  31  49  77 109 145 173 212 261 323
#     4   9  16  28  45  70 104 140 168 198 258 324
#     4  10  16  30  50  72 102 144 166 206 266 323
#     4  10  21  36  55  72  92 132 180 223 262 304
#     4  10  20  36  53  71 102 138 178 226 271 306
#     4  10  24  38  50  72 102 140 188 222 257 299
#     4  10  21  32  50  76 105 138 176 218 264 323
#
# _framework density 17.555122999999998
#
# number of rings (size 3 to 8) (size 9 to 14) (size 15 to 20)
#    0.000    1.846    4.615    0.923    4.308    2.462 
#    0.000    0.000    0.000    0.000    0.000    0.000 
#    0.000    1.231    0.000    0.000    0.000    0.000 
#
# Total GULP energy -144924.824594 kJ/mol
# GULP energy per Si atom -5574.031715 kJ/mol
# Density = 1.751517 g / cm^3
# Si number density = 17.555123 Si / 1000 Ang^3
#
#
#
# Elastic Constant Matrix: (Units=GPa)
#
#
# Indices 1 2 3 4 5 6 
#
# 1 68.0698 30.1663 21.2330 0.0000 -18.5496 0.0000
# 2 30.1663 148.5897 12.8895 0.0001 -0.9706 -0.0001
# 3 21.2330 12.8895 79.3849 0.0000 -29.8275 0.0000
# 4 0.0000 0.0001 0.0000 15.8105 0.0000 -5.8384
# 5 -18.5496 -0.9706 -29.8275 0.0000 21.4758 0.0000
# 6 0.0000 -0.0001 0.0000 -5.8384 0.0000 17.8296
#
#
#
# Elastic Compliance Matrix: (Units=1/GPa)
#
#
# Indices 1 2 3 4 5 6 
#
# 1 0.022219 -0.004704 0.004082 0.000000 0.024649 0.000000
# 2 -0.004704 0.007891 -0.002961 0.000000 -0.007818 0.000000
# 3 0.004082 -0.002961 0.027733 0.000000 0.041910 0.000000
# 4 0.000000 0.000000 0.000000 0.071949 0.000000 0.023560
# 5 0.024649 -0.007818 0.041910 0.000000 0.125709 0.000000
# 6 0.000000 0.000000 0.000000 0.023560 0.000000 0.063801
#
#
# Mechanical properties :
#
#
# Convention : Reuss Voigt Hill
#
# Bulk Modulus (GPa) = 19.73263 47.18022 33.45643
# Shear Modulus (GPa) = 14.56199 26.47352 20.51776
#
# Velocity S-wave (km/s) = 2.88323 3.88754 3.42242
# Velocity P-wave (km/s) = 4.72745 6.86181 5.89208
#
# Compressibility (1/GPa) = 0.05067748
#
# Stress axis : x y z
#
# Youngs Moduli (GPa) = 45.00627 126.73165 36.05872
#
# Poissons Ratio (x) = 0.59614 -0.14720
# Poissons Ratio (y) = 0.21171 0.10676
# Poissons Ratio (z) = -0.18373 0.37521
#
# Static dielectric constant tensor:
#      x y z
#    x 1.565340 0.000000 -0.029550 
#    y 0.000000 1.692420 0.000000 
#    z -0.029550 0.000000 1.585210 
# 
# From -- ./inp_files/324418.got.cif
#   From: 2010.05.17/outbox.cif.g08.bks.cpg/sg12_163_cif.got.tgz:324418.got - 2010.06.03 13:09:07.
