data_PCOD9168571
_publ_section_title
;
Structure prediction by ZEFSAII (Michael W. Deem and Ramdas Pophale) SiO2 
 PCOD9168571
Probable space group: C 2/M
;
_chemical_formula_sum "Si O2"
_cell_formula_units_Z 52
_cell_length_a 5.556154
_cell_length_b 19.291864
_cell_length_c 24.692733
_cell_angle_alpha 90.000000
_cell_angle_beta 89.906102
_cell_angle_gamma 90.000000
_cell_volume 2646.775119
_symmetry_space_group_name_H-M "C 2/M"
_symmetry_group_IT_number 12
_symmetry_cell_setting 'monoclinic'
loop_
_space_group_symop_operation_xyz
x,y,z
-x,y,-z
-x,-y,-z
x,-y,z
1/2+x,1/2+y,z
1/2-x,1/2+y,-z
1/2-x,1/2-y,-z
1/2+x,1/2-y,z
loop_
_atom_site_type_symbol
_atom_site_label
_atom_site_fract_x
_atom_site_fract_y
_atom_site_fract_z
Si Si1 0.086979 0.500000 0.636359
Si Si2 0.033328 0.709101 0.286154
Si Si3 0.560806 0.368726 0.560221
Si Si4 0.938694 0.349955 0.403835
Si Si5 0.513135 0.669085 0.878139
Si Si6 0.913650 0.000000 0.359756
Si Si7 0.000000 0.206791 0.000000
Si Si8 0.486571 0.169323 0.165182
O O1 0.840433 0.500000 0.669850
O O2 0.087699 0.433401 0.597452
O O3 0.332120 0.500000 0.670215
O O4 0.307793 0.737127 0.285755
O O5 0.994229 0.669349 0.342036
O O6 0.999934 0.669341 0.229894
O O7 0.500000 0.392954 0.500000
O O8 0.327263 0.324751 0.579190
O O9 0.584912 0.432116 0.602303
O O10 0.823557 0.333294 0.561717
O O11 0.516693 0.750000 0.856767
O O12 0.266627 0.638863 0.854320
O O13 0.766352 0.638744 0.858184
O O14 0.501499 0.667718 0.942901
O O15 0.250000 0.250000 0.000000
#
# Coordination Sequence:
#
# PCOD9168571 Si02
#       8
#     4   8   8   8   8   4   4   8
#     4   8  16  32  47  68 100 112 134 171 216 276
#     4  12  21  33  50  66  88 115 157 197 216 243
#     4  10  18  32  50  70  93 112 138 176 221 276
#     4  10  21  33  50  73  90 117 143 177 225 267
#     4  10  16  25  36  56  80 108 141 176 214 247
#     4   8  15  26  48  74  92 112 132 164 216 269
#     4  12  16  20  34  52  78 108 138 166 208 266
#     4  10  16  27  39  54  77 108 141 186 206 234
#
# _framework density 19.646552
#
# number of rings (size 3 to 8) (size 9 to 14) (size 15 to 20)
#    0.000    1.846    6.154    1.615    0.000    0.000 
#    0.000    4.615    0.000    9.231    0.000    0.000 
#    0.000    0.000    0.000    0.000    0.000    8.462 
#
# Total GULP energy -144743.699920 kJ/mol
# GULP energy per Si atom -5567.065382 kJ/mol
# Density = 1.960184 g / cm^3
# Si number density = 19.646552 Si / 1000 Ang^3
#
#
#
# Elastic Constant Matrix: (Units=GPa)
#
#
# Indices 1 2 3 4 5 6 
#
# 1 188.1071 -2.2241 5.8289 0.0000 4.2796 0.0000
# 2 -2.2241 21.6030 -14.0359 0.0000 6.4850 0.0000
# 3 5.8289 -14.0359 73.1755 0.0000 3.2560 0.0000
# 4 0.0000 0.0000 0.0000 570.6915 0.0000 -300.8813
# 5 4.2796 6.4850 3.2560 0.0000 34.4486 0.0000
# 6 0.0000 0.0000 0.0000 -300.8813 0.0000 153.5187
#
#
#
# Elastic Compliance Matrix: (Units=1/GPa)
#
#
# Indices 1 2 3 4 5 6 
#
# 1 0.005349 0.000595 -0.000279 0.000000 -0.000750 0.000000
# 2 0.000595 0.057415 0.011498 0.000000 -0.011969 0.000000
# 3 -0.000279 0.011498 0.016056 0.000000 -0.003647 0.000000
# 4 0.000000 0.000000 0.000000 -0.052615 0.000000 -0.103121
# 5 -0.000750 -0.011969 -0.003647 0.000000 0.031720 0.000000
# 6 0.000000 0.000000 0.000000 -0.103121 0.000000 -0.195593
#
#
# Mechanical properties :
#
#
# Convention : Reuss Voigt Hill
#
# Bulk Modulus (GPa) = 9.76107 29.11370 19.43738
# Shear Modulus (GPa) = -39.32404 171.28623 65.98110
#
# Velocity S-wave (km/s) = -4.47875 9.34736 5.80146
# Velocity P-wave (km/s) = 4.66546 11.46073 7.40209
#
# Compressibility (1/GPa) = 0.10244780
#
# Stress axis : x y z
#
# Youngs Moduli (GPa) = 186.95597 17.41716 62.28311
#
# Poissons Ratio (x) = -0.01036 0.01735
# Poissons Ratio (y) = -0.11122 -0.71613
# Poissons Ratio (z) = 0.05208 -0.20026
#
# Static dielectric constant tensor:
#      x y z
#    x 1.840280 0.000000 -0.004610 
#    y 0.000000 1.691390 0.000000 
#    z -0.004610 0.000000 1.661630 
# 
# From -- ./inp_files/297858.got.cif
#   From: 2010.05.17/outbox.cif.g08.bks.cpg/sg12_149_cif.got.tgz:297858.got - 2010.06.03 13:09:07.
