data_PCOD9168046
_publ_section_title
;
Structure prediction by ZEFSAII (Michael W. Deem and Ramdas Pophale) SiO2 
 PCOD9168046
Probable space group: P 21/M
;
_chemical_formula_sum "Si O2"
_cell_formula_units_Z 32
_cell_length_a 27.000000
_cell_length_b 9.000000
_cell_length_c 21.000000
_cell_angle_alpha 90.000000
_cell_angle_beta 160.000000
_cell_angle_gamma 90.000000
_cell_volume 1745.328791
_symmetry_space_group_name_H-M "P 21/M"
_symmetry_group_IT_number 11
_symmetry_cell_setting 'monoclinic'
loop_
_space_group_symop_operation_xyz
x,y,z
-x,1/2+y,-z
-x,-y,-z
x,1/2-y,z
loop_
_atom_site_type_symbol
_atom_site_label
_atom_site_fract_x
_atom_site_fract_y
_atom_site_fract_z
Si Si1 0.843677 0.429060 0.823245
Si Si2 0.785438 0.928219 0.499633
Si Si3 0.364246 0.426283 0.168289
Si Si4 0.339315 0.428787 0.512356
Si Si5 0.649363 0.572077 0.199883
Si Si6 0.911586 0.075932 0.449679
Si Si7 0.949518 0.923217 0.243218
Si Si8 0.346709 0.426123 0.298634
O O1 0.848129 0.250000 0.830554
O O2 0.747522 0.486670 0.648022
O O3 0.773221 0.492488 0.803209
O O4 0.000000 0.500000 0.000000
O O5 0.792891 0.750000 0.508695
O O6 0.718367 0.972054 0.486767
O O7 0.693703 0.972934 0.325843
O O8 0.944009 0.992231 0.676054
O O9 0.392282 0.250000 0.190431
O O10 0.496235 0.521444 0.301123
O O11 0.335882 0.442381 0.209566
O O12 0.214650 0.475125 0.956247
O O13 0.323658 0.250000 0.486650
O O14 0.644366 0.750000 0.191963
O O15 0.765826 0.511634 0.290197
O O16 0.500000 0.500000 0.000000
O O17 0.885008 0.250000 0.403831
O O18 0.995645 0.066281 0.618390
O O19 0.000000 0.000000 0.500000
O O20 0.950479 0.750000 0.225379
O O21 0.500000 0.500000 0.500000
O O22 0.345931 0.250000 0.312835
#
# Coordination Sequence:
#
# PCOD9168046 Si02
#       8
#     4   4   4   4   4   4   4   4
#     4  12  26  43  62  87 118 153 195 242 291 345
#     4   9  21  39  58  84 117 151 190 239 290 342
#     4  10  22  39  59  85 115 151 192 234 286 343
#     4  11  23  40  60  86 117 151 194 239 289 346
#     4  10  20  37  59  85 118 154 195 239 288 344
#     4  10  20  36  58  85 118 153 193 239 288 341
#     4   9  20  38  59  85 114 149 194 237 282 343
#     4  11  22  39  62  88 119 152 191 239 291 344
#
# _framework density 18.334654
#
# number of rings (size 3 to 8) (size 9 to 14) (size 15 to 20)
#    0.000    1.750    1.250    2.625    1.750    4.000 
#    0.000    2.500    0.000    0.000    0.000    0.000 
#    0.000    0.000    0.000    0.000    0.000    0.000 
#
# Total GULP energy -178624.579603 kJ/mol
# GULP energy per Si atom -5582.018113 kJ/mol
# Density = 1.829292 g / cm^3
# Si number density = 18.334654 Si / 1000 Ang^3
#
#
#
# Elastic Constant Matrix: (Units=GPa)
#
#
# Indices 1 2 3 4 5 6 
#
# 1 116.8835 45.7983 23.2949 0.0000 30.9143 0.0000
# 2 45.7983 88.4414 30.5160 0.0000 12.8061 0.0000
# 3 23.2949 30.5160 97.1244 0.0000 28.4608 0.0000
# 4 0.0000 0.0000 0.0000 29.2264 0.0000 8.4871
# 5 30.9143 12.8061 28.4608 0.0000 22.2312 0.0000
# 6 0.0000 0.0000 0.0000 8.4871 0.0000 35.0788
#
#
#
# Elastic Compliance Matrix: (Units=1/GPa)
#
#
# Indices 1 2 3 4 5 6 
#
# 1 0.017686 -0.007226 0.006426 0.000000 -0.028658 0.000000
# 2 -0.007226 0.015809 -0.005617 0.000000 0.008133 0.000000
# 3 0.006426 -0.005617 0.019509 0.000000 -0.030676 0.000000
# 4 0.000000 0.000000 0.000000 0.036801 0.000000 -0.008904
# 5 -0.028658 0.008133 -0.030676 0.000000 0.119421 0.000000
# 6 0.000000 0.000000 0.000000 -0.008904 0.000000 0.030661
#
#
# Mechanical properties :
#
#
# Convention : Reuss Voigt Hill
#
# Bulk Modulus (GPa) = 24.89417 55.74086 40.31751
# Shear Modulus (GPa) = 18.78908 30.82995 24.80952
#
# Velocity S-wave (km/s) = 3.20470 4.10507 3.68251
# Velocity P-wave (km/s) = 5.22500 7.27577 6.33393
#
# Compressibility (1/GPa) = 0.04017005
#
# Stress axis : x y z
#
# Youngs Moduli (GPa) = 56.54194 63.25320 51.25879
#
# Poissons Ratio (x) = 0.45708 -0.32941
# Poissons Ratio (y) = 0.40858 0.28794
# Poissons Ratio (z) = -0.36336 0.35532
#
# Static dielectric constant tensor:
#      x y z
#    x 1.558000 0.000000 0.010610 
#    y 0.000000 1.575790 0.000000 
#    z 0.010610 0.000000 1.603010 
# 
# From -- ./inp_files/67202.got.cif
#   From: 2010.05.17/outbox.ucp.g08.bks.cvg/sg11_34_cif.got.tgz:67202.got - 2010.06.11 11:38:39.
