data_PCOD9168796
_publ_section_title
;
Structure prediction by ZEFSAII (Michael W. Deem and Ramdas Pophale) SiO2 
 PCOD9168796
Probable space group: C 2/M
;
_chemical_formula_sum "Si O2"
_cell_formula_units_Z 56
_cell_length_a 8.141797
_cell_length_b 19.706507
_cell_length_c 21.400942
_cell_angle_alpha 90.000000
_cell_angle_beta 119.879510
_cell_angle_gamma 90.000000
_cell_volume 2977.278472
_symmetry_space_group_name_H-M "C 2/M"
_symmetry_group_IT_number 12
_symmetry_cell_setting 'monoclinic'
loop_
_space_group_symop_operation_xyz
x,y,z
-x,y,-z
-x,-y,-z
x,-y,z
1/2+x,1/2+y,z
1/2-x,1/2+y,-z
1/2-x,1/2-y,-z
1/2+x,1/2-y,z
loop_
_atom_site_type_symbol
_atom_site_label
_atom_site_fract_x
_atom_site_fract_y
_atom_site_fract_z
Si Si1 0.067560 0.809773 0.159004
Si Si2 0.477702 0.778176 0.390774
Si Si3 0.441278 0.156854 0.148797
Si Si4 0.330753 0.646177 0.432942
Si Si5 0.688680 0.328488 0.993939
Si Si6 0.248075 0.580297 0.290406
Si Si7 0.928200 0.824420 0.693577
O O1 0.042870 0.728252 0.152519
O O2 0.261140 0.829147 0.160168
O O3 0.060829 0.826032 0.230175
O O4 0.890213 0.845240 0.089605
O O5 0.439968 0.710402 0.422849
O O6 0.664378 0.820069 0.441909
O O7 0.293384 0.823993 0.363970
O O8 0.497228 0.746289 0.324026
O O9 0.350468 0.133975 0.064801
O O10 0.587351 0.110276 0.213978
O O11 0.500000 0.607441 0.500000
O O12 0.227525 0.605140 0.358203
O O13 0.500000 0.331020 0.000000
O O14 0.750000 0.250000 0.000000
O O15 0.251544 0.500000 0.287312
O O16 0.445906 0.615057 0.308404
#
# Coordination Sequence:
#
# PCOD9168796 Si02
#       7
#     8   8   8   8   8   8   8
#     4  10  16  28  53  82 103 125 160 209 269 310
#     4   9  18  32  54  86 109 128 157 203 266 311
#     4  10  18  31  51  76 106 133 163 208 257 307
#     4  10  19  34  58  84 109 131 159 204 256 311
#     4   8  16  26  43  75 107 128 151 195 257 313
#     4  11  24  38  50  67  98 143 183 211 243 291
#     4  10  18  31  51  74 104 132 165 209 250 300
#
# _framework density 18.809124000000001
#
# number of rings (size 3 to 8) (size 9 to 14) (size 15 to 20)
#    0.000    2.286    0.000    5.571    0.000    1.429 
#    0.000    2.857    0.000    6.429    0.000    0.000 
#    0.000    0.000    0.000    0.000    0.000    0.000 
#
# Total GULP energy -155998.908016 kJ/mol
# GULP energy per Si atom -5571.389572 kJ/mol
# Density = 1.876631 g / cm^3
# Si number density = 18.809124 Si / 1000 Ang^3
#
#
#
# Elastic Constant Matrix: (Units=GPa)
#
#
# Indices 1 2 3 4 5 6 
#
# 1 64.4083 16.8948 14.5751 0.0000 20.0911 0.0000
# 2 16.8948 64.7833 28.7000 0.0000 19.1114 0.0000
# 3 14.5751 28.7000 103.3178 0.0000 20.7951 0.0000
# 4 0.0000 0.0000 0.0000 4.6918 0.0000 0.5179
# 5 20.0911 19.1114 20.7951 0.0000 24.9001 0.0000
# 6 0.0000 0.0000 0.0000 0.5179 0.0000 6.6263
#
#
#
# Elastic Compliance Matrix: (Units=1/GPa)
#
#
# Indices 1 2 3 4 5 6 
#
# 1 0.020801 -0.000777 0.000649 0.000000 -0.016729 0.000000
# 2 -0.000777 0.020764 -0.003098 0.000000 -0.012723 0.000000
# 3 0.000649 -0.003098 0.012110 0.000000 -0.008260 0.000000
# 4 0.000000 0.000000 0.000000 0.214992 0.000000 -0.016802
# 5 -0.016729 -0.012723 -0.008260 0.000000 0.070323 0.000000
# 6 0.000000 0.000000 0.000000 -0.016802 0.000000 0.152228
#
#
# Mechanical properties :
#
#
# Convention : Reuss Voigt Hill
#
# Bulk Modulus (GPa) = 21.17547 39.20545 30.19046
# Shear Modulus (GPa) = 9.73877 18.73292 14.23585
#
# Velocity S-wave (km/s) = 2.27792 3.15929 2.75409
# Velocity P-wave (km/s) = 4.26627 5.84784 5.11851
#
# Compressibility (1/GPa) = 0.04722446
#
# Stress axis : x y z
#
# Youngs Moduli (GPa) = 48.07353 48.15933 82.57444
#
# Poissons Ratio (x) = 0.03741 -0.05355
# Poissons Ratio (y) = 0.03735 0.25578
# Poissons Ratio (z) = -0.03118 0.14917
#
# Static dielectric constant tensor:
#      x y z
#    x 1.690240 0.000000 -0.017240 
#    y 0.000000 1.595710 0.000000 
#    z -0.017240 0.000000 1.771650 
# 
# From -- ./inp_files/333625.got.cif
#   From: 2010.05.17/outbox.cif.g08.bks.cpg/sg12_167_cif.got.tgz:333625.got - 2010.06.03 13:09:07.
