data_PCOD9168094
_publ_section_title
;
Structure prediction by ZEFSAII (Michael W. Deem and Ramdas Pophale) SiO2 
 PCOD9168094
Probable space group: P 21/M
;
_chemical_formula_sum "Si O2"
_cell_formula_units_Z 28
_cell_length_a 9.000000
_cell_length_b 9.000000
_cell_length_c 27.000000
_cell_angle_alpha 90.000000
_cell_angle_beta 40.000000
_cell_angle_gamma 90.000000
_cell_volume 1405.776502
_symmetry_space_group_name_H-M "P 21/M"
_symmetry_group_IT_number 11
_symmetry_cell_setting 'monoclinic'
loop_
_space_group_symop_operation_xyz
x,y,z
-x,1/2+y,-z
-x,-y,-z
x,1/2-y,z
loop_
_atom_site_type_symbol
_atom_site_label
_atom_site_fract_x
_atom_site_fract_y
_atom_site_fract_z
Si Si1 0.466904 0.575412 0.105928
Si Si2 0.752508 0.572283 0.666167
Si Si3 0.504516 0.927630 0.360880
Si Si4 0.151617 0.075236 0.067818
Si Si5 0.995068 0.570443 0.786063
Si Si6 0.290401 0.572168 0.522705
Si Si7 0.645664 0.422121 0.148827
O O1 0.416469 0.750000 0.111998
O O2 0.235823 0.486845 0.181670
O O3 0.630413 0.545021 0.110619
O O4 0.624776 0.516883 0.019396
O O5 0.757462 0.750000 0.655308
O O6 0.644693 0.489070 0.646636
O O7 0.560720 0.551340 0.758540
O O8 0.024013 0.526738 0.604106
O O9 0.534819 0.750000 0.349599
O O10 0.360597 0.959611 0.447761
O O11 0.760383 0.002830 0.293521
O O12 0.203643 0.250000 0.061777
O O13 0.082144 0.014616 0.139355
O O14 0.906085 0.067754 0.102856
O O15 0.014148 0.750000 0.780268
O O16 0.500000 0.500000 0.500000
O O17 0.299646 0.750000 0.527769
O O18 0.615898 0.250000 0.138858
#
# Coordination Sequence:
#
# PCOD9168094 Si02
#       7
#     4   4   4   4   4   4   4
#     4  11  23  37  56  88 125 156 195 254 311 350
#     4  10  21  41  66  89 118 160 205 241 287 359
#     4  11  23  40  62  93 126 154 196 250 300 349
#     4   9  19  38  61  85 116 155 203 251 296 356
#     4  11  22  40  63  86 116 162 208 244 294 359
#     4  10  24  42  63  94 126 157 195 241 295 356
#     4  10  20  38  61  87 118 157 204 245 288 358
#
# _framework density 19.917818
#
# number of rings (size 3 to 8) (size 9 to 14) (size 15 to 20)
#    0.000    1.714    1.429    2.571    2.000    2.286 
#    0.000    2.857    0.000    0.000    0.000    0.000 
#    0.000    0.000    0.000    0.000    0.000    0.000 
#
# Total GULP energy -156089.906763 kJ/mol
# GULP energy per Si atom -5574.639527 kJ/mol
# Density = 1.987248 g / cm^3
# Si number density = 19.917818 Si / 1000 Ang^3
#
#
#
# Elastic Constant Matrix: (Units=GPa)
#
#
# Indices 1 2 3 4 5 6 
#
# 1 47.5968 16.4808 7.9426 0.0000 -6.8669 0.0000
# 2 16.4808 34.9271 23.0929 0.0000 -0.3944 0.0000
# 3 7.9426 23.0929 107.0678 0.0000 -25.3852 0.0000
# 4 0.0000 0.0000 0.0000 29.3937 0.0000 -4.2527
# 5 -6.8669 -0.3944 -25.3852 0.0000 37.8233 0.0000
# 6 0.0000 0.0000 0.0000 -4.2527 0.0000 33.8233
#
#
#
# Elastic Compliance Matrix: (Units=1/GPa)
#
#
# Indices 1 2 3 4 5 6 
#
# 1 0.026377 -0.014090 0.002596 0.000000 0.006384 0.000000
# 2 -0.014090 0.041851 -0.010090 0.000000 -0.008894 0.000000
# 3 0.002596 -0.010090 0.013570 0.000000 0.009473 0.000000
# 4 0.000000 0.000000 0.000000 0.034651 0.000000 0.004357
# 5 0.006384 -0.008894 0.009473 0.000000 0.033863 0.000000
# 6 0.000000 0.000000 0.000000 0.004357 0.000000 0.030113
#
#
# Mechanical properties :
#
#
# Convention : Reuss Voigt Hill
#
# Bulk Modulus (GPa) = 25.88782 31.62491 28.75636
# Shear Modulus (GPa) = 21.14441 29.67974 25.41208
#
# Velocity S-wave (km/s) = 3.26173 3.86438 3.57577
# Velocity P-wave (km/s) = 5.21639 5.98527 5.61401
#
# Compressibility (1/GPa) = 0.03862820
#
# Stress axis : x y z
#
# Youngs Moduli (GPa) = 37.91240 23.89453 73.69390
#
# Poissons Ratio (x) = 0.33668 -0.19131
# Poissons Ratio (y) = 0.53420 0.74357
# Poissons Ratio (z) = -0.09842 0.24109
#
# Static dielectric constant tensor:
#      x y z
#    x 1.791200 0.000000 0.020350 
#    y 0.000000 1.696680 0.000000 
#    z 0.020350 0.000000 1.699630 
# 
# From -- ./inp_files/28295.got.cif
#   From: 2010.05.17/outbox.ucp.g08.bks.cvg/sg11_15_cif.got.tgz:28295.got - 2010.06.11 11:38:39.
