data_PCOD9168259
_publ_section_title
;
Structure prediction by ZEFSAII (Michael W. Deem and Ramdas Pophale) SiO2 
 PCOD9168259
Probable space group: P 21/M
;
_chemical_formula_sum "Si O2"
_cell_formula_units_Z 32
_cell_length_a 15.000000
_cell_length_b 9.000000
_cell_length_c 30.000000
_cell_angle_alpha 90.000000
_cell_angle_beta 150.000000
_cell_angle_gamma 90.000000
_cell_volume 2025.000000
_symmetry_space_group_name_H-M "P 21/M"
_symmetry_group_IT_number 11
_symmetry_cell_setting 'monoclinic'
loop_
_space_group_symop_operation_xyz
x,y,z
-x,1/2+y,-z
-x,-y,-z
x,1/2-y,z
loop_
_atom_site_type_symbol
_atom_site_label
_atom_site_fract_x
_atom_site_fract_y
_atom_site_fract_z
Si Si1 0.566641 0.071773 0.433883
Si Si2 0.010016 0.929137 0.144504
Si Si3 0.178200 0.428571 0.304304
Si Si4 0.910500 0.570907 0.630617
Si Si5 0.535618 0.928774 0.802651
Si Si6 0.716367 0.572222 0.240239
Si Si7 0.637819 0.928774 0.744791
Si Si8 0.678879 0.072116 0.948905
O O1 0.594753 0.250000 0.448916
O O2 0.386692 0.035227 0.384315
O O3 0.507166 0.036485 0.356957
O O4 0.742933 0.991572 0.529166
O O5 0.002587 0.750000 0.141040
O O6 0.057274 0.989529 0.214752
O O7 0.178571 0.988081 0.188268
O O8 0.826716 0.996759 0.044502
O O9 0.159751 0.250000 0.289743
O O10 0.127183 0.463488 0.333273
O O11 0.918354 0.750000 0.629451
O O12 0.100940 0.500497 0.698218
O O13 0.533359 0.750000 0.806849
O O14 0.573901 0.962971 0.767433
O O15 0.351887 0.998693 0.742743
O O16 0.680427 0.000214 0.899673
O O17 0.739024 0.750000 0.254661
O O18 0.533631 0.548661 0.131452
O O19 0.669398 0.750000 0.755791
O O20 0.708483 0.250000 0.959922
#
# Coordination Sequence:
#
# PCOD9168259 Si02
#       8
#     4   4   4   4   4   4   4   4
#     4   9  18  34  54  77 108 139 168 207 259 315
#     4  11  21  32  53  81 107 137 174 215 256 306
#     4   9  20  37  54  76 108 140 169 210 263 311
#     4  11  21  34  56  80 102 135 176 217 260 308
#     4   9  17  33  56  78 103 135 176 218 255 300
#     4   9  20  36  54  75 102 139 175 215 261 306
#     4   9  19  35  54  77 109 143 170 209 263 310
#     4   9  19  35  54  74 105 142 173 211 261 307
#
# _framework density 15.802469
#
# number of rings (size 3 to 8) (size 9 to 14) (size 15 to 20)
#    0.750    1.750    0.000    3.375    0.000    4.500 
#    0.000    1.250    0.000    0.000    0.000    0.000 
#    0.000    0.000    0.000    0.000    0.000    0.000 
#
# Total GULP energy -178150.140640 kJ/mol
# GULP energy per Si atom -5567.191895 kJ/mol
# Density = 1.576650 g / cm^3
# Si number density = 15.802469 Si / 1000 Ang^3
#
#
#
# Elastic Constant Matrix: (Units=GPa)
#
#
# Indices 1 2 3 4 5 6 
#
# 1 106.9253 52.2504 80.1556 0.0000 -0.4656 0.0000
# 2 52.2504 99.2410 71.2936 0.0000 1.6704 0.0000
# 3 80.1556 71.2936 159.7899 0.0000 1.3024 0.0000
# 4 0.0000 0.0000 0.0000 35.8712 0.0000 0.4939
# 5 -0.4656 1.6704 1.3024 0.0000 23.1668 0.0000
# 6 0.0000 0.0000 0.0000 0.4939 0.0000 25.0528
#
#
#
# Elastic Compliance Matrix: (Units=1/GPa)
#
#
# Indices 1 2 3 4 5 6 
#
# 1 0.015974 -0.003921 -0.006271 0.000000 0.000956 0.000000
# 2 -0.003921 0.015804 -0.005077 0.000000 -0.000933 0.000000
# 3 -0.006271 -0.005077 0.011672 0.000000 -0.000416 0.000000
# 4 0.000000 0.000000 0.000000 0.027885 0.000000 -0.000550
# 5 0.000956 -0.000933 -0.000416 0.000000 0.043275 0.000000
# 6 0.000000 0.000000 0.000000 -0.000550 0.000000 0.039927
#
#
# Mechanical properties :
#
#
# Convention : Reuss Voigt Hill
#
# Bulk Modulus (GPa) = 77.44720 85.92839 81.68780
# Shear Modulus (GPa) = 26.40218 27.63527 27.01872
#
# Velocity S-wave (km/s) = 4.09193 4.18640 4.13943
# Velocity P-wave (km/s) = 8.45229 8.82397 8.64013
#
# Compressibility (1/GPa) = 0.01291202
#
# Stress axis : x y z
#
# Youngs Moduli (GPa) = 62.60261 63.27679 85.67154
#
# Poissons Ratio (x) = 0.24811 0.53727
# Poissons Ratio (y) = 0.24547 0.43492
# Poissons Ratio (z) = 0.39260 0.32123
#
# Static dielectric constant tensor:
#      x y z
#    x 1.527880 0.000000 -0.003280 
#    y 0.000000 1.530710 0.000000 
#    z -0.003280 0.000000 1.518550 
# 
# From -- ./inp_files/73317.got.cif
#   From: 2010.05.17/outbox.ucp.g08.bks.cvg/sg11_37_cif.got.tgz:73317.got - 2010.06.11 11:38:39.
