data_PCOD9168517
_publ_section_title
;
Structure prediction by ZEFSAII (Michael W. Deem and Ramdas Pophale) SiO2 
 PCOD9168517
Probable space group: C 2/M
;
_chemical_formula_sum "Si O2"
_cell_formula_units_Z 40
_cell_length_a 28.583301
_cell_length_b 8.550402
_cell_length_c 28.047686
_cell_angle_alpha 90.000000
_cell_angle_beta 165.036513
_cell_angle_gamma 90.000000
_cell_volume 1769.937655
_symmetry_space_group_name_H-M "C 2/M"
_symmetry_group_IT_number 12
_symmetry_cell_setting 'monoclinic'
loop_
_space_group_symop_operation_xyz
x,y,z
-x,y,-z
-x,-y,-z
x,-y,z
1/2+x,1/2+y,z
1/2-x,1/2+y,-z
1/2-x,1/2-y,-z
1/2+x,1/2-y,z
loop_
_atom_site_type_symbol
_atom_site_label
_atom_site_fract_x
_atom_site_fract_y
_atom_site_fract_z
Si Si1 0.021277 0.178933 0.573243
Si Si2 0.049644 0.815623 0.899292
Si Si3 0.457530 0.814409 0.205734
Si Si4 0.454311 0.821013 0.006140
Si Si5 0.963222 0.188987 0.309386
O O1 0.237097 0.171748 0.793163
O O2 0.952766 0.241705 0.557013
O O3 0.000000 0.255007 0.500000
O O4 0.950830 0.000000 0.499595
O O5 0.966105 0.733468 0.770651
O O6 0.040136 0.000000 0.883630
O O7 0.976983 0.764869 0.879313
O O8 0.260547 0.761322 0.108517
O O9 0.544980 0.741612 0.339349
O O10 0.453857 0.000000 0.206513
O O11 0.250000 0.750000 0.000000
O O12 0.522301 0.000000 0.073843
O O13 0.500000 0.748631 0.000000
O O14 0.950929 0.000000 0.298261
#
# Coordination Sequence:
#
# PCOD9168517 Si02
#       5
#     8   8   8   8   8
#     4   8  14  25  42  63  85 110 140 171 202 242
#     4  10  17  25  38  57  82 109 138 171 209 249
#     4  10  16  23  36  55  81 109 137 169 210 253
#     4   9  17  29  44  62  85 112 141 172 206 245
#     4   9  15  24  38  57  82 109 138 171 208 248
#
# _framework density 22.599665000000002
#
# number of rings (size 3 to 8) (size 9 to 14) (size 15 to 20)
#    0.000    2.800    0.000    7.800    0.000    0.400 
#    0.000    0.000    0.000   15.000    0.000    1.400 
#    0.000    0.000    0.000    0.000    0.000    0.000 
#
# Total GULP energy -111473.067653 kJ/mol
# GULP energy per Si atom -5573.653383 kJ/mol
# Density = 2.254823 g / cm^3
# Si number density = 22.599665 Si / 1000 Ang^3
#
#
#
# Elastic Constant Matrix: (Units=GPa)
#
#
# Indices 1 2 3 4 5 6 
#
# 1 185.8069 39.2424 45.6478 0.0025 -85.8647 0.0002
# 2 39.2424 99.0018 12.1951 -0.0039 -23.8585 -0.0026
# 3 45.6478 12.1951 82.9478 0.0062 -17.1618 -0.0001
# 4 0.0025 -0.0039 0.0062 -3.1496 0.0023 -15.1486
# 5 -85.8647 -23.8585 -17.1618 0.0023 55.8168 0.0000
# 6 0.0002 -0.0026 -0.0001 -15.1486 0.0000 31.6292
#
#
#
# Elastic Compliance Matrix: (Units=1/GPa)
#
#
# Indices 1 2 3 4 5 6 
#
# 1 0.020438 -0.000309 -0.005045 0.000009 0.029757 0.000004
# 2 -0.000309 0.011304 -0.000631 -0.000005 0.004163 -0.000002
# 3 -0.005045 -0.000631 0.014164 0.000007 -0.003676 0.000003
# 4 0.000009 -0.000005 0.000007 -0.096108 0.000017 -0.046030
# 5 0.029757 0.004163 -0.003676 0.000017 0.064341 0.000009
# 6 0.000004 -0.000002 0.000003 -0.046030 0.000009 0.009570
#
#
# Mechanical properties :
#
#
# Convention : Reuss Voigt Hill
#
# Bulk Modulus (GPa) = 29.46609 62.43633 45.95121
# Shear Modulus (GPa) = 106.40217 34.90403 70.65310
#
# Velocity S-wave (km/s) = 6.86903 3.93421 5.59739
# Velocity P-wave (km/s) = 8.71653 6.95158 7.88360
#
# Compressibility (1/GPa) = 0.03393732
#
# Stress axis : x y z
#
# Youngs Moduli (GPa) = 48.92885 88.46314 70.59905
#
# Poissons Ratio (x) = 0.02729 0.35619
# Poissons Ratio (y) = 0.01510 0.04453
# Poissons Ratio (z) = 0.24686 0.05580
#
# Static dielectric constant tensor:
#      x y z
#    x 2.047090 0.000000 0.040050 
#    y 0.000000 1.759460 0.000000 
#    z 0.040050 0.000000 1.900010 
# 
# From -- ./inp_files/178900.got.cif
#   From: 2010.05.17/outbox.cif.g08.bks.cpg/sg12_90_cif.got.tgz:178900.got - 2010.06.03 13:09:07.
