data_PCOD9168825
_publ_section_title
;
Structure prediction by ZEFSAII (Michael W. Deem and Ramdas Pophale) SiO2 
 PCOD9168825
Probable space group: C 2/M
;
_chemical_formula_sum "Si O2"
_cell_formula_units_Z 56
_cell_length_a 23.864678
_cell_length_b 21.262544
_cell_length_c 22.373255
_cell_angle_alpha 90.000000
_cell_angle_beta 160.902608
_cell_angle_gamma 90.000000
_cell_volume 3714.325304
_symmetry_space_group_name_H-M "C 2/M"
_symmetry_group_IT_number 12
_symmetry_cell_setting 'monoclinic'
loop_
_space_group_symop_operation_xyz
x,y,z
-x,y,-z
-x,-y,-z
x,-y,z
1/2+x,1/2+y,z
1/2-x,1/2+y,-z
1/2-x,1/2-y,-z
1/2+x,1/2-y,z
loop_
_atom_site_type_symbol
_atom_site_label
_atom_site_fract_x
_atom_site_fract_y
_atom_site_fract_z
Si Si1 0.826202 0.362775 0.942461
Si Si2 0.806170 0.000000 0.377622
Si Si3 0.626936 0.330887 0.376329
Si Si4 0.510503 0.718586 0.579554
Si Si5 0.750643 0.673181 0.001679
Si Si6 0.568699 0.199317 0.388285
Si Si7 0.217598 0.000000 0.787778
Si Si8 0.279990 0.131907 0.656430
O O1 0.690162 0.317654 0.771944
O O2 0.783469 0.352409 0.968792
O O3 0.793855 0.435034 0.890530
O O4 0.026116 0.345106 0.137555
O O5 0.760430 0.000000 0.261567
O O6 0.731678 0.938929 0.333575
O O7 0.012561 0.000000 0.591973
O O8 0.435386 0.352228 0.167743
O O9 0.591336 0.261239 0.368434
O O10 0.749245 0.332178 0.442140
O O11 0.721546 0.363234 0.528143
O O12 0.500000 0.736656 0.500000
O O13 0.479792 0.774863 0.595620
O O14 0.358635 0.670379 0.444585
O O15 0.750000 0.750000 0.000000
O O16 0.911691 0.658451 0.205637
#
# Coordination Sequence:
#
# PCOD9168825 Si02
#       8
#     8   4   8   8   8   8   4   8
#     4  12  21  33  49  66  88 120 163 198 233 268
#     4  11  21  37  47  58  89 129 166 192 223 257
#     4   9  16  28  47  68  84 105 146 194 235 270
#     4  11  22  33  45  66  94 123 154 191 228 276
#     4  10  16  29  49  69  84 107 149 198 237 274
#     4   9  17  28  47  67  86 109 146 189 233 278
#     4  11  23  35  47  60  89 131 162 194 225 263
#     4  11  21  32  49  65  85 120 161 200 228 261
#
# _framework density 15.076763
#
# number of rings (size 3 to 8) (size 9 to 14) (size 15 to 20)
#    0.000    1.571    7.143    1.286    2.000    2.857 
#    0.000    0.000    0.000    0.000    0.000    0.000 
#    0.000    0.000    0.000    2.571    0.000    6.571 
#
# Total GULP energy -155916.753726 kJ/mol
# GULP energy per Si atom -5568.455490 kJ/mol
# Density = 1.504245 g / cm^3
# Si number density = 15.076763 Si / 1000 Ang^3
#
#
#
# Elastic Constant Matrix: (Units=GPa)
#
#
# Indices 1 2 3 4 5 6 
#
# 1 56.5226 19.1433 60.0352 -0.0027 0.0556 0.0018
# 2 19.1433 23.4366 24.9421 0.0031 -4.1042 0.0040
# 3 60.0352 24.9421 126.8948 0.0044 16.2010 0.0044
# 4 -0.0027 0.0031 0.0044 15.9696 0.0054 2.3121
# 5 0.0556 -4.1042 16.2010 0.0054 27.0971 0.0025
# 6 0.0018 0.0040 0.0044 2.3121 0.0025 3.2184
#
#
#
# Elastic Compliance Matrix: (Units=1/GPa)
#
#
# Indices 1 2 3 4 5 6 
#
# 1 0.041315 -0.012907 -0.018133 0.000011 0.008802 0.000003
# 2 -0.012907 0.064965 -0.008577 -0.000008 0.014995 -0.000068
# 3 -0.018133 -0.008577 0.019819 -0.000003 -0.013112 0.000006
# 4 0.000011 -0.000008 -0.000003 0.069888 -0.000009 -0.050206
# 5 0.008802 0.014995 -0.013112 -0.000009 0.046997 -0.000035
# 6 0.000003 -0.000068 0.000006 -0.050206 -0.000035 0.346777
#
#
# Mechanical properties :
#
#
# Convention : Reuss Voigt Hill
#
# Bulk Modulus (GPa) = 21.33826 46.12169 33.72997
# Shear Modulus (GPa) = 7.30335 16.10592 11.70464
#
# Velocity S-wave (km/s) = 2.20332 3.27197 2.78930
# Velocity P-wave (km/s) = 4.54496 6.70314 5.72664
#
# Compressibility (1/GPa) = 0.04686419
#
# Stress axis : x y z
#
# Youngs Moduli (GPa) = 24.20434 15.39291 50.45541
#
# Poissons Ratio (x) = 0.19868 0.91492
# Poissons Ratio (y) = 0.31241 0.43277
# Poissons Ratio (z) = 0.43890 0.13203
#
# Static dielectric constant tensor:
#      x y z
#    x 1.506200 -0.000030 0.040590 
#    y -0.000030 1.601640 -0.000010 
#    z 0.040590 -0.000010 1.576040 
# 
# From -- ./inp_files/326056.got.cif
#   From: 2010.05.17/outbox.cif.g08.bks.cpg/sg12_164_cif.got.tgz:326056.got - 2010.06.03 13:09:07.
