data_PCOD9168846
_publ_section_title
;
Structure prediction by ZEFSAII (Michael W. Deem and Ramdas Pophale) SiO2 
 PCOD9168846
Probable space group: C 2/M
;
_chemical_formula_sum "Si O2"
_cell_formula_units_Z 48
_cell_length_a 14.055135
_cell_length_b 20.704622
_cell_length_c 12.109236
_cell_angle_alpha 90.000000
_cell_angle_beta 41.706024
_cell_angle_gamma 90.000000
_cell_volume 2344.457543
_symmetry_space_group_name_H-M "C 2/M"
_symmetry_group_IT_number 12
_symmetry_cell_setting 'monoclinic'
loop_
_space_group_symop_operation_xyz
x,y,z
-x,y,-z
-x,-y,-z
x,-y,z
1/2+x,1/2+y,z
1/2-x,1/2+y,-z
1/2-x,1/2-y,-z
1/2+x,1/2-y,z
loop_
_atom_site_type_symbol
_atom_site_label
_atom_site_fract_x
_atom_site_fract_y
_atom_site_fract_z
Si Si1 0.224740 0.195000 0.864918
Si Si2 0.589070 0.732071 0.770492
Si Si3 0.358215 0.072240 0.866731
Si Si4 0.899556 0.615934 0.193722
Si Si5 0.154343 0.071410 0.259421
Si Si6 0.026905 0.792585 0.351719
O O1 0.196401 0.194411 0.757826
O O2 0.299393 0.129961 0.842415
O O3 0.327286 0.255075 0.805500
O O4 0.070174 0.208489 0.054022
O O5 0.608931 0.807255 0.782447
O O6 0.590775 0.723214 0.637855
O O7 0.517704 0.086523 0.773723
O O8 0.349895 0.000000 0.826060
O O9 0.258882 0.073182 0.062425
O O10 0.749918 0.586052 0.285117
O O11 0.000000 0.604702 0.000000
O O12 0.049706 0.130954 0.333712
O O13 0.091523 0.000000 0.318292
O O14 0.000000 0.771320 0.500000
#
# Coordination Sequence:
#
# PCOD9168846 Si02
#       6
#     8   8   8   8   8   8
#     4  11  20  37  60  83 114 145 190 238 279 332
#     4  11  20  35  61  87 108 147 193 238 281 327
#     4  10  19  32  57  88 115 143 184 239 289 330
#     4  10  16  29  56  87 112 138 184 240 283 318
#     4  10  20  35  54  84 119 149 186 228 280 338
#     4  12  24  37  57  86 117 154 188 228 283 339
#
# _framework density 20.47382
#
# number of rings (size 3 to 8) (size 9 to 14) (size 15 to 20)
#    0.000    1.333    6.667    2.000    0.000    3.000 
#    0.000    2.500    0.000    0.500    0.000    0.000 
#    0.000    0.000    0.000    0.000    0.000    0.000 
#
# Total GULP energy -134076.065949 kJ/mol
# GULP energy per Si atom -5586.502748 kJ/mol
# Density = 2.042722 g / cm^3
# Si number density = 20.473820 Si / 1000 Ang^3
#
#
#
# Elastic Constant Matrix: (Units=GPa)
#
#
# Indices 1 2 3 4 5 6 
#
# 1 145.2698 56.3100 21.2806 0.0018 23.7830 -0.0026
# 2 56.3100 136.0181 7.3966 0.0006 -3.4928 -0.0013
# 3 21.2806 7.3966 25.3398 0.0020 6.9919 -0.0032
# 4 0.0018 0.0006 0.0020 2.4960 -0.0014 2.9032
# 5 23.7830 -3.4928 6.9919 -0.0014 26.0667 0.0022
# 6 -0.0026 -0.0013 -0.0032 2.9032 0.0022 20.3508
#
#
#
# Elastic Compliance Matrix: (Units=1/GPa)
#
#
# Indices 1 2 3 4 5 6 
#
# 1 0.010876 -0.004446 -0.005328 -0.000011 -0.009090 0.000003
# 2 -0.004446 0.009360 -0.000501 0.000006 0.005445 -0.000002
# 3 -0.005328 -0.000501 0.046179 -0.000055 -0.007593 0.000015
# 4 -0.000011 0.000006 -0.000055 0.480343 0.000057 -0.068525
# 5 -0.009090 0.005445 -0.007593 0.000057 0.049423 -0.000015
# 6 0.000003 -0.000002 0.000015 -0.068525 -0.000015 0.058914
#
#
# Mechanical properties :
#
#
# Convention : Reuss Voigt Hill
#
# Bulk Modulus (GPa) = 21.80285 52.95581 37.37933
# Shear Modulus (GPa) = 7.23661 24.55874 15.89768
#
# Velocity S-wave (km/s) = 1.88208 3.46716 2.78958
# Velocity P-wave (km/s) = 3.92368 6.47685 5.35466
#
# Compressibility (1/GPa) = 0.04586557
#
# Stress axis : x y z
#
# Youngs Moduli (GPa) = 91.94766 106.84142 21.65490
#
# Poissons Ratio (x) = 0.47503 0.11537
# Poissons Ratio (y) = 0.40881 0.01084
# Poissons Ratio (z) = 0.48987 0.05348
#
# Static dielectric constant tensor:
#      x y z
#    x 1.738430 0.000000 0.005040 
#    y 0.000000 1.696270 0.000000 
#    z 0.005040 0.000000 1.813190 
# 
# From -- ./inp_files/147237.got.cif
#   From: 2010.05.17/outbox.cif.g08.bks.cpg/sg12_74_cif.got.tgz:147237.got - 2010.06.03 13:09:07.
