data_PCOD9168449
_publ_section_title
;
Structure prediction by ZEFSAII (Michael W. Deem and Ramdas Pophale) SiO2 
 PCOD9168449
Probable space group: C 2/M
;
_chemical_formula_sum "Si O2"
_cell_formula_units_Z 64
_cell_length_a 24.981632
_cell_length_b 24.588809
_cell_length_c 9.082680
_cell_angle_alpha 90.000000
_cell_angle_beta 32.394927
_cell_angle_gamma 90.000000
_cell_volume 2989.070396
_symmetry_space_group_name_H-M "C 2/M"
_symmetry_group_IT_number 12
_symmetry_cell_setting 'monoclinic'
loop_
_space_group_symop_operation_xyz
x,y,z
-x,y,-z
-x,-y,-z
x,-y,z
1/2+x,1/2+y,z
1/2-x,1/2+y,-z
1/2-x,1/2-y,-z
1/2+x,1/2-y,z
loop_
_atom_site_type_symbol
_atom_site_label
_atom_site_fract_x
_atom_site_fract_y
_atom_site_fract_z
Si Si1 0.142903 0.140285 0.593484
Si Si2 0.722377 0.439598 0.630517
Si Si3 0.737993 0.654557 0.824709
Si Si4 0.120894 0.663729 0.026725
Si Si5 0.860862 0.275272 0.712741
Si Si6 0.917565 0.155280 0.576292
Si Si7 0.857589 0.232533 0.187809
Si Si8 0.441650 0.938972 0.984566
O O1 0.146332 0.090164 0.697172
O O2 0.259461 0.152706 0.276054
O O3 0.082017 0.131129 0.586581
O O4 0.105471 0.192387 0.771651
O O5 0.691962 0.500000 0.745859
O O6 0.743933 0.399080 0.714773
O O7 0.826342 0.442931 0.301179
O O8 0.840862 0.685899 0.619867
O O9 0.666067 0.696011 0.901875
O O10 0.686335 0.642346 0.100320
O O11 0.091625 0.711800 0.980424
O O12 0.059400 0.609386 0.132032
O O13 0.109499 0.689295 0.214944
O O14 0.924421 0.220925 0.540933
O O15 0.750000 0.250000 0.000000
O O16 0.000000 0.136598 0.500000
O O17 0.750000 0.250000 0.500000
O O18 0.474590 0.000000 0.860101
O O19 0.500000 0.925368 0.000000
#
# Coordination Sequence:
#
# PCOD9168449 Si02
#       8
#     8   8   8   8   8   8   8   8
#     4   9  17  31  53  75 105 138 175 221 269 320
#     4   9  19  36  60  83  98 136 194 226 257 321
#     4  10  18  34  55  74 110 145 174 225 270 314
#     4  10  15  29  52  75  99 141 182 209 252 320
#     4  10  16  31  52  71 108 143 172 208 261 319
#     4  11  21  34  51  78 114 147 174 217 280 334
#     4   9  15  26  48  76  97 129 174 216 263 303
#     4   9  19  35  52  76 112 142 171 223 270 299
#
# _framework density 21.411338000000001
#
# number of rings (size 3 to 8) (size 9 to 14) (size 15 to 20)
#    0.000    2.375    5.000    1.500    0.000    0.000 
#    4.500    3.750    0.000    2.250    0.000    2.625 
#    0.000    0.000    0.000    0.000    0.000    0.000 
#
# Total GULP energy -178596.569884 kJ/mol
# GULP energy per Si atom -5581.142809 kJ/mol
# Density = 2.136261 g / cm^3
# Si number density = 21.411338 Si / 1000 Ang^3
#
#
#
# Elastic Constant Matrix: (Units=GPa)
#
#
# Indices 1 2 3 4 5 6 
#
# 1 113.6374 45.4805 14.3077 0.0000 21.5394 0.0000
# 2 45.4805 130.2013 11.4750 0.0000 18.4116 0.0000
# 3 14.3077 11.4750 28.5402 0.0001 1.5397 0.0000
# 4 0.0000 0.0000 0.0001 1.1562 0.0000 -1.1007
# 5 21.5394 18.4116 1.5397 0.0000 34.2450 0.0000
# 6 0.0000 0.0000 0.0000 -1.1007 0.0000 14.1055
#
#
#
# Elastic Compliance Matrix: (Units=1/GPa)
#
#
# Indices 1 2 3 4 5 6 
#
# 1 0.011540 -0.002868 -0.004334 0.000000 -0.005522 0.000000
# 2 -0.002868 0.009310 -0.002138 0.000000 -0.003105 0.000000
# 3 -0.004334 -0.002138 0.037954 -0.000002 0.002169 0.000000
# 4 0.000000 0.000000 -0.000002 0.934293 0.000001 0.072905
# 5 -0.005522 -0.003105 0.002169 0.000001 0.034246 0.000000
# 6 0.000000 0.000000 0.000000 0.072905 0.000000 0.076583
#
#
# Mechanical properties :
#
#
# Convention : Reuss Voigt Hill
#
# Bulk Modulus (GPa) = 24.92323 46.10059 35.51191
# Shear Modulus (GPa) = 4.40148 23.30906 13.85527
#
# Velocity S-wave (km/s) = 1.43532 3.30302 2.54658
# Velocity P-wave (km/s) = 3.79636 6.01035 5.02676
#
# Compressibility (1/GPa) = 0.04012322
#
# Stress axis : x y z
#
# Youngs Moduli (GPa) = 86.65391 107.41324 26.34800
#
# Poissons Ratio (x) = 0.30809 0.11420
# Poissons Ratio (y) = 0.24855 0.05632
# Poissons Ratio (z) = 0.37557 0.22962
#
# Static dielectric constant tensor:
#      x y z
#    x 1.817070 0.000000 -0.041020 
#    y 0.000000 1.801100 0.000000 
#    z -0.041020 0.000000 1.874590 
# 
# From -- ./inp_files/99656.got.cif
#   From: 2010.05.17/outbox.cif.g08.bks.cpg/sg12_50_cif.got.tgz:99656.got - 2010.06.03 13:09:07.
