data_PCOD9168111
_publ_section_title
;
Structure prediction by ZEFSAII (Michael W. Deem and Ramdas Pophale) SiO2 
 PCOD9168111
Probable space group: P 21/M
;
_chemical_formula_sum "Si O2"
_cell_formula_units_Z 32
_cell_length_a 15.000000
_cell_length_b 21.000000
_cell_length_c 15.000000
_cell_angle_alpha 90.000000
_cell_angle_beta 160.000000
_cell_angle_gamma 90.000000
_cell_volume 1616.045177
_symmetry_space_group_name_H-M "P 21/M"
_symmetry_group_IT_number 11
_symmetry_cell_setting 'monoclinic'
loop_
_space_group_symop_operation_xyz
x,y,z
-x,1/2+y,-z
-x,-y,-z
x,1/2-y,z
loop_
_atom_site_type_symbol
_atom_site_label
_atom_site_fract_x
_atom_site_fract_y
_atom_site_fract_z
Si Si1 0.824697 0.558694 0.225829
Si Si2 0.175362 0.176411 0.212413
Si Si3 0.627683 0.025458 0.786824
Si Si4 0.897880 0.052193 0.705421
Si Si5 0.731896 0.079705 0.228615
Si Si6 0.214567 0.179899 0.457814
Si Si7 0.687094 0.113065 0.674138
Si Si8 0.675837 0.126763 0.987837
O O1 0.807629 0.486237 0.248162
O O2 0.960908 0.564168 0.256926
O O3 0.012501 0.595222 0.472926
O O4 0.518706 0.576100 0.941713
O O5 0.202387 0.250000 0.216668
O O6 0.247867 0.166860 0.384597
O O7 0.404327 0.138288 0.379895
O O8 0.880337 0.156136 0.915960
O O9 0.626337 0.055842 0.686612
O O10 0.387638 0.977890 0.573255
O O11 0.602911 0.070897 0.850026
O O12 0.911442 0.996137 0.065007
O O13 0.848992 0.104842 0.735164
O O14 0.630205 0.120651 0.049772
O O15 0.096969 0.250000 0.354696
O O16 0.987288 0.133696 0.275787
O O17 0.481554 0.178215 0.762937
#
# Coordination Sequence:
#
# PCOD9168111 Si02
#       8
#     4   4   4   4   4   4   4   4
#     4  10  21  36  52  81 111 147 189 229 261 317
#     4  11  22  39  59  83 111 145 190 242 282 325
#     4  12  22  36  53  85 119 156 189 215 267 348
#     4  12  24  37  56  80 120 159 190 228 269 327
#     4  10  21  34  56  79 110 145 186 226 273 321
#     4  11  22  37  57  83 114 146 185 235 283 341
#     4  12  23  39  56  84 115 156 187 226 283 338
#     4  12  21  36  59  83 114 152 185 222 287 342
#
# _framework density 19.801427
#
# number of rings (size 3 to 8) (size 9 to 14) (size 15 to 20)
#    0.000    0.750    3.750    5.250    3.500    2.000 
#    0.000    0.000    0.000    0.000    0.000   17.500 
#    0.000    0.000    0.000    0.000    0.000    0.000 
#
# Total GULP energy -178225.754118 kJ/mol
# GULP energy per Si atom -5569.554816 kJ/mol
# Density = 1.975636 g / cm^3
# Si number density = 19.801427 Si / 1000 Ang^3
#
#
#
# Elastic Constant Matrix: (Units=GPa)
#
#
# Indices 1 2 3 4 5 6 
#
# 1 185.9938 2.9450 33.7753 0.0000 45.0590 0.0000
# 2 2.9450 15.1351 10.1910 0.0000 3.2834 0.0000
# 3 33.7753 10.1910 113.0969 0.0000 47.0725 0.0000
# 4 0.0000 0.0000 0.0000 4.4423 0.0000 -2.1528
# 5 45.0590 3.2834 47.0725 0.0000 86.7373 0.0000
# 6 0.0000 0.0000 0.0000 -2.1528 0.0000 -0.1794
#
#
#
# Elastic Compliance Matrix: (Units=1/GPa)
#
#
# Indices 1 2 3 4 5 6 
#
# 1 0.006189 -0.000150 -0.000645 0.000000 -0.002859 0.000000
# 2 -0.000150 0.070411 -0.006747 0.000000 0.001074 0.000000
# 3 -0.000645 -0.006747 0.012139 0.000000 -0.005997 0.000000
# 4 0.000000 0.000000 0.000000 0.033033 0.000000 -0.396348
# 5 -0.002859 0.001074 -0.005997 0.000000 0.016229 0.000000
# 6 0.000000 0.000000 0.000000 -0.396348 0.000000 -0.817874
#
#
# Mechanical properties :
#
#
# Convention : Reuss Voigt Hill
#
# Bulk Modulus (GPa) = 13.57675 45.33869 29.45772
# Shear Modulus (GPa) = -7.80957 36.02101 14.10572
#
# Velocity S-wave (km/s) = -1.98809 4.26973 2.67190
# Velocity P-wave (km/s) = 1.26544 6.87414 4.94243
#
# Compressibility (1/GPa) = 0.07365534
#
# Stress axis : x y z
#
# Youngs Moduli (GPa) = 161.58534 14.20241 82.38164
#
# Poissons Ratio (x) = 0.00213 0.05310
# Poissons Ratio (y) = 0.02422 0.55582
# Poissons Ratio (z) = 0.10415 0.09582
#
# Static dielectric constant tensor:
#      x y z
#    x 1.911900 0.000000 0.067350 
#    y 0.000000 2.704530 0.000000 
#    z 0.067350 0.000000 1.651890 
# 
# From -- ./inp_files/52677.got.cif
#   From: 2010.05.17/outbox.ucp.g08.bks.cvg/sg11_27_cif.got.tgz:52677.got - 2010.06.11 11:38:39.
