data_PCOD9168770
_publ_section_title
;
Structure prediction by ZEFSAII (Michael W. Deem and Ramdas Pophale) SiO2 
 PCOD9168770
Probable space group: C 2/M
;
_chemical_formula_sum "Si O2"
_cell_formula_units_Z 30
_cell_length_a 11.490134
_cell_length_b 28.896350
_cell_length_c 4.981600
_cell_angle_alpha 90.000000
_cell_angle_beta 56.090043
_cell_angle_gamma 90.000000
_cell_volume 1372.684502
_symmetry_space_group_name_H-M "C 2/M"
_symmetry_group_IT_number 12
_symmetry_cell_setting 'monoclinic'
loop_
_space_group_symop_operation_xyz
x,y,z
-x,y,-z
-x,-y,-z
x,-y,z
1/2+x,1/2+y,z
1/2-x,1/2+y,-z
1/2-x,1/2-y,-z
1/2+x,1/2-y,z
loop_
_atom_site_type_symbol
_atom_site_label
_atom_site_fract_x
_atom_site_fract_y
_atom_site_fract_z
Si Si1 0.774432 0.156074 0.377849
Si Si2 0.500000 0.265209 0.000000
Si Si3 0.500000 0.500000 0.000000
Si Si4 0.164445 0.902147 0.203206
Si Si5 0.299638 0.500000 0.742209
Si Si6 0.500000 0.798875 0.500000
O O1 0.873039 0.200957 0.240038
O O2 0.777424 0.137118 0.674473
O O3 0.624818 0.170395 0.456198
O O4 0.834008 0.116292 0.102084
O O5 0.456441 0.233932 0.803980
O O6 0.414330 0.500000 0.832490
O O7 0.646479 0.500000 0.631862
O O8 0.256456 0.948108 0.135534
O O9 0.000000 0.909601 0.500000
#
# Coordination Sequence:
#
# PCOD9168770 Si02
#       6
#     8   4   2   8   4   4
#     4  12  25  40  66  91 127 160 204 260 300 368
#     4  12  22  43  66  91 120 155 216 254 308 363
#     4  10  16  28  48  82 124 148 192 238 312 334
#     4  12  21  39  61  94 129 157 207 252 308 359
#     4  11  22  32  60  91 126 165 192 259 306 355
#     4  12  26  44  62  91 124 167 202 250 320 366
#
# _framework density 21.854986
#
# number of rings (size 3 to 8) (size 9 to 14) (size 15 to 20)
#    0.000    0.267    5.333    6.400    0.000    0.000 
#    0.000    0.000    0.000    4.800    0.000    0.000 
#    0.000    0.000    0.000    0.000    0.000    0.000 
#
# Total GULP energy -83571.366980 kJ/mol
# GULP energy per Si atom -5571.424465 kJ/mol
# Density = 2.180524 g / cm^3
# Si number density = 21.854986 Si / 1000 Ang^3
#
#
#
# Elastic Constant Matrix: (Units=GPa)
#
#
# Indices 1 2 3 4 5 6 
#
# 1 99.0697 10.3046 0.0485 0.0000 3.5186 0.0000
# 2 10.3046 83.4337 5.7608 0.0000 -2.8050 0.0000
# 3 0.0485 5.7608 46.3588 0.0000 36.6658 0.0000
# 4 0.0000 0.0000 0.0000 -2.0552 0.0000 -4.2018
# 5 3.5186 -2.8050 36.6658 0.0000 44.1598 0.0000
# 6 0.0000 0.0000 0.0000 -4.2018 0.0000 51.2393
#
#
#
# Elastic Compliance Matrix: (Units=1/GPa)
#
#
# Indices 1 2 3 4 5 6 
#
# 1 0.010368 -0.001570 0.002670 0.000000 -0.003143 0.000000
# 2 -0.001570 0.012873 -0.006827 0.000000 0.006611 0.000000
# 3 0.002670 -0.006827 0.066785 0.000000 -0.056098 0.000000
# 4 0.000000 0.000000 0.000000 -0.416714 0.000000 -0.034172
# 5 -0.003143 0.006611 -0.056098 0.000000 0.069893 0.000000
# 6 0.000000 0.000000 0.000000 -0.034172 0.000000 0.016714
#
#
# Mechanical properties :
#
#
# Convention : Reuss Voigt Hill
#
# Bulk Modulus (GPa) = 12.72744 29.01000 20.86872
# Shear Modulus (GPa) = -24.69918 32.85198 4.07640
#
# Velocity S-wave (km/s) = -3.36540 3.88129 1.36721
# Velocity P-wave (km/s) = 3.04385 5.77829 3.47301
#
# Compressibility (1/GPa) = 0.07857040
#
# Stress axis : x y z
#
# Youngs Moduli (GPa) = 96.45468 77.68095 14.97345
#
# Poissons Ratio (x) = 0.12199 -0.03998
# Poissons Ratio (y) = 0.15148 0.10222
# Poissons Ratio (z) = -0.25752 0.53033
#
# Static dielectric constant tensor:
#      x y z
#    x 1.745200 0.000000 -0.054580 
#    y 0.000000 1.847050 0.000000 
#    z -0.054580 0.000000 1.802010 
# 
# From -- ./inp_files/7924.got.cif
#   From: 2010.05.17/outbox.cif.g08.bks.cpg/sg12_4_cif.got.tgz:7924.got - 2010.06.03 13:09:07.
