data_PCOD9168773
_publ_section_title
;
Structure prediction by ZEFSAII (Michael W. Deem and Ramdas Pophale) SiO2 
 PCOD9168773
Probable space group: C 2/M
;
_chemical_formula_sum "Si O2"
_cell_formula_units_Z 48
_cell_length_a 26.319305
_cell_length_b 11.731465
_cell_length_c 18.551502
_cell_angle_alpha 90.000000
_cell_angle_beta 33.326619
_cell_angle_gamma 90.000000
_cell_volume 3147.046399
_symmetry_space_group_name_H-M "C 2/M"
_symmetry_group_IT_number 12
_symmetry_cell_setting 'monoclinic'
loop_
_space_group_symop_operation_xyz
x,y,z
-x,y,-z
-x,-y,-z
x,-y,z
1/2+x,1/2+y,z
1/2-x,1/2+y,-z
1/2-x,1/2-y,-z
1/2+x,1/2-y,z
loop_
_atom_site_type_symbol
_atom_site_label
_atom_site_fract_x
_atom_site_fract_y
_atom_site_fract_z
Si Si1 0.848326 0.500000 0.163545
Si Si2 0.473333 0.634666 0.355535
Si Si3 0.231852 0.133690 0.618375
Si Si4 0.295459 0.705079 0.662198
Si Si5 0.404847 0.631600 0.658692
Si Si6 0.598161 0.787737 0.683929
Si Si7 0.014414 0.500000 0.862989
O O1 0.784132 0.610775 0.243524
O O2 0.914973 0.500000 0.153487
O O3 0.912304 0.500000 0.017151
O O4 0.477155 0.500000 0.336097
O O5 0.380462 0.658144 0.512530
O O6 0.561007 0.664604 0.302202
O O7 0.461485 0.708625 0.298363
O O8 0.259651 0.183077 0.663696
O O9 0.319360 0.156218 0.461614
O O10 0.149100 0.209182 0.683017
O O11 0.210657 0.000000 0.644548
O O12 0.335374 0.710396 0.696026
O O13 0.500000 0.629575 0.500000
O O14 0.370284 0.500000 0.699982
O O15 0.538088 0.887418 0.789783
#
# Coordination Sequence:
#
# PCOD9168773 Si02
#       7
#     4   8   8   8   8   8   4
#     4  11  20  32  51  70  92 126 162 195 222 266
#     4   9  16  26  48  77 100 119 145 200 247 276
#     4  10  19  28  47  71  96 125 147 192 244 286
#     4  10  16  28  49  72  98 120 157 193 236 278
#     4   8  13  23  43  72  99 117 147 195 239 274
#     4  10  19  30  46  66 100 125 155 186 235 288
#     4  11  22  34  46  68  99 126 162 190 220 278
#
# _framework density 15.252397
#
# number of rings (size 3 to 8) (size 9 to 14) (size 15 to 20)
#    0.000    2.333    4.167    1.500    0.000    0.000 
#    0.000    0.000    1.833    6.500    0.000    0.000 
#    0.000    0.000    0.000    0.000    0.000    0.000 
#
# Total GULP energy -133655.918290 kJ/mol
# GULP energy per Si atom -5568.996595 kJ/mol
# Density = 1.521768 g / cm^3
# Si number density = 15.252397 Si / 1000 Ang^3
#
#
#
# Elastic Constant Matrix: (Units=GPa)
#
#
# Indices 1 2 3 4 5 6 
#
# 1 121.2959 57.6605 21.0489 0.0000 -2.7167 0.0000
# 2 57.6605 103.3474 25.4347 0.0001 2.7067 0.0000
# 3 21.0489 25.4347 36.1223 0.0000 3.6258 0.0000
# 4 0.0000 0.0001 0.0000 7.2140 0.0000 2.2043
# 5 -2.7167 2.7067 3.6258 0.0000 10.6719 0.0000
# 6 0.0000 0.0000 0.0000 2.2043 0.0000 24.7299
#
#
#
# Elastic Compliance Matrix: (Units=1/GPa)
#
#
# Indices 1 2 3 4 5 6 
#
# 1 0.011735 -0.005894 -0.003249 0.000000 0.005586 0.000000
# 2 -0.005894 0.014665 -0.006592 0.000000 -0.002980 0.000000
# 3 -0.003249 -0.006592 0.035339 0.000000 -0.011161 0.000000
# 4 0.000000 0.000000 0.000000 0.142501 0.000001 -0.012702
# 5 0.005586 -0.002980 -0.011161 0.000001 0.099674 0.000000
# 6 0.000000 0.000000 0.000000 -0.012702 0.000000 0.041569
#
#
# Mechanical properties :
#
#
# Convention : Reuss Voigt Hill
#
# Bulk Modulus (GPa) = 33.03727 52.11709 42.57718
# Shear Modulus (GPa) = 12.91845 18.96457 15.94151
#
# Velocity S-wave (km/s) = 2.91345 3.52999 3.23643
# Velocity P-wave (km/s) = 5.74673 7.13151 6.47624
#
# Compressibility (1/GPa) = 0.03026885
#
# Stress axis : x y z
#
# Youngs Moduli (GPa) = 85.21484 68.18911 28.29729
#
# Poissons Ratio (x) = 0.40191 0.09193
# Poissons Ratio (y) = 0.50226 0.18655
# Poissons Ratio (z) = 0.27683 0.44953
#
# Static dielectric constant tensor:
#      x y z
#    x 1.545740 0.000000 -0.005050 
#    y 0.000000 1.481470 0.000000 
#    z -0.005050 0.000000 1.479170 
# 
# From -- ./inp_files/276735.got.cif
#   From: 2010.05.17/outbox.cif.g08.bks.cpg/sg12_139_cif.got.tgz:276735.got - 2010.06.03 13:09:07.
