data_PCOD9168058
_publ_section_title
;
Structure prediction by ZEFSAII (Michael W. Deem and Ramdas Pophale) SiO2 
 PCOD9168058
Probable space group: P 21/M
;
_chemical_formula_sum "Si O2"
_cell_formula_units_Z 32
_cell_length_a 24.000000
_cell_length_b 9.000000
_cell_length_c 24.000000
_cell_angle_alpha 90.000000
_cell_angle_beta 20.000000
_cell_angle_gamma 90.000000
_cell_volume 1773.032423
_symmetry_space_group_name_H-M "P 21/M"
_symmetry_group_IT_number 11
_symmetry_cell_setting 'monoclinic'
loop_
_space_group_symop_operation_xyz
x,y,z
-x,1/2+y,-z
-x,-y,-z
x,1/2-y,z
loop_
_atom_site_type_symbol
_atom_site_label
_atom_site_fract_x
_atom_site_fract_y
_atom_site_fract_z
Si Si1 0.528508 0.419354 0.914716
Si Si2 0.112604 0.930018 0.139791
Si Si3 0.944607 0.930309 0.928051
Si Si4 0.290617 0.427558 0.640882
Si Si5 0.633896 0.926756 0.299162
Si Si6 0.478882 0.570877 0.843773
Si Si7 0.165490 0.567557 0.517629
Si Si8 0.086924 0.583760 0.468192
O O1 0.463215 0.250000 0.976036
O O2 0.468356 0.509571 0.917119
O O3 0.722630 0.409854 0.725130
O O4 0.500000 0.500000 0.000000
O O5 0.094295 0.750000 0.157043
O O6 0.093071 0.998293 0.096552
O O7 0.300120 0.961787 0.984377
O O8 0.963883 0.001951 0.316097
O O9 0.954572 0.750000 0.915958
O O10 0.789744 0.967909 0.114078
O O11 0.121045 0.994227 0.782071
O O12 0.279650 0.250000 0.640999
O O13 0.314221 0.451770 0.685198
O O14 0.459062 0.490967 0.455193
O O15 0.605568 0.750000 0.318384
O O16 0.501107 0.750000 0.822205
O O17 0.645875 0.496102 0.660344
O O18 0.174024 0.750000 0.512675
O O19 0.087529 0.523870 0.530687
O O20 0.018192 0.750000 0.534918
O O21 0.000000 0.500000 0.500000
#
# Coordination Sequence:
#
# PCOD9168058 Si02
#       8
#     4   4   4   4   4   4   4   4
#     4  10  21  36  55  83 114 146 186 231 288 354
#     4  11  25  42  62  87 116 156 203 249 299 355
#     4  11  23  39  60  87 120 158 203 251 297 353
#     4  10  20  36  61  91 125 162 200 248 301 354
#     4   9  20  38  60  89 124 164 205 245 298 355
#     4  10  22  41  62  85 115 153 196 244 297 352
#     4  10  22  41  62  86 116 153 195 240 295 356
#     4   9  20  35  53  81 111 142 181 225 280 344
#
# _framework density 18.048175000000001
#
# number of rings (size 3 to 8) (size 9 to 14) (size 15 to 20)
#    0.000    2.000    0.000    3.375    1.750    7.500 
#    0.000    2.500    0.000    0.000    0.000    0.000 
#    0.000    0.000    0.000    0.000    0.000    0.000 
#
# Total GULP energy -178428.309504 kJ/mol
# GULP energy per Si atom -5575.884672 kJ/mol
# Density = 1.800710 g / cm^3
# Si number density = 18.048175 Si / 1000 Ang^3
#
#
#
# Elastic Constant Matrix: (Units=GPa)
#
#
# Indices 1 2 3 4 5 6 
#
# 1 116.8776 59.4464 86.1275 0.0000 -5.0023 0.0000
# 2 59.4464 108.0462 69.9810 0.0000 -5.9232 0.0000
# 3 86.1275 69.9810 166.7530 0.0000 0.3779 0.0000
# 4 0.0000 0.0000 0.0000 38.8195 0.0000 -3.0265
# 5 -5.0023 -5.9232 0.3779 0.0000 37.3727 0.0000
# 6 0.0000 0.0000 0.0000 -3.0265 0.0000 32.0906
#
#
#
# Elastic Compliance Matrix: (Units=1/GPa)
#
#
# Indices 1 2 3 4 5 6 
#
# 1 0.015342 -0.004435 -0.006066 0.000000 0.001412 0.000000
# 2 -0.004435 0.014154 -0.003653 0.000000 0.001687 0.000000
# 3 -0.006066 -0.003653 0.010667 0.000000 -0.001499 0.000000
# 4 0.000000 0.000000 0.000000 0.025951 0.000000 0.002447
# 5 0.001412 0.001687 -0.001499 0.000000 0.027229 0.000000
# 6 0.000000 0.000000 0.000000 0.002447 0.000000 0.031393
#
#
# Mechanical properties :
#
#
# Convention : Reuss Voigt Hill
#
# Bulk Modulus (GPa) = 84.35766 91.42074 87.88920
# Shear Modulus (GPa) = 31.84802 33.39800 32.62301
#
# Velocity S-wave (km/s) = 4.20529 4.30640 4.25614
# Velocity P-wave (km/s) = 8.39172 8.68853 8.54141
#
# Compressibility (1/GPa) = 0.01185429
#
# Stress axis : x y z
#
# Youngs Moduli (GPa) = 65.17939 70.65186 93.74955
#
# Poissons Ratio (x) = 0.31332 0.56872
# Poissons Ratio (y) = 0.28905 0.34249
# Poissons Ratio (z) = 0.39540 0.25811
#
# Static dielectric constant tensor:
#      x y z
#    x 1.620390 0.000000 0.010140 
#    y 0.000000 1.634890 0.000000 
#    z 0.010140 0.000000 1.621390 
# 
# From -- ./inp_files/69982.got.cif
#   From: 2010.05.17/outbox.ucp.g08.bks.cvg/sg11_35_cif.got.tgz:69982.got - 2010.06.11 11:38:39.
