data_PCOD9168195
_publ_section_title
;
Structure prediction by ZEFSAII (Michael W. Deem and Ramdas Pophale) SiO2 
 PCOD9168195
Probable space group: P 21/M
;
_chemical_formula_sum "Si O2"
_cell_formula_units_Z 32
_cell_length_a 30.000000
_cell_length_b 9.000000
_cell_length_c 12.000000
_cell_angle_alpha 90.000000
_cell_angle_beta 30.000000
_cell_angle_gamma 90.000000
_cell_volume 1620.000000
_symmetry_space_group_name_H-M "P 21/M"
_symmetry_group_IT_number 11
_symmetry_cell_setting 'monoclinic'
loop_
_space_group_symop_operation_xyz
x,y,z
-x,1/2+y,-z
-x,-y,-z
x,1/2-y,z
loop_
_atom_site_type_symbol
_atom_site_label
_atom_site_fract_x
_atom_site_fract_y
_atom_site_fract_z
Si Si1 0.406604 0.421969 0.185294
Si Si2 0.754059 0.916408 0.318547
Si Si3 0.523625 0.073394 0.567498
Si Si4 0.708473 0.579113 0.173392
Si Si5 0.215395 0.074651 0.232165
Si Si6 0.105262 0.578477 0.857643
Si Si7 0.369832 0.572505 0.042512
Si Si8 0.929927 0.425272 0.316939
O O1 0.418389 0.250000 0.128257
O O2 0.348692 0.426320 0.422778
O O3 0.500000 0.500000 0.000000
O O4 0.357308 0.506861 0.192518
O O5 0.783910 0.750000 0.290078
O O6 0.764596 0.929006 0.164399
O O7 0.805522 0.043120 0.271105
O O8 0.508686 0.250000 0.597937
O O9 0.500000 0.000000 0.500000
O O10 0.626472 0.032580 0.362041
O O11 0.460073 0.997481 0.796274
O O12 0.673287 0.750000 0.241722
O O13 0.764960 0.551447 0.940506
O O14 0.224975 0.250000 0.235289
O O15 0.120622 0.016195 0.479224
O O16 0.289886 0.983240 0.137886
O O17 0.077812 0.750000 0.923992
O O18 0.115549 0.543124 0.704790
O O19 0.030057 0.477768 0.077394
O O20 0.374946 0.750000 0.033139
O O21 0.924946 0.250000 0.349829
#
# Coordination Sequence:
#
# PCOD9168195 Si02
#       8
#     4   4   4   4   4   4   4   4
#     4  11  23  39  60  87 120 157 199 247 300 355
#     4  10  22  40  61  85 117 158 198 240 294 353
#     4  12  23  37  58  84 115 154 200 248 298 352
#     4  10  22  40  60  84 118 158 200 246 295 351
#     4  11  22  37  59  87 119 152 193 244 297 352
#     4  10  21  38  62  91 118 150 191 238 293 353
#     4  12  24  38  58  84 118 156 200 248 298 354
#     4  10  21  38  62  90 121 151 187 239 296 355
#
# _framework density 19.753086
#
# number of rings (size 3 to 8) (size 9 to 14) (size 15 to 20)
#    0.000    1.250    1.250    5.250    0.000    6.500 
#    0.000    0.625    0.000    0.000    0.000    0.000 
#    0.000    0.000    0.000    0.000    0.000    0.000 
#
# Total GULP energy -178810.881232 kJ/mol
# GULP energy per Si atom -5587.840039 kJ/mol
# Density = 1.970813 g / cm^3
# Si number density = 19.753086 Si / 1000 Ang^3
#
#
#
# Elastic Constant Matrix: (Units=GPa)
#
#
# Indices 1 2 3 4 5 6 
#
# 1 47.6960 25.2089 25.0735 0.0000 12.2003 0.0000
# 2 25.2089 110.7161 40.0816 0.0000 11.1898 0.0000
# 3 25.0735 40.0816 69.3895 0.0000 18.7160 0.0000
# 4 0.0000 0.0000 0.0000 33.0978 0.0000 -3.5822
# 5 12.2003 11.1898 18.7160 0.0000 23.4325 0.0000
# 6 0.0000 0.0000 0.0000 -3.5822 0.0000 20.0970
#
#
#
# Elastic Compliance Matrix: (Units=1/GPa)
#
#
# Indices 1 2 3 4 5 6 
#
# 1 0.027979 -0.003392 -0.005938 0.000000 -0.008205 0.000000
# 2 -0.003392 0.011832 -0.005814 0.000000 0.000759 0.000000
# 3 -0.005938 -0.005814 0.023367 0.000000 -0.012795 0.000000
# 4 0.000000 0.000000 0.000000 0.030808 0.000000 0.005491
# 5 -0.008205 0.000759 -0.012795 0.000000 0.056805 0.000000
# 6 0.000000 0.000000 0.000000 0.005491 0.000000 0.050738
#
#
# Mechanical properties :
#
#
# Convention : Reuss Voigt Hill
#
# Bulk Modulus (GPa) = 30.40340 45.39218 37.89779
# Shear Modulus (GPa) = 20.59482 24.48795 22.54138
#
# Velocity S-wave (km/s) = 3.23245 3.52476 3.38177
# Velocity P-wave (km/s) = 5.41819 6.29245 5.87162
#
# Compressibility (1/GPa) = 0.03289106
#
# Stress axis : x y z
#
# Youngs Moduli (GPa) = 35.74106 84.51368 42.79610
#
# Poissons Ratio (x) = 0.28664 0.25412
# Poissons Ratio (y) = 0.12122 0.24882
# Poissons Ratio (z) = 0.21222 0.49136
#
# Static dielectric constant tensor:
#      x y z
#    x 1.692550 0.000000 -0.009720 
#    y 0.000000 1.683390 0.000000 
#    z -0.009720 0.000000 1.682010 
# 
# From -- ./inp_files/45194.got.cif
#   From: 2010.05.17/outbox.ucp.g08.bks.cvg/sg11_23_cif.got.tgz:45194.got - 2010.06.11 11:38:39.
