data_PCOD9168425
_publ_section_title
;
Structure prediction by ZEFSAII (Michael W. Deem and Ramdas Pophale) SiO2 
 PCOD9168425
Probable space group: C 2/M
;
_chemical_formula_sum "Si O2"
_cell_formula_units_Z 64
_cell_length_a 21.028592
_cell_length_b 18.136524
_cell_length_c 20.967753
_cell_angle_alpha 90.000000
_cell_angle_beta 22.134009
_cell_angle_gamma 90.000000
_cell_volume 3012.986924
_symmetry_space_group_name_H-M "C 2/M"
_symmetry_group_IT_number 12
_symmetry_cell_setting 'monoclinic'
loop_
_space_group_symop_operation_xyz
x,y,z
-x,y,-z
-x,-y,-z
x,-y,z
1/2+x,1/2+y,z
1/2-x,1/2+y,-z
1/2-x,1/2-y,-z
1/2+x,1/2-y,z
loop_
_atom_site_type_symbol
_atom_site_label
_atom_site_fract_x
_atom_site_fract_y
_atom_site_fract_z
Si Si1 0.954966 0.419007 0.625117
Si Si2 0.164341 0.361771 0.131487
Si Si3 0.947505 0.816721 0.209443
Si Si4 0.969194 0.794204 0.326456
Si Si5 0.980262 0.748671 0.589869
Si Si6 0.362424 0.416639 0.174933
Si Si7 0.239659 0.585321 0.928776
Si Si8 0.401272 0.202492 0.026098
O O1 0.041597 0.500000 0.539955
O O2 0.892154 0.409920 0.755930
O O3 0.026553 0.337449 0.546191
O O4 0.803568 0.420717 0.714232
O O5 0.072973 0.281867 0.216569
O O6 0.363509 0.347688 0.954085
O O7 0.137256 0.401065 0.089325
O O8 0.868663 0.806714 0.353519
O O9 0.859326 0.873710 0.243864
O O10 0.988606 0.744277 0.129794
O O11 0.909928 0.783708 0.454791
O O12 0.094061 0.864045 0.217580
O O13 0.781775 0.757835 0.793022
O O14 0.000000 0.778579 0.500000
O O15 0.421039 0.500000 0.134027
O O16 0.500000 0.380012 0.000000
O O17 0.277522 0.500000 0.885322
O O18 0.141776 0.622088 0.961110
O O19 0.500000 0.201246 0.000000
#
# Coordination Sequence:
#
# PCOD9168425 Si02
#       8
#     8   8   8   8   8   8   8   8
#     4  10  18  28  44  70 103 133 163 198 246 302
#     4  10  15  28  43  69 100 133 160 202 251 303
#     4  11  15  27  48  69  99 130 169 203 252 290
#     4   9  18  31  48  71 100 130 166 211 251 295
#     4  10  20  35  53  74 102 131 174 211 246 298
#     4  10  18  25  38  70 107 134 160 193 242 307
#     4  10  18  28  45  73 102 124 158 211 260 297
#     4  11  20  33  52  73  98 136 166 207 258 297
#
# _framework density 21.241378999999998
#
# number of rings (size 3 to 8) (size 9 to 14) (size 15 to 20)
#    0.000    1.875    6.250    2.250    0.000    2.500 
#    0.000    0.000    0.000    9.000    0.000    0.000 
#    0.000    0.000    0.000    0.000    0.000    0.000 
#
# Total GULP energy -178535.997816 kJ/mol
# GULP energy per Si atom -5579.249932 kJ/mol
# Density = 2.119303 g / cm^3
# Si number density = 21.241379 Si / 1000 Ang^3
#
#
#
# Elastic Constant Matrix: (Units=GPa)
#
#
# Indices 1 2 3 4 5 6 
#
# 1 145.9268 45.0218 38.4756 0.0002 41.2165 -0.0028
# 2 45.0218 141.7254 21.5918 -0.0044 18.3977 -0.0012
# 3 38.4756 21.5918 69.1657 -0.0051 33.4589 -0.0016
# 4 0.0002 -0.0044 -0.0051 9.8210 -0.0020 13.7332
# 5 41.2165 18.3977 33.4589 -0.0020 44.2018 0.0040
# 6 -0.0028 -0.0012 -0.0016 13.7332 0.0040 23.9328
#
#
#
# Elastic Compliance Matrix: (Units=1/GPa)
#
#
# Indices 1 2 3 4 5 6 
#
# 1 0.009905 -0.001985 -0.001297 -0.000033 -0.007428 0.000021
# 2 -0.001985 0.007932 -0.001058 0.000013 -0.000650 -0.000007
# 3 -0.001297 -0.001058 0.023211 0.000014 -0.015920 -0.000004
# 4 -0.000033 0.000013 0.000014 0.515310 0.000064 -0.295696
# 5 -0.007428 -0.000650 -0.015920 0.000064 0.041872 -0.000046
# 6 0.000021 -0.000007 -0.000004 -0.295696 -0.000046 0.211460
#
#
# Mechanical properties :
#
#
# Convention : Reuss Voigt Hill
#
# Bulk Modulus (GPa) = 30.89319 62.99961 46.94640
# Shear Modulus (GPa) = 6.03021 32.37304 19.20163
#
# Velocity S-wave (km/s) = 1.68673 3.90815 3.00988
# Velocity P-wave (km/s) = 4.28589 7.07730 5.85051
#
# Compressibility (1/GPa) = 0.03236960
#
# Stress axis : x y z
#
# Youngs Moduli (GPa) = 100.95756 126.07330 43.08294
#
# Poissons Ratio (x) = 0.25021 0.05588
# Poissons Ratio (y) = 0.20037 0.04556
# Poissons Ratio (z) = 0.13095 0.13333
#
# Static dielectric constant tensor:
#      x y z
#    x 1.800260 0.000000 -0.003060 
#    y 0.000000 1.746540 0.000000 
#    z -0.003060 0.000000 1.894980 
# 
# From -- ./inp_files/284803.got.cif
#   From: 2010.05.17/outbox.cif.g08.bks.cpg/sg12_143_cif.got.tgz:284803.got - 2010.06.03 13:09:07.
