data_PCOD9168264
_publ_section_title
;
Structure prediction by ZEFSAII (Michael W. Deem and Ramdas Pophale) SiO2 
 PCOD9168264
Probable space group: P 21/M
;
_chemical_formula_sum "Si O2"
_cell_formula_units_Z 32
_cell_length_a 27.000000
_cell_length_b 9.000000
_cell_length_c 21.000000
_cell_angle_alpha 90.000000
_cell_angle_beta 20.000000
_cell_angle_gamma 90.000000
_cell_volume 1745.328791
_symmetry_space_group_name_H-M "P 21/M"
_symmetry_group_IT_number 11
_symmetry_cell_setting 'monoclinic'
loop_
_space_group_symop_operation_xyz
x,y,z
-x,1/2+y,-z
-x,-y,-z
x,1/2-y,z
loop_
_atom_site_type_symbol
_atom_site_label
_atom_site_fract_x
_atom_site_fract_y
_atom_site_fract_z
Si Si1 0.639821 0.929705 0.045194
Si Si2 0.157314 0.430257 0.319335
Si Si3 0.196418 0.569184 0.886853
Si Si4 0.344258 0.569191 0.206477
Si Si5 0.328127 0.068670 0.600661
Si Si6 0.640937 0.931339 0.189903
Si Si7 0.878166 0.431304 0.258933
Si Si8 0.673637 0.429618 0.624165
O O1 0.633042 0.750000 0.053547
O O2 0.679787 0.970028 0.069422
O O3 0.479966 0.984526 0.218300
O O4 0.749153 0.970201 0.856667
O O5 0.153512 0.250000 0.329174
O O6 0.232377 0.501058 0.290911
O O7 0.000000 0.500000 0.500000
O O8 0.202024 0.750000 0.878804
O O9 0.289719 0.498126 0.716457
O O10 0.255115 0.504033 0.882859
O O11 0.035057 0.506329 0.070971
O O12 0.348258 0.750000 0.197383
O O13 0.308721 0.527234 0.323081
O O14 0.500000 0.500000 0.000000
O O15 0.327527 0.250000 0.602045
O O16 0.483109 0.001556 0.393333
O O17 0.213380 0.002807 0.688271
O O18 0.638158 0.750000 0.199413
O O19 0.885761 0.250000 0.242797
O O20 0.797106 0.466526 0.423741
O O21 0.666601 0.250000 0.633543
#
# Coordination Sequence:
#
# PCOD9168264 Si02
#       8
#     4   4   4   4   4   4   4   4
#     4   9  18  37  64  89 118 160 203 247 300 367
#     4  11  23  41  62  90 127 164 206 250 303 363
#     4  12  26  43  60  88 128 163 199 251 308 362
#     4  11  21  37  62  92 123 160 204 249 299 356
#     4  12  24  41  64  93 124 160 202 249 305 363
#     4  11  22  41  67  92 118 159 210 253 301 362
#     4  11  22  41  66  91 119 159 207 253 303 363
#     4   9  18  36  63  91 119 157 204 249 300 366
#
# _framework density 18.334654
#
# number of rings (size 3 to 8) (size 9 to 14) (size 15 to 20)
#    0.000    1.250    2.500    4.500    0.000    1.000 
#    0.000   11.250    0.000    0.000    0.000    0.000 
#    0.000    0.000    0.000    0.000    0.000    0.000 
#
# Total GULP energy -178757.919253 kJ/mol
# GULP energy per Si atom -5586.184977 kJ/mol
# Density = 1.829292 g / cm^3
# Si number density = 18.334654 Si / 1000 Ang^3
#
#
#
# Elastic Constant Matrix: (Units=GPa)
#
#
# Indices 1 2 3 4 5 6 
#
# 1 142.4548 35.6498 15.3558 0.0000 4.5626 0.0000
# 2 35.6498 116.4957 15.1266 0.0000 -1.1622 0.0000
# 3 15.3558 15.1266 45.6886 0.0000 0.5977 0.0000
# 4 0.0000 0.0000 0.0000 33.3439 0.0000 -2.3204
# 5 4.5626 -1.1622 0.5977 0.0000 46.3529 0.0000
# 6 0.0000 0.0000 0.0000 -2.3204 0.0000 39.3736
#
#
#
# Elastic Compliance Matrix: (Units=1/GPa)
#
#
# Indices 1 2 3 4 5 6 
#
# 1 0.007786 -0.002144 -0.001897 0.000000 -0.000796 0.000000
# 2 -0.002144 0.009563 -0.002452 0.000000 0.000482 0.000000
# 3 -0.001897 -0.002452 0.023339 0.000000 -0.000176 0.000000
# 4 0.000000 0.000000 0.000000 0.030114 0.000000 0.001775
# 5 -0.000796 0.000482 -0.000176 0.000000 0.021666 0.000000
# 6 0.000000 0.000000 0.000000 0.001775 0.000000 0.025502
#
#
# Mechanical properties :
#
#
# Convention : Reuss Voigt Hill
#
# Bulk Modulus (GPa) = 36.09735 48.54484 42.32109
# Shear Modulus (GPa) = 35.66559 39.71455 37.69007
#
# Velocity S-wave (km/s) = 4.41529 4.65918 4.53887
# Velocity P-wave (km/s) = 6.76194 7.44839 7.11345
#
# Compressibility (1/GPa) = 0.02770287
#
# Stress axis : x y z
#
# Youngs Moduli (GPa) = 128.42987 104.56514 42.84710
#
# Poissons Ratio (x) = 0.22423 0.08126
# Poissons Ratio (y) = 0.27541 0.10505
# Poissons Ratio (z) = 0.24358 0.25638
#
# Static dielectric constant tensor:
#      x y z
#    x 1.631410 0.000000 0.003240 
#    y 0.000000 1.611040 0.000000 
#    z 0.003240 0.000000 1.639230 
# 
# From -- ./inp_files/66947.got.cif
#   From: 2010.05.17/outbox.ucp.g08.bks.cvg/sg11_34_cif.got.tgz:66947.got - 2010.06.11 11:38:39.
