data_PCOD9168880
_publ_section_title
;
Structure prediction by ZEFSAII (Michael W. Deem and Ramdas Pophale) SiO2 
 PCOD9168880
Probable space group: C 2/M
;
_chemical_formula_sum "Si O2"
_cell_formula_units_Z 56
_cell_length_a 5.223554
_cell_length_b 32.103809
_cell_length_c 19.142307
_cell_angle_alpha 90.000000
_cell_angle_beta 99.824660
_cell_angle_gamma 90.000000
_cell_volume 3163.010544
_symmetry_space_group_name_H-M "C 2/M"
_symmetry_group_IT_number 12
_symmetry_cell_setting 'monoclinic'
loop_
_space_group_symop_operation_xyz
x,y,z
-x,y,-z
-x,-y,-z
x,-y,z
1/2+x,1/2+y,z
1/2-x,1/2+y,-z
1/2-x,1/2-y,-z
1/2+x,1/2-y,z
loop_
_atom_site_type_symbol
_atom_site_label
_atom_site_fract_x
_atom_site_fract_y
_atom_site_fract_z
Si Si1 0.729802 0.296724 0.467690
Si Si2 0.579414 0.148207 0.120610
Si Si3 0.491242 0.058355 0.078907
Si Si4 0.135858 0.860824 0.206983
Si Si5 0.146941 0.265018 0.919968
Si Si6 0.053355 0.954259 0.173757
Si Si7 0.124494 0.221280 0.300346
O O1 0.500000 0.317763 0.500000
O O2 0.750000 0.250000 0.500000
O O3 0.677595 0.290384 0.383947
O O4 0.000000 0.317774 0.500000
O O5 0.485284 0.108187 0.075347
O O6 0.419700 0.145263 0.185914
O O7 0.476895 0.190040 0.082013
O O8 0.888534 0.146562 0.144126
O O9 0.246421 0.046557 0.115563
O O10 0.757772 0.047763 0.131787
O O11 0.500000 0.043037 0.000000
O O12 0.109047 0.911179 0.219122
O O13 0.105552 0.823478 0.261141
O O14 0.404200 0.263121 0.884952
O O15 0.250000 0.250000 0.000000
O O16 0.090450 0.000000 0.209748
O O17 0.363921 0.250373 0.285458
#
# Coordination Sequence:
#
# PCOD9168880 Si02
#       7
#     8   8   8   8   8   8   8
#     4  10  16  30  48  73 104 139 173 196 245 280
#     4  10  21  38  49  63 101 128 158 212 253 298
#     4  10  21  34  55  79  95 121 154 206 273 329
#     4  10  23  37  51  76  99 131 173 200 249 299
#     4  10  21  33  47  67  81 120 171 204 237 290
#     4  10  21  39  56  74 101 129 159 212 266 316
#     4  12  21  32  53  77 108 144 170 211 234 288
#
# _framework density 17.704650000000001
#
# number of rings (size 3 to 8) (size 9 to 14) (size 15 to 20)
#    0.000    1.714    2.857    2.571    2.000    5.143 
#    5.143    0.000    0.000    0.000    0.000    0.000 
#    0.000    1.143    0.000    0.000    0.000    2.571 
#
# Total GULP energy -155980.926687 kJ/mol
# GULP energy per Si atom -5570.747382 kJ/mol
# Density = 1.766435 g / cm^3
# Si number density = 17.704650 Si / 1000 Ang^3
#
#
#
# Elastic Constant Matrix: (Units=GPa)
#
#
# Indices 1 2 3 4 5 6 
#
# 1 122.0389 9.5553 -6.4748 0.0000 3.0037 0.0000
# 2 9.5553 149.5580 31.4444 0.0000 -2.5585 0.0000
# 3 -6.4748 31.4444 46.1478 0.0000 -5.3734 0.0000
# 4 0.0000 0.0000 0.0000 11.5583 0.0000 -9.1368
# 5 3.0037 -2.5585 -5.3734 0.0000 17.0666 0.0000
# 6 0.0000 0.0000 0.0000 -9.1368 0.0000 1.5633
#
#
#
# Elastic Compliance Matrix: (Units=1/GPa)
#
#
# Indices 1 2 3 4 5 6 
#
# 1 0.008380 -0.000904 0.001665 0.000000 -0.001086 0.000000
# 2 -0.000904 0.007906 -0.005562 0.000000 -0.000407 0.000000
# 3 0.001665 -0.005562 0.026534 0.000000 0.007227 0.000000
# 4 0.000000 0.000000 0.000000 -0.023900 0.000000 -0.139681
# 5 -0.001086 -0.000407 0.007227 0.000000 0.061000 0.000000
# 6 0.000000 0.000000 0.000000 -0.139681 0.000000 -0.176700
#
#
# Mechanical properties :
#
#
# Convention : Reuss Voigt Hill
#
# Bulk Modulus (GPa) = 30.10222 42.97714 36.53968
# Shear Modulus (GPa) = -65.69898 24.91896 -20.39001
#
# Velocity S-wave (km/s) = -6.09827 3.75571 -3.39732
# Velocity P-wave (km/s) = 5.70489 6.56767 2.30093
#
# Compressibility (1/GPa) = 0.03322014
#
# Stress axis : x y z
#
# Youngs Moduli (GPa) = 119.33192 126.47842 37.68704
#
# Poissons Ratio (x) = 0.11435 -0.06276
# Poissons Ratio (y) = 0.10789 0.20960
# Poissons Ratio (z) = -0.19873 0.70342
#
# Static dielectric constant tensor:
#      x y z
#    x 1.660960 0.000000 -0.039730 
#    y 0.000000 1.660520 0.000000 
#    z -0.039730 0.000000 1.608970 
# 
# From -- ./inp_files/253916.got.cif
#   From: 2010.05.17/outbox.cif.g08.bks.cpg/sg12_127_cif.got.tgz:253916.got - 2010.06.03 13:09:07.
