data_PCOD9168376
_publ_section_title
;
Structure prediction by ZEFSAII (Michael W. Deem and Ramdas Pophale) SiO2 
 PCOD9168376
Probable space group: C 2/M
;
_chemical_formula_sum "Si O2"
_cell_formula_units_Z 56
_cell_length_a 22.145766
_cell_length_b 19.422045
_cell_length_c 13.502499
_cell_angle_alpha 90.000000
_cell_angle_beta 25.115244
_cell_angle_gamma 90.000000
_cell_volume 2464.997436
_symmetry_space_group_name_H-M "C 2/M"
_symmetry_group_IT_number 12
_symmetry_cell_setting 'monoclinic'
loop_
_space_group_symop_operation_xyz
x,y,z
-x,y,-z
-x,-y,-z
x,-y,z
1/2+x,1/2+y,z
1/2-x,1/2+y,-z
1/2-x,1/2-y,-z
1/2+x,1/2-y,z
loop_
_atom_site_type_symbol
_atom_site_label
_atom_site_fract_x
_atom_site_fract_y
_atom_site_fract_z
Si Si1 0.702111 0.842457 0.349842
Si Si2 0.669396 0.322721 0.133931
Si Si3 0.026580 0.922289 0.080441
Si Si4 0.581698 0.079031 0.236879
Si Si5 0.401758 0.078319 0.030506
Si Si6 0.784134 0.581264 0.463808
Si Si7 0.346840 0.317957 0.605290
O O1 0.559064 0.879057 0.523459
O O2 0.711011 0.868189 0.450012
O O3 0.690776 0.761145 0.359680
O O4 0.847265 0.869973 0.086421
O O5 0.509997 0.327666 0.328264
O O6 0.651992 0.328570 0.278038
O O7 0.750000 0.250000 0.000000
O O8 0.776813 0.381850 0.939780
O O9 0.869998 0.908298 0.355901
O O10 0.070553 0.000000 0.041784
O O11 0.000000 0.921803 0.000000
O O12 0.588090 0.079411 0.106218
O O13 0.574912 0.000000 0.278282
O O14 0.567129 0.091280 0.812720
O O15 0.361033 0.000000 0.118980
O O16 0.280702 0.132363 0.238859
O O17 0.785129 0.500000 0.494637
#
# Coordination Sequence:
#
# PCOD9168376 Si02
#       7
#     8   8   8   8   8   8   8
#     4  10  15  24  40  67  96 113 140 178 221 279
#     4  10  19  34  45  60  90 121 149 185 225 273
#     4   8  13  22  40  66  92 121 149 177 217 262
#     4   9  16  27  47  65  82 114 149 184 225 261
#     4   8  15  28  43  64  87 109 147 189 221 258
#     4   8  14  26  46  68  93 122 146 181 227 259
#     4  10  20  28  46  68  86 119 151 179 233 276
#
# _framework density 22.718077999999998
#
# number of rings (size 3 to 8) (size 9 to 14) (size 15 to 20)
#    0.000    3.000    1.429    3.000    0.000    0.571 
#    0.000    3.571    0.000    3.429    0.000    0.000 
#    0.000    5.143    0.000    0.286    0.000    0.000 
#
# Total GULP energy -156430.909756 kJ/mol
# GULP energy per Si atom -5586.818206 kJ/mol
# Density = 2.266637 g / cm^3
# Si number density = 22.718078 Si / 1000 Ang^3
#
#
#
# Elastic Constant Matrix: (Units=GPa)
#
#
# Indices 1 2 3 4 5 6 
#
# 1 56.8206 39.6836 37.7083 0.0002 -7.5447 -0.0001
# 2 39.6836 184.8440 146.7273 0.0016 -39.6196 -0.0004
# 3 37.7083 146.7273 253.9226 0.0031 -36.1171 -0.0010
# 4 0.0002 0.0016 0.0031 40.4127 -0.0006 -11.8693
# 5 -7.5447 -39.6196 -36.1171 -0.0006 44.8757 0.0002
# 6 -0.0001 -0.0004 -0.0010 -11.8693 0.0002 20.6018
#
#
#
# Elastic Compliance Matrix: (Units=1/GPa)
#
#
# Indices 1 2 3 4 5 6 
#
# 1 0.020841 -0.003853 -0.000964 0.000000 -0.000674 0.000000
# 2 -0.003853 0.011676 -0.005421 0.000000 0.005297 0.000000
# 3 -0.000964 -0.005421 0.007352 0.000000 0.000969 0.000000
# 4 0.000000 0.000000 0.000000 0.029785 0.000000 0.017160
# 5 -0.000674 0.005297 0.000969 0.000000 0.027627 0.000000
# 6 0.000000 0.000000 0.000000 0.017160 0.000000 0.058426
#
#
# Mechanical properties :
#
#
# Convention : Reuss Voigt Hill
#
# Bulk Modulus (GPa) = 51.57013 104.86950 78.21982
# Shear Modulus (GPa) = 27.37522 39.27591 33.32556
#
# Velocity S-wave (km/s) = 3.47507 4.16244 3.83419
# Velocity P-wave (km/s) = 6.23304 8.32843 7.35573
#
# Compressibility (1/GPa) = 0.01939107
#
# Stress axis : x y z
#
# Youngs Moduli (GPa) = 47.98281 85.64619 136.02286
#
# Poissons Ratio (x) = 0.33003 0.13115
# Poissons Ratio (y) = 0.18490 0.73740
# Poissons Ratio (z) = 0.04626 0.46430
#
# Static dielectric constant tensor:
#      x y z
#    x 1.963260 0.000000 0.044310 
#    y 0.000000 1.760950 0.000000 
#    z 0.044310 0.000000 1.872040 
# 
# From -- ./inp_files/293878.got.cif
#   From: 2010.05.17/outbox.cif.g08.bks.cpg/sg12_147_cif.got.tgz:293878.got - 2010.06.03 13:09:07.
