data_PCOD9168588
_publ_section_title
;
Structure prediction by ZEFSAII (Michael W. Deem and Ramdas Pophale) SiO2 
 PCOD9168588
Probable space group: C 2/M
;
_chemical_formula_sum "Si O2"
_cell_formula_units_Z 52
_cell_length_a 28.047423
_cell_length_b 23.731812
_cell_length_c 5.474748
_cell_angle_alpha 90.000000
_cell_angle_beta 118.590746
_cell_angle_gamma 90.000000
_cell_volume 3199.722598
_symmetry_space_group_name_H-M "C 2/M"
_symmetry_group_IT_number 12
_symmetry_cell_setting 'monoclinic'
loop_
_space_group_symop_operation_xyz
x,y,z
-x,y,-z
-x,-y,-z
x,-y,z
1/2+x,1/2+y,z
1/2-x,1/2+y,-z
1/2-x,1/2-y,-z
1/2+x,1/2-y,z
loop_
_atom_site_type_symbol
_atom_site_label
_atom_site_fract_x
_atom_site_fract_y
_atom_site_fract_z
Si Si1 0.132673 0.417797 0.163713
Si Si2 0.942732 0.679763 0.456829
Si Si3 0.161696 0.601102 0.740822
Si Si4 0.262804 0.683104 0.008560
Si Si5 0.401311 0.212030 0.859878
Si Si6 0.300639 0.706293 0.601240
Si Si7 0.534771 0.000000 0.838721
O O1 0.157074 0.434669 0.484206
O O2 0.125714 0.350184 0.178609
O O3 0.169051 0.429545 0.016776
O O4 0.075262 0.446895 0.967147
O O5 0.897031 0.631677 0.371711
O O6 0.940809 0.707814 0.721047
O O7 0.000000 0.656318 0.500000
O O8 0.926278 0.720488 0.191019
O O9 0.207595 0.648729 0.834606
O O10 0.299642 0.675495 0.859671
O O11 0.250000 0.750000 0.000000
O O12 0.289247 0.669170 0.334440
O O13 0.354623 0.257200 0.698162
O O14 0.250000 0.750000 0.500000
O O15 0.500000 0.000000 0.500000
O O16 0.500000 0.000000 0.000000
#
# Coordination Sequence:
#
# PCOD9168588 Si02
#       7
#     8   8   8   8   8   8   4
#     4  10  20  33  46  57  76  97 124 171 217 262
#     4  10  18  27  38  53  73 100 133 163 193 235
#     4  10  19  31  46  64  81 100 126 161 212 270
#     4  10  16  25  42  64  84 101 117 142 190 264
#     4  10  19  30  42  60  79 101 129 163 211 264
#     4  10  16  25  41  61  84 102 117 144 190 261
#     4  12  26  40  50  62  74 100 148 198 242 274
#
# _framework density 16.25141
#
# number of rings (size 3 to 8) (size 9 to 14) (size 15 to 20)
#    0.000    1.846    0.000   10.615    0.000    7.385 
#    0.000    0.000    0.000    0.000    0.000    0.000 
#    0.000    0.000    0.000    0.000    0.000    0.000 
#
# Total GULP energy -144771.799197 kJ/mol
# GULP energy per Si atom -5568.146123 kJ/mol
# Density = 1.621442 g / cm^3
# Si number density = 16.251410 Si / 1000 Ang^3
#
#
#
# Elastic Constant Matrix: (Units=GPa)
#
#
# Indices 1 2 3 4 5 6 
#
# 1 63.3141 29.7571 34.1621 0.0000 -20.8327 0.0000
# 2 29.7571 38.6602 26.0829 0.0000 5.2322 0.0000
# 3 34.1621 26.0829 148.2830 0.0000 -39.5502 0.0000
# 4 0.0000 0.0000 0.0000 -0.7198 0.0000 4.8879
# 5 -20.8327 5.2322 -39.5502 0.0000 41.5905 0.0000
# 6 0.0000 0.0000 0.0000 4.8879 0.0000 18.6014
#
#
#
# Elastic Compliance Matrix: (Units=1/GPa)
#
#
# Indices 1 2 3 4 5 6 
#
# 1 0.042421 -0.041066 0.006024 0.000000 0.032143 0.000000
# 2 -0.041066 0.073900 -0.015414 0.000000 -0.044524 0.000000
# 3 0.006024 -0.015414 0.012580 0.000000 0.016919 0.000000
# 4 0.000000 0.000000 0.000000 -0.498958 0.000000 0.131110
# 5 0.032143 -0.044524 0.016919 0.000000 0.061835 0.000000
# 6 0.000000 0.000000 0.000000 0.131110 0.000000 0.019308
#
#
# Mechanical properties :
#
#
# Convention : Reuss Voigt Hill
#
# Bulk Modulus (GPa) = 35.72795 47.80683 41.76739
# Shear Modulus (GPa) = -27.98422 22.57811 -2.70306
#
# Velocity S-wave (km/s) = -4.15415 3.73138 -1.29108
# Velocity P-wave (km/s) = 0.98844 6.93146 4.85119
#
# Compressibility (1/GPa) = 0.02798929
#
# Stress axis : x y z
#
# Youngs Moduli (GPa) = 23.57320 13.53175 79.49047
#
# Poissons Ratio (x) = 0.55569 -0.47882
# Poissons Ratio (y) = 0.96806 1.22524
# Poissons Ratio (z) = -0.14200 0.20857
#
# Static dielectric constant tensor:
#      x y z
#    x 1.577220 0.000000 -0.052990 
#    y 0.000000 1.526220 0.000000 
#    z -0.052990 0.000000 1.682560 
# 
# From -- ./inp_files/25956.got.cif
#   From: 2010.05.17/outbox.cif.g08.bks.cpg/sg12_13_cif.got.tgz:25956.got - 2010.06.03 13:09:07.
