data_PCOD9168521
_publ_section_title
;
Structure prediction by ZEFSAII (Michael W. Deem and Ramdas Pophale) SiO2 
 PCOD9168521
Probable space group: C 2/M
;
_chemical_formula_sum "Si O2"
_cell_formula_units_Z 40
_cell_length_a 14.629898
_cell_length_b 8.641240
_cell_length_c 17.328469
_cell_angle_alpha 90.000000
_cell_angle_beta 53.619462
_cell_angle_gamma 90.000000
_cell_volume 1763.700597
_symmetry_space_group_name_H-M "C 2/M"
_symmetry_group_IT_number 12
_symmetry_cell_setting 'monoclinic'
loop_
_space_group_symop_operation_xyz
x,y,z
-x,y,-z
-x,-y,-z
x,-y,z
1/2+x,1/2+y,z
1/2-x,1/2+y,-z
1/2-x,1/2-y,-z
1/2+x,1/2-y,z
loop_
_atom_site_type_symbol
_atom_site_label
_atom_site_fract_x
_atom_site_fract_y
_atom_site_fract_z
Si Si1 0.337385 0.672706 0.397648
Si Si2 0.000096 0.812005 0.193270
Si Si3 0.442102 0.676181 0.604213
Si Si4 0.703360 0.817170 0.199091
Si Si5 0.352311 0.184587 0.002780
O O1 0.294314 0.500000 0.404304
O O2 0.250000 0.750000 0.500000
O O3 0.382074 0.737874 0.293154
O O4 0.454580 0.664990 0.387221
O O5 0.098777 0.735486 0.196375
O O6 0.034647 0.758042 0.090561
O O7 0.006491 0.000000 0.194392
O O8 0.500000 0.748754 0.500000
O O9 0.405530 0.500000 0.603122
O O10 0.339807 0.765233 0.695493
O O11 0.719222 0.000000 0.187700
O O12 0.812519 0.734543 0.107724
O O13 0.357026 0.000000 0.994851
O O14 0.250000 0.250000 0.000000
#
# Coordination Sequence:
#
# PCOD9168521 Si02
#       5
#     8   8   8   8   8
#     4   9  18  30  46  67  91 120 150 184 223 264
#     4   9  16  27  40  58  85 116 149 182 221 264
#     4   9  18  33  49  65  89 121 155 188 222 262
#     4  10  17  25  39  61  88 115 144 181 224 268
#     4  10  16  23  37  58  84 114 145 179 223 268
#
# _framework density 22.679584999999999
#
# number of rings (size 3 to 8) (size 9 to 14) (size 15 to 20)
#    0.000    2.600    0.000    7.800    0.000    4.400 
#    0.000    0.000    0.000    0.000    0.000    1.400 
#    0.000   11.200    0.000    0.000    0.000    0.000 
#
# Total GULP energy -111508.199898 kJ/mol
# GULP energy per Si atom -5575.409995 kJ/mol
# Density = 2.262797 g / cm^3
# Si number density = 22.679585 Si / 1000 Ang^3
#
#
#
# Elastic Constant Matrix: (Units=GPa)
#
#
# Indices 1 2 3 4 5 6 
#
# 1 52.6042 -6.2570 2.8406 0.0000 -9.4998 0.0000
# 2 -6.2570 113.5881 74.8498 0.0000 -6.2921 0.0000
# 3 2.8406 74.8498 291.7923 0.0000 -10.6915 0.0000
# 4 0.0000 0.0000 0.0000 45.3958 0.0000 -0.5108
# 5 -9.4998 -6.2921 -10.6915 0.0000 14.2393 0.0000
# 6 0.0000 0.0000 0.0000 -0.5108 0.0000 -3.1842
#
#
#
# Elastic Compliance Matrix: (Units=1/GPa)
#
#
# Indices 1 2 3 4 5 6 
#
# 1 0.022096 0.002221 -0.000215 0.000000 0.015561 0.000000
# 2 0.002221 0.010921 -0.002665 0.000000 0.004306 0.000000
# 3 -0.000215 -0.002665 0.004179 0.000000 0.001817 0.000000
# 4 0.000000 0.000000 0.000000 0.021989 0.000000 -0.003527
# 5 0.015561 0.004306 0.001817 0.000000 0.083877 0.000000
# 6 0.000000 0.000000 0.000000 -0.003527 0.000000 -0.313484
#
#
# Mechanical properties :
#
#
# Convention : Reuss Voigt Hill
#
# Bulk Modulus (GPa) = 27.87248 66.76126 47.31687
# Shear Modulus (GPa) = -31.81800 37.06025 2.62112
#
# Velocity S-wave (km/s) = -3.74964 4.04676 1.07621
# Velocity P-wave (km/s) = 2.53576 7.16489 4.73844
#
# Compressibility (1/GPa) = 0.03587768
#
# Stress axis : x y z
#
# Youngs Moduli (GPa) = 45.25741 91.56784 239.26605
#
# Poissons Ratio (x) = -0.20333 0.05133
# Poissons Ratio (y) = -0.10049 0.63770
# Poissons Ratio (z) = 0.00971 0.24405
#
# Static dielectric constant tensor:
#      x y z
#    x 1.995910 0.000000 0.085050 
#    y 0.000000 1.784820 0.000000 
#    z 0.085050 0.000000 1.959420 
# 
# From -- ./inp_files/236243.got.cif
#   From: 2010.05.17/outbox.cif.g08.bks.cpg/sg12_119_cif.got.tgz:236243.got - 2010.06.03 13:09:07.
