data_PCOD9168367
_publ_section_title
;
Structure prediction by ZEFSAII (Michael W. Deem and Ramdas Pophale) SiO2 
 PCOD9168367
Probable space group: C 2/M
;
_chemical_formula_sum "Si O2"
_cell_formula_units_Z 52
_cell_length_a 7.081032
_cell_length_b 21.173069
_cell_length_c 19.661748
_cell_angle_alpha 90.000000
_cell_angle_beta 50.499385
_cell_angle_gamma 90.000000
_cell_volume 2274.598289
_symmetry_space_group_name_H-M "C 2/M"
_symmetry_group_IT_number 12
_symmetry_cell_setting 'monoclinic'
loop_
_space_group_symop_operation_xyz
x,y,z
-x,y,-z
-x,-y,-z
x,-y,z
1/2+x,1/2+y,z
1/2-x,1/2+y,-z
1/2-x,1/2-y,-z
1/2+x,1/2-y,z
loop_
_atom_site_type_symbol
_atom_site_label
_atom_site_fract_x
_atom_site_fract_y
_atom_site_fract_z
Si Si1 0.400765 0.574960 0.671541
Si Si2 0.516935 0.845777 0.833391
Si Si3 0.221480 0.390981 0.292039
Si Si4 0.389712 0.500000 0.153365
Si Si5 0.580056 0.296638 0.153004
Si Si6 0.247403 0.607033 0.986107
Si Si7 0.683832 0.072975 0.522920
O O1 0.344616 0.500000 0.684289
O O2 0.165473 0.617302 0.741785
O O3 0.588365 0.587307 0.691574
O O4 0.553820 0.590972 0.568472
O O5 0.408146 0.777873 0.841180
O O6 0.719020 0.827432 0.843726
O O7 0.327557 0.889198 0.918021
O O8 0.248071 0.444883 0.229987
O O9 0.324631 0.326178 0.237237
O O10 0.956582 0.388142 0.387508
O O11 0.561520 0.554609 0.078345
O O12 0.651486 0.325066 0.063208
O O13 0.000000 0.592861 0.000000
O O14 0.500000 0.073766 0.500000
O O15 0.697703 0.000000 0.542694
#
# Coordination Sequence:
#
# PCOD9168367 Si02
#       7
#     8   8   8   4   8   8   8
#     4   9  16  24  42  69  92 116 148 191 235 268
#     4  10  19  32  46  66  95 123 158 184 225 270
#     4   9  14  24  42  65  95 114 145 188 233 271
#     4  10  15  22  39  68  93 114 143 194 240 262
#     4   9  19  31  45  67  90 126 157 185 222 274
#     4   9  18  26  42  65  92 118 151 189 230 270
#     4   8  12  21  37  62  93 119 139 179 239 277
#
# _framework density 22.861180000000001
#
# number of rings (size 3 to 8) (size 9 to 14) (size 15 to 20)
#    0.000    2.923    1.538    2.538    1.077    0.000 
#    0.000    0.769    0.000    0.000    8.000    4.308 
#    0.000    2.462    0.000    0.000    0.000    0.000 
#
# Total GULP energy -144861.327302 kJ/mol
# GULP energy per Si atom -5571.589512 kJ/mol
# Density = 2.280915 g / cm^3
# Si number density = 22.861180 Si / 1000 Ang^3
#
#
#
# Elastic Constant Matrix: (Units=GPa)
#
#
# Indices 1 2 3 4 5 6 
#
# 1 70.0416 27.8737 36.3914 0.0000 -6.0921 0.0000
# 2 27.8737 61.3492 40.0235 0.0000 -3.1126 0.0000
# 3 36.3914 40.0235 180.7110 0.0000 2.4590 0.0000
# 4 0.0000 0.0000 0.0000 20.7627 0.0000 1.5004
# 5 -6.0921 -3.1126 2.4590 0.0000 15.2332 0.0000
# 6 0.0000 0.0000 0.0000 1.5004 0.0000 -0.2545
#
#
#
# Elastic Compliance Matrix: (Units=1/GPa)
#
#
# Indices 1 2 3 4 5 6 
#
# 1 0.018720 -0.006613 -0.002394 0.000000 0.006522 0.000000
# 2 -0.006613 0.021714 -0.003510 0.000000 0.002359 0.000000
# 3 -0.002394 -0.003510 0.006831 0.000000 -0.002777 0.000000
# 4 0.000000 0.000000 0.000000 0.033773 0.000000 0.199136
# 5 0.006522 0.002359 -0.002777 0.000000 0.069185 0.000000
# 6 0.000000 0.000000 0.000000 0.199136 0.000000 -2.755733
#
#
# Mechanical properties :
#
#
# Convention : Reuss Voigt Hill
#
# Bulk Modulus (GPa) = 44.97973 57.85324 51.41648
# Shear Modulus (GPa) = -1.94321 21.00252 9.52966
#
# Velocity S-wave (km/s) = -0.92296 3.03429 2.04390
# Velocity P-wave (km/s) = 4.31069 6.13491 5.30185
#
# Compressibility (1/GPa) = 0.02223224
#
# Stress axis : x y z
#
# Youngs Moduli (GPa) = 53.41923 46.05363 146.39389
#
# Poissons Ratio (x) = 0.30453 0.35047
# Poissons Ratio (y) = 0.35324 0.51378
# Poissons Ratio (z) = 0.12789 0.16163
#
# Static dielectric constant tensor:
#      x y z
#    x 1.987780 0.000000 -0.007010 
#    y 0.000000 1.772470 0.000000 
#    z -0.007010 0.000000 1.834170 
# 
# From -- ./inp_files/333791.got.cif
#   From: 2010.05.17/outbox.cif.g08.bks.cpg/sg12_167_cif.got.tgz:333791.got - 2010.06.03 13:09:07.
