data_PCOD9168657
_publ_section_title
;
Structure prediction by ZEFSAII (Michael W. Deem and Ramdas Pophale) SiO2 
 PCOD9168657
Probable space group: C 2/M
;
_chemical_formula_sum "Si O2"
_cell_formula_units_Z 56
_cell_length_a 30.692316
_cell_length_b 13.419115
_cell_length_c 26.419744
_cell_angle_alpha 90.000000
_cell_angle_beta 19.424213
_cell_angle_gamma 90.000000
_cell_volume 3618.693221
_symmetry_space_group_name_H-M "C 2/M"
_symmetry_group_IT_number 12
_symmetry_cell_setting 'monoclinic'
loop_
_space_group_symop_operation_xyz
x,y,z
-x,y,-z
-x,-y,-z
x,-y,z
1/2+x,1/2+y,z
1/2-x,1/2+y,-z
1/2-x,1/2-y,-z
1/2+x,1/2-y,z
loop_
_atom_site_type_symbol
_atom_site_label
_atom_site_fract_x
_atom_site_fract_y
_atom_site_fract_z
Si Si1 0.818810 0.113926 0.451819
Si Si2 0.037066 0.741006 0.240559
Si Si3 0.804462 0.614365 0.523236
Si Si4 0.248006 0.381265 0.945666
Si Si5 0.159271 0.385813 0.823477
Si Si6 0.131381 0.381364 0.964213
Si Si7 0.844606 0.708362 0.277465
O O1 0.730526 0.118352 0.498340
O O2 0.736010 0.148710 0.591219
O O3 0.940893 0.188539 0.313150
O O4 0.862386 0.000000 0.410635
O O5 0.127992 0.816477 0.172484
O O6 0.940448 0.673384 0.380112
O O7 0.126228 0.667495 0.109530
O O8 0.812298 0.500000 0.529998
O O9 0.690949 0.676875 0.674716
O O10 0.260231 0.500000 0.942757
O O11 0.218341 0.369000 0.918649
O O12 0.200186 0.500000 0.770320
O O13 0.198740 0.354352 0.836913
O O14 0.198399 0.323387 0.731757
O O15 0.000000 0.384045 0.000000
O O16 0.097172 0.500000 0.997916
O O17 0.996349 0.320795 0.117288
#
# Coordination Sequence:
#
# PCOD9168657 Si02
#       7
#     8   8   8   8   8   8   8
#     4  10  18  28  44  66  91 113 140 178 216 259
#     4  10  19  30  44  64  88 117 147 174 210 255
#     4  10  20  31  44  63  86 114 147 182 217 253
#     4  10  19  30  45  64  89 119 146 174 208 252
#     4   8  14  24  41  67  92 112 137 170 212 260
#     4   9  16  27  45  69  94 115 138 170 212 262
#     4  10  16  26  45  67  89 116 142 173 217 258
#
# _framework density 15.475199999999999
#
# number of rings (size 3 to 8) (size 9 to 14) (size 15 to 20)
#    0.000    2.429    0.000    6.429    0.000    2.286 
#    0.000    0.000    0.000    8.143    0.000   14.000 
#    0.000    0.000    0.000    0.000    0.000    0.000 
#
# Total GULP energy -155978.857431 kJ/mol
# GULP energy per Si atom -5570.673480 kJ/mol
# Density = 1.543998 g / cm^3
# Si number density = 15.475200 Si / 1000 Ang^3
#
#
#
# Elastic Constant Matrix: (Units=GPa)
#
#
# Indices 1 2 3 4 5 6 
#
# 1 79.8499 36.5283 20.3253 -0.0005 12.5676 0.0001
# 2 36.5283 116.6615 32.5179 0.0001 3.3558 0.0002
# 3 20.3253 32.5179 40.6505 0.0008 1.6534 0.0002
# 4 -0.0005 0.0001 0.0008 15.9741 -0.0002 -0.7989
# 5 12.5676 3.3558 1.6534 -0.0002 19.8766 -0.0001
# 6 0.0001 0.0002 0.0002 -0.7989 -0.0001 19.2813
#
#
#
# Elastic Compliance Matrix: (Units=1/GPa)
#
#
# Indices 1 2 3 4 5 6 
#
# 1 0.017033 -0.003590 -0.005249 0.000001 -0.009727 0.000000
# 2 -0.003590 0.011814 -0.007692 0.000000 0.000915 0.000000
# 3 -0.005249 -0.007692 0.033303 -0.000002 0.001847 0.000000
# 4 0.000001 0.000000 -0.000002 0.062731 0.000000 0.002599
# 5 -0.009727 0.000915 0.001847 0.000000 0.056152 0.000000
# 6 0.000000 0.000000 0.000000 0.002599 0.000000 0.051971
#
#
# Mechanical properties :
#
#
# Convention : Reuss Voigt Hill
#
# Bulk Modulus (GPa) = 34.38041 46.21165 40.29603
# Shear Modulus (GPa) = 18.13153 20.87910 19.50531
#
# Velocity S-wave (km/s) = 3.42665 3.67713 3.55410
# Velocity P-wave (km/s) = 6.15797 6.92495 6.55269
#
# Compressibility (1/GPa) = 0.02908633
#
# Stress axis : x y z
#
# Youngs Moduli (GPa) = 58.70992 84.64648 30.02763
#
# Poissons Ratio (x) = 0.30392 0.15761
# Poissons Ratio (y) = 0.21079 0.23098
# Poissons Ratio (z) = 0.30815 0.65113
#
# Static dielectric constant tensor:
#      x y z
#    x 1.532590 0.000000 -0.006760 
#    y 0.000000 1.524980 0.000000 
#    z -0.006760 0.000000 1.516390 
# 
# From -- ./inp_files/104112.got.cif
#   From: 2010.05.17/outbox.cif.g08.bks.cpg/sg12_53_cif.got.tgz:104112.got - 2010.06.03 13:09:07.
