data_PCOD9168377
_publ_section_title
;
Structure prediction by ZEFSAII (Michael W. Deem and Ramdas Pophale) SiO2 
 PCOD9168377
Probable space group: C 2/M
;
_chemical_formula_sum "Si O2"
_cell_formula_units_Z 52
_cell_length_a 16.904383
_cell_length_b 18.000479
_cell_length_c 9.156649
_cell_angle_alpha 90.000000
_cell_angle_beta 129.832711
_cell_angle_gamma 90.000000
_cell_volume 2139.610755
_symmetry_space_group_name_H-M "C 2/M"
_symmetry_group_IT_number 12
_symmetry_cell_setting 'monoclinic'
loop_
_space_group_symop_operation_xyz
x,y,z
-x,y,-z
-x,-y,-z
x,-y,z
1/2+x,1/2+y,z
1/2-x,1/2+y,-z
1/2-x,1/2-y,-z
1/2+x,1/2-y,z
loop_
_atom_site_type_symbol
_atom_site_label
_atom_site_fract_x
_atom_site_fract_y
_atom_site_fract_z
Si Si1 0.500000 0.300626 0.000000
Si Si2 0.789897 0.274618 0.706479
Si Si3 0.282146 0.127390 0.353126
Si Si4 0.053493 0.911017 0.801309
Si Si5 0.219846 0.416171 0.973936
Si Si6 0.000967 0.588468 0.325516
Si Si7 0.323588 0.414633 0.482900
O O1 0.407870 0.245898 0.850056
O O2 0.539893 0.355234 0.920382
O O3 0.750000 0.250000 0.500000
O O4 0.732859 0.210127 0.729863
O O5 0.751046 0.357018 0.686115
O O6 0.281845 0.079322 0.206862
O O7 0.386742 0.121611 0.572569
O O8 0.194624 0.101787 0.364457
O O9 0.943876 0.902678 0.589911
O O10 0.058948 0.000000 0.844656
O O11 0.162942 0.890870 0.857837
O O12 0.213332 0.500000 0.023889
O O13 0.106116 0.380654 0.867872
O O14 0.005432 0.500000 0.301327
O O15 0.000000 0.598481 0.500000
O O16 0.297954 0.500000 0.428539
#
# Coordination Sequence:
#
# PCOD9168377 Si02
#       7
#     4   8   8   8   8   8   8
#     4  12  17  30  45  64  94 118 148 182 223 266
#     4  10  20  30  43  66  90 120 147 183 223 263
#     4  10  15  24  41  60  88 118 140 176 218 263
#     4  10  17  25  43  67  91 116 139 176 223 270
#     4   9  15  23  37  64  93 116 142 170 214 272
#     4   8  14  22  34  57  90 121 143 166 207 267
#     4  10  19  31  44  64  90 116 151 183 219 263
#
# _framework density 24.303485999999999
#
# number of rings (size 3 to 8) (size 9 to 14) (size 15 to 20)
#    0.000    2.308    4.615    2.538    0.000    2.462 
#    0.000    0.385    0.000    0.923    0.000    0.000 
#    0.000    5.538    0.000    0.000    0.000    2.615 
#
# Total GULP energy -144943.264531 kJ/mol
# GULP energy per Si atom -5574.740944 kJ/mol
# Density = 2.424817 g / cm^3
# Si number density = 24.303486 Si / 1000 Ang^3
#
#
#
# Elastic Constant Matrix: (Units=GPa)
#
#
# Indices 1 2 3 4 5 6 
#
# 1 78.1855 15.0155 44.7636 0.0000 27.7196 0.0000
# 2 15.0155 112.2983 55.2769 0.0000 11.4111 0.0000
# 3 44.7636 55.2769 180.7037 0.0000 56.7688 0.0000
# 4 0.0000 0.0000 0.0000 30.3836 0.0000 12.2993
# 5 27.7196 11.4111 56.7688 0.0000 52.6144 0.0000
# 6 0.0000 0.0000 0.0000 12.2993 0.0000 8.4785
#
#
#
# Elastic Compliance Matrix: (Units=1/GPa)
#
#
# Indices 1 2 3 4 5 6 
#
# 1 0.016236 -0.000630 -0.001793 0.000000 -0.006483 0.000000
# 2 -0.000630 0.010621 -0.003742 0.000000 0.002066 0.000000
# 3 -0.001793 -0.003742 0.009940 0.000000 -0.008969 0.000000
# 4 0.000000 0.000000 0.000000 0.079735 0.000000 -0.115667
# 5 -0.006483 0.002066 -0.008969 0.000000 0.031651 0.000000
# 6 0.000000 0.000000 0.000000 -0.115667 0.000000 0.285738
#
#
# Mechanical properties :
#
#
# Convention : Reuss Voigt Hill
#
# Bulk Modulus (GPa) = 40.86842 66.81106 53.83974
# Shear Modulus (GPa) = 11.00338 35.37073 23.18705
#
# Velocity S-wave (km/s) = 2.13010 3.81908 3.09214
# Velocity P-wave (km/s) = 4.78562 6.85545 5.91182
#
# Compressibility (1/GPa) = 0.02446877
#
# Stress axis : x y z
#
# Youngs Moduli (GPa) = 61.59220 94.15279 100.60027
#
# Poissons Ratio (x) = 0.05929 0.18033
# Poissons Ratio (y) = 0.03879 0.37643
# Poissons Ratio (z) = 0.11041 0.35231
#
# Static dielectric constant tensor:
#      x y z
#    x 1.996120 0.000000 0.018410 
#    y 0.000000 2.030680 0.000000 
#    z 0.018410 0.000000 2.052700 
# 
# From -- ./inp_files/241671.got.cif
#   From: 2010.05.17/outbox.cif.g08.bks.cpg/sg12_121_cif.got.tgz:241671.got - 2010.06.03 13:09:07.
