data_PCOD9168896
_publ_section_title
;
Structure prediction by ZEFSAII (Michael W. Deem and Ramdas Pophale) SiO2 
 PCOD9168896
Probable space group: C 2/M
;
_chemical_formula_sum "Si O2"
_cell_formula_units_Z 56
_cell_length_a 5.405027
_cell_length_b 14.508164
_cell_length_c 32.836464
_cell_angle_alpha 90.000000
_cell_angle_beta 99.389675
_cell_angle_gamma 90.000000
_cell_volume 2540.437492
_symmetry_space_group_name_H-M "C 2/M"
_symmetry_group_IT_number 12
_symmetry_cell_setting 'monoclinic'
loop_
_space_group_symop_operation_xyz
x,y,z
-x,y,-z
-x,-y,-z
x,-y,z
1/2+x,1/2+y,z
1/2-x,1/2+y,-z
1/2-x,1/2-y,-z
1/2+x,1/2-y,z
loop_
_atom_site_type_symbol
_atom_site_label
_atom_site_fract_x
_atom_site_fract_y
_atom_site_fract_z
Si Si1 0.528494 0.112900 0.244941
Si Si2 0.267369 0.353814 0.517518
Si Si3 0.767350 0.856370 0.017517
Si Si4 0.177645 0.807321 0.889406
Si Si5 0.923657 0.612410 0.660492
Si Si6 0.876484 0.888098 0.613307
Si Si7 0.984287 0.889819 0.199691
O O1 0.546298 0.143662 0.292177
O O2 0.769446 0.142455 0.225262
O O3 0.264613 0.142581 0.218155
O O4 0.529854 0.000000 0.245192
O O5 0.500000 0.397351 0.500000
O O6 0.250000 0.250000 0.500000
O O7 0.317670 0.352742 0.566717
O O8 0.000000 0.397275 0.500000
O O9 0.813230 0.857094 0.066812
O O10 0.500000 0.897584 0.000000
O O11 0.750000 0.750000 0.000000
O O12 0.000000 0.897430 0.000000
O O13 0.456310 0.768014 0.889071
O O14 0.094999 0.864297 0.847933
O O15 0.925222 0.500000 0.661229
O O16 0.653681 0.639770 0.635350
O O17 0.157942 0.640141 0.638747
O O18 0.873603 0.000000 0.611309
O O19 0.990842 0.000000 0.203442
#
# Coordination Sequence:
#
# PCOD9168896 Si02
#       7
#     8   8   8   8   8   8   8
#     4   9  17  33  54  78 109 145 178 210 257 330
#     4  10  21  36  52  73  99 139 178 205 245 316
#     4  10  16  30  49  75 100 127 181 234 263 321
#     4  12  21  33  55  84 104 144 183 231 278 317
#     4   9  17  30  52  82 108 131 170 216 262 303
#     4  10  19  31  51  83 110 127 163 227 268 288
#     4  10  21  35  53  81 114 147 181 218 268 331
#
# _framework density 22.043445999999999
#
# number of rings (size 3 to 8) (size 9 to 14) (size 15 to 20)
#    0.000    2.000    2.857    2.571    0.000    4.000 
#    0.000    0.000    0.000    0.857   74.286    0.000 
#    0.000    0.000    0.000    0.000    0.000    0.000 
#
# Total GULP energy -156534.307676 kJ/mol
# GULP energy per Si atom -5590.510988 kJ/mol
# Density = 2.199327 g / cm^3
# Si number density = 22.043446 Si / 1000 Ang^3
#
#
#
# Elastic Constant Matrix: (Units=GPa)
#
#
# Indices 1 2 3 4 5 6 
#
# 1 147.0117 -2.1962 21.4051 0.0000 2.7758 0.0000
# 2 -2.1962 70.3898 0.5147 0.0000 -2.4004 0.0000
# 3 21.4051 0.5147 129.9295 0.0000 1.6243 0.0000
# 4 0.0000 0.0000 0.0000 20.4064 0.0000 3.1936
# 5 2.7758 -2.4004 1.6243 0.0000 48.5956 0.0000
# 6 0.0000 0.0000 0.0000 3.1936 0.0000 -20.2039
#
#
#
# Elastic Compliance Matrix: (Units=1/GPa)
#
#
# Indices 1 2 3 4 5 6 
#
# 1 0.006979 0.000214 -0.001146 0.000000 -0.000350 0.000000
# 2 0.000214 0.014238 -0.000100 0.000000 0.000694 0.000000
# 3 -0.001146 -0.000100 0.007888 0.000000 -0.000203 0.000000
# 4 0.000000 0.000000 0.000000 0.047821 0.000000 0.007559
# 5 -0.000350 0.000694 -0.000203 0.000000 0.020639 0.000000
# 6 0.000000 0.000000 0.000000 0.007559 0.000000 -0.048301
#
#
# Mechanical properties :
#
#
# Convention : Reuss Voigt Hill
#
# Bulk Modulus (GPa) = 36.98213 42.97535 39.97874
# Shear Modulus (GPa) = 82.86025 31.60013 57.23019
#
# Velocity S-wave (km/s) = 6.13768 3.79032 5.10086
# Velocity P-wave (km/s) = 8.18789 6.22040 7.27100
#
# Compressibility (1/GPa) = 0.02704008
#
# Stress axis : x y z
#
# Youngs Moduli (GPa) = 143.28959 70.23601 126.77087
#
# Poissons Ratio (x) = -0.01504 0.14531
# Poissons Ratio (y) = -0.03069 0.01272
# Poissons Ratio (z) = 0.16424 0.00705
#
# Static dielectric constant tensor:
#      x y z
#    x 1.780170 0.000000 0.006550 
#    y 0.000000 1.794160 0.000000 
#    z 0.006550 0.000000 1.760440 
# 
# From -- ./inp_files/354960.got.cif
#   From: 2010.05.17/outbox.cif.g08.bks.cpg/sg12_178_cif.got.tgz:354960.got - 2010.06.03 13:09:07.
