data_PCOD9168775
_publ_section_title
;
Structure prediction by ZEFSAII (Michael W. Deem and Ramdas Pophale) SiO2 
 PCOD9168775
Probable space group: C 2/M
;
_chemical_formula_sum "Si O2"
_cell_formula_units_Z 44
_cell_length_a 9.404888
_cell_length_b 23.209166
_cell_length_c 10.154718
_cell_angle_alpha 90.000000
_cell_angle_beta 62.693932
_cell_angle_gamma 90.000000
_cell_volume 1969.572712
_symmetry_space_group_name_H-M "C 2/M"
_symmetry_group_IT_number 12
_symmetry_cell_setting 'monoclinic'
loop_
_space_group_symop_operation_xyz
x,y,z
-x,y,-z
-x,-y,-z
x,-y,z
1/2+x,1/2+y,z
1/2-x,1/2+y,-z
1/2-x,1/2-y,-z
1/2+x,1/2-y,z
loop_
_atom_site_type_symbol
_atom_site_label
_atom_site_fract_x
_atom_site_fract_y
_atom_site_fract_z
Si Si1 0.500000 0.200991 0.500000
Si Si2 0.453084 0.628031 0.332190
Si Si3 0.984848 0.636571 0.227240
Si Si4 0.680707 0.656149 0.878907
Si Si5 0.203827 0.064728 0.361166
Si Si6 0.217835 0.776578 0.253326
O O1 0.489432 0.162542 0.373927
O O2 0.651721 0.243133 0.410868
O O3 0.331760 0.630331 0.263345
O O4 0.590138 0.578863 0.285337
O O5 0.351612 0.612655 0.506678
O O6 0.561383 0.686202 0.278641
O O7 0.168872 0.630113 0.107618
O O8 0.887703 0.577785 0.258971
O O9 0.869789 0.682369 0.204114
O O10 0.725783 0.723720 0.860052
O O11 0.500000 0.647709 0.000000
O O12 0.179066 0.000000 0.418558
#
# Coordination Sequence:
#
# PCOD9168775 Si02
#       6
#     4   8   8   8   8   8
#     4  10  16  28  49  80 117 140 166 220 288 332
#     4  10  20  35  56  85 113 143 178 220 274 329
#     4  10  20  32  52  82 109 142 185 228 269 321
#     4  11  23  37  52  78 118 156 185 217 262 317
#     4  10  20  39  64  84 105 135 180 235 289 335
#     4  10  19  31  52  79 113 150 182 215 258 327
#
# _framework density 22.339872
#
# number of rings (size 3 to 8) (size 9 to 14) (size 15 to 20)
#    0.000    1.818    0.000    8.182    0.000    2.909 
#    0.000    7.727    0.000    6.000    0.000    0.000 
#    0.000    0.000    0.000    0.000    0.000    0.000 
#
# Total GULP energy -122642.023869 kJ/mol
# GULP energy per Si atom -5574.637449 kJ/mol
# Density = 2.228903 g / cm^3
# Si number density = 22.339872 Si / 1000 Ang^3
#
#
#
# Elastic Constant Matrix: (Units=GPa)
#
#
# Indices 1 2 3 4 5 6 
#
# 1 141.8424 32.1791 29.0877 0.0000 -43.1106 0.0000
# 2 32.1791 64.1603 9.0130 0.0000 -10.8616 0.0000
# 3 29.0877 9.0130 35.8613 0.0000 -26.5261 0.0000
# 4 0.0000 0.0000 0.0000 3.2654 0.0000 -0.1873
# 5 -43.1106 -10.8616 -26.5261 0.0000 50.8916 0.0000
# 6 0.0000 0.0000 0.0000 -0.1873 0.0000 10.2733
#
#
#
# Elastic Compliance Matrix: (Units=1/GPa)
#
#
# Indices 1 2 3 4 5 6 
#
# 1 0.010475 -0.003753 -0.002575 0.000000 0.006730 0.000000
# 2 -0.003753 0.017649 -0.001558 0.000000 -0.000224 0.000000
# 3 -0.002575 -0.001558 0.046392 0.000000 0.021667 0.000000
# 4 0.000000 0.000000 0.000000 0.306560 0.000000 0.005588
# 5 0.006730 -0.000224 0.021667 0.000000 0.036597 0.000000
# 6 0.000000 0.000000 0.000000 0.005588 0.000000 0.097441
#
#
# Mechanical properties :
#
#
# Convention : Reuss Voigt Hill
#
# Bulk Modulus (GPa) = 17.02243 42.49151 29.75697
# Shear Modulus (GPa) = 9.08321 24.32502 16.70411
#
# Velocity S-wave (km/s) = 2.01860 3.30337 2.73743
# Velocity P-wave (km/s) = 3.61515 5.79754 4.83119
#
# Compressibility (1/GPa) = 0.05874601
#
# Stress axis : x y z
#
# Youngs Moduli (GPa) = 95.46484 56.66063 21.55536
#
# Poissons Ratio (x) = 0.21262 0.05550
# Poissons Ratio (y) = 0.35824 0.03357
# Poissons Ratio (z) = 0.24582 0.08825
#
# Static dielectric constant tensor:
#      x y z
#    x 1.865360 0.000000 -0.018720 
#    y 0.000000 1.821980 0.000000 
#    z -0.018720 0.000000 1.986040 
# 
# From -- ./inp_files/122333.got.cif
#   From: 2010.05.17/outbox.cif.g08.bks.cpg/sg12_62_cif.got.tgz:122333.got - 2010.06.03 13:09:07.
