data_PCOD9168134
_publ_section_title
;
Structure prediction by ZEFSAII (Michael W. Deem and Ramdas Pophale) SiO2 
 PCOD9168134
Probable space group: P 21/M
;
_chemical_formula_sum "Si O2"
_cell_formula_units_Z 28
_cell_length_a 30.000000
_cell_length_b 9.000000
_cell_length_c 30.000000
_cell_angle_alpha 90.000000
_cell_angle_beta 10.000000
_cell_angle_gamma 90.000000
_cell_volume 1406.550239
_symmetry_space_group_name_H-M "P 21/M"
_symmetry_group_IT_number 11
_symmetry_cell_setting 'monoclinic'
loop_
_space_group_symop_operation_xyz
x,y,z
-x,1/2+y,-z
-x,-y,-z
x,1/2-y,z
loop_
_atom_site_type_symbol
_atom_site_label
_atom_site_fract_x
_atom_site_fract_y
_atom_site_fract_z
Si Si1 0.144192 0.922152 0.241097
Si Si2 0.760596 0.573593 0.760997
Si Si3 0.540575 0.572910 0.412369
Si Si4 0.294974 0.573082 0.468888
Si Si5 0.182670 0.928354 0.012609
Si Si6 0.014006 0.928838 0.884119
Si Si7 0.613336 0.922302 0.713399
O O1 0.175751 0.750000 0.225222
O O2 0.854434 0.939395 0.509092
O O3 0.206659 0.032175 0.219518
O O4 0.347257 0.944961 0.001334
O O5 0.756483 0.750000 0.758024
O O6 0.000000 0.500000 0.500000
O O7 0.500000 0.500000 0.000000
O O8 0.500000 0.500000 0.500000
O O9 0.529947 0.750000 0.428411
O O10 0.302271 0.532607 0.615014
O O11 0.812335 0.536899 0.122140
O O12 0.283614 0.750000 0.487942
O O13 0.536536 0.500315 0.256880
O O14 0.350551 0.533369 0.362884
O O15 0.026642 0.496555 0.747063
O O16 0.195681 0.750000 0.003987
O O17 0.075433 0.979917 0.070492
O O18 0.001323 0.750000 0.887669
O O19 0.617648 0.750000 0.692777
#
# Coordination Sequence:
#
# PCOD9168134 Si02
#       7
#     4   4   4   4   4   4   4
#     4  10  21  38  61  89 123 161 201 250 309 363
#     4  12  25  42  65  93 127 165 209 258 309 368
#     4  10  21  36  57  83 115 153 195 244 297 356
#     4  12  25  42  65  93 127 165 205 254 309 368
#     4  12  25  42  65  93 124 162 209 258 307 366
#     4  10  21  38  58  84 117 155 197 246 303 357
#     4  10  21  38  61  89 123 161 201 250 305 364
#
# _framework density 19.906860999999999
#
# number of rings (size 3 to 8) (size 9 to 14) (size 15 to 20)
#    0.000    1.143    0.000    6.857    0.000    5.714 
#    0.000    0.000    0.000    0.000    0.000    0.000 
#    0.000    0.000    0.000    0.000    0.000    0.000 
#
# Total GULP energy -156683.677038 kJ/mol
# GULP energy per Si atom -5595.845608 kJ/mol
# Density = 1.986155 g / cm^3
# Si number density = 19.906861 Si / 1000 Ang^3
#
#
#
# Elastic Constant Matrix: (Units=GPa)
#
#
# Indices 1 2 3 4 5 6 
#
# 1 43.7380 21.4162 -18.2653 0.0000 0.2734 0.0000
# 2 21.4162 108.7032 10.4147 0.0000 2.1696 0.0000
# 3 -18.2653 10.4147 67.1203 0.0000 -0.6230 0.0000
# 4 0.0000 0.0000 0.0000 22.0160 0.0000 3.1086
# 5 0.2734 2.1696 -0.6230 0.0000 31.5431 0.0000
# 6 0.0000 0.0000 0.0000 3.1086 0.0000 42.3833
#
#
#
# Elastic Compliance Matrix: (Units=1/GPa)
#
#
# Indices 1 2 3 4 5 6 
#
# 1 0.030057 -0.006815 0.009240 0.000000 0.000391 0.000000
# 2 -0.006815 0.010897 -0.003552 0.000000 -0.000761 0.000000
# 3 0.009240 -0.003552 0.017969 0.000000 0.000519 0.000000
# 4 0.000000 0.000000 0.000000 0.045897 0.000000 -0.003366
# 5 0.000391 -0.000761 0.000519 0.000000 0.031762 0.000000
# 6 0.000000 0.000000 0.000000 -0.003366 0.000000 0.023841
#
#
# Mechanical properties :
#
#
# Convention : Reuss Voigt Hill
#
# Bulk Modulus (GPa) = 17.64615 27.41027 22.52821
# Shear Modulus (GPa) = 27.53811 32.92154 30.22983
#
# Velocity S-wave (km/s) = 3.72337 4.07108 3.90110
# Velocity P-wave (km/s) = 5.23147 5.99144 5.62431
#
# Compressibility (1/GPa) = 0.05666959
#
# Stress axis : x y z
#
# Youngs Moduli (GPa) = 33.27058 91.76419 55.65074
#
# Poissons Ratio (x) = 0.62535 -0.51423
# Poissons Ratio (y) = 0.22673 0.19770
# Poissons Ratio (z) = -0.30743 0.32599
#
# Static dielectric constant tensor:
#      x y z
#    x 1.702830 0.000000 0.006570 
#    y 0.000000 1.670410 0.000000 
#    z 0.006570 0.000000 1.682490 
# 
# From -- ./inp_files/73851.got.cif
#   From: 2010.05.17/outbox.ucp.g08.bks.cvg/sg11_37_cif.got.tgz:73851.got - 2010.06.11 11:38:39.
