data_PCOD9168748
_publ_section_title
;
Structure prediction by ZEFSAII (Michael W. Deem and Ramdas Pophale) SiO2 
 PCOD9168748
Probable space group: C 2/M
;
_chemical_formula_sum "Si O2"
_cell_formula_units_Z 48
_cell_length_a 14.371095
_cell_length_b 22.564793
_cell_length_c 15.540892
_cell_angle_alpha 90.000000
_cell_angle_beta 141.680533
_cell_angle_gamma 90.000000
_cell_volume 3124.789815
_symmetry_space_group_name_H-M "C 2/M"
_symmetry_group_IT_number 12
_symmetry_cell_setting 'monoclinic'
loop_
_space_group_symop_operation_xyz
x,y,z
-x,y,-z
-x,-y,-z
x,-y,z
1/2+x,1/2+y,z
1/2-x,1/2+y,-z
1/2-x,1/2-y,-z
1/2+x,1/2-y,z
loop_
_atom_site_type_symbol
_atom_site_label
_atom_site_fract_x
_atom_site_fract_y
_atom_site_fract_z
Si Si1 0.250429 0.873341 0.691415
Si Si2 0.306150 0.000000 0.942837
Si Si3 0.163749 0.876015 0.823343
Si Si4 0.940749 0.787806 0.719012
Si Si5 0.646905 0.000000 0.231270
Si Si6 0.044423 0.702426 0.939584
Si Si7 0.881371 0.243124 0.486837
O O1 0.160284 0.876449 0.716356
O O2 0.276077 0.940171 0.678300
O O3 0.416772 0.847934 0.832941
O O4 0.176142 0.823793 0.577146
O O5 0.215664 0.060054 0.893532
O O6 0.333030 0.000000 0.858480
O O7 0.466151 0.000000 0.107497
O O8 0.013236 0.851612 0.756650
O O9 0.295507 0.828978 0.940179
O O10 0.949831 0.757070 0.631651
O O11 0.766674 0.783796 0.619462
O O12 0.029568 0.750046 0.853965
O O13 0.000000 0.729340 0.000000
O O14 0.000000 0.259519 0.500000
#
# Coordination Sequence:
#
# PCOD9168748 Si02
#       7
#     8   4   8   8   4   8   8
#     4   9  16  27  46  66  97 132 154 183 219 284
#     4   9  16  24  45  68  99 125 147 182 231 291
#     4  10  16  28  44  72  98 120 153 191 233 282
#     4  10  20  30  48  67  93 129 160 197 232 277
#     4   9  14  26  42  69  94 132 158 163 224 297
#     4   9  17  28  46  70  99 124 152 190 239 278
#     4  10  19  34  46  63  95 134 165 191 232 266
#
# _framework density 15.361033000000001
#
# number of rings (size 3 to 8) (size 9 to 14) (size 15 to 20)
#    0.000    2.500    3.333    0.500    0.000    0.000 
#    0.000    1.250    0.000    0.000    0.000    1.167 
#    0.000    0.000    0.000    0.333    0.000    0.000 
#
# Total GULP energy -133699.523692 kJ/mol
# GULP energy per Si atom -5570.813487 kJ/mol
# Density = 1.532607 g / cm^3
# Si number density = 15.361033 Si / 1000 Ang^3
#
#
#
# Elastic Constant Matrix: (Units=GPa)
#
#
# Indices 1 2 3 4 5 6 
#
# 1 90.9302 47.2080 27.9280 0.0000 8.0792 0.0000
# 2 47.2080 88.4057 24.3772 0.0000 6.7549 0.0000
# 3 27.9280 24.3772 50.4090 0.0000 -6.5437 0.0000
# 4 0.0000 0.0000 0.0000 12.1580 0.0000 4.0345
# 5 8.0792 6.7549 -6.5437 0.0000 22.3748 0.0000
# 6 0.0000 0.0000 0.0000 4.0345 0.0000 21.9800
#
#
#
# Elastic Compliance Matrix: (Units=1/GPa)
#
#
# Indices 1 2 3 4 5 6 
#
# 1 0.017250 -0.006778 -0.007092 0.000000 -0.006257 0.000000
# 2 -0.006778 0.016543 -0.004756 0.000000 -0.003938 0.000000
# 3 -0.007092 -0.004756 0.027635 0.000000 0.012078 0.000000
# 4 0.000000 0.000000 0.000000 0.087585 0.000000 -0.016077
# 5 -0.006257 -0.003938 0.012078 0.000000 0.051674 0.000000
# 6 0.000000 0.000000 0.000000 -0.016077 0.000000 0.048447
#
#
# Mechanical properties :
#
#
# Convention : Reuss Voigt Hill
#
# Bulk Modulus (GPa) = 41.36200 47.64125 44.50162
# Shear Modulus (GPa) = 16.98114 19.98466 18.48290
#
# Velocity S-wave (km/s) = 3.32847 3.61085 3.47253
# Velocity P-wave (km/s) = 6.46193 6.96175 6.71649
#
# Compressibility (1/GPa) = 0.02417678
#
# Stress axis : x y z
#
# Youngs Moduli (GPa) = 57.96971 60.44760 36.18658
#
# Poissons Ratio (x) = 0.40972 0.25662
# Poissons Ratio (y) = 0.39292 0.17211
# Poissons Ratio (z) = 0.41110 0.28749
#
# Static dielectric constant tensor:
#      x y z
#    x 1.508860 0.000000 0.017310 
#    y 0.000000 1.504820 0.000000 
#    z 0.017310 0.000000 1.546170 
# 
# From -- ./inp_files/64742.got.cif
#   From: 2010.05.17/outbox.cif.g08.bks.cpg/sg12_33_cif.got.tgz:64742.got - 2010.06.03 13:09:07.
