data_PCOD9168125
_publ_section_title
;
Structure prediction by ZEFSAII (Michael W. Deem and Ramdas Pophale) SiO2 
 PCOD9168125
Probable space group: P 21/M
;
_chemical_formula_sum "Si O2"
_cell_formula_units_Z 32
_cell_length_a 12.000000
_cell_length_b 9.000000
_cell_length_c 30.000000
_cell_angle_alpha 90.000000
_cell_angle_beta 150.000000
_cell_angle_gamma 90.000000
_cell_volume 1620.000000
_symmetry_space_group_name_H-M "P 21/M"
_symmetry_group_IT_number 11
_symmetry_cell_setting 'monoclinic'
loop_
_space_group_symop_operation_xyz
x,y,z
-x,1/2+y,-z
-x,-y,-z
x,1/2-y,z
loop_
_atom_site_type_symbol
_atom_site_label
_atom_site_fract_x
_atom_site_fract_y
_atom_site_fract_z
Si Si1 0.434849 0.427002 0.355420
Si Si2 0.635783 0.078036 0.277595
Si Si3 0.308378 0.078393 0.882989
Si Si4 0.188844 0.582011 0.756366
Si Si5 0.306764 0.076643 0.406351
Si Si6 0.043181 0.926489 0.467193
Si Si7 0.263658 0.926262 0.205638
Si Si8 0.173877 0.924721 0.921940
O O1 0.400566 0.250000 0.335520
O O2 0.303203 0.475994 0.353923
O O3 0.698247 0.450747 0.455485
O O4 0.360081 0.515189 0.286125
O O5 0.636132 0.250000 0.292701
O O6 0.648651 0.074100 0.228936
O O7 0.423588 0.996097 0.224012
O O8 0.860473 0.999867 0.372340
O O9 0.278342 0.250000 0.885261
O O10 0.236132 0.042053 0.808582
O O11 0.173091 0.976855 0.870391
O O12 0.571906 0.043564 0.976255
O O13 0.204396 0.750000 0.781321
O O14 0.932111 0.562400 0.653538
O O15 0.362040 0.250000 0.422674
O O16 0.500000 0.000000 0.500000
O O17 0.006438 0.750000 0.456630
O O18 0.000000 0.000000 0.500000
O O19 0.269933 0.750000 0.206175
O O20 0.012178 0.986123 0.115962
O O21 0.131070 0.750000 0.910773
#
# Coordination Sequence:
#
# PCOD9168125 Si02
#       8
#     4   4   4   4   4   4   4   4
#     4  10  21  36  56  81 114 151 188 236 297 352
#     4  11  23  39  57  80 115 158 201 245 295 351
#     4  10  21  38  64  95 120 150 191 234 284 345
#     4  10  22  39  60  84 116 159 198 237 292 351
#     4  10  21  37  56  82 113 149 189 233 284 337
#     4  11  21  34  54  80 111 153 198 243 291 344
#     4  12  24  37  58  87 114 147 194 244 294 347
#     4  10  21  39  63  90 123 153 183 233 292 348
#
# _framework density 19.753086
#
# number of rings (size 3 to 8) (size 9 to 14) (size 15 to 20)
#    0.000    1.500    1.250    4.125    0.000    5.000 
#    0.000    0.625    0.000    0.000    0.000    0.000 
#    0.000    0.000    0.000    0.000    0.000    0.000 
#
# Total GULP energy -178745.510353 kJ/mol
# GULP energy per Si atom -5585.797199 kJ/mol
# Density = 1.970813 g / cm^3
# Si number density = 19.753086 Si / 1000 Ang^3
#
#
#
# Elastic Constant Matrix: (Units=GPa)
#
#
# Indices 1 2 3 4 5 6 
#
# 1 92.4299 39.8431 8.4693 0.0000 20.6485 0.0000
# 2 39.8431 71.0851 28.3687 0.0000 21.0441 0.0000
# 3 8.4693 28.3687 33.0513 0.0000 9.2566 0.0000
# 4 0.0000 0.0000 0.0000 30.8527 0.0000 2.5853
# 5 20.6485 21.0441 9.2566 0.0000 22.7129 0.0000
# 6 0.0000 0.0000 0.0000 2.5853 0.0000 19.6526
#
#
#
# Elastic Compliance Matrix: (Units=1/GPa)
#
#
# Indices 1 2 3 4 5 6 
#
# 1 0.016008 -0.008662 0.005826 0.000000 -0.008901 0.000000
# 2 -0.008662 0.030860 -0.020845 0.000000 -0.012222 0.000000
# 3 0.005826 -0.020845 0.048235 0.000000 -0.005641 0.000000
# 4 0.000000 0.000000 0.000000 0.032773 0.000000 -0.004311
# 5 -0.008901 -0.012222 -0.005641 0.000000 0.065743 0.000000
# 6 0.000000 0.000000 0.000000 -0.004311 0.000000 0.051451
#
#
# Mechanical properties :
#
#
# Convention : Reuss Voigt Hill
#
# Bulk Modulus (GPa) = 20.94686 38.88093 29.91390
# Shear Modulus (GPa) = 16.21556 22.63600 19.42578
#
# Velocity S-wave (km/s) = 2.86827 3.38886 3.13937
# Velocity P-wave (km/s) = 4.64722 5.91935 5.32143
#
# Compressibility (1/GPa) = 0.04773984
#
# Stress axis : x y z
#
# Youngs Moduli (GPa) = 62.47032 32.40440 20.73193
#
# Poissons Ratio (x) = 0.28069 -0.12078
# Poissons Ratio (y) = 0.54112 0.43216
# Poissons Ratio (z) = -0.36395 0.67547
#
# Static dielectric constant tensor:
#      x y z
#    x 1.697340 0.000000 -0.013960 
#    y 0.000000 1.666430 0.000000 
#    z -0.013960 0.000000 1.712490 
# 
# From -- ./inp_files/73140.got.cif
#   From: 2010.05.17/outbox.ucp.g08.bks.cvg/sg11_37_cif.got.tgz:73140.got - 2010.06.11 11:38:39.
