data_PCOD9168469
_publ_section_title
;
Structure prediction by ZEFSAII (Michael W. Deem and Ramdas Pophale) SiO2 
 PCOD9168469
Probable space group: C 2/M
;
_chemical_formula_sum "Si O2"
_cell_formula_units_Z 32
_cell_length_a 18.090790
_cell_length_b 13.502674
_cell_length_c 10.041355
_cell_angle_alpha 90.000000
_cell_angle_beta 142.775917
_cell_angle_gamma 90.000000
_cell_volume 1483.807403
_symmetry_space_group_name_H-M "C 2/M"
_symmetry_group_IT_number 12
_symmetry_cell_setting 'monoclinic'
loop_
_space_group_symop_operation_xyz
x,y,z
-x,y,-z
-x,-y,-z
x,-y,z
1/2+x,1/2+y,z
1/2-x,1/2+y,-z
1/2-x,1/2-y,-z
1/2+x,1/2-y,z
loop_
_atom_site_type_symbol
_atom_site_label
_atom_site_fract_x
_atom_site_fract_y
_atom_site_fract_z
Si Si1 0.672461 0.834433 0.469105
Si Si2 0.544444 0.338566 0.414127
Si Si3 0.175954 0.605344 0.193040
Si Si4 0.608876 0.670499 0.049111
O O1 0.750000 0.750000 0.500000
O O2 0.573758 0.775043 0.412601
O O3 0.627384 0.893892 0.276715
O O4 0.771667 0.878063 0.712969
O O5 0.500000 0.346958 0.500000
O O6 0.675524 0.391110 0.587024
O O7 0.442823 0.371846 0.162174
O O8 0.142125 0.500000 0.080820
O O9 0.139645 0.711449 0.078576
O O10 0.500000 0.663202 0.000000
#
# Coordination Sequence:
#
# PCOD9168469 Si02
#       4
#     8   8   8   8
#     4   8  16  30  49  73 100 129 172 205 236 301
#     4  10  19  33  54  77 103 135 172 211 250 300
#     4  10  20  32  52  82 106 126 169 219 255 297
#     4  10  15  33  57  75  95 138 180 202 242 306
#
# _framework density 21.566141999999999
#
# number of rings (size 3 to 8) (size 9 to 14) (size 15 to 20)
#    0.000    3.000    7.500    0.000    0.000    5.000 
#    0.000    2.500    0.000    6.000    0.000    0.000 
#    0.000    0.000    0.000    0.000    0.000    0.000 
#
# Total GULP energy -89075.376880 kJ/mol
# GULP energy per Si atom -5567.211055 kJ/mol
# Density = 2.151706 g / cm^3
# Si number density = 21.566142 Si / 1000 Ang^3
#
#
#
# Elastic Constant Matrix: (Units=GPa)
#
#
# Indices 1 2 3 4 5 6 
#
# 1 68.0694 4.1556 26.2189 0.0000 -23.3008 0.0000
# 2 4.1556 71.2508 -11.2452 0.0000 -4.3972 0.0000
# 3 26.2189 -11.2452 123.7349 0.0000 -10.9849 0.0000
# 4 0.0000 0.0000 0.0000 3.6750 0.0000 1.2588
# 5 -23.3008 -4.3972 -10.9849 0.0000 32.1895 0.0000
# 6 0.0000 0.0000 0.0000 1.2588 0.0000 0.7708
#
#
#
# Elastic Compliance Matrix: (Units=1/GPa)
#
#
# Indices 1 2 3 4 5 6 
#
# 1 0.020704 -0.000870 -0.003245 0.000000 0.013761 0.000000
# 2 -0.000870 0.014467 0.001669 0.000000 0.001916 0.000000
# 3 -0.003245 0.001669 0.009006 0.000000 0.000953 0.000000
# 4 0.000000 0.000000 0.000000 0.617558 0.000000 -1.008512
# 5 0.013761 0.001916 0.000953 0.000000 0.041614 0.000000
# 6 0.000000 0.000000 0.000000 -1.008512 0.000000 2.944291
#
#
# Mechanical properties :
#
#
# Convention : Reuss Voigt Hill
#
# Bulk Modulus (GPa) = 25.45433 33.47930 29.46681
# Shear Modulus (GPa) = 1.36402 23.58876 12.47639
#
# Velocity S-wave (km/s) = 0.79615 3.31083 2.40785
# Velocity P-wave (km/s) = 3.56001 5.49301 4.62855
#
# Compressibility (1/GPa) = 0.03928605
#
# Stress axis : x y z
#
# Youngs Moduli (GPa) = 48.29917 69.12088 111.04210
#
# Poissons Ratio (x) = 0.06016 0.36028
# Poissons Ratio (y) = 0.04204 -0.18537
# Poissons Ratio (z) = 0.15671 -0.11539
#
# Static dielectric constant tensor:
#      x y z
#    x 1.738940 0.000000 0.032740 
#    y 0.000000 1.884250 0.000000 
#    z 0.032740 0.000000 1.911190 
# 
# From -- ./inp_files/46018.got.cif
#   From: 2010.05.17/outbox.cif.g08.bks.cpg/sg12_24_cif.got.tgz:46018.got - 2010.06.03 13:09:07.
