data_PCOD9168199
_publ_section_title
;
Structure prediction by ZEFSAII (Michael W. Deem and Ramdas Pophale) SiO2 
 PCOD9168199
Probable space group: P 21/M
;
_chemical_formula_sum "Si O2"
_cell_formula_units_Z 28
_cell_length_a 15.000000
_cell_length_b 9.000000
_cell_length_c 12.000000
_cell_angle_alpha 90.000000
_cell_angle_beta 120.000000
_cell_angle_gamma 90.000000
_cell_volume 1402.961154
_symmetry_space_group_name_H-M "P 21/M"
_symmetry_group_IT_number 11
_symmetry_cell_setting 'monoclinic'
loop_
_space_group_symop_operation_xyz
x,y,z
-x,1/2+y,-z
-x,-y,-z
x,1/2-y,z
loop_
_atom_site_type_symbol
_atom_site_label
_atom_site_fract_x
_atom_site_fract_y
_atom_site_fract_z
Si Si1 0.112372 0.571702 0.581339
Si Si2 0.219992 0.926108 0.878221
Si Si3 0.334416 0.082391 0.401120
Si Si4 0.481035 0.579207 0.653803
Si Si5 0.434924 0.074202 0.054338
Si Si6 0.145340 0.576365 0.353983
Si Si7 0.978203 0.076135 0.103783
O O1 0.100325 0.750000 0.583281
O O2 0.173132 0.522460 0.729745
O O3 0.167019 0.539978 0.497140
O O4 0.000000 0.500000 0.500000
O O5 0.241431 0.750000 0.880025
O O6 0.136346 0.946251 0.922616
O O7 0.321317 0.010529 0.976291
O O8 0.294905 0.250000 0.387470
O O9 0.411826 0.074726 0.346454
O O10 0.403603 0.033803 0.548691
O O11 0.241462 0.968769 0.338767
O O12 0.441365 0.750000 0.620263
O O13 0.507288 0.541310 0.795013
O O14 0.431516 0.250000 0.040055
O O15 0.500000 0.000000 0.000000
O O16 0.123390 0.750000 0.333113
O O17 0.049969 0.487104 0.246107
O O18 0.997701 0.250000 0.103857
O O19 0.000000 0.000000 0.000000
#
# Coordination Sequence:
#
# PCOD9168199 Si02
#       7
#     4   4   4   4   4   4   4
#     4  10  21  39  62  87 120 157 198 248 298 353
#     4  10  23  43  64  90 123 163 205 253 309 364
#     4  10  21  38  63  92 119 155 200 251 305 363
#     4   9  21  42  62  85 119 157 199 251 307 362
#     4  11  25  43  64  90 122 162 207 255 308 366
#     4  11  23  38  61  93 125 161 201 249 307 363
#     4  11  24  42  64  92 128 166 208 255 305 368
#
# _framework density 19.957787
#
# number of rings (size 3 to 8) (size 9 to 14) (size 15 to 20)
#    0.000    1.714    1.429    1.714    4.000    4.000 
#    0.000    0.000    0.000    0.000    0.000    0.000 
#    0.000    0.000    0.000    0.000    0.000    0.000 
#
# Total GULP energy -156358.407282 kJ/mol
# GULP energy per Si atom -5584.228831 kJ/mol
# Density = 1.991236 g / cm^3
# Si number density = 19.957787 Si / 1000 Ang^3
#
#
#
# Elastic Constant Matrix: (Units=GPa)
#
#
# Indices 1 2 3 4 5 6 
#
# 1 -13.4190 33.8962 7.6360 0.0000 -20.2203 0.0000
# 2 33.8962 -23.3118 19.1370 0.0000 -40.9757 0.0000
# 3 7.6360 19.1370 -18.1344 0.0000 -60.8360 0.0000
# 4 0.0000 0.0000 0.0000 27.6310 0.0000 8.5653
# 5 -20.2203 -40.9757 -60.8360 0.0000 4.3069 0.0000
# 6 0.0000 0.0000 0.0000 8.5653 0.0000 24.0484
#
#
#
# Elastic Compliance Matrix: (Units=1/GPa)
#
#
# Indices 1 2 3 4 5 6 
#
# 1 -0.071519 -0.023952 0.037934 0.000000 -0.027819 0.000000
# 2 -0.023952 -0.025816 0.024054 0.000000 -0.018297 0.000000
# 3 0.037934 0.024054 -0.028499 0.000000 0.004386 0.000000
# 4 0.000000 0.000000 0.000000 0.040683 0.000000 -0.014490
# 5 -0.027819 -0.018297 0.004386 0.000000 -0.010555 0.000000
# 6 0.000000 0.000000 0.000000 -0.014490 0.000000 0.046744
#
#
# Mechanical properties :
#
#
# Convention : Reuss Voigt Hill
#
# Bulk Modulus (GPa) = -20.09568 7.38590 -6.35489
# Shear Modulus (GPa) = -35.30548 3.49497 -15.90526
#
# Velocity S-wave (km/s) = -4.21052 1.32476 -2.82608
# Velocity P-wave (km/s) = 5.80766 2.45942 3.72023
#
# Compressibility (1/GPa) = -0.04976193
#
# Stress axis : x y z
#
# Youngs Moduli (GPa) = -13.98233 -38.73574 -35.08881
#
# Poissons Ratio (x) = -0.92780 1.33107
# Poissons Ratio (y) = -0.33490 0.84402
# Poissons Ratio (z) = 0.53041 0.93174
#
# Static dielectric constant tensor:
#      x y z
#    x 1.700310 0.000000 -0.014260 
#    y 0.000000 1.677380 0.000000 
#    z -0.014260 0.000000 1.673780 
# 
# From -- ./inp_files/38429.got.cif
#   From: 2010.05.17/outbox.ucp.g08.bks.cvg/sg11_20_cif.got.tgz:38429.got - 2010.06.11 11:38:39.
