data_PCOD9168243
_publ_section_title
;
Structure prediction by ZEFSAII (Michael W. Deem and Ramdas Pophale) SiO2 
 PCOD9168243
Probable space group: P 21/M
;
_chemical_formula_sum "Si O2"
_cell_formula_units_Z 28
_cell_length_a 9.000000
_cell_length_b 15.000000
_cell_length_c 15.000000
_cell_angle_alpha 90.000000
_cell_angle_beta 130.000000
_cell_angle_gamma 90.000000
_cell_volume 1551.239997
_symmetry_space_group_name_H-M "P 21/M"
_symmetry_group_IT_number 11
_symmetry_cell_setting 'monoclinic'
loop_
_space_group_symop_operation_xyz
x,y,z
-x,1/2+y,-z
-x,-y,-z
x,1/2-y,z
loop_
_atom_site_type_symbol
_atom_site_label
_atom_site_fract_x
_atom_site_fract_y
_atom_site_fract_z
Si Si1 0.873644 0.352932 0.731653
Si Si2 0.799736 0.451374 0.893410
Si Si3 0.721799 0.105981 0.053385
Si Si4 0.288322 0.997782 0.467706
Si Si5 0.704540 0.589231 0.135151
Si Si6 0.634290 0.017781 0.287614
Si Si7 0.055095 0.646437 0.686073
O O1 0.803657 0.250000 0.703530
O O2 0.819101 0.402150 0.804699
O O3 0.803675 0.412363 0.619739
O O4 0.105966 0.354797 0.811889
O O5 0.603425 0.513756 0.812251
O O6 0.770726 0.386775 0.967844
O O7 0.000000 0.500000 0.000000
O O8 0.865838 0.147393 0.181302
O O9 0.723715 0.001432 0.083773
O O10 0.496810 0.133537 0.972512
O O11 0.135260 0.080910 0.393393
O O12 0.500000 0.000000 0.500000
O O13 0.316893 0.992961 0.587336
O O14 0.692471 0.557961 0.235161
O O15 0.767486 0.100626 0.302764
O O16 0.017570 0.750000 0.645051
#
# Coordination Sequence:
#
# PCOD9168243 Si02
#       7
#     4   4   4   4   4   4   4
#     4  12  25  40  64  98 130 172 224 270 323 391
#     4  11  20  39  67  93 129 173 214 262 327 389
#     4   9  18  36  66  89 127 167 202 261 329 383
#     4  12  24  46  68  89 131 176 212 275 333 383
#     4   9  18  38  62  95 121 164 216 263 322 385
#     4  10  22  41  70  91 123 174 216 262 328 380
#     4  11  24  42  68 101 127 166 223 268 321 395
#
# _framework density 18.050076000000001
#
# number of rings (size 3 to 8) (size 9 to 14) (size 15 to 20)
#    0.000    1.429    5.714    1.286    0.000    2.286 
#    0.000    2.143    0.000    0.000    0.000    0.000 
#    0.000    0.000    0.000    0.000    0.000    0.000 
#
# Total GULP energy -155893.517967 kJ/mol
# GULP energy per Si atom -5567.625642 kJ/mol
# Density = 1.800899 g / cm^3
# Si number density = 18.050076 Si / 1000 Ang^3
#
#
#
# Elastic Constant Matrix: (Units=GPa)
#
#
# Indices 1 2 3 4 5 6 
#
# 1 120.4900 36.1890 48.6077 0.0000 2.7612 0.0000
# 2 36.1890 103.0513 38.8549 0.0000 11.1759 0.0000
# 3 48.6077 38.8549 139.4926 0.0000 -10.6717 0.0000
# 4 0.0000 0.0000 0.0000 13.2797 0.0000 -2.4870
# 5 2.7612 11.1759 -10.6717 0.0000 54.9924 0.0000
# 6 0.0000 0.0000 0.0000 -2.4870 0.0000 19.3993
#
#
#
# Elastic Compliance Matrix: (Units=1/GPa)
#
#
# Indices 1 2 3 4 5 6 
#
# 1 0.010223 -0.002420 -0.002934 0.000000 -0.000591 0.000000
# 2 -0.002420 0.011868 -0.002677 0.000000 -0.002810 0.000000
# 3 -0.002934 -0.002677 0.009125 0.000000 0.002462 0.000000
# 4 0.000000 0.000000 0.000000 0.077155 0.000000 0.009892
# 5 -0.000591 -0.002810 0.002462 0.000000 0.019263 0.000000
# 6 0.000000 0.000000 0.000000 0.009892 0.000000 0.052816
#
#
# Mechanical properties :
#
#
# Convention : Reuss Voigt Hill
#
# Bulk Modulus (GPa) = 65.98700 67.81524 66.90112
# Shear Modulus (GPa) = 24.80595 33.49310 29.14953
#
# Velocity S-wave (km/s) = 3.71116 4.31230 4.02297
# Velocity P-wave (km/s) = 7.41624 7.90233 7.66314
#
# Compressibility (1/GPa) = 0.01515450
#
# Stress axis : x y z
#
# Youngs Moduli (GPa) = 97.81611 84.26008 109.58642
#
# Poissons Ratio (x) = 0.20391 0.32147
# Poissons Ratio (y) = 0.23672 0.29341
# Poissons Ratio (z) = 0.28695 0.22560
#
# Static dielectric constant tensor:
#      x y z
#    x 1.653330 0.000000 0.019040 
#    y 0.000000 1.641090 0.000000 
#    z 0.019040 0.000000 1.636010 
# 
# From -- ./inp_files/47683.got.cif
#   From: 2010.05.17/outbox.ucp.g08.bks.cvg/sg11_24_cif.got.tgz:47683.got - 2010.06.11 11:38:39.
