data_PCOD9168870
_publ_section_title
;
Structure prediction by ZEFSAII (Michael W. Deem and Ramdas Pophale) SiO2 
 PCOD9168870
Probable space group: C 2/M
;
_chemical_formula_sum "Si O2"
_cell_formula_units_Z 48
_cell_length_a 20.913204
_cell_length_b 12.803175
_cell_length_c 23.193243
_cell_angle_alpha 90.000000
_cell_angle_beta 156.972460
_cell_angle_gamma 90.000000
_cell_volume 2429.233157
_symmetry_space_group_name_H-M "C 2/M"
_symmetry_group_IT_number 12
_symmetry_cell_setting 'monoclinic'
loop_
_space_group_symop_operation_xyz
x,y,z
-x,y,-z
-x,-y,-z
x,-y,z
1/2+x,1/2+y,z
1/2-x,1/2+y,-z
1/2-x,1/2-y,-z
1/2+x,1/2-y,z
loop_
_atom_site_type_symbol
_atom_site_label
_atom_site_fract_x
_atom_site_fract_y
_atom_site_fract_z
Si Si1 0.360229 0.817531 0.134009
Si Si2 0.634292 0.500000 0.197278
Si Si3 0.451744 0.000000 0.570816
Si Si4 0.836789 0.688495 0.393116
Si Si5 0.591206 0.681173 0.382813
Si Si6 0.687873 0.881701 0.335079
Si Si7 0.720755 0.500000 0.088462
Si Si8 0.118170 0.000000 0.323633
O O1 0.437131 0.756671 0.252916
O O2 0.518860 0.861265 0.230395
O O3 0.245157 0.903306 0.066299
O O4 0.250000 0.750000 0.000000
O O5 0.734703 0.606101 0.269302
O O6 0.609161 0.500000 0.247334
O O7 0.451768 0.500000 0.023566
O O8 0.409434 0.105765 0.500584
O O9 0.629718 0.000000 0.743357
O O10 0.310773 0.000000 0.502264
O O11 0.723637 0.780916 0.324036
O O12 0.000000 0.733916 0.500000
O O13 0.750000 0.750000 0.500000
O O14 0.652998 0.622888 0.490663
O O15 0.551300 0.602546 0.297706
O O16 0.678573 0.000000 0.302904
#
# Coordination Sequence:
#
# PCOD9168870 Si02
#       8
#     8   4   4   8   8   8   4   4
#     4  11  21  33  50  79 118 147 172 206 256 332
#     4  10  20  35  55  81 108 136 177 222 276 327
#     4  10  18  33  57  81 104 130 181 236 274 323
#     4  10  21  39  58  75 101 142 188 234 279 309
#     4  10  18  29  49  73 105 142 176 213 255 311
#     4  11  20  35  52  80 111 143 183 221 261 322
#     4  12  20  32  53  86 112 137 169 205 278 329
#     4  10  16  30  47  74 104 141 171 199 266 319
#
# _framework density 19.759322000000001
#
# number of rings (size 3 to 8) (size 9 to 14) (size 15 to 20)
#    0.000    1.667    1.667   10.000    0.000    0.333 
#    0.000    1.667    0.000    0.000    0.000    0.000 
#    0.000    8.000    0.000    0.000    0.000    0.000 
#
# Total GULP energy -133752.311155 kJ/mol
# GULP energy per Si atom -5573.012965 kJ/mol
# Density = 1.971435 g / cm^3
# Si number density = 19.759322 Si / 1000 Ang^3
#
#
#
# Elastic Constant Matrix: (Units=GPa)
#
#
# Indices 1 2 3 4 5 6 
#
# 1 37.3718 19.2769 3.8785 -0.0008 19.3314 0.0001
# 2 19.2769 108.6729 22.0211 -0.0080 7.2865 -0.0022
# 3 3.8785 22.0211 110.5140 -0.0091 11.2171 -0.0032
# 4 -0.0008 -0.0080 -0.0091 25.7046 -0.0016 2.8061
# 5 19.3314 7.2865 11.2171 -0.0016 27.5253 -0.0004
# 6 0.0001 -0.0022 -0.0032 2.8061 -0.0004 15.9664
#
#
#
# Elastic Compliance Matrix: (Units=1/GPa)
#
#
# Indices 1 2 3 4 5 6 
#
# 1 0.046509 -0.006698 0.002960 -0.000001 -0.032097 -0.000001
# 2 -0.006698 0.010643 -0.002167 0.000002 0.002769 0.000001
# 3 0.002960 -0.002167 0.009940 0.000002 -0.005556 0.000001
# 4 -0.000001 0.000002 0.000002 0.039664 0.000002 -0.006971
# 5 -0.032097 0.002769 -0.005556 0.000002 0.060404 0.000001
# 6 -0.000001 0.000001 0.000001 -0.006971 0.000001 0.063857
#
#
# Mechanical properties :
#
#
# Convention : Reuss Voigt Hill
#
# Bulk Modulus (GPa) = 18.08845 38.54576 28.31711
# Shear Modulus (GPa) = 19.13846 27.93141 23.53493
#
# Velocity S-wave (km/s) = 3.11558 3.76384 3.45495
# Velocity P-wave (km/s) = 4.70284 6.19989 5.50251
#
# Compressibility (1/GPa) = 0.05528389
#
# Stress axis : x y z
#
# Youngs Moduli (GPa) = 21.50138 93.95511 100.59887
#
# Poissons Ratio (x) = 0.62928 -0.29779
# Poissons Ratio (y) = 0.14401 0.21798
# Poissons Ratio (z) = -0.06365 0.20359
#
# Static dielectric constant tensor:
#      x y z
#    x 1.769400 0.000000 -0.019900 
#    y 0.000000 1.796700 0.000000 
#    z -0.019900 0.000000 1.735470 
# 
# From -- ./inp_files/351913.got.cif
#   From: 2010.05.17/outbox.cif.g08.bks.cpg/sg12_176_cif.got.tgz:351913.got - 2010.06.03 13:09:07.
