data_PCOD9168616
_publ_section_title
;
Structure prediction by ZEFSAII (Michael W. Deem and Ramdas Pophale) SiO2 
 PCOD9168616
Probable space group: C 2/M
;
_chemical_formula_sum "Si O2"
_cell_formula_units_Z 56
_cell_length_a 15.882349
_cell_length_b 19.140642
_cell_length_c 13.383914
_cell_angle_alpha 90.000000
_cell_angle_beta 139.130064
_cell_angle_gamma 90.000000
_cell_volume 2662.321957
_symmetry_space_group_name_H-M "C 2/M"
_symmetry_group_IT_number 12
_symmetry_cell_setting 'monoclinic'
loop_
_space_group_symop_operation_xyz
x,y,z
-x,y,-z
-x,-y,-z
x,-y,z
1/2+x,1/2+y,z
1/2-x,1/2+y,-z
1/2-x,1/2-y,-z
1/2+x,1/2-y,z
loop_
_atom_site_type_symbol
_atom_site_label
_atom_site_fract_x
_atom_site_fract_y
_atom_site_fract_z
Si Si1 0.757421 0.245576 0.867351
Si Si2 0.379479 0.077110 0.756335
Si Si3 0.665406 0.898914 0.047118
Si Si4 0.801958 0.735385 0.667973
Si Si5 0.017918 0.849978 0.898371
Si Si6 0.461154 0.425733 0.275079
Si Si7 0.478783 0.274625 0.597757
O O1 0.826058 0.316256 0.963094
O O2 0.770834 0.255122 0.759606
O O3 0.608228 0.244709 0.762665
O O4 0.838215 0.180595 0.977549
O O5 0.352076 0.083361 0.850930
O O6 0.330502 0.152990 0.674500
O O7 0.330192 0.000000 0.678556
O O8 0.533759 0.076239 0.879341
O O9 0.806158 0.925047 0.143582
O O10 0.661000 0.752468 0.494598
O O11 0.920472 0.789773 0.770238
O O12 0.003338 0.913001 0.808683
O O13 0.000000 0.864216 0.000000
O O14 0.509370 0.500000 0.356218
O O15 0.513460 0.358372 0.380493
O O16 0.500000 0.259948 0.500000
#
# Coordination Sequence:
#
# PCOD9168616 Si02
#       7
#     8   8   8   8   8   8   8
#     4   8  15  31  52  76 102 134 174 218 261 311
#     4  10  16  25  46  72 106 141 167 202 255 313
#     4   9  16  28  45  72 103 134 170 207 255 314
#     4   9  17  31  50  77 107 138 174 209 259 319
#     4  10  20  37  58  76 102 139 184 235 267 295
#     4  11  23  35  52  78 108 141 184 223 263 313
#     4   9  19  33  53  80 112 139 165 207 265 332
#
# _framework density 21.034268999999998
#
# number of rings (size 3 to 8) (size 9 to 14) (size 15 to 20)
#    0.000    2.571    1.429    2.571    0.000    4.000 
#    0.000    0.000    0.000    0.000    0.000    0.000 
#    0.000    5.714    0.000    0.000    0.000    0.000 
#
# Total GULP energy -156069.794275 kJ/mol
# GULP energy per Si atom -5573.921224 kJ/mol
# Density = 2.098639 g / cm^3
# Si number density = 21.034269 Si / 1000 Ang^3
#
#
#
# Elastic Constant Matrix: (Units=GPa)
#
#
# Indices 1 2 3 4 5 6 
#
# 1 71.5375 7.9005 22.5784 0.0000 26.1357 0.0000
# 2 7.9005 64.5445 11.8329 0.0000 17.4433 0.0000
# 3 22.5784 11.8329 63.2634 0.0000 32.9614 0.0000
# 4 0.0000 0.0000 0.0000 -5.1016 0.0000 -3.4508
# 5 26.1357 17.4433 32.9614 0.0000 36.4315 0.0000
# 6 0.0000 0.0000 0.0000 -3.4508 0.0000 7.9432
#
#
#
# Elastic Compliance Matrix: (Units=1/GPa)
#
#
# Indices 1 2 3 4 5 6 
#
# 1 0.019102 0.001625 0.000802 0.000000 -0.015207 0.000000
# 2 0.001625 0.018083 0.002187 0.000000 -0.011802 0.000000
# 3 0.000802 0.002187 0.030187 0.000000 -0.028934 0.000000
# 4 0.000000 0.000000 0.000000 -0.151499 0.000000 -0.065815
# 5 -0.015207 -0.011802 -0.028934 0.000000 0.070187 0.000000
# 6 0.000000 0.000000 0.000000 -0.065815 0.000000 0.097301
#
#
# Mechanical properties :
#
#
# Convention : Reuss Voigt Hill
#
# Bulk Modulus (GPa) = 13.05507 31.55213 22.30360
# Shear Modulus (GPa) = 50.16700 18.32353 34.24526
#
# Velocity S-wave (km/s) = 4.88896 2.95469 4.03931
# Velocity P-wave (km/s) = 6.17165 5.16461 5.69045
#
# Compressibility (1/GPa) = 0.07659858
#
# Stress axis : x y z
#
# Youngs Moduli (GPa) = 52.35084 55.30067 33.12712
#
# Poissons Ratio (x) = -0.08984 -0.02656
# Poissons Ratio (y) = -0.08504 -0.07245
# Poissons Ratio (z) = -0.04198 -0.12095
#
# Static dielectric constant tensor:
#      x y z
#    x 1.820770 0.000000 -0.016650 
#    y 0.000000 1.743590 0.000000 
#    z -0.016650 0.000000 1.786160 
# 
# From -- ./inp_files/217747.got.cif
#   From: 2010.05.17/outbox.cif.g08.bks.cpg/sg12_109_cif.got.tgz:217747.got - 2010.06.03 13:09:07.
