data_PCOD9168594
_publ_section_title
;
Structure prediction by ZEFSAII (Michael W. Deem and Ramdas Pophale) SiO2 
 PCOD9168594
Probable space group: C 2/M
;
_chemical_formula_sum "Si O2"
_cell_formula_units_Z 48
_cell_length_a 5.429625
_cell_length_b 14.388883
_cell_length_c 30.860484
_cell_angle_alpha 90.000000
_cell_angle_beta 63.904863
_cell_angle_gamma 90.000000
_cell_volume 2165.246668
_symmetry_space_group_name_H-M "C 2/M"
_symmetry_group_IT_number 12
_symmetry_cell_setting 'monoclinic'
loop_
_space_group_symop_operation_xyz
x,y,z
-x,y,-z
-x,-y,-z
x,-y,z
1/2+x,1/2+y,z
1/2-x,1/2+y,-z
1/2-x,1/2-y,-z
1/2+x,1/2-y,z
loop_
_atom_site_type_symbol
_atom_site_label
_atom_site_fract_x
_atom_site_fract_y
_atom_site_fract_z
Si Si1 0.769674 0.388276 0.192175
Si Si2 0.318298 0.386529 0.972683
Si Si3 0.998940 0.809995 0.700486
Si Si4 0.857792 0.846906 0.556908
Si Si5 0.904852 0.113575 0.138104
Si Si6 0.758699 0.636259 0.596545
O O1 0.773502 0.500000 0.190647
O O2 0.631403 0.357185 0.247432
O O3 0.585967 0.357796 0.165441
O O4 0.087061 0.357794 0.165474
O O5 0.320079 0.500000 0.971973
O O6 0.456737 0.354649 0.917301
O O7 0.500000 0.358725 0.000000
O O8 0.000000 0.358730 0.000000
O O9 0.758244 0.749932 0.696809
O O10 0.115473 0.876190 0.653816
O O11 0.788254 0.747719 0.584734
O O12 0.569593 0.896623 0.572514
O O13 0.000000 0.828395 0.500000
O O14 0.068031 0.896618 0.572499
O O15 0.906712 0.000000 0.137359
#
# Coordination Sequence:
#
# PCOD9168594 Si02
#       6
#     8   8   8   8   8   8
#     4  10  21  35  52  72 100 139 174 203 244 298
#     4   9  15  23  40  67  97 127 156 193 248 303
#     4  12  21  35  52  73 102 133 168 212 256 290
#     4  10  16  25  41  63  96 126 151 185 245 309
#     4   9  17  31  47  68 101 135 165 203 248 297
#     4  10  16  27  39  63  93 125 147 193 245 289
#
# _framework density 22.168377
#
# number of rings (size 3 to 8) (size 9 to 14) (size 15 to 20)
#    0.000    2.000    3.333    4.500    0.000    4.000 
#    0.000    0.000    0.000    0.000    0.000    0.000 
#    0.000   54.000    0.000    0.000    0.000    0.000 
#
# Total GULP energy -134155.416482 kJ/mol
# GULP energy per Si atom -5589.809020 kJ/mol
# Density = 2.211792 g / cm^3
# Si number density = 22.168377 Si / 1000 Ang^3
#
#
#
# Elastic Constant Matrix: (Units=GPa)
#
#
# Indices 1 2 3 4 5 6 
#
# 1 256.0281 13.7281 100.3531 0.0000 3.8143 -0.0001
# 2 13.7281 71.9685 7.7588 0.0000 0.3785 -0.0001
# 3 100.3531 7.7588 227.4886 0.0000 -1.9695 0.0000
# 4 0.0000 0.0000 0.0000 22.8224 0.0000 -2.8050
# 5 3.8143 0.3785 -1.9695 0.0000 46.7147 0.0001
# 6 -0.0001 -0.0001 0.0000 -2.8050 0.0001 -24.5996
#
#
#
# Elastic Compliance Matrix: (Units=1/GPa)
#
#
# Indices 1 2 3 4 5 6 
#
# 1 0.004766 -0.000682 -0.002083 0.000000 -0.000471 0.000000
# 2 -0.000682 0.014045 -0.000179 0.000000 -0.000066 0.000000
# 3 -0.002083 -0.000179 0.005324 0.000000 0.000396 0.000000
# 4 0.000000 0.000000 0.000000 0.043211 0.000000 -0.004927
# 5 -0.000471 -0.000066 0.000396 0.000000 0.021462 0.000000
# 6 0.000000 0.000000 0.000000 -0.004927 0.000000 -0.040089
#
#
# Mechanical properties :
#
#
# Convention : Reuss Voigt Hill
#
# Bulk Modulus (GPa) = 54.80360 88.79613 71.79986
# Shear Modulus (GPa) = 82.38682 37.89718 60.14200
#
# Velocity S-wave (km/s) = 6.10285 4.13911 5.21426
# Velocity P-wave (km/s) = 8.62757 7.93633 8.28916
#
# Compressibility (1/GPa) = 0.01824698
#
# Stress axis : x y z
#
# Youngs Moduli (GPa) = 209.82078 71.20137 187.81653
#
# Poissons Ratio (x) = 0.04856 0.39127
# Poissons Ratio (y) = 0.14311 0.03356
# Poissons Ratio (z) = 0.43711 0.01272
#
# Static dielectric constant tensor:
#      x y z
#    x 1.827430 0.000000 0.004700 
#    y 0.000000 1.802390 0.000000 
#    z 0.004700 0.000000 1.746660 
# 
# From -- ./inp_files/331156.got.cif
#   From: 2010.05.17/outbox.cif.g08.bks.cpg/sg12_166_cif.got.tgz:331156.got - 2010.06.03 13:09:07.
