data_PCOD9168703
_publ_section_title
;
Structure prediction by ZEFSAII (Michael W. Deem and Ramdas Pophale) SiO2 
 PCOD9168703
Probable space group: C 2/M
;
_chemical_formula_sum "Si O2"
_cell_formula_units_Z 56
_cell_length_a 17.188264
_cell_length_b 14.508805
_cell_length_c 14.202349
_cell_angle_alpha 90.000000
_cell_angle_beta 75.573283
_cell_angle_gamma 90.000000
_cell_volume 3430.115215
_symmetry_space_group_name_H-M "C 2/M"
_symmetry_group_IT_number 12
_symmetry_cell_setting 'monoclinic'
loop_
_space_group_symop_operation_xyz
x,y,z
-x,y,-z
-x,-y,-z
x,-y,z
1/2+x,1/2+y,z
1/2-x,1/2+y,-z
1/2-x,1/2-y,-z
1/2+x,1/2-y,z
loop_
_atom_site_type_symbol
_atom_site_label
_atom_site_fract_x
_atom_site_fract_y
_atom_site_fract_z
Si Si1 0.091608 0.894455 0.494706
Si Si2 0.813211 0.392871 0.254824
Si Si3 0.366639 0.774652 0.405249
Si Si4 0.860972 0.103046 0.735537
Si Si5 0.987054 0.391060 0.110616
Si Si6 0.047187 0.286137 0.267683
Si Si7 0.592688 0.105948 0.434713
O O1 0.137457 0.828817 0.553464
O O2 0.132290 0.894367 0.380405
O O3 0.000000 0.860143 0.500000
O O4 0.084944 0.000000 0.530421
O O5 0.815011 0.500000 0.290458
O O6 0.813118 0.318816 0.339445
O O7 0.733238 0.383662 0.217218
O O8 0.894460 0.380000 0.170934
O O9 0.456837 0.780313 0.335712
O O10 0.360334 0.839009 0.499127
O O11 0.915277 0.185445 0.755736
O O12 0.886169 0.000000 0.757479
O O13 0.005307 0.500000 0.109226
O O14 0.040632 0.339335 0.171567
O O15 0.000000 0.359173 0.000000
O O16 0.094592 0.341842 0.334582
O O17 0.500000 0.105727 0.500000
O O18 0.617850 0.000000 0.418565
#
# Coordination Sequence:
#
# PCOD9168703 Si02
#       7
#     8   8   8   8   8   8   8
#     4  10  17  27  42  63  93 128 167 196 215 255
#     4   9  19  32  47  69  97 124 153 190 236 281
#     4  10  16  27  44  65  91 126 161 194 222 261
#     4  10  19  31  46  67  97 129 159 192 226 267
#     4   9  18  34  55  74  91 114 149 194 241 288
#     4  10  17  28  46  70  91 120 157 191 227 272
#     4   9  15  23  38  62  91 120 152 189 224 261
#
# _framework density 16.325980999999999
#
# number of rings (size 3 to 8) (size 9 to 14) (size 15 to 20)
#    0.000    2.429    2.857    1.286    0.000    4.000 
#    0.000    0.714    0.000    1.286    0.000    0.000 
#    0.000    0.000    0.000    0.000    0.000    0.000 
#
# Total GULP energy -156007.835081 kJ/mol
# GULP energy per Si atom -5571.708396 kJ/mol
# Density = 1.628882 g / cm^3
# Si number density = 16.325981 Si / 1000 Ang^3
#
#
#
# Elastic Constant Matrix: (Units=GPa)
#
#
# Indices 1 2 3 4 5 6 
#
# 1 38.8608 27.9073 17.6771 0.0000 0.0818 0.0000
# 2 27.9073 98.7396 35.6506 0.0000 10.9211 0.0000
# 3 17.6771 35.6506 72.8752 0.0000 17.9667 0.0000
# 4 0.0000 0.0000 0.0000 12.5547 0.0000 -0.5141
# 5 0.0818 10.9211 17.9667 0.0000 13.7822 0.0000
# 6 0.0000 0.0000 0.0000 -0.5141 0.0000 14.7576
#
#
#
# Elastic Compliance Matrix: (Units=1/GPa)
#
#
# Indices 1 2 3 4 5 6 
#
# 1 0.036296 -0.009088 -0.008961 0.000000 0.018667 0.000000
# 2 -0.009088 0.014650 -0.003115 0.000000 -0.007494 0.000000
# 3 -0.008961 -0.003115 0.024753 0.000000 -0.029747 0.000000
# 4 0.000000 0.000000 0.000000 0.079765 0.000000 0.002779
# 5 0.018667 -0.007494 -0.029747 0.000000 0.117164 0.000000
# 6 0.000000 0.000000 0.000000 0.002779 0.000000 0.067859
#
#
# Mechanical properties :
#
#
# Convention : Reuss Voigt Hill
#
# Bulk Modulus (GPa) = 29.96454 41.43839 35.70147
# Shear Modulus (GPa) = 12.69238 16.83493 14.76366
#
# Velocity S-wave (km/s) = 2.79128 3.21467 3.01043
# Velocity P-wave (km/s) = 5.36489 6.26225 5.83086
#
# Compressibility (1/GPa) = 0.03337278
#
# Stress axis : x y z
#
# Youngs Moduli (GPa) = 27.55125 68.26100 40.39884
#
# Poissons Ratio (x) = 0.62035 0.36200
# Poissons Ratio (y) = 0.25038 0.12582
# Poissons Ratio (z) = 0.24688 0.21260
#
# Static dielectric constant tensor:
#      x y z
#    x 1.582030 0.000000 -0.027100 
#    y 0.000000 1.571230 0.000000 
#    z -0.027100 0.000000 1.532080 
# 
# From -- ./inp_files/224262.got.cif
#   From: 2010.05.17/outbox.cif.g08.bks.cpg/sg12_113_cif.got.tgz:224262.got - 2010.06.03 13:09:07.
