data_PCOD9168491
_publ_section_title
;
Structure prediction by ZEFSAII (Michael W. Deem and Ramdas Pophale) SiO2 
 PCOD9168491
Probable space group: C 2/M
;
_chemical_formula_sum "Si O2"
_cell_formula_units_Z 64
_cell_length_a 18.247550
_cell_length_b 8.837408
_cell_length_c 22.216013
_cell_angle_alpha 90.000000
_cell_angle_beta 100.797976
_cell_angle_gamma 90.000000
_cell_volume 3519.143874
_symmetry_space_group_name_H-M "C 2/M"
_symmetry_group_IT_number 12
_symmetry_cell_setting 'monoclinic'
loop_
_space_group_symop_operation_xyz
x,y,z
-x,y,-z
-x,-y,-z
x,-y,z
1/2+x,1/2+y,z
1/2-x,1/2+y,-z
1/2-x,1/2-y,-z
1/2+x,1/2-y,z
loop_
_atom_site_type_symbol
_atom_site_label
_atom_site_fract_x
_atom_site_fract_y
_atom_site_fract_z
Si Si1 0.597853 0.683077 0.058805
Si Si2 0.995982 0.318881 0.318769
Si Si3 0.140148 0.176670 0.192121
Si Si4 0.961706 0.177490 0.191054
Si Si5 0.934267 0.319005 0.064983
Si Si6 0.224099 0.182371 0.559046
Si Si7 0.054111 0.182105 0.563008
Si Si8 0.667174 0.818671 0.318208
O O1 0.591365 0.500000 0.055702
O O2 0.649660 0.724077 0.123906
O O3 0.517021 0.753708 0.062838
O O4 0.616299 0.748846 0.996005
O O5 0.991516 0.500000 0.314875
O O6 0.952075 0.247916 0.255481
O O7 0.967866 0.259123 0.378030
O O8 0.083207 0.274235 0.324623
O O9 0.180366 0.261903 0.252441
O O10 0.050941 0.192626 0.191213
O O11 0.158276 0.000000 0.199237
O O12 0.919576 0.262122 0.130383
O O13 0.944125 0.000000 0.187514
O O14 0.934646 0.500000 0.061877
O O15 0.250000 0.250000 0.500000
O O16 0.138479 0.220604 0.558545
O O17 0.275162 0.235872 0.622563
O O18 0.230258 0.000000 0.556744
O O19 0.000000 0.227009 0.500000
O O20 0.048574 0.000000 0.569402
O O21 0.669865 0.000000 0.317569
#
# Coordination Sequence:
#
# PCOD9168491 Si02
#       8
#     8   8   8   8   8   8   8   8
#     4   9  15  23  33  49  78 117 157 194 236 285
#     4  10  19  31  49  72  96 123 158 199 242 285
#     4   8  15  25  39  59  83 116 157 195 232 281
#     4   9  16  27  41  58  85 121 157 193 236 285
#     4  10  16  21  32  53  81 115 156 198 238 280
#     4  10  21  36  53  74  98 125 158 194 235 282
#     4  10  21  36  53  73  98 128 160 193 232 283
#     4   9  18  31  47  68  95 124 155 196 242 285
#
# _framework density 18.186240999999999
#
# number of rings (size 3 to 8) (size 9 to 14) (size 15 to 20)
#    0.000    2.625    0.000    4.500    0.000    5.250 
#    0.000    0.000    0.000    0.000    0.000    0.000 
#    0.000    1.000    0.000    3.000    0.000    8.875 
#
# Total GULP energy -178327.169469 kJ/mol
# GULP energy per Si atom -5572.724046 kJ/mol
# Density = 1.814485 g / cm^3
# Si number density = 18.186241 Si / 1000 Ang^3
#
#
#
# Elastic Constant Matrix: (Units=GPa)
#
#
# Indices 1 2 3 4 5 6 
#
# 1 39.0417 25.9545 57.9170 0.0000 8.8800 0.0000
# 2 25.9545 58.6902 69.3477 0.0000 3.3237 0.0000
# 3 57.9170 69.3477 228.4504 0.0000 19.3147 0.0000
# 4 0.0000 0.0000 0.0000 38.8251 0.0000 1.1329
# 5 8.8800 3.3237 19.3147 0.0000 16.0171 0.0000
# 6 0.0000 0.0000 0.0000 1.1329 0.0000 6.6574
#
#
#
# Elastic Compliance Matrix: (Units=1/GPa)
#
#
# Indices 1 2 3 4 5 6 
#
# 1 0.047528 -0.011600 -0.007242 0.000000 -0.015210 0.000000
# 2 -0.011600 0.029719 -0.006796 0.000000 0.008459 0.000000
# 3 -0.007242 -0.006796 0.008705 0.000000 -0.005072 0.000000
# 4 0.000000 0.000000 0.000000 0.025885 0.000000 -0.004405
# 5 -0.015210 0.008459 -0.005072 0.000000 0.075227 0.000000
# 6 0.000000 0.000000 0.000000 -0.004405 0.000000 0.150959
#
#
# Mechanical properties :
#
#
# Convention : Reuss Voigt Hill
#
# Bulk Modulus (GPa) = 28.83765 70.29119 49.56442
# Shear Modulus (GPa) = 12.47327 23.83080 18.15203
#
# Velocity S-wave (km/s) = 2.62174 3.62384 3.16273
# Velocity P-wave (km/s) = 5.00559 7.49962 6.37574
#
# Compressibility (1/GPa) = 0.03467689
#
# Stress axis : x y z
#
# Youngs Moduli (GPa) = 21.04019 33.64828 114.87451
#
# Poissons Ratio (x) = 0.39031 0.83196
# Poissons Ratio (y) = 0.24406 0.78068
# Poissons Ratio (z) = 0.15238 0.22867
#
# Static dielectric constant tensor:
#      x y z
#    x 1.625770 0.000000 0.009350 
#    y 0.000000 1.606850 0.000000 
#    z 0.009350 0.000000 1.660550 
# 
# From -- ./inp_files/314197.got.cif
#   From: 2010.05.17/outbox.cif.g08.bks.cpg/sg12_158_cif.got.tgz:314197.got - 2010.06.03 13:09:07.
