data_PCOD9168632
_publ_section_title
;
Structure prediction by ZEFSAII (Michael W. Deem and Ramdas Pophale) SiO2 
 PCOD9168632
Probable space group: C 2/M
;
_chemical_formula_sum "Si O2"
_cell_formula_units_Z 36
_cell_length_a 30.886945
_cell_length_b 5.587873
_cell_length_c 14.580623
_cell_angle_alpha 90.000000
_cell_angle_beta 138.569783
_cell_angle_gamma 90.000000
_cell_volume 1665.189008
_symmetry_space_group_name_H-M "C 2/M"
_symmetry_group_IT_number 12
_symmetry_cell_setting 'monoclinic'
loop_
_space_group_symop_operation_xyz
x,y,z
-x,y,-z
-x,-y,-z
x,-y,z
1/2+x,1/2+y,z
1/2-x,1/2+y,-z
1/2-x,1/2-y,-z
1/2+x,1/2-y,z
loop_
_atom_site_type_symbol
_atom_site_label
_atom_site_fract_x
_atom_site_fract_y
_atom_site_fract_z
Si Si1 0.198499 0.500000 0.849579
Si Si2 0.566956 0.500000 0.398794
Si Si3 0.327969 0.500000 0.937066
Si Si4 0.035758 0.750935 0.656190
Si Si5 0.172596 0.500000 0.021617
Si Si6 0.820048 0.000000 0.538899
Si Si7 0.319943 0.500000 0.272106
Si Si8 0.248987 0.000000 0.377250
O O1 0.272400 0.500000 0.927755
O O2 0.169858 0.747432 0.764003
O O3 0.198445 0.500000 0.958358
O O4 0.520661 0.281664 0.356993
O O5 0.602185 0.500000 0.357818
O O6 0.628237 0.500000 0.564674
O O7 0.362949 0.754535 0.006924
O O8 0.290774 0.500000 0.780784
O O9 0.070490 0.500000 0.722352
O O10 0.000000 0.749555 0.500000
O O11 0.073777 0.000000 0.722144
O O12 0.244249 0.500000 0.185424
O O13 0.790768 0.252379 0.452695
O O14 0.799764 0.000000 0.613206
#
# Coordination Sequence:
#
# PCOD9168632 Si02
#       8
#     4   4   4   8   4   4   4   4
#     4  10  18  28  36  53  73  97 127 165 201 232
#     4  10  19  26  44  62  78 104 144 165 198 222
#     4  10  16  26  42  49  65  92 131 162 190 235
#     4   8  16  28  41  57  80 101 127 158 194 244
#     4  10  18  28  39  52  70  97 129 166 200 237
#     4  10  20  29  42  52  82 104 134 174 203 236
#     4  10  18  23  38  54  76  94 125 166 187 220
#     4  10  20  32  37  56  76 108 135 172 216 222
#
# _framework density 21.619168999999999
#
# number of rings (size 3 to 8) (size 9 to 14) (size 15 to 20)
#    0.667    1.778    0.000    6.667    3.111    0.000 
#    0.000    0.000    0.000    0.000    0.000    0.000 
#    0.000    0.000    0.000    0.000    0.000   48.889 
#
# Total GULP energy -100421.617568 kJ/mol
# GULP energy per Si atom -5578.978754 kJ/mol
# Density = 2.156996 g / cm^3
# Si number density = 21.619169 Si / 1000 Ang^3
#
#
#
# Elastic Constant Matrix: (Units=GPa)
#
#
# Indices 1 2 3 4 5 6 
#
# 1 98.0870 29.3509 3.9968 0.0000 -7.6496 0.0000
# 2 29.3509 236.0414 23.7914 -0.0005 -10.2670 -0.0002
# 3 3.9968 23.7914 51.2121 0.0000 -8.1994 0.0000
# 4 0.0000 -0.0005 0.0000 36.4008 0.0000 -6.1401
# 5 -7.6496 -10.2670 -8.1994 0.0000 24.1627 0.0000
# 6 0.0000 -0.0002 0.0000 -6.1401 0.0000 44.6658
#
#
#
# Elastic Compliance Matrix: (Units=1/GPa)
#
#
# Indices 1 2 3 4 5 6 
#
# 1 0.010787 -0.001233 0.000205 0.000000 0.002960 0.000000
# 2 -0.001233 0.004622 -0.001902 0.000000 0.000928 0.000000
# 3 0.000205 -0.001902 0.021440 0.000000 0.006532 0.000000
# 4 0.000000 0.000000 0.000000 0.028124 0.000000 0.003866
# 5 0.002960 0.000928 0.006532 0.000000 0.044934 0.000000
# 6 0.000000 0.000000 0.000000 0.003866 0.000000 0.022920
#
#
# Mechanical properties :
#
#
# Convention : Reuss Voigt Hill
#
# Bulk Modulus (GPa) = 32.27081 55.51319 43.89200
# Shear Modulus (GPa) = 33.55316 42.92598 38.23957
#
# Velocity S-wave (km/s) = 3.94383 4.46079 4.21025
# Velocity P-wave (km/s) = 5.97476 7.22945 6.63184
#
# Compressibility (1/GPa) = 0.03098776
#
# Stress axis : x y z
#
# Youngs Moduli (GPa) = 92.70798 216.35665 46.64127
#
# Poissons Ratio (x) = 0.26680 -0.00956
# Poissons Ratio (y) = 0.11432 0.08873
# Poissons Ratio (z) = -0.01901 0.41160
#
# Static dielectric constant tensor:
#      x y z
#    x 1.806150 0.000000 -0.012880 
#    y 0.000000 1.907460 0.000000 
#    z -0.012880 0.000000 1.803840 
# 
# From -- ./inp_files/236099.got.cif
#   From: 2010.05.17/outbox.cif.g08.bks.cpg/sg12_119_cif.got.tgz:236099.got - 2010.06.03 13:09:07.
