data_PCOD9168456
_publ_section_title
;
Structure prediction by ZEFSAII (Michael W. Deem and Ramdas Pophale) SiO2 
 PCOD9168456
Probable space group: C 2/M
;
_chemical_formula_sum "Si O2"
_cell_formula_units_Z 48
_cell_length_a 11.110891
_cell_length_b 20.994964
_cell_length_c 14.010673
_cell_angle_alpha 90.000000
_cell_angle_beta 139.185729
_cell_angle_gamma 90.000000
_cell_volume 2136.196162
_symmetry_space_group_name_H-M "C 2/M"
_symmetry_group_IT_number 12
_symmetry_cell_setting 'monoclinic'
loop_
_space_group_symop_operation_xyz
x,y,z
-x,y,-z
-x,-y,-z
x,-y,z
1/2+x,1/2+y,z
1/2-x,1/2+y,-z
1/2-x,1/2-y,-z
1/2+x,1/2-y,z
loop_
_atom_site_type_symbol
_atom_site_label
_atom_site_fract_x
_atom_site_fract_y
_atom_site_fract_z
Si Si1 0.652721 0.762909 0.265755
Si Si2 0.000000 0.309414 0.500000
Si Si3 0.744813 0.500000 0.783424
Si Si4 0.284900 0.867533 0.846479
Si Si5 0.461276 0.000000 0.197545
Si Si6 0.566441 0.362639 0.913563
Si Si7 0.577236 0.864319 0.749027
Si Si8 0.938414 0.000000 0.115125
O O1 0.723815 0.803907 0.219145
O O2 0.543675 0.702385 0.159944
O O3 0.528545 0.809655 0.254597
O O4 0.828084 0.734734 0.425205
O O5 0.943030 0.350040 0.374188
O O6 0.697464 0.426068 0.733468
O O7 0.946440 0.500000 0.852445
O O8 0.660731 0.500000 0.840553
O O9 0.188213 0.861774 0.889789
O O10 0.500000 0.881256 0.000000
O O11 0.507791 0.066608 0.275727
O O12 0.241130 0.000000 0.059319
O O13 0.466275 0.431989 0.846184
O O14 0.711847 0.362573 0.087333
#
# Coordination Sequence:
#
# PCOD9168456 Si02
#       8
#     8   4   4   8   4   8   8   4
#     4  12  24  41  63  90 127 160 204 254 302 366
#     4  12  30  43  56  81 122 178 212 248 298 349
#     4  10  15  30  57  96 131 147 182 243 316 369
#     4  11  19  32  63 101 125 150 189 249 312 367
#     4  10  17  35  62  90 122 155 198 247 307 361
#     4  10  21  37  66  97 123 152 198 255 311 360
#     4  11  23  41  64  90 122 160 205 252 302 362
#     4   8  17  32  57  99 126 147 183 256 317 360
#
# _framework density 22.469846
#
# number of rings (size 3 to 8) (size 9 to 14) (size 15 to 20)
#    0.000    1.333    3.333    4.500    2.333    0.333 
#    0.000    1.667    0.000    7.000    0.000    0.000 
#    0.000    0.000    0.000    0.000    0.000    0.000 
#
# Total GULP energy -133900.535391 kJ/mol
# GULP energy per Si atom -5579.188975 kJ/mol
# Density = 2.241870 g / cm^3
# Si number density = 22.469846 Si / 1000 Ang^3
#
#
#
# Elastic Constant Matrix: (Units=GPa)
#
#
# Indices 1 2 3 4 5 6 
#
# 1 48.6942 54.4626 14.9218 0.0000 -10.2422 0.0000
# 2 54.4626 226.1497 54.5727 0.0000 -6.7610 0.0000
# 3 14.9218 54.5727 64.2691 0.0000 -6.5069 0.0000
# 4 0.0000 0.0000 0.0000 13.8370 0.0000 -14.7526
# 5 -10.2422 -6.7610 -6.5069 0.0000 21.4239 0.0000
# 6 0.0000 0.0000 0.0000 -14.7526 0.0000 41.5524
#
#
#
# Elastic Compliance Matrix: (Units=1/GPa)
#
#
# Indices 1 2 3 4 5 6 
#
# 1 0.031171 -0.007158 0.000124 0.000000 0.012681 0.000000
# 2 -0.007158 0.007207 -0.004719 0.000000 -0.002581 0.000000
# 3 0.000124 -0.004719 0.020009 0.000000 0.004647 0.000000
# 4 0.000000 0.000000 0.000000 0.116289 0.000000 0.041287
# 5 0.012681 -0.002581 0.004647 0.000000 0.053336 0.000000
# 6 0.000000 0.000000 0.000000 0.041287 0.000000 0.038724
#
#
# Mechanical properties :
#
#
# Convention : Reuss Voigt Hill
#
# Bulk Modulus (GPa) = 28.66831 65.22525 46.94678
# Shear Modulus (GPa) = 16.56352 29.70640 23.13496
#
# Velocity S-wave (km/s) = 2.71799 3.63995 3.21222
# Velocity P-wave (km/s) = 4.75775 6.83788 5.89036
#
# Compressibility (1/GPa) = 0.03488172
#
# Stress axis : x y z
#
# Youngs Moduli (GPa) = 32.08105 138.74850 49.97872
#
# Poissons Ratio (x) = 0.99312 -0.00622
# Poissons Ratio (y) = 0.22963 0.23587
# Poissons Ratio (z) = -0.00399 0.65480
#
# Static dielectric constant tensor:
#      x y z
#    x 1.888070 0.000000 -0.013930 
#    y 0.000000 1.864470 0.000000 
#    z -0.013930 0.000000 1.834790 
# 
# From -- ./inp_files/208069.got.cif
#   From: 2010.05.17/outbox.cif.g08.bks.cpg/sg12_105_cif.got.tgz:208069.got - 2010.06.03 13:09:07.
