data_PCOD9168025
_publ_section_title
;
Structure prediction by ZEFSAII (Michael W. Deem and Ramdas Pophale) SiO2 
 PCOD9168025
Probable space group: P 21/M
;
_chemical_formula_sum "Si O2"
_cell_formula_units_Z 24
_cell_length_a 12.000000
_cell_length_b 9.000000
_cell_length_c 24.000000
_cell_angle_alpha 90.000000
_cell_angle_beta 30.000000
_cell_angle_gamma 90.000000
_cell_volume 1296.000000
_symmetry_space_group_name_H-M "P 21/M"
_symmetry_group_IT_number 11
_symmetry_cell_setting 'monoclinic'
loop_
_space_group_symop_operation_xyz
x,y,z
-x,1/2+y,-z
-x,-y,-z
x,1/2-y,z
loop_
_atom_site_type_symbol
_atom_site_label
_atom_site_fract_x
_atom_site_fract_y
_atom_site_fract_z
Si Si1 0.352363 0.074317 0.221350
Si Si2 0.606639 0.925907 0.009094
Si Si3 0.500037 0.924884 0.607309
Si Si4 0.937867 0.921953 0.353525
Si Si5 0.758514 0.573078 0.609984
Si Si6 0.960560 0.578624 0.211544
O O1 0.393871 0.250000 0.198246
O O2 0.371722 0.026609 0.277463
O O3 0.497477 0.988884 0.112650
O O4 0.098151 0.034037 0.315894
O O5 0.574320 0.750000 0.020151
O O6 0.500000 0.000000 0.000000
O O7 0.863903 0.972716 0.894513
O O8 0.436585 0.750000 0.632338
O O9 0.682933 0.951159 0.480020
O O10 0.621231 0.953629 0.613418
O O11 0.288007 0.027921 0.693558
O O12 0.984559 0.750000 0.350548
O O13 0.985444 0.934099 0.267586
O O14 0.792221 0.750000 0.600401
O O15 0.000000 0.500000 0.500000
O O16 0.002119 0.750000 0.178327
#
# Coordination Sequence:
#
# PCOD9168025 Si02
#       6
#     4   4   4   4   4   4
#     4  11  22  36  59  91 120 152 198 246 291 345
#     4  12  24  40  62  87 117 155 196 242 295 351
#     4  10  21  38  58  85 122 161 197 239 294 350
#     4  10  20  35  58  86 121 157 191 238 296 352
#     4  10  21  37  60  88 119 156 199 245 290 345
#     4  11  23  38  58  88 121 156 198 243 294 351
#
# _framework density 18.518519000000001
#
# number of rings (size 3 to 8) (size 9 to 14) (size 15 to 20)
#    0.000    1.333    3.333    3.000    0.000    2.667 
#    0.000    0.833    0.000    0.000    0.000    0.000 
#    0.000    0.000    0.000    0.000    0.000    0.000 
#
# Total GULP energy -134054.743345 kJ/mol
# GULP energy per Si atom -5585.614306 kJ/mol
# Density = 1.847637 g / cm^3
# Si number density = 18.518519 Si / 1000 Ang^3
#
#
#
# Elastic Constant Matrix: (Units=GPa)
#
#
# Indices 1 2 3 4 5 6 
#
# 1 19.0789 16.0860 13.1174 0.0000 12.6888 0.0000
# 2 16.0860 65.6208 36.7823 0.0000 10.0741 0.0000
# 3 13.1174 36.7823 103.6298 0.0000 20.1792 0.0000
# 4 0.0000 0.0000 0.0000 36.7451 0.0000 -3.1613
# 5 12.6888 10.0741 20.1792 0.0000 27.2809 0.0000
# 6 0.0000 0.0000 0.0000 -3.1613 0.0000 17.6590
#
#
#
# Elastic Compliance Matrix: (Units=1/GPa)
#
#
# Indices 1 2 3 4 5 6 
#
# 1 0.090578 -0.017640 0.002022 0.000000 -0.037111 0.000000
# 2 -0.017640 0.022592 -0.006728 0.000000 0.004839 0.000000
# 3 0.002022 -0.006728 0.013413 0.000000 -0.008378 0.000000
# 4 0.000000 0.000000 0.000000 0.027640 0.000000 0.004948
# 5 -0.037111 0.004839 -0.008378 0.000000 0.058326 0.000000
# 6 0.000000 0.000000 0.000000 0.004948 0.000000 0.057514
#
#
# Mechanical properties :
#
#
# Convention : Reuss Voigt Hill
#
# Bulk Modulus (GPa) = 12.21140 35.58899 23.90019
# Shear Modulus (GPa) = 14.61767 24.49325 19.55546
#
# Velocity S-wave (km/s) = 2.81259 3.64075 3.25313
# Velocity P-wave (km/s) = 4.14198 6.07727 5.20044
#
# Compressibility (1/GPa) = 0.08189072
#
# Stress axis : x y z
#
# Youngs Moduli (GPa) = 11.04026 44.26410 74.55392
#
# Poissons Ratio (x) = 0.78082 -0.15077
# Poissons Ratio (y) = 0.19475 0.50160
# Poissons Ratio (z) = -0.02233 0.29781
#
# Static dielectric constant tensor:
#      x y z
#    x 1.647710 0.000000 0.006930 
#    y 0.000000 1.628720 0.000000 
#    z 0.006930 0.000000 1.640990 
# 
# From -- ./inp_files/33685.got.cif
#   From: 2010.05.17/outbox.ucp.g08.bks.cvg/sg11_17_cif.got.tgz:33685.got - 2010.06.11 11:38:39.
