data_PCOD9168943
_publ_section_title
;
Structure prediction by ZEFSAII (Michael W. Deem and Ramdas Pophale) SiO2 
 PCOD9168943
Probable space group: C 2/M
;
_chemical_formula_sum "Si O2"
_cell_formula_units_Z 64
_cell_length_a 14.944118
_cell_length_b 17.732967
_cell_length_c 21.529407
_cell_angle_alpha 90.000000
_cell_angle_beta 149.073446
_cell_angle_gamma 90.000000
_cell_volume 2932.211064
_symmetry_space_group_name_H-M "C 2/M"
_symmetry_group_IT_number 12
_symmetry_cell_setting 'monoclinic'
loop_
_space_group_symop_operation_xyz
x,y,z
-x,y,-z
-x,-y,-z
x,-y,z
1/2+x,1/2+y,z
1/2-x,1/2+y,-z
1/2-x,1/2-y,-z
1/2+x,1/2-y,z
loop_
_atom_site_type_symbol
_atom_site_label
_atom_site_fract_x
_atom_site_fract_y
_atom_site_fract_z
Si Si1 0.582271 0.143051 0.247609
Si Si2 0.354902 0.085982 0.469188
Si Si3 0.444940 0.194667 0.332407
Si Si4 0.596408 0.339038 0.489713
Si Si5 0.259113 0.339810 0.013977
Si Si6 0.803669 0.288383 0.889204
Si Si7 0.362650 0.319100 0.751466
Si Si8 0.212335 0.919059 0.741611
O O1 0.701478 0.143466 0.379673
O O2 0.602293 0.230825 0.239514
O O3 0.686887 0.089186 0.263103
O O4 0.381294 0.123794 0.115364
O O5 0.500000 0.085490 0.500000
O O6 0.440115 0.121815 0.581414
O O7 0.209248 0.140981 0.353377
O O8 0.296554 0.000000 0.443293
O O9 0.557301 0.264323 0.426842
O O10 0.349907 0.225941 0.212891
O O11 0.278658 0.181220 0.278473
O O12 0.500000 0.326449 0.500000
O O13 0.490172 0.405477 0.393784
O O14 0.211688 0.340152 0.058546
O O15 0.459142 0.360140 0.123343
O O16 0.250000 0.250000 0.000000
O O17 0.776799 0.348118 0.818645
O O18 0.000000 0.256308 0.000000
O O19 0.244278 0.000000 0.789761
#
# Coordination Sequence:
#
# PCOD9168943 Si02
#       8
#     8   8   8   8   8   8   8   8
#     4  10  16  31  50  75 106 145 173 223 255 305
#     4   9  17  29  53  84 106 130 173 222 277 329
#     4  10  16  30  57  79 106 131 174 224 274 307
#     4   9  14  26  51  75 100 138 173 219 256 298
#     4  10  21  33  51  80 107 136 186 222 262 319
#     4  11  19  35  53  78 106 142 183 219 264 314
#     4  10  16  31  52  78 106 141 169 226 267 312
#     4  10  20  31  51  80 108 138 182 225 259 309
#
# _framework density 21.826532
#
# number of rings (size 3 to 8) (size 9 to 14) (size 15 to 20)
#    0.000    2.125    6.250    1.125    0.000    2.500 
#    0.000    1.875    0.000    0.375    0.000    7.875 
#    0.000    0.000    0.000    0.000    0.000    0.000 
#
# Total GULP energy -178325.513011 kJ/mol
# GULP energy per Si atom -5572.672282 kJ/mol
# Density = 2.177685 g / cm^3
# Si number density = 21.826532 Si / 1000 Ang^3
#
#
#
# Elastic Constant Matrix: (Units=GPa)
#
#
# Indices 1 2 3 4 5 6 
#
# 1 44.0384 -2.8777 29.4924 0.0010 -4.9321 0.0002
# 2 -2.8777 73.8701 20.7196 0.0018 -0.9613 0.0006
# 3 29.4924 20.7196 170.4669 0.0029 19.8818 0.0010
# 4 0.0010 0.0018 0.0029 10.2989 0.0010 -3.0919
# 5 -4.9321 -0.9613 19.8818 0.0010 27.4409 0.0001
# 6 0.0002 0.0006 0.0010 -3.0919 0.0001 2.0163
#
#
#
# Elastic Compliance Matrix: (Units=1/GPa)
#
#
# Indices 1 2 3 4 5 6 
#
# 1 0.028301 0.003029 -0.006412 -0.000006 0.009839 -0.000010
# 2 0.003029 0.014429 -0.002622 -0.000007 0.002950 -0.000014
# 3 -0.006412 -0.002622 0.008126 -0.000002 -0.007132 -0.000005
# 4 -0.000006 -0.000007 -0.000002 0.179932 -0.000007 0.275918
# 5 0.009839 0.002950 -0.007132 -0.000007 0.043481 -0.000013
# 6 -0.000010 -0.000014 -0.000005 0.275918 -0.000013 0.919073
#
#
# Mechanical properties :
#
#
# Convention : Reuss Voigt Hill
#
# Bulk Modulus (GPa) = 25.74213 42.56043 34.15128
# Shear Modulus (GPa) = 4.10408 24.02064 14.06236
#
# Velocity S-wave (km/s) = 1.37273 3.32101 2.54102
# Velocity P-wave (km/s) = 3.78578 5.85212 4.92846
#
# Compressibility (1/GPa) = 0.03884683
#
# Stress axis : x y z
#
# Youngs Moduli (GPa) = 35.33392 69.30455 123.06074
#
# Poissons Ratio (x) = -0.20993 0.78907
# Poissons Ratio (y) = -0.10703 0.32265
# Poissons Ratio (z) = 0.22656 0.18171
#
# Static dielectric constant tensor:
#      x y z
#    x 1.855680 0.000000 0.002640 
#    y 0.000000 1.747710 0.000000 
#    z 0.002640 0.000000 1.905700 
# 
# From -- ./inp_files/344378.got.cif
#   From: 2010.05.17/outbox.cif.g08.bks.cpg/sg12_173_cif.got.tgz:344378.got - 2010.06.03 13:09:07.
