data_PCOD9168514
_publ_section_title
;
Structure prediction by ZEFSAII (Michael W. Deem and Ramdas Pophale) SiO2 
 PCOD9168514
Probable space group: C 2/M
;
_chemical_formula_sum "Si O2"
_cell_formula_units_Z 56
_cell_length_a 22.366854
_cell_length_b 29.119026
_cell_length_c 5.533130
_cell_angle_alpha 90.000000
_cell_angle_beta 104.322821
_cell_angle_gamma 90.000000
_cell_volume 3491.719272
_symmetry_space_group_name_H-M "C 2/M"
_symmetry_group_IT_number 12
_symmetry_cell_setting 'monoclinic'
loop_
_space_group_symop_operation_xyz
x,y,z
-x,y,-z
-x,-y,-z
x,-y,z
1/2+x,1/2+y,z
1/2-x,1/2+y,-z
1/2-x,1/2-y,-z
1/2+x,1/2-y,z
loop_
_atom_site_type_symbol
_atom_site_label
_atom_site_fract_x
_atom_site_fract_y
_atom_site_fract_z
Si Si1 0.247912 0.695291 0.497917
Si Si2 0.244325 0.150463 0.994320
Si Si3 0.659275 0.050749 0.409276
Si Si4 0.889543 0.345922 0.639541
Si Si5 0.604613 0.854922 0.854615
Si Si6 0.237949 0.550236 0.987951
Si Si7 0.961686 0.449517 0.211685
O O1 0.250000 0.750000 0.500000
O O2 0.274504 0.675476 0.776391
O O3 0.177178 0.677807 0.427181
O O4 0.274504 0.675474 0.272630
O O5 0.320498 0.148710 0.070494
O O6 0.224171 0.097418 0.974169
O O7 0.621632 0.098510 0.371633
O O8 0.699338 0.051949 0.202132
O O9 0.627429 0.000000 0.377430
O O10 0.699338 0.051949 0.696549
O O11 0.920230 0.334224 0.417840
O O12 0.920230 0.334224 0.922616
O O13 0.585060 0.907869 0.835062
O O14 0.268870 0.500000 0.018873
O O15 0.932117 0.500000 0.182115
O O16 0.000000 0.446279 0.500000
O O17 0.000000 0.446278 0.000000
#
# Coordination Sequence:
#
# PCOD9168514 Si02
#       7
#     8   8   8   8   8   8   8
#     4  10  18  27  39  52  72  95 110 135 172 208
#     4  10  17  29  39  56  72  85 118 144 166 219
#     4  10  16  23  34  48  69  86 101 135 171 198
#     4  10  17  28  38  57  71  83 116 143 167 217
#     4  10  18  27  43  51  65  87 107 143 173 197
#     4  10  16  24  35  49  69  86 102 135 171 198
#     4  10  21  34  42  53  72  92 116 143 179 231
#
# _framework density 16.037946000000002
#
# number of rings (size 3 to 8) (size 9 to 14) (size 15 to 20)
#    0.000    2.000    5.714    1.286    0.000    1.714 
#    0.000    0.000    0.000    0.000    0.000    0.000 
#    0.000    0.000    0.000    0.000    0.000    0.000 
#
# Total GULP energy -155963.387403 kJ/mol
# GULP energy per Si atom -5570.120979 kJ/mol
# Density = 1.600144 g / cm^3
# Si number density = 16.037946 Si / 1000 Ang^3
#
#
#
# Elastic Constant Matrix: (Units=GPa)
#
#
# Indices 1 2 3 4 5 6 
#
# 1 6.3684 -1.5395 8.3658 0.0000 -2.8342 0.0000
# 2 -1.5395 86.9378 43.8325 0.0000 -6.2318 0.0000
# 3 8.3658 43.8325 179.5925 0.0000 -20.9555 0.0000
# 4 0.0000 0.0000 0.0000 21.1804 0.0000 -2.5161
# 5 -2.8342 -6.2318 -20.9555 0.0000 11.8090 0.0000
# 6 0.0000 0.0000 0.0000 -2.5161 0.0000 2.8596
#
#
#
# Elastic Compliance Matrix: (Units=1/GPa)
#
#
# Indices 1 2 3 4 5 6 
#
# 1 0.184502 0.009219 -0.006445 0.000000 0.037710 0.000000
# 2 0.009219 0.013600 -0.003346 0.000000 0.003452 0.000000
# 3 -0.006445 -0.003346 0.007943 0.000000 0.010783 0.000000
# 4 0.000000 0.000000 0.000000 0.052724 0.000000 0.046392
# 5 0.037710 0.003452 0.010783 0.000000 0.114689 0.000000
# 6 0.000000 0.000000 0.000000 0.046392 0.000000 0.390525
#
#
# Mechanical properties :
#
#
# Convention : Reuss Voigt Hill
#
# Bulk Modulus (GPa) = 4.88036 41.57959 23.22998
# Shear Modulus (GPa) = 5.99933 21.98579 13.99256
#
# Velocity S-wave (km/s) = 1.93619 3.70653 2.95696
# Velocity P-wave (km/s) = 2.83691 6.65581 5.11605
#
# Compressibility (1/GPa) = 0.20490274
#
# Stress axis : x y z
#
# Youngs Moduli (GPa) = 5.42001 73.52845 125.89356
#
# Poissons Ratio (x) = -0.67789 0.81133
# Poissons Ratio (y) = -0.04997 0.42124
# Poissons Ratio (z) = 0.03493 0.24603
#
# Static dielectric constant tensor:
#      x y z
#    x 1.521300 0.000000 -0.019550 
#    y 0.000000 1.547480 0.000000 
#    z -0.019550 0.000000 1.663650 
# 
# From -- ./inp_files/22191.got.cif
#   From: 2010.05.17/outbox.cif.g08.bks.cpg/sg12_12_cif.got.tgz:22191.got - 2010.06.03 13:09:07.
