data_PCOD9168193
_publ_section_title
;
Structure prediction by ZEFSAII (Michael W. Deem and Ramdas Pophale) SiO2 
 PCOD9168193
Probable space group: P 21/M
;
_chemical_formula_sum "Si O2"
_cell_formula_units_Z 24
_cell_length_a 21.000000
_cell_length_b 9.000000
_cell_length_c 9.000000
_cell_angle_alpha 90.000000
_cell_angle_beta 50.000000
_cell_angle_gamma 90.000000
_cell_volume 1303.041598
_symmetry_space_group_name_H-M "P 21/M"
_symmetry_group_IT_number 11
_symmetry_cell_setting 'monoclinic'
loop_
_space_group_symop_operation_xyz
x,y,z
-x,1/2+y,-z
-x,-y,-z
x,1/2-y,z
loop_
_atom_site_type_symbol
_atom_site_label
_atom_site_fract_x
_atom_site_fract_y
_atom_site_fract_z
Si Si1 0.695776 0.073476 0.986308
Si Si2 0.089015 0.074128 0.844982
Si Si3 0.643552 0.417504 0.621590
Si Si4 0.522236 0.927601 0.306695
Si Si5 0.219171 0.917888 0.840879
Si Si6 0.224005 0.424423 0.396249
O O1 0.682544 0.250000 0.005713
O O2 0.763585 0.025233 0.764754
O O3 0.736360 0.027713 0.079891
O O4 0.606857 0.993591 0.112986
O O5 0.079125 0.250000 0.854523
O O6 0.145498 0.031008 0.616500
O O7 0.147303 0.023736 0.892506
O O8 0.000000 0.000000 0.000000
O O9 0.641443 0.250000 0.693586
O O10 0.553686 0.455063 0.692782
O O11 0.707371 0.408278 0.389058
O O12 0.688407 0.540419 0.653215
O O13 0.529008 0.750000 0.316378
O O14 0.500000 0.000000 0.500000
O O15 0.186171 0.750000 0.911455
O O16 0.217555 0.250000 0.373460
#
# Coordination Sequence:
#
# PCOD9168193 Si02
#       6
#     4   4   4   4   4   4
#     4  11  22  37  56  82 114 152 188 228 282 329
#     4  10  21  38  62  88 111 139 180 224 275 335
#     4   9  18  35  55  77 107 148 191 231 274 324
#     4  11  21  34  54  81 113 149 194 238 276 323
#     4   9  18  35  57  81 110 143 185 227 272 328
#     4  10  22  38  56  83 113 144 183 230 280 331
#
# _framework density 18.418444999999998
#
# number of rings (size 3 to 8) (size 9 to 14) (size 15 to 20)
#    0.000    2.000    1.667    2.000    0.000    5.333 
#    0.000    0.833    0.000    0.000    0.000    0.000 
#    0.000    0.000    0.000    0.000    0.000    0.000 
#
# Total GULP energy -133743.834673 kJ/mol
# GULP energy per Si atom -5572.659778 kJ/mol
# Density = 1.837652 g / cm^3
# Si number density = 18.418445 Si / 1000 Ang^3
#
#
#
# Elastic Constant Matrix: (Units=GPa)
#
#
# Indices 1 2 3 4 5 6 
#
# 1 43.8720 29.1362 25.6291 0.0000 -13.1411 0.0000
# 2 29.1362 22.0468 19.8296 0.0000 -30.1357 0.0000
# 3 25.6291 19.8296 38.2628 0.0000 -33.9707 0.0000
# 4 0.0000 0.0000 0.0000 29.4044 0.0000 -8.0108
# 5 -13.1411 -30.1357 -33.9707 0.0000 13.8462 0.0000
# 6 0.0000 0.0000 0.0000 -8.0108 0.0000 22.3601
#
#
#
# Elastic Compliance Matrix: (Units=1/GPa)
#
#
# Indices 1 2 3 4 5 6 
#
# 1 0.034464 -0.013645 0.011321 0.000000 0.030788 0.000000
# 2 -0.013645 0.052143 -0.060579 0.000000 -0.048090 0.000000
# 3 0.011321 -0.060579 0.048864 0.000000 -0.001220 0.000000
# 4 0.000000 0.000000 0.000000 0.037687 0.000000 0.013502
# 5 0.030788 -0.048090 -0.001220 0.000000 -0.006218 0.000000
# 6 0.000000 0.000000 0.000000 0.013502 0.000000 0.049560
#
#
# Mechanical properties :
#
#
# Convention : Reuss Voigt Hill
#
# Bulk Modulus (GPa) = 103.46826 28.15236 65.81031
# Shear Modulus (GPa) = 14.47071 15.09458 14.78264
#
# Velocity S-wave (km/s) = 2.80601 2.86586 2.83609
# Velocity P-wave (km/s) = 8.17292 5.12532 6.82149
#
# Compressibility (1/GPa) = 0.00966480
#
# Stress axis : x y z
#
# Youngs Moduli (GPa) = 29.01616 19.17803 20.46513
#
# Poissons Ratio (x) = 0.26168 -0.23169
# Poissons Ratio (y) = 0.39591 1.23977
# Poissons Ratio (z) = -0.32850 1.16180
#
# Static dielectric constant tensor:
#      x y z
#    x 1.673420 0.000000 0.084950 
#    y 0.000000 1.628090 0.000000 
#    z 0.084950 0.000000 1.770000 
# 
# From -- ./inp_files/20346.got.cif
#   From: 2010.05.17/outbox.ucp.g08.bks.cvg/sg11_11_cif.got.tgz:20346.got - 2010.06.11 11:38:39.
