data_PCOD9168037
_publ_section_title
;
Structure prediction by ZEFSAII (Michael W. Deem and Ramdas Pophale) SiO2 
 PCOD9168037
Probable space group: P 21/M
;
_chemical_formula_sum "Si O2"
_cell_formula_units_Z 32
_cell_length_a 21.000000
_cell_length_b 9.000000
_cell_length_c 12.000000
_cell_angle_alpha 90.000000
_cell_angle_beta 130.000000
_cell_angle_gamma 90.000000
_cell_volume 1737.388797
_symmetry_space_group_name_H-M "P 21/M"
_symmetry_group_IT_number 11
_symmetry_cell_setting 'monoclinic'
loop_
_space_group_symop_operation_xyz
x,y,z
-x,1/2+y,-z
-x,-y,-z
x,1/2-y,z
loop_
_atom_site_type_symbol
_atom_site_label
_atom_site_fract_x
_atom_site_fract_y
_atom_site_fract_z
Si Si1 0.207990 0.580027 0.809337
Si Si2 0.468308 0.925804 0.792326
Si Si3 0.733298 0.928232 0.902095
Si Si4 0.927602 0.571654 0.491684
Si Si5 0.033437 0.428916 0.211479
Si Si6 0.389805 0.920452 0.913214
Si Si7 0.458928 0.069632 0.347094
Si Si8 0.120583 0.071995 0.084916
O O1 0.577061 0.250000 0.042510
O O2 0.153696 0.488447 0.661236
O O3 0.300004 0.581990 0.863005
O O4 0.219048 0.504449 0.941735
O O5 0.464434 0.750000 0.773655
O O6 0.392881 0.968303 0.787520
O O7 0.483380 0.988406 0.688530
O O8 0.550240 0.970904 0.952940
O O9 0.734112 0.750000 0.920588
O O10 0.637092 0.974473 0.783052
O O11 0.786999 0.963115 0.852605
O O12 0.930564 0.750000 0.490452
O O13 0.938960 0.525670 0.633710
O O14 0.000000 0.500000 0.500000
O O15 0.025706 0.250000 0.203088
O O16 0.098018 0.471407 0.185912
O O17 0.946448 0.497757 0.072920
O O18 0.176752 0.750000 0.785149
O O19 0.459406 0.250000 0.354181
O O20 0.500000 0.000000 0.500000
O O21 0.110036 0.250000 0.064984
#
# Coordination Sequence:
#
# PCOD9168037 Si02
#       8
#     4   4   4   4   4   4   4   4
#     4  11  22  35  54  81 112 142 178 224 270 320
#     4   9  17  33  55  76 103 136 174 218 266 318
#     4  10  20  36  57  80 105 138 181 223 267 321
#     4  11  23  38  56  80 112 146 180 220 268 319
#     4   9  19  36  55  78 108 139 175 215 259 312
#     4   9  18  32  53  79 104 135 174 219 265 314
#     4  10  21  36  54  77 107 141 177 222 272 322
#     4   9  18  34  58  81 104 137 176 219 261 307
#
# _framework density 18.418444999999998
#
# number of rings (size 3 to 8) (size 9 to 14) (size 15 to 20)
#    0.000    2.250    1.250    1.500    0.000    5.000 
#    2.250    0.000    0.000    0.000    0.000    0.000 
#    0.000    0.000    0.000    0.000    0.000    0.000 
#
# Total GULP energy -178246.996089 kJ/mol
# GULP energy per Si atom -5570.218628 kJ/mol
# Density = 1.837652 g / cm^3
# Si number density = 18.418445 Si / 1000 Ang^3
#
#
#
# Elastic Constant Matrix: (Units=GPa)
#
#
# Indices 1 2 3 4 5 6 
#
# 1 83.3623 9.5025 23.8916 0.0000 -32.9186 0.0000
# 2 9.5025 3.4655 8.2175 0.0000 -9.9824 0.0000
# 3 23.8916 8.2175 78.5917 0.0000 -37.8587 0.0000
# 4 0.0000 0.0000 0.0000 30.6030 0.0000 -0.3405
# 5 -32.9186 -9.9824 -37.8587 0.0000 25.5257 0.0000
# 6 0.0000 0.0000 0.0000 -0.3405 0.0000 17.4312
#
#
#
# Elastic Compliance Matrix: (Units=1/GPa)
#
#
# Indices 1 2 3 4 5 6 
#
# 1 0.016292 -0.073410 -0.003451 0.000000 -0.012818 0.000000
# 2 -0.073410 -0.090710 -0.108189 0.000000 -0.290609 0.000000
# 3 -0.003451 -0.108189 0.008966 0.000000 -0.033464 0.000000
# 4 0.000000 0.000000 0.000000 0.032684 0.000000 0.000639
# 5 -0.012818 -0.290609 -0.033464 0.000000 -0.140636 0.000000
# 6 0.000000 0.000000 0.000000 0.000639 0.000000 0.057381
#
#
# Mechanical properties :
#
#
# Convention : Reuss Voigt Hill
#
# Bulk Modulus (GPa) = -2.29592 27.62698 12.66553
# Shear Modulus (GPa) = 45.91665 22.96583 34.44124
#
# Velocity S-wave (km/s) = 4.99838 3.53497 4.32896
# Velocity P-wave (km/s) = 5.66238 5.62970 5.64606
#
# Compressibility (1/GPa) = -0.43555486
#
# Stress axis : x y z
#
# Youngs Moduli (GPa) = 61.38143 -11.02416 111.53858
#
# Poissons Ratio (x) = -0.80929 0.38495
# Poissons Ratio (y) = 4.50604 12.06728
# Poissons Ratio (z) = 0.21184 -1.19270
#
# Static dielectric constant tensor:
#      x y z
#    x 1.714480 0.000000 -0.031770 
#    y 0.000000 1.634790 0.000000 
#    z -0.031770 0.000000 1.607770 
# 
# From -- ./inp_files/38106.got.cif
#   From: 2010.05.17/outbox.ucp.g08.bks.cvg/sg11_20_cif.got.tgz:38106.got - 2010.06.11 11:38:39.
