data_PCOD9168862
_publ_section_title
;
Structure prediction by ZEFSAII (Michael W. Deem and Ramdas Pophale) SiO2 
 PCOD9168862
Probable space group: C 2/M
;
_chemical_formula_sum "Si O2"
_cell_formula_units_Z 56
_cell_length_a 5.401518
_cell_length_b 26.763172
_cell_length_c 20.394241
_cell_angle_alpha 90.000000
_cell_angle_beta 101.861267
_cell_angle_gamma 90.000000
_cell_volume 2885.277198
_symmetry_space_group_name_H-M "C 2/M"
_symmetry_group_IT_number 12
_symmetry_cell_setting 'monoclinic'
loop_
_space_group_symop_operation_xyz
x,y,z
-x,y,-z
-x,-y,-z
x,-y,z
1/2+x,1/2+y,z
1/2-x,1/2+y,-z
1/2-x,1/2-y,-z
1/2+x,1/2-y,z
loop_
_atom_site_type_symbol
_atom_site_label
_atom_site_fract_x
_atom_site_fract_y
_atom_site_fract_z
Si Si1 0.227843 0.306963 0.971446
Si Si2 0.451278 0.557735 0.251194
Si Si3 0.048064 0.612776 0.747195
Si Si4 0.391654 0.218023 0.184732
Si Si5 0.672773 0.228969 0.424425
Si Si6 0.420575 0.112142 0.586107
Si Si7 0.581074 0.442564 0.414759
O O1 0.166131 0.301990 0.891824
O O2 0.500000 0.330754 0.000000
O O3 0.250000 0.250000 0.000000
O O4 0.000000 0.330751 0.000000
O O5 0.432838 0.500000 0.230487
O O6 0.683876 0.585373 0.228741
O O7 0.516339 0.557969 0.332985
O O8 0.185476 0.586057 0.229237
O O9 0.066461 0.670261 0.767711
O O10 0.986460 0.609322 0.666842
O O11 0.646495 0.250790 0.194112
O O12 0.750000 0.250000 0.500000
O O13 0.407266 0.254918 0.391625
O O14 0.640065 0.169943 0.429933
O O15 0.672444 0.092157 0.564396
O O16 0.171162 0.078339 0.564761
O O17 0.635627 0.500000 0.435223
#
# Coordination Sequence:
#
# PCOD9168862 Si02
#       7
#     8   8   8   8   8   8   8
#     4  10  16  30  47  63  84 128 169 207 237 280
#     4   9  17  33  51  68  99 135 167 208 243 294
#     4  10  21  31  46  77 104 132 168 195 254 308
#     4  12  21  31  46  68 104 140 160 203 245 295
#     4  10  21  36  54  75  94 131 182 215 236 274
#     4  10  19  33  51  74 107 132 161 214 243 291
#     4   9  17  30  52  79 102 130 162 196 258 312
#
# _framework density 19.408881000000001
#
# number of rings (size 3 to 8) (size 9 to 14) (size 15 to 20)
#    0.000    2.000    2.857    2.571    0.000    4.571 
#    0.000    0.000    0.000    0.000    0.000   40.000 
#    0.000   11.429    0.000    0.000    0.000    0.000 
#
# Total GULP energy -156425.238514 kJ/mol
# GULP energy per Si atom -5586.615661 kJ/mol
# Density = 1.936471 g / cm^3
# Si number density = 19.408881 Si / 1000 Ang^3
#
#
#
# Elastic Constant Matrix: (Units=GPa)
#
#
# Indices 1 2 3 4 5 6 
#
# 1 226.5092 91.1847 23.8787 0.0000 18.5937 0.0000
# 2 91.1847 129.4573 0.6552 0.0000 10.7267 0.0000
# 3 23.8787 0.6552 27.1588 0.0000 3.1287 0.0000
# 4 0.0000 0.0000 0.0000 -7.5273 0.0000 2.2081
# 5 18.5937 10.7267 3.1287 0.0000 9.7811 0.0000
# 6 0.0000 0.0000 0.0000 2.2081 0.0000 29.0871
#
#
#
# Elastic Compliance Matrix: (Units=1/GPa)
#
#
# Indices 1 2 3 4 5 6 
#
# 1 0.007471 -0.004626 -0.005612 0.000000 -0.007333 0.000000
# 2 -0.004626 0.011383 0.004379 0.000000 -0.005090 0.000000
# 3 -0.005612 0.004379 0.042541 0.000000 -0.007741 0.000000
# 4 0.000000 0.000000 0.000000 -0.129956 0.000000 0.009865
# 5 -0.007333 -0.005090 -0.007741 0.000000 0.124237 0.000000
# 6 0.000000 0.000000 0.000000 0.009865 0.000000 0.033631
#
#
# Mechanical properties :
#
#
# Convention : Reuss Voigt Hill
#
# Bulk Modulus (GPa) = 20.13040 68.28472 44.20756
# Shear Modulus (GPa) = 42.52343 24.09529 33.30936
#
# Velocity S-wave (km/s) = 4.68581 3.52725 4.14719
# Velocity P-wave (km/s) = 6.29841 7.20051 6.76451
#
# Compressibility (1/GPa) = 0.04967612
#
# Stress axis : x y z
#
# Youngs Moduli (GPa) = 133.85576 87.85397 23.50674
#
# Poissons Ratio (x) = 0.40642 0.13192
# Poissons Ratio (y) = 0.61922 -0.10294
# Poissons Ratio (z) = 0.75121 -0.38472
#
# Static dielectric constant tensor:
#      x y z
#    x 2.436300 0.000000 0.109450 
#    y 0.000000 1.629520 0.000000 
#    z 0.109450 0.000000 1.772340 
# 
# From -- ./inp_files/331273.got.cif
#   From: 2010.05.17/outbox.cif.g08.bks.cpg/sg12_166_cif.got.tgz:331273.got - 2010.06.03 13:09:07.
