data_PCOD9168262
_publ_section_title
;
Structure prediction by ZEFSAII (Michael W. Deem and Ramdas Pophale) SiO2 
 PCOD9168262
Probable space group: P 21/M
;
_chemical_formula_sum "Si O2"
_cell_formula_units_Z 32
_cell_length_a 15.000000
_cell_length_b 15.000000
_cell_length_c 21.000000
_cell_angle_alpha 90.000000
_cell_angle_beta 20.000000
_cell_angle_gamma 90.000000
_cell_volume 1616.045177
_symmetry_space_group_name_H-M "P 21/M"
_symmetry_group_IT_number 11
_symmetry_cell_setting 'monoclinic'
loop_
_space_group_symop_operation_xyz
x,y,z
-x,1/2+y,-z
-x,-y,-z
x,1/2-y,z
loop_
_atom_site_type_symbol
_atom_site_label
_atom_site_fract_x
_atom_site_fract_y
_atom_site_fract_z
Si Si1 0.446834 0.431264 0.669648
Si Si2 0.072264 0.648682 0.202694
Si Si3 0.129518 0.648755 0.940000
Si Si4 0.609265 0.529495 0.041280
Si Si5 0.112711 0.645112 0.327530
Si Si6 0.462546 0.893192 0.590648
Si Si7 0.571401 0.954262 0.708791
Si Si8 0.876778 0.151429 0.304617
O O1 0.435763 0.500899 0.618592
O O2 0.566309 0.485994 0.648397
O O3 0.663675 0.360666 0.503527
O O4 0.149768 0.400148 0.881551
O O5 0.142148 0.750000 0.134632
O O6 0.772313 0.629254 0.380833
O O7 0.059546 0.649075 0.287792
O O8 0.286596 0.571457 0.044596
O O9 0.066022 0.750000 0.997751
O O10 0.312103 0.644205 0.754386
O O11 0.316839 0.608192 0.868518
O O12 0.371869 0.582930 0.164870
O O13 0.492410 0.518421 0.190068
O O14 0.879331 0.584644 0.855933
O O15 0.145029 0.750000 0.327193
O O16 0.844575 0.598825 0.533829
O O17 0.294728 0.860826 0.643947
O O18 0.989213 0.250000 0.230446
#
# Coordination Sequence:
#
# PCOD9168262 Si02
#       8
#     4   4   4   4   4   4   4   4
#     4  11  22  39  61  93 128 172 208 261 319 381
#     4  11  23  41  68  96 123 162 214 269 321 377
#     4  11  21  36  60  92 128 168 214 259 315 383
#     4  12  25  43  64  96 133 170 210 266 322 378
#     4  11  23  45  70  92 122 168 222 268 320 377
#     4  11  21  40  61  89 127 169 211 264 321 377
#     4  11  23  41  65  91 125 170 216 266 317 373
#     4  12  24  39  61  93 134 173 211 259 320 386
#
# _framework density 19.801427
#
# number of rings (size 3 to 8) (size 9 to 14) (size 15 to 20)
#    0.000    0.750    3.750    6.375    1.750    1.000 
#    0.000    1.875    0.000    0.750    0.000    0.000 
#    0.000    0.000    0.000    0.000    0.000    0.000 
#
# Total GULP energy -178554.064785 kJ/mol
# GULP energy per Si atom -5579.814525 kJ/mol
# Density = 1.975636 g / cm^3
# Si number density = 19.801427 Si / 1000 Ang^3
#
#
#
# Elastic Constant Matrix: (Units=GPa)
#
#
# Indices 1 2 3 4 5 6 
#
# 1 51.7892 17.1577 25.8891 0.0000 -15.3258 0.0000
# 2 17.1577 119.1690 35.7931 0.0000 -16.0958 0.0000
# 3 25.8891 35.7931 117.0733 0.0000 -33.1036 0.0000
# 4 0.0000 0.0000 0.0000 29.7330 0.0000 -9.1713
# 5 -15.3258 -16.0958 -33.1036 0.0000 41.2140 0.0000
# 6 0.0000 0.0000 0.0000 -9.1713 0.0000 12.9791
#
#
#
# Elastic Compliance Matrix: (Units=1/GPa)
#
#
# Indices 1 2 3 4 5 6 
#
# 1 0.022992 -0.001662 -0.003031 0.000000 0.005467 0.000000
# 2 -0.001662 0.009457 -0.002140 0.000000 0.001356 0.000000
# 3 -0.003031 -0.002140 0.012047 0.000000 0.007714 0.000000
# 4 0.000000 0.000000 0.000000 0.043006 0.000000 0.030389
# 5 0.005467 0.001356 0.007714 0.000000 0.033022 0.000000
# 6 0.000000 0.000000 0.000000 0.030389 0.000000 0.098521
#
#
# Mechanical properties :
#
#
# Convention : Reuss Voigt Hill
#
# Bulk Modulus (GPa) = 32.43483 49.52347 40.97915
# Shear Modulus (GPa) = 20.57717 30.73132 25.65425
#
# Velocity S-wave (km/s) = 3.22712 3.94379 3.60332
# Velocity P-wave (km/s) = 5.50467 6.76774 6.16862
#
# Compressibility (1/GPa) = 0.03083105
#
# Stress axis : x y z
#
# Youngs Moduli (GPa) = 43.49285 105.74488 83.00605
#
# Poissons Ratio (x) = 0.17572 0.25156
# Poissons Ratio (y) = 0.07227 0.17765
# Poissons Ratio (z) = 0.13181 0.22632
#
# Static dielectric constant tensor:
#      x y z
#    x 1.712750 0.000000 0.032090 
#    y 0.000000 1.770500 0.000000 
#    z 0.032090 0.000000 1.685910 
# 
# From -- ./inp_files/65754.got.cif
#   From: 2010.05.17/outbox.ucp.g08.bks.cvg/sg11_33_cif.got.tgz:65754.got - 2010.06.11 11:38:39.
