data_PCOD9168531
_publ_section_title
;
Structure prediction by ZEFSAII (Michael W. Deem and Ramdas Pophale) SiO2 
 PCOD9168531
Probable space group: C 2/M
;
_chemical_formula_sum "Si O2"
_cell_formula_units_Z 56
_cell_length_a 5.573063
_cell_length_b 19.102517
_cell_length_c 29.358477
_cell_angle_alpha 90.000000
_cell_angle_beta 60.999359
_cell_angle_gamma 90.000000
_cell_volume 2733.597919
_symmetry_space_group_name_H-M "C 2/M"
_symmetry_group_IT_number 12
_symmetry_cell_setting 'monoclinic'
loop_
_space_group_symop_operation_xyz
x,y,z
-x,y,-z
-x,-y,-z
x,-y,z
1/2+x,1/2+y,z
1/2-x,1/2+y,-z
1/2-x,1/2-y,-z
1/2+x,1/2-y,z
loop_
_atom_site_type_symbol
_atom_site_label
_atom_site_fract_x
_atom_site_fract_y
_atom_site_fract_z
Si Si1 0.385695 0.745448 0.405949
Si Si2 0.266056 0.832344 0.896057
Si Si3 0.962773 0.603488 0.639800
Si Si4 0.377764 0.382291 0.674208
Si Si5 0.702280 0.080234 0.519144
Si Si6 0.659535 0.828668 0.937765
Si Si7 0.564256 0.793764 0.778015
O O1 0.560535 0.750501 0.435354
O O2 0.496408 0.811319 0.365448
O O3 0.477664 0.675113 0.372197
O O4 0.460642 0.861932 0.917990
O O5 0.218762 0.750562 0.914648
O O6 0.424358 0.831872 0.833795
O O7 0.959284 0.861927 0.918169
O O8 0.644384 0.583982 0.673224
O O9 0.169716 0.578270 0.659743
O O10 0.059938 0.579715 0.581128
O O11 0.197403 0.344620 0.728820
O O12 0.500000 0.111451 0.500000
O O13 0.000000 0.112993 0.500000
O O14 0.754779 0.000000 0.498395
O O15 0.500000 0.824156 0.000000
O O16 0.317738 0.751264 0.775748
#
# Coordination Sequence:
#
# PCOD9168531 Si02
#       7
#     8   8   8   8   8   8   8
#     4   8  14  25  39  59  80 109 139 157 186 226
#     4  10  16  24  31  49  63  93 127 183 225 265
#     4  10  18  32  48  67  90 110 141 163 200 251
#     4  10  19  28  45  64  85 122 140 169 202 251
#     4  10  21  37  57  77  92 109 133 169 214 248
#     4  10  16  25  33  43  63  96 137 181 235 268
#     4  12  18  27  38  55  83 103 144 178 222 256
#
# _framework density 20.485823
#
# number of rings (size 3 to 8) (size 9 to 14) (size 15 to 20)
#    0.000    2.000    2.857    6.429    0.000    0.000 
#    0.000    0.000    0.000   23.143    0.000    0.000 
#    0.000    0.000    0.000    0.000    0.000    0.000 
#
# Total GULP energy -156105.121492 kJ/mol
# GULP energy per Si atom -5575.182910 kJ/mol
# Density = 2.043920 g / cm^3
# Si number density = 20.485823 Si / 1000 Ang^3
#
#
#
# Elastic Constant Matrix: (Units=GPa)
#
#
# Indices 1 2 3 4 5 6 
#
# 1 250.0053 6.2940 32.3959 0.0000 5.9089 0.0000
# 2 6.2940 40.1823 -4.9868 0.0000 4.5777 0.0000
# 3 32.3959 -4.9868 85.3372 0.0000 6.1660 0.0000
# 4 0.0000 0.0000 0.0000 6.1563 0.0000 -2.2134
# 5 5.9089 4.5777 6.1660 0.0000 35.3549 0.0000
# 6 0.0000 0.0000 0.0000 -2.2134 0.0000 -21.2332
#
#
#
# Elastic Compliance Matrix: (Units=1/GPa)
#
#
# Indices 1 2 3 4 5 6 
#
# 1 0.004240 -0.000831 -0.001635 0.000000 -0.000316 0.000000
# 2 -0.000831 0.025678 0.002072 0.000000 -0.003547 0.000000
# 3 -0.001635 0.002072 0.012619 0.000000 -0.002196 0.000000
# 4 0.000000 0.000000 0.000000 0.156568 0.000000 -0.016321
# 5 -0.000316 -0.003547 -0.002196 0.000000 0.029180 0.000000
# 6 0.000000 0.000000 0.000000 -0.016321 0.000000 -0.045395
#
#
# Mechanical properties :
#
#
# Convention : Reuss Voigt Hill
#
# Bulk Modulus (GPa) = 23.95282 49.21455 36.58369
# Shear Modulus (GPa) = 25.30430 26.84371 26.07400
#
# Velocity S-wave (km/s) = 3.51837 3.62381 3.57148
# Velocity P-wave (km/s) = 5.31253 6.44866 5.90797
#
# Compressibility (1/GPa) = 0.04174874
#
# Stress axis : x y z
#
# Youngs Moduli (GPa) = 235.83653 38.94368 79.24664
#
# Poissons Ratio (x) = 0.03237 0.12960
# Poissons Ratio (y) = 0.19602 -0.16423
# Poissons Ratio (z) = 0.38570 -0.08071
#
# Static dielectric constant tensor:
#      x y z
#    x 1.859950 0.000000 0.009100 
#    y 0.000000 1.747410 0.000000 
#    z 0.009100 0.000000 1.668180 
# 
# From -- ./inp_files/355043.got.cif
#   From: 2010.05.17/outbox.cif.g08.bks.cpg/sg12_178_cif.got.tgz:355043.got - 2010.06.03 13:09:07.
