data_PCOD9168138
_publ_section_title
;
Structure prediction by ZEFSAII (Michael W. Deem and Ramdas Pophale) SiO2 
 PCOD9168138
Probable space group: P 21/M
;
_chemical_formula_sum "Si O2"
_cell_formula_units_Z 28
_cell_length_a 15.000000
_cell_length_b 9.000000
_cell_length_c 21.000000
_cell_angle_alpha 90.000000
_cell_angle_beta 30.000000
_cell_angle_gamma 90.000000
_cell_volume 1417.500000
_symmetry_space_group_name_H-M "P 21/M"
_symmetry_group_IT_number 11
_symmetry_cell_setting 'monoclinic'
loop_
_space_group_symop_operation_xyz
x,y,z
-x,1/2+y,-z
-x,-y,-z
x,1/2-y,z
loop_
_atom_site_type_symbol
_atom_site_label
_atom_site_fract_x
_atom_site_fract_y
_atom_site_fract_z
Si Si1 0.999434 0.422299 0.602378
Si Si2 0.275954 0.578470 0.345285
Si Si3 0.242035 0.925047 0.627985
Si Si4 0.878157 0.428841 0.817029
Si Si5 0.188894 0.070786 0.903005
Si Si6 0.357322 0.571439 0.921043
Si Si7 0.439377 0.925790 0.641693
O O1 0.054788 0.250000 0.577046
O O2 0.859545 0.425974 0.630724
O O3 0.901879 0.473251 0.727907
O O4 0.168882 0.515455 0.472589
O O5 0.328757 0.750000 0.323705
O O6 0.445219 0.482227 0.219605
O O7 0.230659 0.750000 0.620838
O O8 0.322351 0.940831 0.649316
O O9 0.372506 0.003959 0.496267
O O10 0.051063 0.001748 0.743233
O O11 0.886830 0.250000 0.812703
O O12 0.708526 0.468866 0.966418
O O13 0.182365 0.250000 0.905498
O O14 0.234260 0.010484 0.945242
O O15 0.340065 0.009903 0.760532
O O16 0.000000 0.000000 0.000000
O O17 0.343664 0.750000 0.922609
O O18 0.457014 0.750000 0.645360
#
# Coordination Sequence:
#
# PCOD9168138 Si02
#       7
#     4   4   4   4   4   4   4
#     4   9  20  40  64  89 121 160 201 250 305 364
#     4  10  21  39  63  92 123 157 201 252 305 364
#     4  10  21  36  57  86 119 153 197 250 302 356
#     4  10  22  39  60  86 118 160 203 248 302 363
#     4  12  25  41  61  86 119 159 204 251 303 360
#     4  11  24  41  62  89 123 163 205 251 307 366
#     4  10  21  38  59  83 114 157 202 249 302 355
#
# _framework density 19.753086
#
# number of rings (size 3 to 8) (size 9 to 14) (size 15 to 20)
#    0.000    1.714    0.000    3.857    2.000    6.857 
#    0.000    0.000    0.000    0.000    0.000    0.000 
#    0.000    0.000    0.000    0.000    0.000    0.000 
#
# Total GULP energy -156465.769827 kJ/mol
# GULP energy per Si atom -5588.063208 kJ/mol
# Density = 1.970813 g / cm^3
# Si number density = 19.753086 Si / 1000 Ang^3
#
#
#
# Elastic Constant Matrix: (Units=GPa)
#
#
# Indices 1 2 3 4 5 6 
#
# 1 45.4277 22.5046 34.5392 0.0000 24.6921 0.0000
# 2 22.5046 82.8144 55.5268 0.0000 22.0856 0.0000
# 3 34.5392 55.5268 138.7130 0.0000 32.8662 0.0000
# 4 0.0000 0.0000 0.0000 35.9365 0.0000 -0.2660
# 5 24.6921 22.0856 32.8662 0.0000 38.1178 0.0000
# 6 0.0000 0.0000 0.0000 -0.2660 0.0000 26.5761
#
#
#
# Elastic Compliance Matrix: (Units=1/GPa)
#
#
# Indices 1 2 3 4 5 6 
#
# 1 0.036244 -0.002388 -0.003561 0.000000 -0.019024 0.000000
# 2 -0.002388 0.017411 -0.005469 0.000000 -0.003826 0.000000
# 3 -0.003561 -0.005469 0.011295 0.000000 -0.004263 0.000000
# 4 0.000000 0.000000 0.000000 0.027829 0.000000 0.000279
# 5 -0.019024 -0.003826 -0.004263 0.000000 0.044451 0.000000
# 6 0.000000 0.000000 0.000000 0.000279 0.000000 0.037631
#
#
# Mechanical properties :
#
#
# Convention : Reuss Voigt Hill
#
# Bulk Modulus (GPa) = 23.74454 54.67736 39.21095
# Shear Modulus (GPa) = 23.61444 30.41836 27.01640
#
# Velocity S-wave (km/s) = 3.46132 3.92845 3.70226
# Velocity P-wave (km/s) = 5.29350 6.95108 6.17813
#
# Compressibility (1/GPa) = 0.04211495
#
# Stress axis : x y z
#
# Youngs Moduli (GPa) = 27.59060 57.43458 88.53379
#
# Poissons Ratio (x) = 0.13715 0.31530
# Poissons Ratio (y) = 0.06588 0.48415
# Poissons Ratio (z) = 0.09826 0.31408
#
# Static dielectric constant tensor:
#      x y z
#    x 1.713480 0.000000 -0.001930 
#    y 0.000000 1.664260 0.000000 
#    z -0.001930 0.000000 1.684520 
# 
# From -- ./inp_files/51911.got.cif
#   From: 2010.05.17/outbox.ucp.g08.bks.cvg/sg11_26_cif.got.tgz:51911.got - 2010.06.11 11:38:39.
