data_PCOD9168788
_publ_section_title
;
Structure prediction by ZEFSAII (Michael W. Deem and Ramdas Pophale) SiO2 
 PCOD9168788
Probable space group: C 2/M
;
_chemical_formula_sum "Si O2"
_cell_formula_units_Z 56
_cell_length_a 24.007132
_cell_length_b 20.227478
_cell_length_c 18.359448
_cell_angle_alpha 90.000000
_cell_angle_beta 22.895774
_cell_angle_gamma 90.000000
_cell_volume 3468.596327
_symmetry_space_group_name_H-M "C 2/M"
_symmetry_group_IT_number 12
_symmetry_cell_setting 'monoclinic'
loop_
_space_group_symop_operation_xyz
x,y,z
-x,y,-z
-x,-y,-z
x,-y,z
1/2+x,1/2+y,z
1/2-x,1/2+y,-z
1/2-x,1/2-y,-z
1/2+x,1/2-y,z
loop_
_atom_site_type_symbol
_atom_site_label
_atom_site_fract_x
_atom_site_fract_y
_atom_site_fract_z
Si Si1 0.279437 0.576652 0.847975
Si Si2 0.119296 0.343787 0.157964
Si Si3 0.911450 0.204499 0.876943
Si Si4 0.924661 0.315217 0.515542
Si Si5 0.647184 0.134069 0.862638
Si Si6 0.448833 0.337010 0.435665
Si Si7 0.606543 0.290410 0.935808
O O1 0.317341 0.500000 0.804364
O O2 0.192904 0.593768 0.878943
O O3 0.423954 0.620756 0.680548
O O4 0.179855 0.597545 0.036030
O O5 0.083451 0.282681 0.147278
O O6 0.987961 0.354622 0.370667
O O7 0.250539 0.318262 0.050421
O O8 0.013560 0.169606 0.695052
O O9 0.940192 0.191066 0.926490
O O10 0.955345 0.237533 0.460077
O O11 0.757955 0.320787 0.731594
O O12 0.000000 0.332766 0.500000
O O13 0.790432 0.135043 0.640277
O O14 0.623719 0.210578 0.914137
O O15 0.500000 0.112686 0.000000
O O16 0.500000 0.308236 0.000000
#
# Coordination Sequence:
#
# PCOD9168788 Si02
#       7
#     8   8   8   8   8   8   8
#     4  11  21  34  52  69  93 128 170 207 230 271
#     4   9  17  29  48  72  94 123 162 197 239 283
#     4   9  15  29  49  71 100 126 151 194 242 287
#     4  10  16  28  51  74  97 127 154 189 242 300
#     4  10  20  34  46  69 104 132 155 192 237 284
#     4   9  19  31  51  75  95 123 163 200 233 284
#     4  10  18  29  45  76 107 127 151 188 237 295
#
# _framework density 16.144859
#
# number of rings (size 3 to 8) (size 9 to 14) (size 15 to 20)
#    0.000    2.286    2.857    3.000    0.000    1.429 
#    2.571    2.857    0.000    0.429    0.000    0.000 
#    0.000    9.714    0.000    0.000    0.000    0.000 
#
# Total GULP energy -156045.728343 kJ/mol
# GULP energy per Si atom -5573.061727 kJ/mol
# Density = 1.610811 g / cm^3
# Si number density = 16.144859 Si / 1000 Ang^3
#
#
#
# Elastic Constant Matrix: (Units=GPa)
#
#
# Indices 1 2 3 4 5 6 
#
# 1 121.2519 11.0551 65.6189 -0.0306 5.9100 0.0650
# 2 11.0551 21.3241 16.0537 -0.0487 -4.6905 0.1007
# 3 65.6189 16.0537 89.2686 -0.0651 4.0026 0.1377
# 4 -0.0306 -0.0487 -0.0651 -70.0139 0.0293 159.7596
# 5 5.9100 -4.6905 4.0026 0.0293 27.6583 -0.0628
# 6 0.0650 0.1007 0.1377 159.7596 -0.0628 -317.4263
#
#
#
# Elastic Compliance Matrix: (Units=1/GPa)
#
#
# Indices 1 2 3 4 5 6 
#
# 1 0.013756 0.000128 -0.010069 0.000001 -0.001461 -0.000001
# 2 0.000128 0.057566 -0.010954 -0.000004 0.011320 0.000009
# 3 -0.010069 -0.010954 0.020695 -0.000005 -0.002701 0.000001
# 4 0.000001 -0.000004 -0.000005 0.096222 0.000008 0.048428
# 5 -0.001461 0.011320 -0.002701 0.000008 0.038778 -0.000002
# 6 -0.000001 0.000009 0.000001 0.048428 -0.000002 0.021223
#
#
# Mechanical properties :
#
#
# Convention : Reuss Voigt Hill
#
# Bulk Modulus (GPa) = 19.91009 46.36666 33.13837
# Shear Modulus (GPa) = 16.29871 -62.68191 -23.19160
#
# Velocity S-wave (km/s) = 3.18076 -6.23771 -3.79419
# Velocity P-wave (km/s) = 5.08415 4.80595 1.17290
#
# Compressibility (1/GPa) = 0.05022580
#
# Stress axis : x y z
#
# Youngs Moduli (GPa) = 72.69523 17.37147 48.32160
#
# Poissons Ratio (x) = -0.00222 0.48656
# Poissons Ratio (y) = -0.00928 0.52930
# Poissons Ratio (z) = 0.73198 0.19028
#
# Static dielectric constant tensor:
#      x y z
#    x 1.619390 0.000000 -0.049150 
#    y 0.000000 1.518890 0.000000 
#    z -0.049150 0.000000 1.601390 
# 
# From -- ./inp_files/89516.got.cif
#   From: 2010.05.17/outbox.cif.g08.bks.cpg/sg12_45_cif.got.tgz:89516.got - 2010.06.03 13:09:07.
