data_PCOD9168552
_publ_section_title
;
Structure prediction by ZEFSAII (Michael W. Deem and Ramdas Pophale) SiO2 
 PCOD9168552
Probable space group: C 2/M
;
_chemical_formula_sum "Si O2"
_cell_formula_units_Z 52
_cell_length_a 15.959571
_cell_length_b 17.503778
_cell_length_c 15.370995
_cell_angle_alpha 90.000000
_cell_angle_beta 150.114652
_cell_angle_gamma 90.000000
_cell_volume 2139.519630
_symmetry_space_group_name_H-M "C 2/M"
_symmetry_group_IT_number 12
_symmetry_cell_setting 'monoclinic'
loop_
_space_group_symop_operation_xyz
x,y,z
-x,y,-z
-x,-y,-z
x,-y,z
1/2+x,1/2+y,z
1/2-x,1/2+y,-z
1/2-x,1/2-y,-z
1/2+x,1/2-y,z
loop_
_atom_site_type_symbol
_atom_site_label
_atom_site_fract_x
_atom_site_fract_y
_atom_site_fract_z
Si Si1 0.161440 0.415690 0.081963
Si Si2 0.747689 0.290537 0.717547
Si Si3 0.648233 0.582207 0.494442
Si Si4 0.838691 0.084659 0.079600
Si Si5 0.613688 0.851619 0.419897
Si Si6 0.000000 0.345750 0.500000
Si Si7 0.973018 0.771953 0.789830
O O1 0.237468 0.500000 0.164934
O O2 0.257822 0.342881 0.203632
O O3 0.169512 0.409232 0.984780
O O4 0.000000 0.417039 0.000000
O O5 0.656371 0.344476 0.563607
O O6 0.655612 0.211886 0.652620
O O7 0.930494 0.274219 0.839464
O O8 0.651278 0.500000 0.543067
O O9 0.489668 0.583660 0.287215
O O10 0.815376 0.588703 0.585612
O O11 0.888175 0.162092 0.074132
O O12 0.841219 0.000000 0.038691
O O13 0.531175 0.883854 0.433941
O O14 0.790374 0.811105 0.607359
O O15 0.508280 0.785744 0.274826
#
# Coordination Sequence:
#
# PCOD9168552 Si02
#       7
#     8   8   8   8   8   4   8
#     4  10  20  31  41  57  83 109 130 159 203 245
#     4  10  17  26  43  62  81 105 133 165 196 232
#     4   9  16  26  41  61  82 105 135 165 192 228
#     4   9  16  27  43  60  81 106 130 162 198 233
#     4   8  14  23  36  57  85 109 127 156 196 234
#     4  10  16  24  42  64  82 102 132 164 198 234
#     4   8  14  25  39  58  81 104 132 161 193 232
#
# _framework density 24.304521999999999
#
# number of rings (size 3 to 8) (size 9 to 14) (size 15 to 20)
#    0.000    2.923    0.000    5.077    0.000    0.000 
#    0.000    4.231    0.000    0.923    0.000    0.000 
#    0.000    0.615    0.000    0.000    0.000   38.308 
#
# Total GULP energy -144930.414518 kJ/mol
# GULP energy per Si atom -5574.246712 kJ/mol
# Density = 2.424920 g / cm^3
# Si number density = 24.304522 Si / 1000 Ang^3
#
#
#
# Elastic Constant Matrix: (Units=GPa)
#
#
# Indices 1 2 3 4 5 6 
#
# 1 107.1187 17.5331 14.0388 0.0003 24.9100 0.0001
# 2 17.5331 72.9168 17.8206 0.0001 11.1580 0.0001
# 3 14.0388 17.8206 43.4193 0.0006 10.4115 0.0002
# 4 0.0003 0.0001 0.0006 3.1540 0.0005 7.9530
# 5 24.9100 11.1580 10.4115 0.0005 20.3921 0.0002
# 6 0.0001 0.0001 0.0002 7.9530 0.0002 30.3020
#
#
#
# Elastic Compliance Matrix: (Units=1/GPa)
#
#
# Indices 1 2 3 4 5 6 
#
# 1 0.013080 -0.000724 -0.000223 0.000005 -0.015468 -0.000001
# 2 -0.000724 0.015925 -0.005042 0.000005 -0.005255 -0.000001
# 3 -0.000223 -0.005042 0.027856 -0.000010 -0.011191 0.000002
# 4 0.000005 0.000005 -0.000010 0.937481 -0.000026 -0.246051
# 5 -0.015468 -0.005255 -0.011191 -0.000026 0.076523 0.000007
# 6 -0.000001 -0.000001 0.000002 -0.246051 0.000007 0.097579
#
#
# Mechanical properties :
#
#
# Convention : Reuss Voigt Hill
#
# Bulk Modulus (GPa) = 22.27969 35.80440 29.04205
# Shear Modulus (GPa) = 4.18276 22.37379 13.27827
#
# Velocity S-wave (km/s) = 1.31328 3.03737 2.33990
# Velocity P-wave (km/s) = 3.38916 5.20234 4.39037
#
# Compressibility (1/GPa) = 0.04488393
#
# Stress axis : x y z
#
# Youngs Moduli (GPa) = 76.45152 62.79571 35.89872
#
# Poissons Ratio (x) = 0.04544 0.00801
# Poissons Ratio (y) = 0.05532 0.18099
# Poissons Ratio (z) = 0.01706 0.31660
#
# Static dielectric constant tensor:
#      x y z
#    x 2.005390 0.000000 0.032820 
#    y 0.000000 1.946960 0.000000 
#    z 0.032820 0.000000 2.019360 
# 
# From -- ./inp_files/216870.got.cif
#   From: 2010.05.17/outbox.cif.g08.bks.cpg/sg12_109_cif.got.tgz:216870.got - 2010.06.03 13:09:07.
