data_PCOD9168005
_publ_section_title
;
Structure prediction by ZEFSAII (Michael W. Deem and Ramdas Pophale) SiO2 
 PCOD9168005
Probable space group: P 21/M
;
_chemical_formula_sum "Si O2"
_cell_formula_units_Z 28
_cell_length_a 27.000000
_cell_length_b 9.000000
_cell_length_c 9.000000
_cell_angle_alpha 90.000000
_cell_angle_beta 140.000000
_cell_angle_gamma 90.000000
_cell_volume 1405.776502
_symmetry_space_group_name_H-M "P 21/M"
_symmetry_group_IT_number 11
_symmetry_cell_setting 'monoclinic'
loop_
_space_group_symop_operation_xyz
x,y,z
-x,1/2+y,-z
-x,-y,-z
x,1/2-y,z
loop_
_atom_site_type_symbol
_atom_site_label
_atom_site_fract_x
_atom_site_fract_y
_atom_site_fract_z
Si Si1 0.682911 0.927702 0.544610
Si Si2 0.877856 0.427154 0.499873
Si Si3 0.609343 0.926555 0.841151
Si Si4 0.817179 0.071871 0.027896
Si Si5 0.034383 0.428920 0.729622
Si Si6 0.444309 0.924416 0.586495
Si Si7 0.252763 0.071407 0.628823
O O1 0.686110 0.750000 0.563098
O O2 0.715510 0.973879 0.459042
O O3 0.737218 0.001064 0.794323
O O4 0.597248 0.985153 0.379563
O O5 0.870698 0.250000 0.498916
O O6 0.829412 0.506690 0.514951
O O7 0.968773 0.463193 0.700053
O O8 0.841256 0.465875 0.253169
O O9 0.614423 0.750000 0.816474
O O10 0.535879 0.945019 0.780930
O O11 0.590669 0.016805 0.649895
O O12 0.685845 0.973703 0.103267
O O13 0.816375 0.250000 0.013782
O O14 0.882049 0.001737 0.068438
O O15 0.040132 0.250000 0.729074
O O16 0.000000 0.500000 0.500000
O O17 0.428334 0.750000 0.566251
O O18 0.249194 0.250000 0.621477
#
# Coordination Sequence:
#
# PCOD9168005 Si02
#       7
#     4   4   4   4   4   4   4
#     4  11  23  37  52  75 108 143 178 217 263 316
#     4   9  19  34  54  80 107 134 171 218 263 310
#     4   9  19  37  58  80 107 138 174 219 266 311
#     4  10  20  35  56  82 107 136 178 223 267 317
#     4   9  17  31  52  80 110 139 174 219 268 315
#     4  10  20  35  57  83 107 135 175 219 264 316
#     4  10  22  37  53  75 105 142 181 216 258 315
#
# _framework density 19.917818
#
# number of rings (size 3 to 8) (size 9 to 14) (size 15 to 20)
#    0.000    2.286    0.000    3.429    0.000    8.571 
#    0.000    0.714    0.000    0.000    0.000    0.000 
#    0.000    0.000    0.000    0.000    0.000    0.000 
#
# Total GULP energy -156328.455390 kJ/mol
# GULP energy per Si atom -5583.159121 kJ/mol
# Density = 1.987248 g / cm^3
# Si number density = 19.917818 Si / 1000 Ang^3
#
#
#
# Elastic Constant Matrix: (Units=GPa)
#
#
# Indices 1 2 3 4 5 6 
#
# 1 125.7495 35.9495 -1.0418 0.0000 15.6609 0.0000
# 2 35.9495 46.0330 0.8843 0.0000 7.9452 0.0000
# 3 -1.0418 0.8843 5.3422 0.0000 14.2665 0.0000
# 4 0.0000 0.0000 0.0000 17.8463 0.0000 4.0830
# 5 15.6609 7.9452 14.2665 0.0000 23.3772 0.0000
# 6 0.0000 0.0000 0.0000 4.0830 0.0000 37.9356
#
#
#
# Elastic Compliance Matrix: (Units=1/GPa)
#
#
# Indices 1 2 3 4 5 6 
#
# 1 0.009097 -0.008171 -0.019032 0.000000 0.008298 0.000000
# 2 -0.008171 0.028171 -0.007453 0.000000 0.000448 0.000000
# 3 -0.019032 -0.007453 -0.228496 0.000000 0.154728 0.000000
# 4 0.000000 0.000000 0.000000 0.057449 0.000000 -0.006183
# 5 0.008298 0.000448 0.154728 0.000000 -0.057361 0.000000
# 6 0.000000 0.000000 0.000000 -0.006183 0.000000 0.027026
#
#
# Mechanical properties :
#
#
# Convention : Reuss Voigt Hill
#
# Bulk Modulus (GPa) = -3.83817 27.63428 11.89806
# Shear Modulus (GPa) = -27.52566 25.25400 -1.13583
#
# Velocity S-wave (km/s) = -3.72151 3.56464 -0.75597
# Velocity P-wave (km/s) = 4.51634 5.55396 2.28573
#
# Compressibility (1/GPa) = -0.26054115
#
# Stress axis : x y z
#
# Youngs Moduli (GPa) = 109.92412 35.49807 -4.37645
#
# Poissons Ratio (x) = 0.29005 -0.08329
# Poissons Ratio (y) = 0.89819 -0.03262
# Poissons Ratio (z) = 2.09211 0.26457
#
# Static dielectric constant tensor:
#      x y z
#    x 1.743130 0.000000 0.033200 
#    y 0.000000 1.626410 0.000000 
#    z 0.033200 0.000000 1.719190 
# 
# From -- ./inp_files/28622.got.cif
#   From: 2010.05.17/outbox.ucp.g08.bks.cvg/sg11_15_cif.got.tgz:28622.got - 2010.06.11 11:38:39.
