data_PCOD9168894
_publ_section_title
;
Structure prediction by ZEFSAII (Michael W. Deem and Ramdas Pophale) SiO2 
 PCOD9168894
Probable space group: C 2/M
;
_chemical_formula_sum "Si O2"
_cell_formula_units_Z 56
_cell_length_a 19.520546
_cell_length_b 20.376444
_cell_length_c 13.764138
_cell_angle_alpha 90.000000
_cell_angle_beta 33.353247
_cell_angle_gamma 90.000000
_cell_volume 3010.049085
_symmetry_space_group_name_H-M "C 2/M"
_symmetry_group_IT_number 12
_symmetry_cell_setting 'monoclinic'
loop_
_space_group_symop_operation_xyz
x,y,z
-x,y,-z
-x,-y,-z
x,-y,z
1/2+x,1/2+y,z
1/2-x,1/2+y,-z
1/2-x,1/2-y,-z
1/2+x,1/2-y,z
loop_
_atom_site_type_symbol
_atom_site_label
_atom_site_fract_x
_atom_site_fract_y
_atom_site_fract_z
Si Si1 0.412761 0.571549 0.197850
Si Si2 0.496315 0.777548 0.259972
Si Si3 0.085068 0.132524 0.150045
Si Si4 0.138697 0.850784 0.290823
Si Si5 0.620844 0.818168 0.908239
Si Si6 0.740690 0.193962 0.353234
Si Si7 0.331420 0.195584 0.772249
O O1 0.351603 0.500000 0.279825
O O2 0.501207 0.585464 0.185131
O O3 0.321451 0.631843 0.287297
O O4 0.500000 0.570331 0.000000
O O5 0.507569 0.699238 0.260540
O O6 0.352092 0.791813 0.448533
O O7 0.572158 0.815676 0.254871
O O8 0.561396 0.794865 0.081450
O O9 0.130164 0.108439 0.201807
O O10 0.205323 0.158530 0.949956
O O11 0.257841 0.864047 0.218043
O O12 0.172633 0.775191 0.222045
O O13 0.000000 0.850955 0.500000
O O14 0.671397 0.754884 0.786071
O O15 0.500000 0.848542 0.000000
O O16 0.655388 0.180738 0.357692
#
# Coordination Sequence:
#
# PCOD9168894 Si02
#       7
#     8   8   8   8   8   8   8
#     4  11  23  38  54  74 105 151 195 232 266 311
#     4  11  19  31  52  81 110 147 176 220 290 339
#     4  11  17  32  55  73 106 144 184 225 269 326
#     4  10  19  31  49  79 115 144 177 220 274 345
#     4  11  20  31  47  77 118 146 173 216 276 344
#     4  11  21  32  52  80 116 147 182 222 273 340
#     4  10  16  30  49  74 110 144 172 214 264 331
#
# _framework density 18.604347000000001
#
# number of rings (size 3 to 8) (size 9 to 14) (size 15 to 20)
#    0.000    1.286    5.714    6.000    0.000    3.429 
#    0.000    0.000    0.000    3.000    0.000    0.000 
#    0.000    9.143    0.000    0.000    0.000    0.000 
#
# Total GULP energy -155898.872164 kJ/mol
# GULP energy per Si atom -5567.816863 kJ/mol
# Density = 1.856200 g / cm^3
# Si number density = 18.604347 Si / 1000 Ang^3
#
#
#
# Elastic Constant Matrix: (Units=GPa)
#
#
# Indices 1 2 3 4 5 6 
#
# 1 110.6848 15.8053 22.7757 -0.0001 -17.0750 -0.0001
# 2 15.8053 29.8564 13.9362 -0.0001 -7.2545 0.0000
# 3 22.7757 13.9362 112.7986 0.0000 -0.9919 -0.0001
# 4 -0.0001 -0.0001 0.0000 10.2938 0.0001 9.5553
# 5 -17.0750 -7.2545 -0.9919 0.0001 20.2543 0.0000
# 6 -0.0001 0.0000 -0.0001 9.5553 0.0000 27.9470
#
#
#
# Elastic Compliance Matrix: (Units=1/GPa)
#
#
# Indices 1 2 3 4 5 6 
#
# 1 0.011101 -0.003053 -0.001792 0.000000 0.008177 0.000000
# 2 -0.003053 0.039868 -0.004208 0.000000 0.011500 0.000000
# 3 -0.001792 -0.004208 0.009725 0.000000 -0.002542 0.000000
# 4 0.000000 0.000000 0.000000 0.142312 -0.000001 -0.048657
# 5 0.008177 0.011500 -0.002542 -0.000001 0.060260 0.000000
# 6 0.000000 0.000000 0.000000 -0.048657 0.000000 0.052418
#
#
# Mechanical properties :
#
#
# Convention : Reuss Voigt Hill
#
# Bulk Modulus (GPa) = 23.48133 39.81936 31.65034
# Shear Modulus (GPa) = 14.36835 25.08719 19.72777
#
# Velocity S-wave (km/s) = 2.78206 3.67612 3.25989
# Velocity P-wave (km/s) = 4.79256 6.28237 5.58735
#
# Compressibility (1/GPa) = 0.04258702
#
# Stress axis : x y z
#
# Youngs Moduli (GPa) = 90.08275 25.08256 102.82973
#
# Poissons Ratio (x) = 0.07658 0.18430
# Poissons Ratio (y) = 0.27503 0.43272
# Poissons Ratio (z) = 0.16146 0.10555
#
# Static dielectric constant tensor:
#      x y z
#    x 1.784460 0.000000 -0.011890 
#    y 0.000000 1.594920 0.000000 
#    z -0.011890 0.000000 1.678350 
# 
# From -- ./inp_files/234666.got.cif
#   From: 2010.05.17/outbox.cif.g08.bks.cpg/sg12_118_cif.got.tgz:234666.got - 2010.06.03 13:09:07.
