data_PCOD9168060
_publ_section_title
;
Structure prediction by ZEFSAII (Michael W. Deem and Ramdas Pophale) SiO2 
 PCOD9168060
Probable space group: P 21/M
;
_chemical_formula_sum "Si O2"
_cell_formula_units_Z 28
_cell_length_a 27.000000
_cell_length_b 9.000000
_cell_length_c 21.000000
_cell_angle_alpha 90.000000
_cell_angle_beta 20.000000
_cell_angle_gamma 90.000000
_cell_volume 1745.328791
_symmetry_space_group_name_H-M "P 21/M"
_symmetry_group_IT_number 11
_symmetry_cell_setting 'monoclinic'
loop_
_space_group_symop_operation_xyz
x,y,z
-x,1/2+y,-z
-x,-y,-z
x,1/2-y,z
loop_
_atom_site_type_symbol
_atom_site_label
_atom_site_fract_x
_atom_site_fract_y
_atom_site_fract_z
Si Si1 0.038848 0.427751 0.649502
Si Si2 0.016004 0.424761 0.412069
Si Si3 0.840238 0.929028 0.360976
Si Si4 0.053679 0.428529 0.001346
Si Si5 0.753285 0.924621 0.966667
Si Si6 0.449868 0.428957 0.364690
Si Si7 0.611652 0.571788 0.414052
O O1 0.035687 0.250000 0.646424
O O2 0.136800 0.466532 0.592203
O O3 0.073784 0.500697 0.538189
O O4 0.876356 0.489952 0.858749
O O5 0.982514 0.250000 0.456663
O O6 0.179458 0.439775 0.185939
O O7 0.000000 0.500000 0.500000
O O8 0.857150 0.750000 0.334786
O O9 0.684558 0.967834 0.518831
O O10 0.960123 0.007197 0.172301
O O11 0.039177 0.250000 0.015350
O O12 0.223308 0.465357 0.803342
O O13 0.000000 0.500000 0.000000
O O14 0.752820 0.750000 0.983003
O O15 0.597570 0.994954 0.164060
O O16 0.466116 0.250000 0.343406
O O17 0.415670 0.472110 0.479215
O O18 0.500000 0.500000 0.500000
O O19 0.596678 0.750000 0.429270
#
# Coordination Sequence:
#
# PCOD9168060 Si02
#       7
#     4   4   4   4   4   4   4
#     4   9  18  33  55  81 107 140 174 214 265 312
#     4   9  18  32  54  83 114 140 174 217 256 309
#     4  10  21  37  56  78 106 140 181 223 266 322
#     4  11  22  38  56  76 102 137 179 226 273 322
#     4   9  20  34  51  79 109 135 172 215 255 308
#     4  10  20  37  54  72 103 140 176 217 266 317
#     4  10  23  38  52  73 102 134 176 224 270 319
#
# _framework density 16.042822999999999
#
# number of rings (size 3 to 8) (size 9 to 14) (size 15 to 20)
#    0.857    1.429    1.429    1.286    2.000    3.429 
#    0.000    0.000    0.000    0.857    0.000    0.000 
#    0.000    0.000    0.000    0.000    0.000    0.000 
#
# Total GULP energy -155930.790469 kJ/mol
# GULP energy per Si atom -5568.956802 kJ/mol
# Density = 1.600631 g / cm^3
# Si number density = 16.042823 Si / 1000 Ang^3
#
#
#
# Elastic Constant Matrix: (Units=GPa)
#
#
# Indices 1 2 3 4 5 6 
#
# 1 154.2320 51.1643 46.0774 0.0000 -9.6249 0.0000
# 2 51.1643 52.2957 27.8967 0.0000 -3.5144 0.0000
# 3 46.0774 27.8967 60.5012 0.0000 -14.2906 0.0000
# 4 0.0000 0.0000 0.0000 29.4887 0.0000 3.5581
# 5 -9.6249 -3.5144 -14.2906 0.0000 26.0256 0.0000
# 6 0.0000 0.0000 0.0000 3.5581 0.0000 26.6789
#
#
#
# Elastic Compliance Matrix: (Units=1/GPa)
#
#
# Indices 1 2 3 4 5 6 
#
# 1 0.010375 -0.007910 -0.004136 0.000000 0.000497 0.000000
# 2 -0.007910 0.031662 -0.009486 0.000000 -0.003859 0.000000
# 3 -0.004136 -0.009486 0.026875 0.000000 0.011946 0.000000
# 4 0.000000 0.000000 0.000000 0.034466 0.000000 -0.004597
# 5 0.000497 -0.003859 0.011946 0.000000 0.044646 0.000000
# 6 0.000000 0.000000 0.000000 -0.004597 0.000000 0.038096
#
#
# Mechanical properties :
#
#
# Convention : Reuss Voigt Hill
#
# Bulk Modulus (GPa) = 38.69135 57.47841 48.08488
# Shear Modulus (GPa) = 21.02600 25.89799 23.46200
#
# Velocity S-wave (km/s) = 3.62417 4.02220 3.82836
# Velocity P-wave (km/s) = 6.45622 7.58134 7.04129
#
# Compressibility (1/GPa) = 0.02584557
#
# Stress axis : x y z
#
# Youngs Moduli (GPa) = 96.38860 31.58336 37.20972
#
# Poissons Ratio (x) = 0.24983 0.15392
# Poissons Ratio (y) = 0.76246 0.35298
# Poissons Ratio (z) = 0.39871 0.29961
#
# Static dielectric constant tensor:
#      x y z
#    x 1.531700 0.000000 -0.000080 
#    y 0.000000 1.540570 0.000000 
#    z -0.000080 0.000000 1.522190 
# 
# From -- ./inp_files/66871.got.cif
#   From: 2010.05.17/outbox.ucp.g08.bks.cvg/sg11_34_cif.got.tgz:66871.got - 2010.06.11 11:38:39.
