data_PCOD9168064
_publ_section_title
;
Structure prediction by ZEFSAII (Michael W. Deem and Ramdas Pophale) SiO2 
 PCOD9168064
Probable space group: P 21/M
;
_chemical_formula_sum "Si O2"
_cell_formula_units_Z 32
_cell_length_a 27.000000
_cell_length_b 9.000000
_cell_length_c 21.000000
_cell_angle_alpha 90.000000
_cell_angle_beta 160.000000
_cell_angle_gamma 90.000000
_cell_volume 1745.328791
_symmetry_space_group_name_H-M "P 21/M"
_symmetry_group_IT_number 11
_symmetry_cell_setting 'monoclinic'
loop_
_space_group_symop_operation_xyz
x,y,z
-x,1/2+y,-z
-x,-y,-z
x,1/2-y,z
loop_
_atom_site_type_symbol
_atom_site_label
_atom_site_fract_x
_atom_site_fract_y
_atom_site_fract_z
Si Si1 0.920840 0.072637 0.844677
Si Si2 0.892641 0.571174 0.050776
Si Si3 0.437215 0.071187 0.014252
Si Si4 0.581899 0.427513 0.428751
Si Si5 0.342705 0.429434 0.035870
Si Si6 0.726611 0.428657 0.301668
Si Si7 0.037208 0.430848 0.722892
Si Si8 0.417595 0.575648 0.342729
O O1 0.933131 0.250000 0.866588
O O2 0.751611 0.040126 0.631535
O O3 0.004724 0.027761 0.882699
O O4 0.000000 0.000000 0.000000
O O5 0.872301 0.750000 0.025715
O O6 0.961424 0.530716 0.201277
O O7 0.738819 0.495508 0.856139
O O8 0.423671 0.250000 0.994582
O O9 0.345874 0.000392 0.847361
O O10 0.372858 0.014878 0.002119
O O11 0.608183 0.038281 0.213426
O O12 0.564660 0.250000 0.423326
O O13 0.484716 0.456461 0.249473
O O14 0.512354 0.532229 0.396941
O O15 0.329487 0.250000 0.017471
O O16 0.190100 0.484473 0.879212
O O17 0.731145 0.250000 0.300041
O O18 0.888844 0.482362 0.511246
O O19 0.036953 0.250000 0.718471
O O20 0.500000 0.500000 0.500000
O O21 0.405534 0.750000 0.338093
#
# Coordination Sequence:
#
# PCOD9168064 Si02
#       8
#     4   4   4   4   4   4   4   4
#     4  10  22  36  56  82 109 140 180 224 277 330
#     4  10  20  37  58  83 111 143 182 230 278 328
#     4   9  18  32  52  78 107 140 178 218 261 315
#     4  10  20  37  58  83 111 143 182 230 278 328
#     4   9  17  31  54  80 105 136 178 222 265 315
#     4   9  18  32  52  78 107 140 178 218 261 315
#     4   9  17  31  54  80 105 136 178 222 265 315
#     4  12  24  38  58  82 109 146 187 226 273 328
#
# _framework density 18.334654
#
# number of rings (size 3 to 8) (size 9 to 14) (size 15 to 20)
#    0.000    2.250    1.250    1.875    1.750    3.500 
#    0.000    1.250    0.000    0.000    0.000    0.000 
#    0.000    0.000    0.000    0.000    0.000    0.000 
#
# Total GULP energy -178360.113370 kJ/mol
# GULP energy per Si atom -5573.753543 kJ/mol
# Density = 1.829292 g / cm^3
# Si number density = 18.334654 Si / 1000 Ang^3
#
#
#
# Elastic Constant Matrix: (Units=GPa)
#
#
# Indices 1 2 3 4 5 6 
#
# 1 106.9036 4.9213 44.7101 0.0000 3.8795 0.0000
# 2 4.9213 -10.0301 1.9765 0.0000 -2.5436 0.0000
# 3 44.7101 1.9765 132.0833 0.0000 6.2992 0.0000
# 4 0.0000 0.0000 0.0000 32.0212 0.0000 4.4590
# 5 3.8795 -2.5436 6.2992 0.0000 20.0381 0.0000
# 6 0.0000 0.0000 0.0000 4.4590 0.0000 20.3548
#
#
#
# Elastic Compliance Matrix: (Units=1/GPa)
#
#
# Indices 1 2 3 4 5 6 
#
# 1 0.010690 0.004605 -0.003672 0.000000 -0.000331 0.000000
# 2 0.004605 -0.094057 0.000468 0.000000 -0.012978 0.000000
# 3 -0.003672 0.000468 0.008904 0.000000 -0.002029 0.000000
# 4 0.000000 0.000000 0.000000 0.032212 0.000000 -0.007056
# 5 -0.000331 -0.012978 -0.002029 0.000000 0.048959 0.000000
# 6 0.000000 0.000000 0.000000 -0.007056 0.000000 0.050674
#
#
# Mechanical properties :
#
#
# Convention : Reuss Voigt Hill
#
# Bulk Modulus (GPa) = -13.95455 36.90806 11.47675
# Shear Modulus (GPa) = 162.90763 26.30610 94.60686
#
# Velocity S-wave (km/s) = 9.43638 3.79195 7.19111
# Velocity P-wave (km/s) = 10.54037 6.27262 8.67310
#
# Compressibility (1/GPa) = -0.07166120
#
# Stress axis : x y z
#
# Youngs Moduli (GPa) = 93.54716 -10.63185 112.31442
#
# Poissons Ratio (x) = 0.04896 0.41238
# Poissons Ratio (y) = -0.43081 -0.05251
# Poissons Ratio (z) = 0.34347 0.00497
#
# Static dielectric constant tensor:
#      x y z
#    x 1.596530 0.000000 -0.017220 
#    y 0.000000 1.631410 0.000000 
#    z -0.017220 0.000000 1.595400 
# 
# From -- ./inp_files/67210.got.cif
#   From: 2010.05.17/outbox.ucp.g08.bks.cvg/sg11_34_cif.got.tgz:67210.got - 2010.06.11 11:38:39.
