data_PCOD9168129
_publ_section_title
;
Structure prediction by ZEFSAII (Michael W. Deem and Ramdas Pophale) SiO2 
 PCOD9168129
Probable space group: P 21/M
;
_chemical_formula_sum "Si O2"
_cell_formula_units_Z 32
_cell_length_a 24.000000
_cell_length_b 9.000000
_cell_length_c 15.000000
_cell_angle_alpha 90.000000
_cell_angle_beta 30.000000
_cell_angle_gamma 90.000000
_cell_volume 1620.000000
_symmetry_space_group_name_H-M "P 21/M"
_symmetry_group_IT_number 11
_symmetry_cell_setting 'monoclinic'
loop_
_space_group_symop_operation_xyz
x,y,z
-x,1/2+y,-z
-x,-y,-z
x,1/2-y,z
loop_
_atom_site_type_symbol
_atom_site_label
_atom_site_fract_x
_atom_site_fract_y
_atom_site_fract_z
Si Si1 0.564789 0.572835 0.990293
Si Si2 0.754388 0.079176 0.922296
Si Si3 0.816528 0.421466 0.036301
Si Si4 0.319288 0.072432 0.633111
Si Si5 0.808976 0.428181 0.657318
Si Si6 0.518662 0.574388 0.252099
Si Si7 0.048132 0.925677 0.708536
Si Si8 0.116104 0.926879 0.806859
O O1 0.573884 0.750000 0.969746
O O2 0.499973 0.542270 0.172905
O O3 0.500000 0.500000 0.000000
O O4 0.687833 0.502399 0.817736
O O5 0.714288 0.250000 0.963892
O O6 0.647201 0.974847 0.081515
O O7 0.814114 0.072965 0.933261
O O8 0.832801 0.043437 0.729164
O O9 0.809454 0.250000 0.074389
O O10 0.935043 0.493059 0.893599
O O11 0.714873 0.509737 0.222372
O O12 0.318120 0.250000 0.634777
O O13 0.435075 0.012405 0.432545
O O14 0.219302 0.005773 0.711559
O O15 0.799595 0.250000 0.657412
O O16 0.894347 0.479954 0.462641
O O17 0.506055 0.750000 0.285145
O O18 0.022862 0.750000 0.733566
O O19 0.127304 0.943289 0.684494
O O20 0.113708 0.750000 0.828900
O O21 0.000000 0.000000 0.000000
#
# Coordination Sequence:
#
# PCOD9168129 Si02
#       8
#     4   4   4   4   4   4   4   4
#     4  10  21  36  56  84 116 151 193 237 286 342
#     4   9  20  40  63  87 117 153 194 243 296 345
#     4  11  23  39  61  87 117 154 197 245 293 348
#     4  12  25  40  60  87 118 156 198 242 292 350
#     4   9  19  38  60  84 117 153 192 239 289 343
#     4  10  22  40  61  86 117 153 194 242 293 348
#     4  10  22  38  59  87 119 156 195 236 290 348
#     4  11  22  38  59  85 120 157 194 239 290 346
#
# _framework density 19.753086
#
# number of rings (size 3 to 8) (size 9 to 14) (size 15 to 20)
#    0.000    1.750    1.250    2.625    1.750    4.500 
#    0.000    0.000    0.000    0.000    0.000    0.000 
#    0.000    0.000    0.000    0.000    0.000    0.000 
#
# Total GULP energy -178542.498145 kJ/mol
# GULP energy per Si atom -5579.453067 kJ/mol
# Density = 1.970813 g / cm^3
# Si number density = 19.753086 Si / 1000 Ang^3
#
#
#
# Elastic Constant Matrix: (Units=GPa)
#
#
# Indices 1 2 3 4 5 6 
#
# 1 64.4771 15.5490 7.9379 0.0000 26.4704 0.0000
# 2 15.5490 72.7352 25.3881 0.0000 16.2761 0.0000
# 3 7.9379 25.3881 93.2642 0.0000 30.1395 0.0000
# 4 0.0000 0.0000 0.0000 32.9455 0.0000 1.4152
# 5 26.4704 16.2761 30.1395 0.0000 26.6478 0.0000
# 6 0.0000 0.0000 0.0000 1.4152 0.0000 19.4872
#
#
#
# Elastic Compliance Matrix: (Units=1/GPa)
#
#
# Indices 1 2 3 4 5 6 
#
# 1 0.033400 -0.001065 0.012543 0.000000 -0.046714 0.000000
# 2 -0.001065 0.016171 -0.002303 0.000000 -0.006214 0.000000
# 3 0.012543 -0.002303 0.021834 0.000000 -0.035748 0.000000
# 4 0.000000 0.000000 0.000000 0.030448 0.000000 -0.002211
# 5 -0.046714 -0.006214 -0.035748 0.000000 0.128157 0.000000
# 6 0.000000 0.000000 0.000000 -0.002211 0.000000 0.051476
#
#
# Mechanical properties :
#
#
# Convention : Reuss Voigt Hill
#
# Bulk Modulus (GPa) = 11.14145 36.46960 23.80552
# Shear Modulus (GPa) = 17.06169 27.92286 22.49227
#
# Velocity S-wave (km/s) = 2.94215 3.76386 3.37808
# Velocity P-wave (km/s) = 4.14659 6.11487 5.22427
#
# Compressibility (1/GPa) = 0.08975496
#
# Stress axis : x y z
#
# Youngs Moduli (GPa) = 29.94019 61.84061 45.79999
#
# Poissons Ratio (x) = 0.06586 -0.57449
# Poissons Ratio (y) = 0.03189 0.10549
# Poissons Ratio (z) = -0.37555 0.14243
#
# Static dielectric constant tensor:
#      x y z
#    x 1.727100 0.000000 0.021300 
#    y 0.000000 1.673110 0.000000 
#    z 0.021300 0.000000 1.643940 
# 
# From -- ./inp_files/55549.got.cif
#   From: 2010.05.17/outbox.ucp.g08.bks.cvg/sg11_28_cif.got.tgz:55549.got - 2010.06.11 11:38:39.
