data_PCOD9168618
_publ_section_title
;
Structure prediction by ZEFSAII (Michael W. Deem and Ramdas Pophale) SiO2 
 PCOD9168618
Probable space group: C 2/M
;
_chemical_formula_sum "Si O2"
_cell_formula_units_Z 60
_cell_length_a 21.572149
_cell_length_b 14.231726
_cell_length_c 10.036242
_cell_angle_alpha 90.000000
_cell_angle_beta 80.166292
_cell_angle_gamma 90.000000
_cell_volume 3035.945273
_symmetry_space_group_name_H-M "C 2/M"
_symmetry_group_IT_number 12
_symmetry_cell_setting 'monoclinic'
loop_
_space_group_symop_operation_xyz
x,y,z
-x,y,-z
-x,-y,-z
x,-y,z
1/2+x,1/2+y,z
1/2-x,1/2+y,-z
1/2-x,1/2-y,-z
1/2+x,1/2-y,z
loop_
_atom_site_type_symbol
_atom_site_label
_atom_site_fract_x
_atom_site_fract_y
_atom_site_fract_z
Si Si1 0.881868 0.606237 0.923626
Si Si2 0.806977 0.777427 0.885764
Si Si3 0.076771 0.893246 0.163734
Si Si4 0.604530 0.395054 0.473775
Si Si5 0.500000 0.250407 0.500000
Si Si6 0.373594 0.891469 0.237395
Si Si7 0.261965 0.388702 0.647880
Si Si8 0.003164 0.291931 0.214473
O O1 0.874408 0.500000 0.881635
O O2 0.845124 0.681642 0.848855
O O3 0.954121 0.638872 0.889209
O O4 0.857701 0.612812 0.085103
O O5 0.859493 0.849947 0.923340
O O6 0.779485 0.823557 0.764637
O O7 0.750000 0.750000 0.000000
O O8 0.093150 0.896106 0.316815
O O9 0.022859 0.814440 0.167068
O O10 0.062802 0.000000 0.127510
O O11 0.588885 0.500000 0.528841
O O12 0.555248 0.317425 0.536448
O O13 0.678415 0.375367 0.472325
O O14 0.477108 0.195195 0.637344
O O15 0.311824 0.871229 0.349386
O O16 0.431057 0.821068 0.233400
O O17 0.393097 0.000000 0.256353
O O18 0.265554 0.500000 0.683176
#
# Coordination Sequence:
#
# PCOD9168618 Si02
#       8
#     8   8   8   8   4   8   8   8
#     4  10  20  33  51  75 100 131 171 210 245 288
#     4  10  16  25  46  75 100 125 152 195 250 299
#     4   8  16  29  46  68  97 126 158 204 248 291
#     4   8  14  27  49  74  97 120 155 203 249 293
#     4  10  19  32  49  74 100 128 166 206 254 300
#     4  10  19  33  53  74  99 131 167 210 252 292
#     4   9  17  30  50  78 104 126 161 207 252 297
#     4  10  20  33  51  73  98 131 171 211 253 295
#
# _framework density 19.763200999999999
#
# number of rings (size 3 to 8) (size 9 to 14) (size 15 to 20)
#    0.000    2.667    1.333    3.000    0.000    2.133 
#    0.000    2.000    0.000    8.000    0.000    0.000 
#    0.000    0.000    0.000    0.000    0.000    0.000 
#
# Total GULP energy -167027.508740 kJ/mol
# GULP energy per Si atom -5567.583625 kJ/mol
# Density = 1.971822 g / cm^3
# Si number density = 19.763201 Si / 1000 Ang^3
#
#
#
# Elastic Constant Matrix: (Units=GPa)
#
#
# Indices 1 2 3 4 5 6 
#
# 1 112.3535 50.4708 -0.9408 0.0000 -22.7427 0.0000
# 2 50.4708 96.7320 1.0841 0.0000 -4.9410 0.0000
# 3 -0.9408 1.0841 23.5233 0.0000 -10.9450 0.0000
# 4 0.0000 0.0000 0.0000 14.2482 0.0000 -1.6096
# 5 -22.7427 -4.9410 -10.9450 0.0000 17.4765 0.0000
# 6 0.0000 0.0000 0.0000 -1.6096 0.0000 18.6642
#
#
#
# Elastic Compliance Matrix: (Units=1/GPa)
#
#
# Indices 1 2 3 4 5 6 
#
# 1 0.019924 -0.008844 0.017083 0.000000 0.034126 0.000000
# 2 -0.008844 0.014442 -0.006314 0.000000 -0.011380 0.000000
# 3 0.017083 -0.006314 0.074792 0.000000 0.067285 0.000000
# 4 0.000000 0.000000 0.000000 0.070875 0.000000 0.006112
# 5 0.034126 -0.011380 0.067285 0.000000 0.140550 0.000000
# 6 0.000000 0.000000 0.000000 0.006112 0.000000 0.054106
#
#
# Mechanical properties :
#
#
# Convention : Reuss Voigt Hill
#
# Bulk Modulus (GPa) = 8.84903 37.09298 22.97101
# Shear Modulus (GPa) = 12.23965 22.21076 17.22520
#
# Velocity S-wave (km/s) = 2.49130 3.35602 2.95546
# Velocity P-wave (km/s) = 3.57249 5.81606 4.82645
#
# Compressibility (1/GPa) = 0.11300672
#
# Stress axis : x y z
#
# Youngs Moduli (GPa) = 50.19040 69.24399 13.37041
#
# Poissons Ratio (x) = 0.61239 -0.22840
# Poissons Ratio (y) = 0.44388 0.08443
# Poissons Ratio (z) = -0.85739 0.43723
#
# Static dielectric constant tensor:
#      x y z
#    x 1.775750 0.000000 -0.018000 
#    y 0.000000 1.697480 0.000000 
#    z -0.018000 0.000000 1.713740 
# 
# From -- ./inp_files/166687.got.cif
#   From: 2010.05.17/outbox.cif.g08.bks.cpg/sg12_84_cif.got.tgz:166687.got - 2010.06.03 13:09:07.
