data_PCOD9168047
_publ_section_title
;
Structure prediction by ZEFSAII (Michael W. Deem and Ramdas Pophale) SiO2 
 PCOD9168047
Probable space group: P 21/M
;
_chemical_formula_sum "Si O2"
_cell_formula_units_Z 28
_cell_length_a 15.000000
_cell_length_b 9.000000
_cell_length_c 21.000000
_cell_angle_alpha 90.000000
_cell_angle_beta 30.000000
_cell_angle_gamma 90.000000
_cell_volume 1417.500000
_symmetry_space_group_name_H-M "P 21/M"
_symmetry_group_IT_number 11
_symmetry_cell_setting 'monoclinic'
loop_
_space_group_symop_operation_xyz
x,y,z
-x,1/2+y,-z
-x,-y,-z
x,1/2-y,z
loop_
_atom_site_type_symbol
_atom_site_label
_atom_site_fract_x
_atom_site_fract_y
_atom_site_fract_z
Si Si1 0.077200 0.572748 0.641980
Si Si2 0.100176 0.923562 0.018518
Si Si3 0.578369 0.575038 0.886728
Si Si4 0.933170 0.070127 0.607986
Si Si5 0.293506 0.073631 0.792550
Si Si6 0.813431 0.419752 0.893388
Si Si7 0.567460 0.929495 0.524750
O O1 0.099023 0.750000 0.623392
O O2 0.238099 0.496821 0.580692
O O3 0.063202 0.493783 0.582301
O O4 0.893872 0.531770 0.792276
O O5 0.137085 0.750000 0.981912
O O6 0.090414 0.943820 0.099719
O O7 0.901054 0.956120 0.117619
O O8 0.253135 0.018687 0.889210
O O9 0.625387 0.750000 0.867308
O O10 0.738686 0.490134 0.752124
O O11 0.500000 0.500000 0.000000
O O12 0.394749 0.569716 0.960807
O O13 0.933368 0.250000 0.605500
O O14 0.000000 0.000000 0.500000
O O15 0.331546 0.250000 0.766496
O O16 0.438936 0.984778 0.661754
O O17 0.843367 0.250000 0.851064
O O18 0.571319 0.750000 0.518581
O O19 0.500000 0.000000 0.500000
#
# Coordination Sequence:
#
# PCOD9168047 Si02
#       7
#     4   4   4   4   4   4   4
#     4  12  25  42  66  95 128 167 216 269 328 393
#     4   9  19  36  58  85 119 161 205 253 310 370
#     4  11  22  39  65  95 128 167 213 264 323 386
#     4  12  26  46  69  96 134 178 225 277 338 400
#     4  10  20  36  58  85 121 161 206 256 311 371
#     4  10  21  38  63  92 124 163 210 260 316 379
#     4  12  25  42  64  91 127 168 213 261 319 384
#
# _framework density 19.753086
#
# number of rings (size 3 to 8) (size 9 to 14) (size 15 to 20)
#    0.000    1.143    1.429    5.571    0.000    4.000 
#    0.000    4.286    0.000    0.000    0.000    0.000 
#    0.000    0.000    0.000    0.000    0.000    0.000 
#
# Total GULP energy -156353.374873 kJ/mol
# GULP energy per Si atom -5584.049103 kJ/mol
# Density = 1.970813 g / cm^3
# Si number density = 19.753086 Si / 1000 Ang^3
#
#
#
# Elastic Constant Matrix: (Units=GPa)
#
#
# Indices 1 2 3 4 5 6 
#
# 1 76.6260 36.0648 35.2320 0.0000 -16.3201 0.0000
# 2 36.0648 170.2698 71.1734 0.0000 -4.9073 0.0000
# 3 35.2320 71.1734 120.3199 0.0000 11.9178 0.0000
# 4 0.0000 0.0000 0.0000 46.9147 0.0000 3.1032
# 5 -16.3201 -4.9073 11.9178 0.0000 0.0674 0.0000
# 6 0.0000 0.0000 0.0000 3.1032 0.0000 27.2464
#
#
#
# Elastic Compliance Matrix: (Units=1/GPa)
#
#
# Indices 1 2 3 4 5 6 
#
# 1 0.004624 -0.004109 0.004856 0.000000 -0.038159 0.000000
# 2 -0.004109 0.007548 -0.002474 0.000000 -0.007954 0.000000
# 3 0.004856 -0.002474 0.005467 0.000000 0.029136 0.000000
# 4 0.000000 0.000000 0.000000 0.021477 0.000000 -0.002446
# 5 -0.038159 -0.007954 0.029136 0.000000 -0.133841 0.000000
# 6 0.000000 0.000000 0.000000 -0.002446 0.000000 0.036981
#
#
# Mechanical properties :
#
#
# Convention : Reuss Voigt Hill
#
# Bulk Modulus (GPa) = 70.49417 72.46179 71.47798
# Shear Modulus (GPa) = -100.88549 29.82871 -35.52839
#
# Velocity S-wave (km/s) = -7.15431 3.89019 -4.24562
# Velocity P-wave (km/s) = 5.69916 7.54596 3.49722
#
# Compressibility (1/GPa) = 0.01418557
#
# Stress axis : x y z
#
# Youngs Moduli (GPa) = 216.24466 132.48003 182.92535
#
# Poissons Ratio (x) = 0.54439 -0.88834
# Poissons Ratio (y) = 0.88859 0.45256
# Poissons Ratio (z) = -1.05014 0.32776
#
# Static dielectric constant tensor:
#      x y z
#    x 1.840850 0.000000 -0.037170 
#    y 0.000000 1.678400 0.000000 
#    z -0.037170 0.000000 1.690570 
# 
# From -- ./inp_files/65366.got.cif
#   From: 2010.05.17/outbox.ucp.g08.bks.cvg/sg11_33_cif.got.tgz:65366.got - 2010.06.11 11:38:39.
