data_PCOD9168512
_publ_section_title
;
Structure prediction by ZEFSAII (Michael W. Deem and Ramdas Pophale) SiO2 
 PCOD9168512
Probable space group: C 2/M
;
_chemical_formula_sum "Si O2"
_cell_formula_units_Z 42
_cell_length_a 23.780642
_cell_length_b 12.639659
_cell_length_c 16.249594
_cell_angle_alpha 90.000000
_cell_angle_beta 153.537454
_cell_angle_gamma 90.000000
_cell_volume 2176.501695
_symmetry_space_group_name_H-M "C 2/M"
_symmetry_group_IT_number 12
_symmetry_cell_setting 'monoclinic'
loop_
_space_group_symop_operation_xyz
x,y,z
-x,y,-z
-x,-y,-z
x,-y,z
1/2+x,1/2+y,z
1/2-x,1/2+y,-z
1/2-x,1/2-y,-z
1/2+x,1/2-y,z
loop_
_atom_site_type_symbol
_atom_site_label
_atom_site_fract_x
_atom_site_fract_y
_atom_site_fract_z
Si Si1 0.505790 0.882578 0.606544
Si Si2 0.801418 0.116714 0.042422
Si Si3 0.681586 0.805799 0.042062
Si Si4 0.500000 0.500000 0.500000
Si Si5 0.036616 0.500000 0.913176
Si Si6 0.646150 0.677312 0.580803
Si Si7 0.208169 0.500000 0.305173
O O1 0.500000 0.872958 0.500000
O O2 0.653431 0.882054 0.823073
O O3 0.432389 0.781500 0.545140
O O4 0.455940 0.000000 0.563766
O O5 0.863504 0.201611 0.064210
O O6 0.854266 0.000000 0.103662
O O7 0.790207 0.147257 0.123441
O O8 0.744863 0.784305 0.212601
O O9 0.577914 0.896408 0.917147
O O10 0.564769 0.592724 0.525900
O O11 0.894038 0.500000 0.756650
O O12 0.127145 0.500000 0.113006
O O13 0.709435 0.606815 0.592252
#
# Coordination Sequence:
#
# PCOD9168512 Si02
#       7
#     8   8   8   2   4   8   4
#     4  10  18  29  45  65  97 128 153 183 224 286
#     4  10  19  29  43  72  97 126 155 179 233 291
#     4  10  18  28  47  66  95 125 151 194 230 275
#     4  10  16  22  42  66  96 120 130 190 250 274
#     4   9  16  32  46  70  93 121 157 196 234 272
#     4  10  17  29  45  70  96 121 154 195 236 277
#     4   8  18  28  50  70  90 120 159 196 237 271
#
# _framework density 19.297021999999998
#
# number of rings (size 3 to 8) (size 9 to 14) (size 15 to 20)
#    0.000    2.286    3.810    0.571    0.000    0.000 
#    0.000    0.000    0.000    2.286    0.000    5.333 
#    0.000    0.000    0.000    0.000    0.000    0.000 
#
# Total GULP energy -116950.078566 kJ/mol
# GULP energy per Si atom -5569.051360 kJ/mol
# Density = 1.925310 g / cm^3
# Si number density = 19.297022 Si / 1000 Ang^3
#
#
#
# Elastic Constant Matrix: (Units=GPa)
#
#
# Indices 1 2 3 4 5 6 
#
# 1 54.3079 41.1039 6.7237 0.0000 16.5098 0.0000
# 2 41.1039 185.5893 12.6287 0.0000 22.1286 0.0000
# 3 6.7237 12.6287 49.9102 0.0000 -5.0429 0.0000
# 4 0.0000 0.0000 0.0000 14.1388 0.0000 3.8243
# 5 16.5098 22.1286 -5.0429 0.0000 29.6171 0.0000
# 6 0.0000 0.0000 0.0000 3.8243 0.0000 15.8381
#
#
#
# Elastic Compliance Matrix: (Units=1/GPa)
#
#
# Indices 1 2 3 4 5 6 
#
# 1 0.025477 -0.003984 -0.003621 0.000000 -0.011842 0.000000
# 2 -0.003984 0.006737 -0.001477 0.000000 -0.003064 0.000000
# 3 -0.003621 -0.001477 0.021584 0.000000 0.006797 0.000000
# 4 0.000000 0.000000 0.000000 0.075669 0.000000 -0.018271
# 5 -0.011842 -0.003064 0.006797 0.000000 0.043812 0.000000
# 6 0.000000 0.000000 0.000000 -0.018271 0.000000 0.067551
#
#
# Mechanical properties :
#
#
# Convention : Reuss Voigt Hill
#
# Bulk Modulus (GPa) = 28.06332 45.63557 36.84944
# Shear Modulus (GPa) = 18.45889 27.20887 22.83388
#
# Velocity S-wave (km/s) = 3.09620 3.75907 3.44362
# Velocity P-wave (km/s) = 5.23033 6.52236 5.91175
#
# Compressibility (1/GPa) = 0.03563371
#
# Stress axis : x y z
#
# Youngs Moduli (GPa) = 39.25061 148.44470 46.32994
#
# Poissons Ratio (x) = 0.59146 0.16774
# Poissons Ratio (y) = 0.15639 0.06844
# Poissons Ratio (z) = 0.14211 0.21930
#
# Static dielectric constant tensor:
#      x y z
#    x 1.645570 0.000000 -0.034670 
#    y 0.000000 1.721170 0.000000 
#    z -0.034670 0.000000 1.742540 
# 
# From -- ./inp_files/163704.got.cif
#   From: 2010.05.17/outbox.cif.g08.bks.cpg/sg12_82_cif.got.tgz:163704.got - 2010.06.03 13:09:07.
