data_PCOD9168550
_publ_section_title
;
Structure prediction by ZEFSAII (Michael W. Deem and Ramdas Pophale) SiO2 
 PCOD9168550
Probable space group: C 2/M
;
_chemical_formula_sum "Si O2"
_cell_formula_units_Z 56
_cell_length_a 29.104518
_cell_length_b 19.494117
_cell_length_c 14.869350
_cell_angle_alpha 90.000000
_cell_angle_beta 154.080025
_cell_angle_gamma 90.000000
_cell_volume 3687.669960
_symmetry_space_group_name_H-M "C 2/M"
_symmetry_group_IT_number 12
_symmetry_cell_setting 'monoclinic'
loop_
_space_group_symop_operation_xyz
x,y,z
-x,y,-z
-x,-y,-z
x,-y,z
1/2+x,1/2+y,z
1/2-x,1/2+y,-z
1/2-x,1/2-y,-z
1/2+x,1/2-y,z
loop_
_atom_site_type_symbol
_atom_site_label
_atom_site_fract_x
_atom_site_fract_y
_atom_site_fract_z
Si Si1 0.877070 0.313877 0.295394
Si Si2 0.913674 0.077754 0.236090
Si Si3 0.849428 0.918756 0.417900
Si Si4 0.143274 0.916549 0.174656
Si Si5 0.595113 0.416574 0.287695
Si Si6 0.272383 0.079580 0.236260
Si Si7 0.282343 0.333692 0.140802
O O1 0.853514 0.372301 0.327374
O O2 0.818066 0.244091 0.219951
O O3 0.000000 0.302184 0.500000
O O4 0.821907 0.334739 0.103938
O O5 0.871361 0.130314 0.235201
O O6 0.030853 0.089659 0.407469
O O7 0.907427 0.000000 0.262157
O O8 0.833294 0.080892 0.011031
O O9 0.851817 0.895132 0.525783
O O10 0.777115 0.875756 0.223603
O O11 0.825216 0.000000 0.371461
O O12 0.149870 0.895798 0.290614
O O13 0.234974 0.895193 0.268319
O O14 0.143365 0.000000 0.172343
O O15 0.027504 0.895477 0.935392
O O16 0.593714 0.500000 0.287230
O O17 0.306872 0.000000 0.301506
#
# Coordination Sequence:
#
# PCOD9168550 Si02
#       7
#     8   8   8   8   8   8   8
#     4  10  21  35  46  60  83 113 149 183 216 257
#     4   9  15  24  40  65  92 116 140 171 211 258
#     4  10  16  24  41  68  95 117 141 172 217 262
#     4   8  12  22  38  62  94 120 141 171 213 258
#     4   8  13  20  37  65  96 120 137 168 215 262
#     4   9  16  27  44  63  85 115 151 184 213 249
#     4  10  20  31  45  62  85 115 143 177 216 267
#
# _framework density 15.185741999999999
#
# number of rings (size 3 to 8) (size 9 to 14) (size 15 to 20)
#    0.000    2.857    1.429    2.571    0.000    2.000 
#    0.000    0.000    0.000    0.857    0.000    1.000 
#    0.000    4.571    0.000    0.000    0.000    0.000 
#
# Total GULP energy -155912.397971 kJ/mol
# GULP energy per Si atom -5568.299928 kJ/mol
# Density = 1.515118 g / cm^3
# Si number density = 15.185742 Si / 1000 Ang^3
#
#
#
# Elastic Constant Matrix: (Units=GPa)
#
#
# Indices 1 2 3 4 5 6 
#
# 1 76.2376 22.3190 32.4804 0.0000 -25.1442 0.0000
# 2 22.3190 33.2484 11.5320 0.0000 -11.3055 0.0000
# 3 32.4804 11.5320 55.3963 0.0000 -15.5110 0.0000
# 4 0.0000 0.0000 0.0000 14.2467 0.0000 -4.6732
# 5 -25.1442 -11.3055 -15.5110 0.0000 26.8485 0.0000
# 6 0.0000 0.0000 0.0000 -4.6732 0.0000 -2.3285
#
#
#
# Elastic Compliance Matrix: (Units=1/GPa)
#
#
# Indices 1 2 3 4 5 6 
#
# 1 0.023633 -0.008285 -0.008246 0.000000 0.013881 0.000000
# 2 -0.008285 0.038683 -0.000963 0.000000 0.007974 0.000000
# 3 -0.008246 -0.000963 0.024827 0.000000 0.006216 0.000000
# 4 0.000000 0.000000 0.000000 0.042327 0.000000 -0.084948
# 5 0.013881 0.007974 0.006216 0.000000 0.057195 0.000000
# 6 0.000000 0.000000 0.000000 -0.084948 0.000000 -0.258972
#
#
# Mechanical properties :
#
#
# Convention : Reuss Voigt Hill
#
# Bulk Modulus (GPa) = 19.17249 33.06057 26.11653
# Shear Modulus (GPa) = -250.81525 14.32340 -118.24593
#
# Velocity S-wave (km/s) = -12.86559 3.07451 -8.83377
# Velocity P-wave (km/s) = 14.42378 5.86699 9.31729
#
# Compressibility (1/GPa) = 0.05215806
#
# Stress axis : x y z
#
# Youngs Moduli (GPa) = 42.31302 25.85101 40.27855
#
# Poissons Ratio (x) = 0.21417 0.33212
# Poissons Ratio (y) = 0.35055 0.03877
# Poissons Ratio (z) = 0.34890 0.02488
#
# Static dielectric constant tensor:
#      x y z
#    x 1.519760 0.000000 -0.030380 
#    y 0.000000 1.503030 0.000000 
#    z -0.030380 0.000000 1.503490 
# 
# From -- ./inp_files/215484.got.cif
#   From: 2010.05.17/outbox.cif.g08.bks.cpg/sg12_108_cif.got.tgz:215484.got - 2010.06.03 13:09:07.
