data_PCOD9168678
_publ_section_title
;
Structure prediction by ZEFSAII (Michael W. Deem and Ramdas Pophale) SiO2 
 PCOD9168678
Probable space group: C 2/M
;
_chemical_formula_sum "Si O2"
_cell_formula_units_Z 64
_cell_length_a 21.225186
_cell_length_b 19.561404
_cell_length_c 7.124377
_cell_angle_alpha 90.000000
_cell_angle_beta 62.718925
_cell_angle_gamma 90.000000
_cell_volume 2628.979266
_symmetry_space_group_name_H-M "C 2/M"
_symmetry_group_IT_number 12
_symmetry_cell_setting 'monoclinic'
loop_
_space_group_symop_operation_xyz
x,y,z
-x,y,-z
-x,-y,-z
x,-y,z
1/2+x,1/2+y,z
1/2-x,1/2+y,-z
1/2-x,1/2-y,-z
1/2+x,1/2-y,z
loop_
_atom_site_type_symbol
_atom_site_label
_atom_site_fract_x
_atom_site_fract_y
_atom_site_fract_z
Si Si1 0.700910 0.425750 0.671988
Si Si2 0.644566 0.923234 0.654817
Si Si3 0.328021 0.717533 0.359226
Si Si4 0.150282 0.376087 0.056565
Si Si5 0.632513 0.279140 0.139187
Si Si6 0.996672 0.598052 0.789226
Si Si7 0.016344 0.241250 0.768153
Si Si8 0.192481 0.077009 0.113146
O O1 0.688290 0.500000 0.606042
O O2 0.785284 0.413236 0.560590
O O3 0.672852 0.363024 0.594497
O O4 0.672539 0.426131 0.920450
O O5 0.643625 0.871687 0.833931
O O6 0.575278 0.919835 0.620687
O O7 0.648764 0.000000 0.729041
O O8 0.250000 0.750000 0.500000
O O9 0.343146 0.719707 0.114192
O O10 0.398704 0.742422 0.371112
O O11 0.151803 0.301052 0.153890
O O12 0.222755 0.415743 0.987018
O O13 0.078151 0.417560 0.200415
O O14 0.666555 0.344892 0.195171
O O15 0.547330 0.289393 0.268375
O O16 0.995127 0.679616 0.795011
O O17 0.000000 0.573268 0.000000
O O18 0.000000 0.213490 0.000000
O O19 0.172557 0.000000 0.213690
#
# Coordination Sequence:
#
# PCOD9168678 Si02
#       8
#     8   8   8   8   8   8   8   8
#     4   9  19  32  43  63  97 127 149 186 237 277
#     4  10  18  29  46  68  95 124 155 192 234 282
#     4  10  16  26  49  74  94 120 157 195 231 279
#     4  10  18  30  49  71  91 117 158 199 233 276
#     4   9  18  31  47  68  96 125 153 194 241 278
#     4   8  15  26  42  66  94 117 145 190 238 278
#     4   8  14  26  43  66  93 120 152 192 235 276
#     4  10  20  33  47  66  94 125 157 193 234 280
#
# _framework density 24.344047
#
# number of rings (size 3 to 8) (size 9 to 14) (size 15 to 20)
#    0.000    2.750    0.000    4.500    0.000    2.750 
#    0.000    1.250    0.000    6.000    0.000    8.750 
#    0.000    6.000    0.000    0.000    0.000    0.000 
#
# Total GULP energy -178242.036539 kJ/mol
# GULP energy per Si atom -5570.063642 kJ/mol
# Density = 2.428864 g / cm^3
# Si number density = 24.344047 Si / 1000 Ang^3
#
#
#
# Elastic Constant Matrix: (Units=GPa)
#
#
# Indices 1 2 3 4 5 6 
#
# 1 92.7640 28.9830 16.9388 0.0000 -10.6021 0.0000
# 2 28.9830 135.2710 0.0381 0.0000 -8.2026 0.0000
# 3 16.9388 0.0381 77.0074 0.0000 6.9157 0.0000
# 4 0.0000 0.0000 0.0000 7.4908 0.0000 -7.8814
# 5 -10.6021 -8.2026 6.9157 0.0000 28.1344 0.0000
# 6 0.0000 0.0000 0.0000 -7.8814 0.0000 18.3824
#
#
#
# Elastic Compliance Matrix: (Units=1/GPa)
#
#
# Indices 1 2 3 4 5 6 
#
# 1 0.012682 -0.002421 -0.003225 0.000000 0.004866 0.000000
# 2 -0.002421 0.007991 0.000410 0.000000 0.001317 0.000000
# 3 -0.003225 0.000410 0.014105 0.000000 -0.004563 0.000000
# 4 0.000000 0.000000 0.000000 0.243209 0.000000 0.104274
# 5 0.004866 0.001317 -0.004563 0.000000 0.038883 0.000000
# 6 0.000000 0.000000 0.000000 0.104274 0.000000 0.099107
#
#
# Mechanical properties :
#
#
# Convention : Reuss Voigt Hill
#
# Bulk Modulus (GPa) = 41.14330 44.10690 42.62510
# Shear Modulus (GPa) = 11.50617 28.07368 19.78993
#
# Velocity S-wave (km/s) = 2.17641 3.39957 2.85428
# Velocity P-wave (km/s) = 4.82215 5.79370 5.33011
#
# Compressibility (1/GPa) = 0.02430529
#
# Stress axis : x y z
#
# Youngs Moduli (GPa) = 78.85461 125.14009 70.89796
#
# Poissons Ratio (x) = 0.30299 0.22866
# Poissons Ratio (y) = 0.19092 -0.02910
# Poissons Ratio (z) = 0.25433 -0.05136
#
# Static dielectric constant tensor:
#      x y z
#    x 1.979680 0.000000 0.027630 
#    y 0.000000 1.854110 0.000000 
#    z 0.027630 0.000000 2.059560 
# 
# From -- ./inp_files/89557.got.cif
#   From: 2010.05.17/outbox.cif.g08.bks.cpg/sg12_45_cif.got.tgz:89557.got - 2010.06.03 13:09:07.
