data_PCOD9168554
_publ_section_title
;
Structure prediction by ZEFSAII (Michael W. Deem and Ramdas Pophale) SiO2 
 PCOD9168554
Probable space group: C 2/M
;
_chemical_formula_sum "Si O2"
_cell_formula_units_Z 64
_cell_length_a 28.184258
_cell_length_b 21.999809
_cell_length_c 12.485230
_cell_angle_alpha 90.000000
_cell_angle_beta 29.074112
_cell_angle_gamma 90.000000
_cell_volume 3761.882180
_symmetry_space_group_name_H-M "C 2/M"
_symmetry_group_IT_number 12
_symmetry_cell_setting 'monoclinic'
loop_
_space_group_symop_operation_xyz
x,y,z
-x,y,-z
-x,-y,-z
x,-y,z
1/2+x,1/2+y,z
1/2-x,1/2+y,-z
1/2-x,1/2-y,-z
1/2+x,1/2-y,z
loop_
_atom_site_type_symbol
_atom_site_label
_atom_site_fract_x
_atom_site_fract_y
_atom_site_fract_z
Si Si1 0.463282 0.841767 0.691033
Si Si2 0.764045 0.317693 0.183481
Si Si3 0.898820 0.264435 0.231805
Si Si4 0.556736 0.723094 0.615128
Si Si5 0.139476 0.195705 0.905050
Si Si6 0.515162 0.929295 0.780413
Si Si7 0.702574 0.931054 0.726599
Si Si8 0.210972 0.377101 0.496007
O O1 0.500000 0.853659 0.500000
O O2 0.519017 0.782458 0.627453
O O3 0.489646 0.895509 0.720596
O O4 0.346548 0.831019 0.931428
O O5 0.652006 0.305533 0.372354
O O6 0.806076 0.256176 0.157445
O O7 0.764298 0.376175 0.261907
O O8 0.907199 0.241402 0.336339
O O9 0.890965 0.213513 0.156427
O O10 0.813328 0.313144 0.397103
O O11 0.000000 0.296955 0.000000
O O12 0.457984 0.685107 0.833365
O O13 0.212168 0.139589 0.747548
O O14 0.609810 0.899164 0.645279
O O15 0.535222 0.000000 0.724322
O O16 0.415641 0.924859 0.045956
O O17 0.743505 0.921282 0.526553
O O18 0.722898 0.000000 0.724760
#
# Coordination Sequence:
#
# PCOD9168554 Si02
#       8
#     8   8   8   8   8   8   8   8
#     4  10  21  34  50  73  96 119 154 202 249 291
#     4  10  18  33  51  67  97 128 154 194 240 285
#     4  10  16  24  42  67  96 126 154 183 218 271
#     4  10  19  32  47  71  96 124 158 192 235 287
#     4  10  19  27  46  74  98 127 160 190 226 281
#     4  10  20  33  48  69  97 129 162 195 235 284
#     4  10  20  30  46  72 100 131 163 190 226 275
#     4  12  17  27  46  69 103 130 156 191 227 270
#
# _framework density 17.01276
#
# number of rings (size 3 to 8) (size 9 to 14) (size 15 to 20)
#    0.000    1.750    3.750    2.625    0.000    1.750 
#    0.000    0.000    0.000    2.250    0.000    0.000 
#    0.000    1.500    0.000    0.000    0.000    0.000 
#
# Total GULP energy -178328.445439 kJ/mol
# GULP energy per Si atom -5572.763920 kJ/mol
# Density = 1.697404 g / cm^3
# Si number density = 17.012760 Si / 1000 Ang^3
#
#
#
# Elastic Constant Matrix: (Units=GPa)
#
#
# Indices 1 2 3 4 5 6 
#
# 1 14.5667 8.1158 19.8948 0.0000 3.8763 0.0000
# 2 8.1158 65.6397 38.2637 0.0000 -7.0184 0.0000
# 3 19.8948 38.2637 113.9205 0.0000 -7.6113 0.0000
# 4 0.0000 0.0000 0.0000 19.3136 0.0000 -4.6158
# 5 3.8763 -7.0184 -7.6113 0.0000 28.1355 0.0000
# 6 0.0000 0.0000 0.0000 -4.6158 0.0000 5.6308
#
#
#
# Elastic Compliance Matrix: (Units=1/GPa)
#
#
# Indices 1 2 3 4 5 6 
#
# 1 0.099879 -0.004363 -0.017282 0.000000 -0.019524 0.000000
# 2 -0.004363 0.019397 -0.005489 0.000000 0.003955 0.000000
# 3 -0.017282 -0.005489 0.013960 0.000000 0.004788 0.000000
# 4 0.000000 0.000000 0.000000 0.064392 0.000000 0.052786
# 5 -0.019524 0.003955 0.004788 0.000000 0.040514 0.000000
# 6 0.000000 0.000000 0.000000 0.052786 0.000000 0.220865
#
#
# Mechanical properties :
#
#
# Convention : Reuss Voigt Hill
#
# Bulk Modulus (GPa) = 12.66327 36.29730 24.48028
# Shear Modulus (GPa) = 9.26620 19.13949 14.20284
#
# Velocity S-wave (km/s) = 2.33633 3.35775 2.89249
# Velocity P-wave (km/s) = 3.83894 6.03443 5.05726
#
# Compressibility (1/GPa) = 0.07896855
#
# Stress axis : x y z
#
# Youngs Moduli (GPa) = 10.01215 51.55557 71.63531
#
# Poissons Ratio (x) = 0.22491 1.23798
# Poissons Ratio (y) = 0.04368 0.39319
# Poissons Ratio (z) = 0.17303 0.28298
#
# Static dielectric constant tensor:
#      x y z
#    x 1.577070 0.000000 -0.020350 
#    y 0.000000 1.588130 0.000000 
#    z -0.020350 0.000000 1.646240 
# 
# From -- ./inp_files/184954.got.cif
#   From: 2010.05.17/outbox.cif.g08.bks.cpg/sg12_93_cif.got.tgz:184954.got - 2010.06.03 13:09:07.
