data_PCOD9168341
_publ_section_title
;
Structure prediction by ZEFSAII (Michael W. Deem and Ramdas Pophale) SiO2 
 PCOD9168341
Probable space group: C 2/M
;
_chemical_formula_sum "Si O2"
_cell_formula_units_Z 40
_cell_length_a 5.331156
_cell_length_b 32.124281
_cell_length_c 14.438085
_cell_angle_alpha 90.000000
_cell_angle_beta 49.927195
_cell_angle_gamma 90.000000
_cell_volume 1892.146292
_symmetry_space_group_name_H-M "C 2/M"
_symmetry_group_IT_number 12
_symmetry_cell_setting 'monoclinic'
loop_
_space_group_symop_operation_xyz
x,y,z
-x,y,-z
-x,-y,-z
x,-y,z
1/2+x,1/2+y,z
1/2-x,1/2+y,-z
1/2-x,1/2-y,-z
1/2+x,1/2-y,z
loop_
_atom_site_type_symbol
_atom_site_label
_atom_site_fract_x
_atom_site_fract_y
_atom_site_fract_z
Si Si1 0.710516 0.000000 0.796471
Si Si2 0.660295 0.083814 0.130259
Si Si3 0.442709 0.088309 0.634155
Si Si4 0.379592 0.365072 0.663732
Si Si5 0.995393 0.500000 0.637408
Si Si6 0.494511 0.267887 0.362242
O O1 0.516369 0.042381 0.868371
O O2 0.672347 0.000000 0.694443
O O3 0.093730 0.000000 0.731107
O O4 0.725024 0.077513 0.225494
O O5 0.400001 0.121661 0.194784
O O6 0.000000 0.091892 0.000000
O O7 0.702064 0.121960 0.610033
O O8 0.187702 0.107024 0.622275
O O9 0.594775 0.044072 0.570520
O O10 0.478599 0.317317 0.639659
O O11 0.250000 0.250000 0.500000
O O12 0.840196 0.247368 0.303654
#
# Coordination Sequence:
#
# PCOD9168341 Si02
#       6
#     4   8   8   8   4   8
#     4  10  17  28  42  68 104 147 193 226 245 267
#     4   9  19  30  46  72 107 151 187 221 246 291
#     4   9  18  29  47  71 107 145 181 214 250 292
#     4  10  19  33  50  75 106 136 171 218 264 320
#     4  10  14  30  41  66 106 145 185 220 242 287
#     4  10  21  38  62  85 104 121 155 219 292 340
#
# _framework density 21.140014000000001
#
# number of rings (size 3 to 8) (size 9 to 14) (size 15 to 20)
#    1.200    1.200    2.000    1.500    0.000    0.800 
#    0.000    2.000    0.000    1.200    0.000    0.000 
#    0.000  108.800    0.000    0.000    0.000    0.000 
#
# Total GULP energy -111490.150975 kJ/mol
# GULP energy per Si atom -5574.507549 kJ/mol
# Density = 2.109190 g / cm^3
# Si number density = 21.140014 Si / 1000 Ang^3
#
#
#
# Elastic Constant Matrix: (Units=GPa)
#
#
# Indices 1 2 3 4 5 6 
#
# 1 156.8317 49.9781 4.3214 0.0000 -13.5444 0.0000
# 2 49.9781 201.3313 19.1286 0.0000 -18.4230 0.0000
# 3 4.3214 19.1286 75.6777 0.0000 -19.0436 0.0000
# 4 0.0000 0.0000 0.0000 22.6191 0.0000 -27.0439
# 5 -13.5444 -18.4230 -19.0436 0.0000 29.6532 0.0000
# 6 0.0000 0.0000 0.0000 -27.0439 0.0000 105.6314
#
#
#
# Elastic Compliance Matrix: (Units=1/GPa)
#
#
# Indices 1 2 3 4 5 6 
#
# 1 0.007093 -0.001578 0.000671 0.000000 0.002690 0.000000
# 2 -0.001578 0.005641 -0.000758 0.000000 0.002297 0.000000
# 3 0.000671 -0.000758 0.015894 0.000000 0.010043 0.000000
# 4 0.000000 0.000000 0.000000 0.063713 0.000000 0.016312
# 5 0.002690 0.002297 0.010043 0.000000 0.042829 0.000000
# 6 0.000000 0.000000 0.000000 0.016312 0.000000 0.013643
#
#
# Mechanical properties :
#
#
# Convention : Reuss Voigt Hill
#
# Bulk Modulus (GPa) = 39.52862 64.52187 52.02524
# Shear Modulus (GPa) = 31.13772 55.60823 43.37297
#
# Velocity S-wave (km/s) = 3.84204 5.13438 4.53448
# Velocity P-wave (km/s) = 6.19845 8.10781 7.21655
#
# Compressibility (1/GPa) = 0.02529813
#
# Stress axis : x y z
#
# Youngs Moduli (GPa) = 140.98251 177.27570 62.91515
#
# Poissons Ratio (x) = 0.27980 -0.04221
# Poissons Ratio (y) = 0.22252 0.04767
# Poissons Ratio (z) = -0.09458 0.13431
#
# Static dielectric constant tensor:
#      x y z
#    x 1.727210 0.000000 -0.033060 
#    y 0.000000 1.748550 0.000000 
#    z -0.033060 0.000000 1.746710 
# 
# From -- ./inp_files/253776.got.cif
#   From: 2010.05.17/outbox.cif.g08.bks.cpg/sg12_127_cif.got.tgz:253776.got - 2010.06.03 13:09:07.
