data_PCOD9168421
_publ_section_title
;
Structure prediction by ZEFSAII (Michael W. Deem and Ramdas Pophale) SiO2 
 PCOD9168421
Probable space group: C 2/M
;
_chemical_formula_sum "Si O2"
_cell_formula_units_Z 48
_cell_length_a 18.161085
_cell_length_b 23.096470
_cell_length_c 8.647334
_cell_angle_alpha 90.000000
_cell_angle_beta 44.816996
_cell_angle_gamma 90.000000
_cell_volume 2556.601558
_symmetry_space_group_name_H-M "C 2/M"
_symmetry_group_IT_number 12
_symmetry_cell_setting 'monoclinic'
loop_
_space_group_symop_operation_xyz
x,y,z
-x,y,-z
-x,-y,-z
x,-y,z
1/2+x,1/2+y,z
1/2-x,1/2+y,-z
1/2-x,1/2-y,-z
1/2+x,1/2-y,z
loop_
_atom_site_type_symbol
_atom_site_label
_atom_site_fract_x
_atom_site_fract_y
_atom_site_fract_z
Si Si1 0.443092 0.065665 0.915926
Si Si2 0.216075 0.650095 0.706852
Si Si3 0.957606 0.773547 0.733085
Si Si4 0.574509 0.838098 0.616133
Si Si5 0.267372 0.279292 0.198880
Si Si6 0.591938 0.350450 0.765325
O O1 0.523551 0.098910 0.683187
O O2 0.420046 0.000000 0.904491
O O3 0.500000 0.063812 0.000000
O O4 0.341623 0.105839 0.093165
O O5 0.133213 0.664935 0.693688
O O6 0.247782 0.712300 0.730843
O O7 0.316221 0.620881 0.472852
O O8 0.981744 0.708032 0.747703
O O9 0.026101 0.812203 0.744925
O O10 0.000000 0.783333 0.500000
O O11 0.836075 0.785170 0.942604
O O12 0.660046 0.815216 0.366373
O O13 0.342391 0.308642 0.217676
O O14 0.500000 0.382339 0.000000
#
# Coordination Sequence:
#
# PCOD9168421 Si02
#       6
#     8   8   8   8   8   8
#     4   9  18  28  46  73  96 119 149 192 233 265
#     4  10  15  27  50  65  88 123 160 192 212 276
#     4  11  20  27  40  68 101 120 142 189 240 277
#     4  10  17  29  45  65  95 122 155 185 222 280
#     4  10  17  28  46  67  86 127 158 184 223 275
#     4   9  17  28  44  65  91 121 154 184 225 277
#
# _framework density 18.774923000000001
#
# number of rings (size 3 to 8) (size 9 to 14) (size 15 to 20)
#    0.000    2.167    5.000    1.000    0.000    0.667 
#    0.000    0.000    0.000    1.000    0.000    3.500 
#    0.000    1.333    0.000    0.000    0.000    0.000 
#
# Total GULP energy -133751.541124 kJ/mol
# GULP energy per Si atom -5572.980880 kJ/mol
# Density = 1.873219 g / cm^3
# Si number density = 18.774923 Si / 1000 Ang^3
#
#
#
# Elastic Constant Matrix: (Units=GPa)
#
#
# Indices 1 2 3 4 5 6 
#
# 1 39.8969 1.8642 17.8987 0.0000 -8.8893 0.0000
# 2 1.8642 77.2165 65.8632 0.0000 -16.8088 0.0000
# 3 17.8987 65.8632 163.3045 0.0000 -29.0913 0.0000
# 4 0.0000 0.0000 0.0000 18.1670 0.0000 -4.9046
# 5 -8.8893 -16.8088 -29.0913 0.0000 25.5934 0.0000
# 6 0.0000 0.0000 0.0000 -4.9046 0.0000 -0.5941
#
#
#
# Elastic Compliance Matrix: (Units=1/GPa)
#
#
# Indices 1 2 3 4 5 6 
#
# 1 0.028237 0.003872 -0.003080 0.000000 0.008849 0.000000
# 2 0.003872 0.020778 -0.007691 0.000000 0.006248 0.000000
# 3 -0.003080 -0.007691 0.010624 0.000000 0.005955 0.000000
# 4 0.000000 0.000000 0.000000 0.017048 0.000000 -0.140741
# 5 0.008849 0.006248 0.005955 0.000000 0.053019 0.000000
# 6 0.000000 0.000000 0.000000 -0.140741 0.000000 -0.521314
#
#
# Mechanical properties :
#
#
# Convention : Reuss Voigt Hill
#
# Bulk Modulus (GPa) = 21.81503 50.18556 36.00029
# Shear Modulus (GPa) = -13.79200 21.61938 3.91369
#
# Velocity S-wave (km/s) = -2.71328 3.39706 1.44536
# Velocity P-wave (km/s) = 1.35225 6.49422 4.69060
#
# Compressibility (1/GPa) = 0.04583996
#
# Stress axis : x y z
#
# Youngs Moduli (GPa) = 35.41432 48.12860 94.12752
#
# Poissons Ratio (x) = -0.18634 0.28991
# Poissons Ratio (y) = -0.13712 0.72395
# Poissons Ratio (z) = 0.10908 0.37017
#
# Static dielectric constant tensor:
#      x y z
#    x 1.676280 0.000000 -0.006700 
#    y 0.000000 1.609320 0.000000 
#    z -0.006700 0.000000 1.760380 
# 
# From -- ./inp_files/64427.got.cif
#   From: 2010.05.17/outbox.cif.g08.bks.cpg/sg12_33_cif.got.tgz:64427.got - 2010.06.03 13:09:07.
