data_PCOD9168220
_publ_section_title
;
Structure prediction by ZEFSAII (Michael W. Deem and Ramdas Pophale) SiO2 
 PCOD9168220
Probable space group: P 21/M
;
_chemical_formula_sum "Si O2"
_cell_formula_units_Z 28
_cell_length_a 9.000000
_cell_length_b 9.000000
_cell_length_c 21.000000
_cell_angle_alpha 90.000000
_cell_angle_beta 130.000000
_cell_angle_gamma 90.000000
_cell_volume 1303.041598
_symmetry_space_group_name_H-M "P 21/M"
_symmetry_group_IT_number 11
_symmetry_cell_setting 'monoclinic'
loop_
_space_group_symop_operation_xyz
x,y,z
-x,1/2+y,-z
-x,-y,-z
x,1/2-y,z
loop_
_atom_site_type_symbol
_atom_site_label
_atom_site_fract_x
_atom_site_fract_y
_atom_site_fract_z
Si Si1 0.721202 0.589306 0.796462
Si Si2 0.422400 0.413504 0.101879
Si Si3 0.210233 0.089403 0.797287
Si Si4 0.537602 0.423455 0.639965
Si Si5 0.850661 0.426429 0.507065
Si Si6 0.096791 0.085827 0.910122
Si Si7 0.867142 0.576072 0.648009
O O1 0.691473 0.750000 0.755892
O O2 0.664934 0.602339 0.853150
O O3 0.602868 0.460988 0.729027
O O4 0.941621 0.541305 0.858861
O O5 0.506998 0.250000 0.106780
O O6 0.571584 0.544639 0.151502
O O7 0.257444 0.448522 0.006010
O O8 0.155104 0.250000 0.753790
O O9 0.187377 0.098837 0.866071
O O10 0.076091 0.959010 0.734444
O O11 0.494106 0.250000 0.618216
O O12 0.361117 0.530139 0.575457
O O13 0.716136 0.477221 0.646066
O O14 0.876875 0.250000 0.519541
O O15 0.870996 0.510501 0.578951
O O16 0.000000 0.500000 0.500000
O O17 0.011007 0.250000 0.902559
O O18 0.819222 0.750000 0.635549
#
# Coordination Sequence:
#
# PCOD9168220 Si02
#       7
#     4   4   4   4   4   4   4
#     4  11  23  39  63  94 128 171 222 271 327 391
#     4  10  23  40  60  90 130 173 220 274 331 390
#     4  11  23  39  63  95 129 171 222 270 326 391
#     4  12  25  45  70  98 133 174 221 270 323 388
#     4  12  27  48  73 104 138 172 213 263 323 386
#     4  10  21  40  63  90 127 170 220 275 329 390
#     4  12  25  45  71  99 133 174 219 268 324 389
#
# _framework density 21.488185999999999
#
# number of rings (size 3 to 8) (size 9 to 14) (size 15 to 20)
#    0.000    0.857    1.429    6.000    2.000    2.286 
#    0.000    0.000    0.000    0.000    0.000    0.000 
#    0.000    0.000    0.000    0.000    0.000    0.000 
#
# Total GULP energy -156225.125636 kJ/mol
# GULP energy per Si atom -5579.468773 kJ/mol
# Density = 2.143928 g / cm^3
# Si number density = 21.488186 Si / 1000 Ang^3
#
#
#
# Elastic Constant Matrix: (Units=GPa)
#
#
# Indices 1 2 3 4 5 6 
#
# 1 129.0790 4.9753 14.9912 0.0000 -15.1093 0.0000
# 2 4.9753 81.6640 8.8797 0.0000 2.0977 0.0000
# 3 14.9912 8.8797 104.5797 0.0000 -15.1619 0.0000
# 4 0.0000 0.0000 0.0000 28.4275 0.0000 15.0073
# 5 -15.1093 2.0977 -15.1619 0.0000 25.4924 0.0000
# 6 0.0000 0.0000 0.0000 15.0073 0.0000 -31.9267
#
#
#
# Elastic Compliance Matrix: (Units=1/GPa)
#
#
# Indices 1 2 3 4 5 6 
#
# 1 0.008378 -0.000582 -0.000465 0.000000 0.004737 0.000000
# 2 -0.000582 0.012475 -0.001286 0.000000 -0.002136 0.000000
# 3 -0.000465 -0.001286 0.010630 0.000000 0.006153 0.000000
# 4 0.000000 0.000000 0.000000 0.028183 0.000000 0.013248
# 5 0.004737 -0.002136 0.006153 0.000000 0.045870 0.000000
# 6 0.000000 0.000000 0.000000 0.013248 0.000000 -0.025095
#
#
# Mechanical properties :
#
#
# Convention : Reuss Voigt Hill
#
# Bulk Modulus (GPa) = 37.28634 41.44611 39.36622
# Shear Modulus (GPa) = 53.16541 23.49707 38.33124
#
# Velocity S-wave (km/s) = 4.97950 3.31038 4.22812
# Velocity P-wave (km/s) = 7.10283 5.82591 6.49582
#
# Compressibility (1/GPa) = 0.02681947
#
# Stress axis : x y z
#
# Youngs Moduli (GPa) = 119.35886 80.15794 94.07457
#
# Poissons Ratio (x) = 0.04662 0.04373
# Poissons Ratio (y) = 0.06942 0.12094
# Poissons Ratio (z) = 0.05548 0.10305
#
# Static dielectric constant tensor:
#      x y z
#    x 1.876070 0.000000 -0.034170 
#    y 0.000000 1.806750 0.000000 
#    z -0.034170 0.000000 1.792330 
# 
# From -- ./inp_files/63395.got.cif
#   From: 2010.05.17/outbox.ucp.g08.bks.cvg/sg11_32_cif.got.tgz:63395.got - 2010.06.11 11:38:39.
