data_PCOD9168165
_publ_section_title
;
Structure prediction by ZEFSAII (Michael W. Deem and Ramdas Pophale) SiO2 
 PCOD9168165
Probable space group: P 21/M
;
_chemical_formula_sum "Si O2"
_cell_formula_units_Z 28
_cell_length_a 15.000000
_cell_length_b 9.000000
_cell_length_c 21.000000
_cell_angle_alpha 90.000000
_cell_angle_beta 30.000000
_cell_angle_gamma 90.000000
_cell_volume 1417.500000
_symmetry_space_group_name_H-M "P 21/M"
_symmetry_group_IT_number 11
_symmetry_cell_setting 'monoclinic'
loop_
_space_group_symop_operation_xyz
x,y,z
-x,1/2+y,-z
-x,-y,-z
x,1/2-y,z
loop_
_atom_site_type_symbol
_atom_site_label
_atom_site_fract_x
_atom_site_fract_y
_atom_site_fract_z
Si Si1 0.712352 0.578498 0.198865
Si Si2 0.097572 0.574974 0.635545
Si Si3 0.207324 0.077671 0.077273
Si Si4 0.451234 0.072538 0.462477
Si Si5 0.450141 0.072992 0.098708
Si Si6 0.071420 0.427480 0.391712
Si Si7 0.902927 0.080762 0.971110
O O1 0.659936 0.750000 0.217866
O O2 0.574512 0.500298 0.331526
O O3 0.906364 0.582888 0.112223
O O4 0.751070 0.483158 0.111793
O O5 0.144224 0.750000 0.615435
O O6 0.248872 0.472573 0.571279
O O7 0.908221 0.553100 0.787844
O O8 0.065669 0.544872 0.581182
O O9 0.258218 0.250000 0.043388
O O10 0.082406 0.031298 0.096501
O O11 0.380192 0.975413 0.964976
O O12 0.473907 0.250000 0.450636
O O13 0.500000 0.000000 0.500000
O O14 0.438469 0.250000 0.097290
O O15 0.266486 0.022261 0.245603
O O16 0.500000 0.000000 0.000000
O O17 0.083578 0.250000 0.393157
O O18 0.000000 0.500000 0.500000
O O19 0.864163 0.250000 0.975469
#
# Coordination Sequence:
#
# PCOD9168165 Si02
#       7
#     4   4   4   4   4   4   4
#     4  10  21  39  61  85 118 159 202 250 308 365
#     4  10  22  42  63  87 124 164 209 260 310 373
#     4  11  22  38  62  91 122 160 204 252 310 367
#     4  12  25  40  61  90 123 162 207 254 310 372
#     4  11  22  40  64  91 123 158 203 256 310 371
#     4  10  23  43  65  93 127 166 209 259 317 377
#     4  10  21  37  59  89 120 155 201 252 304 365
#
# _framework density 19.753086
#
# number of rings (size 3 to 8) (size 9 to 14) (size 15 to 20)
#    0.000    1.429    1.429    3.857    0.000    8.000 
#    0.000    2.857    0.000    0.000    0.000    0.000 
#    0.000    0.000    0.000    0.000    0.000    0.000 
#
# Total GULP energy -156397.095852 kJ/mol
# GULP energy per Si atom -5585.610566 kJ/mol
# Density = 1.970813 g / cm^3
# Si number density = 19.753086 Si / 1000 Ang^3
#
#
#
# Elastic Constant Matrix: (Units=GPa)
#
#
# Indices 1 2 3 4 5 6 
#
# 1 57.1914 25.8742 25.9875 0.0000 12.6685 0.0000
# 2 25.8742 84.9071 51.2933 0.0000 -4.1290 0.0000
# 3 25.9875 51.2933 98.9438 0.0000 8.7567 0.0000
# 4 0.0000 0.0000 0.0000 36.8375 0.0000 2.4779
# 5 12.6685 -4.1290 8.7567 0.0000 29.6041 0.0000
# 6 0.0000 0.0000 0.0000 2.4779 0.0000 32.8286
#
#
#
# Elastic Compliance Matrix: (Units=1/GPa)
#
#
# Indices 1 2 3 4 5 6 
#
# 1 0.023633 -0.006584 -0.001867 0.000000 -0.010480 0.000000
# 2 -0.006584 0.019784 -0.009263 0.000000 0.008317 0.000000
# 3 -0.001867 -0.009263 0.015858 0.000000 -0.005184 0.000000
# 4 0.000000 0.000000 0.000000 0.027285 0.000000 -0.002059
# 5 -0.010480 0.008317 -0.005184 0.000000 0.040957 0.000000
# 6 0.000000 0.000000 0.000000 -0.002059 0.000000 0.030617
#
#
# Mechanical properties :
#
#
# Convention : Reuss Voigt Hill
#
# Bulk Modulus (GPa) = 41.93196 49.70580 45.81888
# Shear Modulus (GPa) = 24.81257 29.04654 26.92956
#
# Velocity S-wave (km/s) = 3.54805 3.83885 3.69631
# Velocity P-wave (km/s) = 6.16920 6.69830 6.43918
#
# Compressibility (1/GPa) = 0.02384816
#
# Stress axis : x y z
#
# Youngs Moduli (GPa) = 42.31311 50.54500 63.05997
#
# Poissons Ratio (x) = 0.33278 0.11771
# Poissons Ratio (y) = 0.27858 0.58414
# Poissons Ratio (z) = 0.07899 0.46821
#
# Static dielectric constant tensor:
#      x y z
#    x 1.766940 0.000000 -0.010710 
#    y 0.000000 1.658320 0.000000 
#    z -0.010710 0.000000 1.675080 
# 
# From -- ./inp_files/65395.got.cif
#   From: 2010.05.17/outbox.ucp.g08.bks.cvg/sg11_33_cif.got.tgz:65395.got - 2010.06.11 11:38:39.
