data_PCOD9168787
_publ_section_title
;
Structure prediction by ZEFSAII (Michael W. Deem and Ramdas Pophale) SiO2 
 PCOD9168787
Probable space group: C 2/M
;
_chemical_formula_sum "Si O2"
_cell_formula_units_Z 60
_cell_length_a 19.036843
_cell_length_b 19.870190
_cell_length_c 7.851261
_cell_angle_alpha 90.000000
_cell_angle_beta 111.419207
_cell_angle_gamma 90.000000
_cell_volume 2764.744466
_symmetry_space_group_name_H-M "C 2/M"
_symmetry_group_IT_number 12
_symmetry_cell_setting 'monoclinic'
loop_
_space_group_symop_operation_xyz
x,y,z
-x,y,-z
-x,-y,-z
x,-y,z
1/2+x,1/2+y,z
1/2-x,1/2+y,-z
1/2-x,1/2-y,-z
1/2+x,1/2-y,z
loop_
_atom_site_type_symbol
_atom_site_label
_atom_site_fract_x
_atom_site_fract_y
_atom_site_fract_z
Si Si1 0.648497 0.729040 0.182363
Si Si2 0.849966 0.571457 0.412347
Si Si3 0.000000 0.181774 0.500000
Si Si4 0.043711 0.279262 0.835399
Si Si5 0.939558 0.424454 0.152439
Si Si6 0.698526 0.793510 0.774177
Si Si7 0.326135 0.887036 0.752504
Si Si8 0.162088 0.156504 0.546095
O O1 0.713756 0.711975 0.101422
O O2 0.660669 0.806395 0.252856
O O3 0.653258 0.675787 0.339022
O O4 0.569631 0.735925 0.019386
O O5 0.810946 0.500000 0.344283
O O6 0.803549 0.637633 0.331736
O O7 0.864048 0.576625 0.625054
O O8 0.916727 0.574410 0.332670
O O9 0.997778 0.233007 0.337302
O O10 0.921314 0.141209 0.450325
O O11 0.126726 0.296814 0.831092
O O12 0.012907 0.355227 0.831992
O O13 0.969573 0.500000 0.145916
O O14 0.866595 0.414245 0.960250
O O15 0.682958 0.728682 0.646156
O O16 0.233860 0.891202 0.655309
#
# Coordination Sequence:
#
# PCOD9168787 Si02
#       8
#     8   8   4   8   8   8   8   8
#     4  10  16  28  51  71  93 124 160 209 264 306
#     4  10  17  26  44  72 102 127 153 193 250 305
#     4  10  22  34  43  68  99 142 176 204 238 300
#     4   9  19  30  48  68 100 136 165 206 245 290
#     4   9  19  32  50  78 105 130 165 206 254 305
#     4   9  15  29  45  71  99 121 156 200 261 309
#     4  10  17  31  50  77 100 129 155 210 266 308
#     4  10  18  31  49  67 103 127 166 204 251 301
#
# _framework density 21.701826000000001
#
# number of rings (size 3 to 8) (size 9 to 14) (size 15 to 20)
#    0.000    2.400    2.667    1.600    0.000    3.733 
#    0.000    0.333    0.000    0.800    0.000    3.733 
#    0.000    5.333    0.000    0.133    0.000    0.000 
#
# Total GULP energy -167049.015718 kJ/mol
# GULP energy per Si atom -5568.300524 kJ/mol
# Density = 2.165243 g / cm^3
# Si number density = 21.701826 Si / 1000 Ang^3
#
#
#
# Elastic Constant Matrix: (Units=GPa)
#
#
# Indices 1 2 3 4 5 6 
#
# 1 128.4619 7.4145 37.1558 0.0000 5.9828 0.0000
# 2 7.4145 27.1138 2.7909 0.0000 -0.4356 0.0000
# 3 37.1558 2.7909 75.5847 0.0000 0.7217 0.0000
# 4 0.0000 0.0000 0.0000 14.2028 0.0000 -1.3310
# 5 5.9828 -0.4356 0.7217 0.0000 37.4751 0.0000
# 6 0.0000 0.0000 0.0000 -1.3310 0.0000 1.9476
#
#
#
# Elastic Compliance Matrix: (Units=1/GPa)
#
#
# Indices 1 2 3 4 5 6 
#
# 1 0.009262 -0.002096 -0.004462 0.000000 -0.001417 0.000000
# 2 -0.002096 0.037505 -0.000362 0.000000 0.000778 0.000000
# 3 -0.004462 -0.000362 0.015433 0.000000 0.000411 0.000000
# 4 0.000000 0.000000 0.000000 0.075226 0.000000 0.051409
# 5 -0.001417 0.000778 0.000411 0.000000 0.026912 0.000000
# 6 0.000000 0.000000 0.000000 0.051409 0.000000 0.548596
#
#
# Mechanical properties :
#
#
# Convention : Reuss Voigt Hill
#
# Bulk Modulus (GPa) = 20.67847 36.20919 28.44383
# Shear Modulus (GPa) = 6.73044 22.97837 14.85441
#
# Velocity S-wave (km/s) = 1.76297 3.25748 2.61909
# Velocity P-wave (km/s) = 3.70043 5.55602 4.72031
#
# Compressibility (1/GPa) = 0.04835947
#
# Stress axis : x y z
#
# Youngs Moduli (GPa) = 107.96826 26.66341 64.79590
#
# Poissons Ratio (x) = 0.05589 0.28912
# Poissons Ratio (y) = 0.22633 0.02344
# Poissons Ratio (z) = 0.48176 0.00965
#
# Static dielectric constant tensor:
#      x y z
#    x 1.912140 0.000000 -0.061510 
#    y 0.000000 1.787980 0.000000 
#    z -0.061510 0.000000 1.924570 
# 
# From -- ./inp_files/89233.got.cif
#   From: 2010.05.17/outbox.cif.g08.bks.cpg/sg12_45_cif.got.tgz:89233.got - 2010.06.03 13:09:07.
