data_PCOD9168586
_publ_section_title
;
Structure prediction by ZEFSAII (Michael W. Deem and Ramdas Pophale) SiO2 
 PCOD9168586
Probable space group: C 2/M
;
_chemical_formula_sum "Si O2"
_cell_formula_units_Z 44
_cell_length_a 5.368026
_cell_length_b 24.060823
_cell_length_c 26.629432
_cell_angle_alpha 90.000000
_cell_angle_beta 127.303309
_cell_angle_gamma 90.000000
_cell_volume 2735.858235
_symmetry_space_group_name_H-M "C 2/M"
_symmetry_group_IT_number 12
_symmetry_cell_setting 'monoclinic'
loop_
_space_group_symop_operation_xyz
x,y,z
-x,y,-z
-x,-y,-z
x,-y,z
1/2+x,1/2+y,z
1/2-x,1/2+y,-z
1/2-x,1/2-y,-z
1/2+x,1/2-y,z
loop_
_atom_site_type_symbol
_atom_site_label
_atom_site_fract_x
_atom_site_fract_y
_atom_site_fract_z
Si Si1 0.000000 0.786577 0.500000
Si Si2 0.152344 0.627650 0.384425
Si Si3 0.274032 0.933515 0.424898
Si Si4 0.673315 0.214273 0.725044
Si Si5 0.674384 0.684863 0.074154
Si Si6 0.833813 0.810997 0.127189
O O1 0.250000 0.750000 0.500000
O O2 0.184704 0.825307 0.561421
O O3 0.433602 0.591837 0.394929
O O4 0.933349 0.591999 0.394807
O O5 0.954716 0.660042 0.318438
O O6 0.500000 0.919915 0.500000
O O7 0.256403 0.000000 0.418900
O O8 0.383329 0.249377 0.712261
O O9 0.900703 0.198602 0.799026
O O10 0.715552 0.749876 0.094634
O O11 0.474832 0.660137 0.095352
O O12 0.024209 0.661489 0.112025
O O13 0.500000 0.681470 0.000000
#
# Coordination Sequence:
#
# PCOD9168586 Si02
#       6
#     4   8   8   8   8   8
#     4  12  22  36  49  74 107 134 164 204 234 282
#     4  12  23  37  56  78 100 130 172 200 261 309
#     4  11  22  41  62  79  96 117 156 225 278 314
#     4  12  21  35  48  68 103 145 173 202 230 293
#     4  10  16  25  41  60  85 121 179 224 235 256
#     4  10  16  27  39  59  88 124 172 208 227 276
#
# _framework density 16.082702999999999
#
# number of rings (size 3 to 8) (size 9 to 14) (size 15 to 20)
#    0.000    0.909    5.455    6.545    0.000    1.455 
#    0.000    0.000    0.000    0.000    0.000    0.000 
#    0.000    0.000    0.000    0.000    0.000  105.455 
#
# Total GULP energy -122785.807064 kJ/mol
# GULP energy per Si atom -5581.173048 kJ/mol
# Density = 1.604610 g / cm^3
# Si number density = 16.082703 Si / 1000 Ang^3
#
#
#
# Elastic Constant Matrix: (Units=GPa)
#
#
# Indices 1 2 3 4 5 6 
#
# 1 139.1164 32.9469 7.4719 0.0000 -3.8517 0.0000
# 2 32.9469 50.0130 25.4771 0.0000 -1.2499 0.0000
# 3 7.4719 25.4771 51.6937 0.0000 -1.5852 0.0000
# 4 0.0000 0.0000 0.0000 -1.0364 0.0000 -0.3250
# 5 -3.8517 -1.2499 -1.5852 0.0000 17.2805 0.0000
# 6 0.0000 0.0000 0.0000 -0.3250 0.0000 23.4119
#
#
#
# Elastic Compliance Matrix: (Units=1/GPa)
#
#
# Indices 1 2 3 4 5 6 
#
# 1 0.008729 -0.006799 0.002140 0.000000 0.001650 0.000000
# 2 -0.006799 0.032003 -0.014807 0.000000 -0.000559 0.000000
# 3 0.002140 -0.014807 0.026389 0.000000 0.001827 0.000000
# 4 0.000000 0.000000 0.000000 -0.960650 0.000000 -0.013336
# 5 0.001650 -0.000559 0.001827 0.000000 0.058364 0.000000
# 6 0.000000 0.000000 0.000000 -0.013336 0.000000 0.042528
#
#
# Mechanical properties :
#
#
# Convention : Reuss Voigt Hill
#
# Bulk Modulus (GPa) = 35.47563 41.40167 38.43865
# Shear Modulus (GPa) = -6.71764 19.59300 6.43768
#
# Velocity S-wave (km/s) = -2.04597 3.49415 2.00289
# Velocity P-wave (km/s) = 4.06507 6.48673 5.41306
#
# Compressibility (1/GPa) = 0.02818837
#
# Stress axis : x y z
#
# Youngs Moduli (GPa) = 114.55705 31.24728 37.89470
#
# Poissons Ratio (x) = 0.21246 -0.08109
# Poissons Ratio (y) = 0.77892 0.56110
# Poissons Ratio (z) = -0.24514 0.46267
#
# Static dielectric constant tensor:
#      x y z
#    x 1.612010 0.000000 0.000260 
#    y 0.000000 1.508380 0.000000 
#    z 0.000260 0.000000 1.532080 
# 
# From -- ./inp_files/355034.got.cif
#   From: 2010.05.17/outbox.cif.g08.bks.cpg/sg12_178_cif.got.tgz:355034.got - 2010.06.03 13:09:07.
