data_PCOD9168848
_publ_section_title
;
Structure prediction by ZEFSAII (Michael W. Deem and Ramdas Pophale) SiO2 
 PCOD9168848
Probable space group: C 2/M
;
_chemical_formula_sum "Si O2"
_cell_formula_units_Z 44
_cell_length_a 14.358081
_cell_length_b 17.761547
_cell_length_c 15.980117
_cell_angle_alpha 90.000000
_cell_angle_beta 32.307619
_cell_angle_gamma 90.000000
_cell_volume 2178.091930
_symmetry_space_group_name_H-M "C 2/M"
_symmetry_group_IT_number 12
_symmetry_cell_setting 'monoclinic'
loop_
_space_group_symop_operation_xyz
x,y,z
-x,y,-z
-x,-y,-z
x,-y,z
1/2+x,1/2+y,z
1/2-x,1/2+y,-z
1/2-x,1/2-y,-z
1/2+x,1/2-y,z
loop_
_atom_site_type_symbol
_atom_site_label
_atom_site_fract_x
_atom_site_fract_y
_atom_site_fract_z
Si Si1 0.424956 0.000000 0.463868
Si Si2 0.396402 0.586020 0.347083
Si Si3 0.593134 0.273976 0.178620
Si Si4 0.791324 0.336004 0.175657
Si Si5 0.310237 0.848516 0.351536
Si Si6 0.808116 0.500000 0.100730
Si Si7 0.467543 0.000000 0.803831
O O1 0.500000 0.000000 0.500000
O O2 0.291572 0.070539 0.553690
O O3 0.450373 0.000000 0.714340
O O4 0.459658 0.500000 0.312254
O O5 0.521689 0.643694 0.205559
O O6 0.348196 0.629193 0.468856
O O7 0.682009 0.280204 0.201484
O O8 0.435093 0.215506 0.293934
O O9 0.750000 0.250000 0.000000
O O10 0.758036 0.326055 0.298287
O O11 0.737651 0.420355 0.187161
O O12 0.000000 0.327937 0.000000
O O13 0.422003 0.925277 0.260660
O O14 0.826179 0.500000 0.985743
O O15 0.000000 0.500000 0.000000
#
# Coordination Sequence:
#
# PCOD9168848 Si02
#       7
#     4   8   8   8   8   4   4
#     4   8  18  39  64  90 126 173 229 267 329 396
#     4   9  23  43  65  94 134 167 221 279 336 396
#     4  12  24  40  61  93 137 176 216 277 332 395
#     4  11  21  36  62  96 130 173 212 268 341 403
#     4  11  20  42  64  93 132 169 221 275 337 400
#     4  10  16  29  59  92 121 156 215 254 333 398
#     4  10  16  34  61  89 119 169 207 274 318 391
#
# _framework density 20.201167000000002
#
# number of rings (size 3 to 8) (size 9 to 14) (size 15 to 20)
#    0.545    1.091    6.364    0.545    1.273    0.727 
#    8.182    0.909    0.000    0.000    0.000    8.273 
#    0.000    0.000    0.000    0.000    0.000    0.000 
#
# Total GULP energy -122683.616903 kJ/mol
# GULP energy per Si atom -5576.528041 kJ/mol
# Density = 2.015519 g / cm^3
# Si number density = 20.201167 Si / 1000 Ang^3
#
#
#
# Elastic Constant Matrix: (Units=GPa)
#
#
# Indices 1 2 3 4 5 6 
#
# 1 140.3361 48.1001 57.9700 0.0033 33.0769 -0.0008
# 2 48.1001 122.4039 43.3667 0.0051 -6.0585 -0.0018
# 3 57.9700 43.3667 112.2358 0.0058 7.5742 -0.0046
# 4 0.0033 0.0051 0.0058 37.9893 -0.0026 -4.2616
# 5 33.0769 -6.0585 7.5742 -0.0026 33.8855 0.0014
# 6 -0.0008 -0.0018 -0.0046 -4.2616 0.0014 24.5132
#
#
#
# Elastic Compliance Matrix: (Units=1/GPa)
#
#
# Indices 1 2 3 4 5 6 
#
# 1 0.013513 -0.004392 -0.004406 -0.000001 -0.012991 0.000000
# 2 -0.004392 0.011115 -0.002487 0.000000 0.006831 0.000000
# 3 -0.004406 -0.002487 0.012068 -0.000001 0.001158 0.000002
# 4 -0.000001 0.000000 -0.000001 0.026847 0.000003 0.004667
# 5 -0.012991 0.006831 0.001158 0.000003 0.043155 -0.000002
# 6 0.000000 0.000000 0.000002 0.004667 -0.000002 0.041606
#
#
# Mechanical properties :
#
#
# Convention : Reuss Voigt Hill
#
# Bulk Modulus (GPa) = 70.79068 74.87217 72.83143
# Shear Modulus (GPa) = 28.47675 34.31354 31.39514
#
# Velocity S-wave (km/s) = 3.75862 4.12587 3.94652
# Velocity P-wave (km/s) = 7.34542 7.73568 7.54308
#
# Compressibility (1/GPa) = 0.01412615
#
# Stress axis : x y z
#
# Youngs Moduli (GPa) = 74.00244 89.96955 82.86268
#
# Poissons Ratio (x) = 0.39517 0.36507
# Poissons Ratio (y) = 0.32504 0.20608
# Poissons Ratio (z) = 0.32603 0.22376
#
# Static dielectric constant tensor:
#      x y z
#    x 1.755010 0.000000 -0.040260 
#    y 0.000000 1.728590 0.000000 
#    z -0.040260 0.000000 1.790670 
# 
# From -- ./inp_files/215790.got.cif
#   From: 2010.05.17/outbox.cif.g08.bks.cpg/sg12_108_cif.got.tgz:215790.got - 2010.06.03 13:09:07.
