data_PCOD9168403
_publ_section_title
;
Structure prediction by ZEFSAII (Michael W. Deem and Ramdas Pophale) SiO2 
 PCOD9168403
Probable space group: C 2/M
;
_chemical_formula_sum "Si O2"
_cell_formula_units_Z 56
_cell_length_a 24.969875
_cell_length_b 14.834234
_cell_length_c 19.100124
_cell_angle_alpha 90.000000
_cell_angle_beta 159.272103
_cell_angle_gamma 90.000000
_cell_volume 2504.006091
_symmetry_space_group_name_H-M "C 2/M"
_symmetry_group_IT_number 12
_symmetry_cell_setting 'monoclinic'
loop_
_space_group_symop_operation_xyz
x,y,z
-x,y,-z
-x,-y,-z
x,-y,z
1/2+x,1/2+y,z
1/2-x,1/2+y,-z
1/2-x,1/2-y,-z
1/2+x,1/2-y,z
loop_
_atom_site_type_symbol
_atom_site_label
_atom_site_fract_x
_atom_site_fract_y
_atom_site_fract_z
Si Si1 0.002717 0.398867 0.384747
Si Si2 0.922215 0.856083 0.467242
Si Si3 0.816696 0.848344 0.565003
Si Si4 0.788507 0.331036 0.246248
Si Si5 0.551901 0.657885 0.136170
Si Si6 0.646228 0.864542 0.223006
Si Si7 0.427203 0.726939 0.220284
O O1 0.980117 0.500000 0.332479
O O2 0.867371 0.369963 0.273031
O O3 0.007191 0.323956 0.330331
O O4 0.150831 0.391258 0.614862
O O5 0.852523 0.766825 0.344831
O O6 0.785126 0.892884 0.344257
O O7 0.000000 0.907853 0.500000
O O8 0.045576 0.826937 0.674815
O O9 0.750000 0.750000 0.500000
O O10 0.850816 0.888527 0.683659
O O11 0.697793 0.891742 0.364637
O O12 0.975461 0.828437 0.717781
O O13 0.609902 0.323475 0.025112
O O14 0.628016 0.754321 0.207399
O O15 0.500000 0.612453 0.000000
O O16 0.500000 0.893548 0.000000
O O17 0.250000 0.750000 0.000000
#
# Coordination Sequence:
#
# PCOD9168403 Si02
#       7
#     8   8   8   8   8   8   8
#     4  10  20  31  47  68  98 133 176 205 240 302
#     4  10  16  25  41  66  91 125 160 205 237 283
#     4   9  19  27  40  69  92 125 169 207 255 305
#     4  10  15  26  45  65  88 136 170 200 224 284
#     4  10  17  26  44  64  96 131 167 210 250 290
#     4   9  16  26  39  58  91 131 167 204 252 297
#     4  10  19  30  47  71  95 125 166 208 253 293
#
# _framework density 22.364163999999999
#
# number of rings (size 3 to 8) (size 9 to 14) (size 15 to 20)
#    0.000    2.286    5.714    1.714    2.000    0.000 
#    0.000    0.000    0.000    1.714    0.000    0.000 
#    0.000    1.143    0.000    0.143    0.000   32.143 
#
# Total GULP energy -155972.005163 kJ/mol
# GULP energy per Si atom -5570.428756 kJ/mol
# Density = 2.231326 g / cm^3
# Si number density = 22.364164 Si / 1000 Ang^3
#
#
#
# Elastic Constant Matrix: (Units=GPa)
#
#
# Indices 1 2 3 4 5 6 
#
# 1 111.0766 10.6064 58.7816 0.0000 -32.5160 0.0000
# 2 10.6064 74.6140 0.9954 0.0000 -8.6762 0.0000
# 3 58.7816 0.9954 150.8178 0.0001 -19.8686 0.0000
# 4 0.0000 0.0000 0.0001 -8.3333 0.0001 -2.0041
# 5 -32.5160 -8.6762 -19.8686 0.0001 52.2707 0.0000
# 6 0.0000 0.0000 0.0000 -2.0041 0.0000 -14.7621
#
#
#
# Elastic Compliance Matrix: (Units=1/GPa)
#
#
# Indices 1 2 3 4 5 6 
#
# 1 0.013276 -0.001081 -0.004319 0.000000 0.006438 0.000000
# 2 -0.001081 0.013761 0.000571 0.000000 0.001829 0.000000
# 3 -0.004319 0.000571 0.008389 0.000000 0.000597 0.000000
# 4 0.000000 0.000000 0.000000 -0.124051 0.000000 0.016841
# 5 0.006438 0.001829 0.000597 0.000000 0.023666 0.000000
# 6 0.000000 0.000000 0.000000 0.016841 0.000000 -0.070027
#
#
# Mechanical properties :
#
#
# Convention : Reuss Voigt Hill
#
# Bulk Modulus (GPa) = 38.80726 53.03057 45.91891
# Shear Modulus (GPa) = -42.83068 23.57672 -9.62698
#
# Velocity S-wave (km/s) = -4.38099 3.25040 -2.07701
# Velocity P-wave (km/s) = 2.86368 6.15228 3.85032
#
# Compressibility (1/GPa) = 0.02576837
#
# Stress axis : x y z
#
# Youngs Moduli (GPa) = 75.32251 72.66902 119.20688
#
# Poissons Ratio (x) = 0.07856 0.51488
# Poissons Ratio (y) = 0.08143 -0.06812
# Poissons Ratio (z) = 0.32534 -0.04153
#
# Static dielectric constant tensor:
#      x y z
#    x 1.905070 0.000000 -0.005630 
#    y 0.000000 1.811940 0.000000 
#    z -0.005630 0.000000 1.875400 
# 
# From -- ./inp_files/328573.got.cif
#   From: 2010.05.17/outbox.cif.g08.bks.cpg/sg12_165_cif.got.tgz:328573.got - 2010.06.03 13:09:07.
