data_PCOD9168296
_publ_section_title
;
Structure prediction by ZEFSAII (Michael W. Deem and Ramdas Pophale) SiO2 
 PCOD9168296
Probable space group: C 2/M
;
_chemical_formula_sum "Si O2"
_cell_formula_units_Z 64
_cell_length_a 5.376775
_cell_length_b 26.645297
_cell_length_c 26.252853
_cell_angle_alpha 90.000000
_cell_angle_beta 92.409387
_cell_angle_gamma 90.000000
_cell_volume 3757.810106
_symmetry_space_group_name_H-M "C 2/M"
_symmetry_group_IT_number 12
_symmetry_cell_setting 'monoclinic'
loop_
_space_group_symop_operation_xyz
x,y,z
-x,y,-z
-x,-y,-z
x,-y,z
1/2+x,1/2+y,z
1/2-x,1/2+y,-z
1/2-x,1/2-y,-z
1/2+x,1/2-y,z
loop_
_atom_site_type_symbol
_atom_site_label
_atom_site_fract_x
_atom_site_fract_y
_atom_site_fract_z
Si Si1 0.674682 0.115124 0.691207
Si Si2 0.351803 0.115383 0.431842
Si Si3 0.754492 0.691777 0.021768
Si Si4 0.648285 0.442038 0.567157
Si Si5 0.825545 0.057851 0.308586
Si Si6 0.564277 0.231380 0.557322
Si Si7 0.210616 0.283088 0.750648
Si Si8 0.326762 0.781187 0.135700
O O1 0.662676 0.115464 0.629784
O O2 0.425712 0.087147 0.707622
O O3 0.686025 0.171406 0.711656
O O4 0.925830 0.085554 0.707814
O O5 0.608780 0.088169 0.448109
O O6 0.361354 0.173536 0.446920
O O7 0.109106 0.085565 0.448237
O O8 0.771208 0.690860 0.082687
O O9 0.500000 0.668702 0.000000
O O10 0.750000 0.750000 0.000000
O O11 0.000000 0.668563 0.000000
O O12 0.655023 0.500000 0.550879
O O13 0.660856 0.442403 0.629289
O O14 0.817568 0.000000 0.292201
O O15 0.500000 0.251762 0.500000
O O16 0.798794 0.260977 0.582545
O O17 0.470367 0.253487 0.745016
O O18 0.205548 0.304534 0.808674
O O19 0.610710 0.761615 0.134108
#
# Coordination Sequence:
#
# PCOD9168296 Si02
#       8
#     8   8   8   8   8   8   8   8
#     4  10  19  31  46  68  91 115 151 182 217 260
#     4  10  19  31  51  71  90 118 147 183 221 262
#     4  10  14  20  34  51  67  88 132 191 210 230
#     4   9  17  30  49  74  97 116 139 173 220 271
#     4   9  17  30  49  69  89 110 142 188 230 264
#     4  10  21  36  52  70  91 118 153 192 228 258
#     4  10  21  31  41  56  87 126 155 178 204 257
#     4  10  16  25  35  50  72 104 142 179 207 244
#
# _framework density 17.031196000000001
#
# number of rings (size 3 to 8) (size 9 to 14) (size 15 to 20)
#    0.000    2.250    2.500    2.250    0.000    4.000 
#    0.000    0.000    0.000    2.250    0.000    0.000 
#    0.000    0.000    0.000    0.000    0.000   12.500 
#
# Total GULP energy -178442.964708 kJ/mol
# GULP energy per Si atom -5576.342647 kJ/mol
# Density = 1.699243 g / cm^3
# Si number density = 17.031196 Si / 1000 Ang^3
#
#
#
# Elastic Constant Matrix: (Units=GPa)
#
#
# Indices 1 2 3 4 5 6 
#
# 1 150.2202 49.1502 25.2161 0.0000 4.2961 0.0000
# 2 49.1502 84.6804 16.2858 0.0000 3.4786 0.0000
# 3 25.2161 16.2858 48.6968 0.0000 2.8088 0.0000
# 4 0.0000 0.0000 0.0000 40.5952 0.0000 15.6189
# 5 4.2961 3.4786 2.8088 0.0000 13.3229 0.0000
# 6 0.0000 0.0000 0.0000 15.6189 0.0000 33.2291
#
#
#
# Elastic Compliance Matrix: (Units=1/GPa)
#
#
# Indices 1 2 3 4 5 6 
#
# 1 0.008616 -0.004395 -0.002933 0.000000 -0.001012 0.000000
# 2 -0.004395 0.014942 -0.002609 0.000000 -0.001934 0.000000
# 3 -0.002933 -0.002609 0.023114 0.000000 -0.003246 0.000000
# 4 0.000000 0.000000 0.000000 0.030072 0.000000 -0.014135
# 5 -0.001012 -0.001934 -0.003246 0.000000 0.076575 0.000000
# 6 0.000000 0.000000 0.000000 -0.014135 0.000000 0.036738
#
#
# Mechanical properties :
#
#
# Convention : Reuss Voigt Hill
#
# Bulk Modulus (GPa) = 37.31941 51.65574 44.48758
# Shear Modulus (GPa) = 22.84519 30.29245 26.56882
#
# Velocity S-wave (km/s) = 3.66645 4.22197 3.95398
# Velocity P-wave (km/s) = 6.31536 7.35953 6.85735
#
# Compressibility (1/GPa) = 0.02679571
#
# Stress axis : x y z
#
# Youngs Moduli (GPa) = 116.05839 66.92742 43.26373
#
# Poissons Ratio (x) = 0.29417 0.12691
# Poissons Ratio (y) = 0.51012 0.11289
# Poissons Ratio (z) = 0.34044 0.17464
#
# Static dielectric constant tensor:
#      x y z
#    x 1.624400 0.000000 -0.006330 
#    y 0.000000 1.533510 0.000000 
#    z -0.006330 0.000000 1.604990 
# 
# From -- ./inp_files/355067.got.cif
#   From: 2010.05.17/outbox.cif.g08.bks.cpg/sg12_178_cif.got.tgz:355067.got - 2010.06.03 13:09:07.
