data_PCOD9168162
_publ_section_title
;
Structure prediction by ZEFSAII (Michael W. Deem and Ramdas Pophale) SiO2 
 PCOD9168162
Probable space group: P 21/M
;
_chemical_formula_sum "Si O2"
_cell_formula_units_Z 28
_cell_length_a 12.000000
_cell_length_b 9.000000
_cell_length_c 15.000000
_cell_angle_alpha 90.000000
_cell_angle_beta 60.000000
_cell_angle_gamma 90.000000
_cell_volume 1402.961154
_symmetry_space_group_name_H-M "P 21/M"
_symmetry_group_IT_number 11
_symmetry_cell_setting 'monoclinic'
loop_
_space_group_symop_operation_xyz
x,y,z
-x,1/2+y,-z
-x,-y,-z
x,1/2-y,z
loop_
_atom_site_type_symbol
_atom_site_label
_atom_site_fract_x
_atom_site_fract_y
_atom_site_fract_z
Si Si1 0.989685 0.574800 0.693145
Si Si2 0.461029 0.080470 0.425771
Si Si3 0.827386 0.922176 0.519873
Si Si4 0.513936 0.072269 0.203482
Si Si5 0.255015 0.926591 0.263577
Si Si6 0.952856 0.921814 0.157594
Si Si7 0.804732 0.423409 0.062314
O O1 0.984513 0.750000 0.683150
O O2 0.847481 0.505446 0.759190
O O3 0.061918 0.496313 0.582319
O O4 0.064355 0.528368 0.752051
O O5 0.506427 0.250000 0.413789
O O6 0.306426 0.078884 0.480535
O O7 0.511806 0.023619 0.309070
O O8 0.500000 0.000000 0.500000
O O9 0.857735 0.750000 0.530429
O O10 0.794210 0.017581 0.620039
O O11 0.484669 0.250000 0.215529
O O12 0.654499 0.048988 0.106157
O O13 0.399728 0.987407 0.199371
O O14 0.249555 0.750000 0.257442
O O15 0.936548 0.750000 0.190300
O O16 0.855640 0.969040 0.118986
O O17 0.095719 0.940464 0.058569
O O18 0.815856 0.250000 0.086945
#
# Coordination Sequence:
#
# PCOD9168162 Si02
#       7
#     4   4   4   4   4   4   4
#     4  12  24  38  58  82 112 151 192 235 282 334
#     4   9  19  32  49  76 112 145 180 223 267 323
#     4  10  21  38  56  80 113 151 189 230 279 330
#     4   9  19  37  58  80 109 150 189 227 278 335
#     4  11  22  38  58  84 114 148 189 233 280 335
#     4  10  21  37  58  87 117 145 186 238 283 334
#     4   9  19  38  62  85 114 150 187 230 285 339
#
# _framework density 19.957787
#
# number of rings (size 3 to 8) (size 9 to 14) (size 15 to 20)
#    0.000    2.000    0.000    4.714    2.000    4.000 
#    0.000    0.714    0.000    0.000    0.000    0.000 
#    0.000    0.000    0.000    0.000    0.000    0.000 
#
# Total GULP energy -156334.015965 kJ/mol
# GULP energy per Si atom -5583.357713 kJ/mol
# Density = 1.991236 g / cm^3
# Si number density = 19.957787 Si / 1000 Ang^3
#
#
#
# Elastic Constant Matrix: (Units=GPa)
#
#
# Indices 1 2 3 4 5 6 
#
# 1 35.3090 17.3010 16.2224 0.0000 -10.0544 0.0000
# 2 17.3010 82.1924 17.5992 0.0000 -10.4599 0.0000
# 3 16.2224 17.5992 13.7814 0.0000 -16.1911 0.0000
# 4 0.0000 0.0000 0.0000 23.5596 0.0000 -1.5685
# 5 -10.0544 -10.4599 -16.1911 0.0000 34.6407 0.0000
# 6 0.0000 0.0000 0.0000 -1.5685 0.0000 33.5187
#
#
#
# Elastic Compliance Matrix: (Units=1/GPa)
#
#
# Indices 1 2 3 4 5 6 
#
# 1 0.106510 0.018689 -0.235747 0.000000 -0.073631 0.000000
# 2 0.018689 0.022135 -0.079935 0.000000 -0.025254 0.000000
# 3 -0.235747 -0.079935 0.761632 0.000000 0.263426 0.000000
# 4 0.000000 0.000000 0.000000 0.042578 0.000000 0.001992
# 5 -0.073631 -0.025254 0.263426 0.000000 0.122996 0.000000
# 6 0.000000 0.000000 0.000000 0.001992 0.000000 0.029927
#
#
# Mechanical properties :
#
#
# Convention : Reuss Voigt Hill
#
# Bulk Modulus (GPa) = 3.37508 25.94757 14.66132
# Shear Modulus (GPa) = 2.81131 23.68781 13.24956
#
# Velocity S-wave (km/s) = 1.18814 3.44887 2.57938
# Velocity P-wave (km/s) = 1.89130 5.37486 4.02903
#
# Compressibility (1/GPa) = 0.29628911
#
# Stress axis : x y z
#
# Youngs Moduli (GPa) = 9.38882 45.17761 1.31297
#
# Poissons Ratio (x) = -0.84432 0.30953
# Poissons Ratio (y) = -0.17547 0.10495
# Poissons Ratio (z) = 2.21339 3.61129
#
# Static dielectric constant tensor:
#      x y z
#    x 1.743220 0.000000 0.006460 
#    y 0.000000 1.668730 0.000000 
#    z 0.006460 0.000000 1.703710 
# 
# From -- ./inp_files/49114.got.cif
#   From: 2010.05.17/outbox.ucp.g08.bks.cvg/sg11_25_cif.got.tgz:49114.got - 2010.06.11 11:38:39.
