data_PCOD9168866
_publ_section_title
;
Structure prediction by ZEFSAII (Michael W. Deem and Ramdas Pophale) SiO2 
 PCOD9168866
Probable space group: C 2/M
;
_chemical_formula_sum "Si O2"
_cell_formula_units_Z 48
_cell_length_a 14.421074
_cell_length_b 27.109676
_cell_length_c 14.304920
_cell_angle_alpha 90.000000
_cell_angle_beta 29.835476
_cell_angle_gamma 90.000000
_cell_volume 2782.339974
_symmetry_space_group_name_H-M "C 2/M"
_symmetry_group_IT_number 12
_symmetry_cell_setting 'monoclinic'
loop_
_space_group_symop_operation_xyz
x,y,z
-x,y,-z
-x,-y,-z
x,-y,z
1/2+x,1/2+y,z
1/2-x,1/2+y,-z
1/2-x,1/2-y,-z
1/2+x,1/2-y,z
loop_
_atom_site_type_symbol
_atom_site_label
_atom_site_fract_x
_atom_site_fract_y
_atom_site_fract_z
Si Si1 0.225155 0.500000 0.169669
Si Si2 0.311278 0.104373 0.885431
Si Si3 0.341254 0.500000 0.279734
Si Si4 0.639647 0.176442 0.621900
Si Si5 0.833245 0.747437 0.579245
Si Si6 0.094801 0.101459 0.709259
Si Si7 0.778515 0.651034 0.718586
O O1 0.141924 0.550328 0.198501
O O2 0.224805 0.500000 0.283902
O O3 0.443252 0.500000 0.946176
O O4 0.475779 0.137353 0.784087
O O5 0.253757 0.136550 0.845781
O O6 0.126619 0.099451 0.108957
O O7 0.319015 0.547164 0.365432
O O8 0.704296 0.210220 0.650680
O O9 0.598149 0.214471 0.571211
O O10 0.809877 0.142190 0.438387
O O11 0.731996 0.706818 0.731800
O O12 0.000000 0.765729 0.500000
O O13 0.152747 0.117290 0.763553
O O14 0.000000 0.643669 0.500000
#
# Coordination Sequence:
#
# PCOD9168866 Si02
#       7
#     4   8   4   8   8   8   8
#     4   9  18  25  43  73 100 132 156 188 234 293
#     4  11  18  31  48  69 103 129 161 192 235 290
#     4   9  16  27  41  69 102 128 158 188 236 295
#     4  10  20  33  50  71  94 130 165 198 241 286
#     4   9  17  34  54  65  96 129 160 204 250 270
#     4  10  19  29  46  69  99 132 158 193 234 287
#     4  10  16  30  47  65  93 132 158 191 238 278
#
# _framework density 17.251666
#
# number of rings (size 3 to 8) (size 9 to 14) (size 15 to 20)
#    0.000    2.167    6.667    0.500    0.000    0.667 
#    0.000    9.167    0.000    0.000    0.000    2.333 
#    0.000    4.000    0.000    0.000    0.000    0.000 
#
# Total GULP energy -133612.603835 kJ/mol
# GULP energy per Si atom -5567.191826 kJ/mol
# Density = 1.721240 g / cm^3
# Si number density = 17.251666 Si / 1000 Ang^3
#
#
#
# Elastic Constant Matrix: (Units=GPa)
#
#
# Indices 1 2 3 4 5 6 
#
# 1 65.3588 57.0862 11.9240 0.0024 -13.2907 -0.0062
# 2 57.0862 119.6156 20.4091 0.0007 -18.7926 0.0017
# 3 11.9240 20.4091 54.3320 0.0025 -18.8358 -0.0025
# 4 0.0024 0.0007 0.0025 10.4167 -0.0019 -2.2260
# 5 -13.2907 -18.7926 -18.8358 -0.0019 17.0917 0.0048
# 6 -0.0062 0.0017 -0.0025 -2.2260 0.0048 33.9610
#
#
#
# Elastic Compliance Matrix: (Units=1/GPa)
#
#
# Indices 1 2 3 4 5 6 
#
# 1 0.027328 -0.011723 0.002111 -0.000003 0.010687 0.000004
# 2 -0.011723 0.015135 -0.000815 0.000002 0.006627 -0.000004
# 3 0.002111 -0.000815 0.029949 -0.000002 0.033750 -0.000002
# 4 -0.000003 0.000002 -0.000002 0.097364 0.000007 0.006382
# 5 0.010687 0.006627 0.033750 0.000007 0.111299 -0.000011
# 6 0.000004 -0.000004 -0.000002 0.006382 -0.000011 0.029864
#
#
# Mechanical properties :
#
#
# Convention : Reuss Voigt Hill
#
# Bulk Modulus (GPa) = 19.39590 46.46056 32.92823
# Shear Modulus (GPa) = 14.32754 22.28635 18.30694
#
# Velocity S-wave (km/s) = 2.88497 3.59811 3.26109
# Velocity P-wave (km/s) = 4.72913 6.65217 5.77131
#
# Compressibility (1/GPa) = 0.05155729
#
# Stress axis : x y z
#
# Youngs Moduli (GPa) = 36.59313 66.07110 33.39042
#
# Poissons Ratio (x) = 0.77456 -0.07049
# Poissons Ratio (y) = 0.42899 0.02721
# Poissons Ratio (z) = -0.07725 0.05385
#
# Static dielectric constant tensor:
#      x y z
#    x 1.569560 0.000000 -0.032760 
#    y 0.000000 1.630510 0.000000 
#    z -0.032760 0.000000 1.638440 
# 
# From -- ./inp_files/218909.got.cif
#   From: 2010.05.17/outbox.cif.g08.bks.cpg/sg12_110_cif.got.tgz:218909.got - 2010.06.03 13:09:07.
