data_PCOD9168360
_publ_section_title
;
Structure prediction by ZEFSAII (Michael W. Deem and Ramdas Pophale) SiO2 
 PCOD9168360
Probable space group: C 2/M
;
_chemical_formula_sum "Si O2"
_cell_formula_units_Z 40
_cell_length_a 12.366831
_cell_length_b 27.495133
_cell_length_c 8.800395
_cell_angle_alpha 90.000000
_cell_angle_beta 31.958348
_cell_angle_gamma 90.000000
_cell_volume 1583.873391
_symmetry_space_group_name_H-M "C 2/M"
_symmetry_group_IT_number 12
_symmetry_cell_setting 'monoclinic'
loop_
_space_group_symop_operation_xyz
x,y,z
-x,y,-z
-x,-y,-z
x,-y,z
1/2+x,1/2+y,z
1/2-x,1/2+y,-z
1/2-x,1/2-y,-z
1/2+x,1/2-y,z
loop_
_atom_site_type_symbol
_atom_site_label
_atom_site_fract_x
_atom_site_fract_y
_atom_site_fract_z
Si Si1 0.734328 0.160182 0.889723
Si Si2 0.931771 0.554684 0.910570
Si Si3 0.261896 0.807024 0.451831
Si Si4 0.246634 0.845352 0.801265
Si Si5 0.723047 0.946847 0.308495
O O1 0.816512 0.176685 0.624629
O O2 0.716987 0.101151 0.923146
O O3 0.499708 0.177844 0.163830
O O4 0.809038 0.178328 0.969117
O O5 0.856385 0.500000 0.955141
O O6 0.147877 0.564163 0.567411
O O7 0.000000 0.552037 0.000000
O O8 0.250000 0.750000 0.500000
O O9 0.185521 0.827970 0.705556
O O10 0.500000 0.844547 0.500000
O O11 0.174270 0.901445 0.891208
O O12 0.500000 0.948882 0.500000
O O13 0.810535 0.000000 0.186735
#
# Coordination Sequence:
#
# PCOD9168360 Si02
#       5
#     8   8   8   8   8
#     4  10  17  30  43  57  81 109 134 164 198 232
#     4  10  15  21  37  59  80 106 132 149 182 242
#     4  10  19  29  40  55  75 103 141 175 201 226
#     4   9  15  26  40  55  77 106 133 163 191 231
#     4   9  13  19  33  54  77 102 129 147 174 229
#
# _framework density 25.254543999999999
#
# number of rings (size 3 to 8) (size 9 to 14) (size 15 to 20)
#    0.000    2.400    8.000    0.000    0.000    0.800 
#    0.000    0.000    0.000    0.000    0.000    0.000 
#    0.000    0.000    0.000   32.400    0.000  119.800 
#
# Total GULP energy -111371.649168 kJ/mol
# GULP energy per Si atom -5568.582458 kJ/mol
# Density = 2.519706 g / cm^3
# Si number density = 25.254544 Si / 1000 Ang^3
#
#
#
# Elastic Constant Matrix: (Units=GPa)
#
#
# Indices 1 2 3 4 5 6 
#
# 1 141.5076 17.3655 76.0564 0.0000 61.5876 0.0000
# 2 17.3655 171.1251 50.0096 0.0000 35.3132 0.0000
# 3 76.0564 50.0096 172.1634 0.0000 55.6511 0.0000
# 4 0.0000 0.0000 0.0000 17.3882 0.0000 21.4546
# 5 61.5876 35.3132 55.6511 0.0000 70.4512 0.0000
# 6 0.0000 0.0000 0.0000 21.4546 0.0000 -2.9259
#
#
#
# Elastic Compliance Matrix: (Units=1/GPa)
#
#
# Indices 1 2 3 4 5 6 
#
# 1 0.012565 0.001531 -0.002950 0.000000 -0.009421 0.000000
# 2 0.001531 0.006871 -0.001513 0.000000 -0.003588 0.000000
# 3 -0.002950 -0.001513 0.008692 0.000000 -0.003529 0.000000
# 4 0.000000 0.000000 0.000000 0.005724 0.000000 0.041971
# 5 -0.009421 -0.003588 -0.003529 0.000000 0.027016 0.000000
# 6 0.000000 0.000000 0.000000 0.041971 0.000000 -0.034016
#
#
# Mechanical properties :
#
#
# Convention : Reuss Voigt Hill
#
# Bulk Modulus (GPa) = 44.91517 85.73989 65.32753
# Shear Modulus (GPa) = 124.57981 39.74034 82.16008
#
# Velocity S-wave (km/s) = 7.03113 3.97116 5.70994
# Velocity P-wave (km/s) = 9.15092 7.41962 8.33037
#
# Compressibility (1/GPa) = 0.02226419
#
# Stress axis : x y z
#
# Youngs Moduli (GPa) = 79.58753 145.54636 115.05216
#
# Poissons Ratio (x) = -0.22287 0.33943
# Poissons Ratio (y) = -0.12187 0.17402
# Poissons Ratio (z) = 0.23480 0.22014
#
# Static dielectric constant tensor:
#      x y z
#    x 2.207170 0.000000 0.073030 
#    y 0.000000 2.047750 0.000000 
#    z 0.073030 0.000000 1.885340 
# 
# From -- ./inp_files/51692.got.cif
#   From: 2010.05.17/outbox.cif.g08.bks.cpg/sg12_26_cif.got.tgz:51692.got - 2010.06.03 13:09:07.
