data_PCOD9168427
_publ_section_title
;
Structure prediction by ZEFSAII (Michael W. Deem and Ramdas Pophale) SiO2 
 PCOD9168427
Probable space group: C 2/M
;
_chemical_formula_sum "Si O2"
_cell_formula_units_Z 48
_cell_length_a 21.459272
_cell_length_b 15.269603
_cell_length_c 13.801160
_cell_angle_alpha 90.000000
_cell_angle_beta 137.575482
_cell_angle_gamma 90.000000
_cell_volume 3050.819092
_symmetry_space_group_name_H-M "C 2/M"
_symmetry_group_IT_number 12
_symmetry_cell_setting 'monoclinic'
loop_
_space_group_symop_operation_xyz
x,y,z
-x,y,-z
-x,-y,-z
x,-y,z
1/2+x,1/2+y,z
1/2-x,1/2+y,-z
1/2-x,1/2-y,-z
1/2+x,1/2-y,z
loop_
_atom_site_type_symbol
_atom_site_label
_atom_site_fract_x
_atom_site_fract_y
_atom_site_fract_z
Si Si1 0.961857 0.249630 0.564577
Si Si2 0.774792 0.293473 0.263668
Si Si3 0.560996 0.399650 0.790348
Si Si4 0.607595 0.899024 0.762356
Si Si5 0.748100 0.835367 0.067330
Si Si6 0.904305 0.103688 0.941889
O O1 0.853871 0.269171 0.430652
O O2 0.000000 0.227723 0.500000
O O3 0.989808 0.170645 0.666624
O O4 0.019000 0.336079 0.660483
O O5 0.825352 0.359378 0.244576
O O6 0.746382 0.206218 0.171537
O O7 0.683124 0.341283 0.194088
O O8 0.529679 0.500000 0.745695
O O9 0.656571 0.385820 0.841735
O O10 0.584484 0.382087 0.929796
O O11 0.586623 0.000000 0.718408
O O12 0.662691 0.889420 0.926880
O O13 0.750000 0.750000 0.000000
O O14 0.888034 0.000000 0.908211
O O15 0.000000 0.127136 0.000000
#
# Coordination Sequence:
#
# PCOD9168427 Si02
#       6
#     8   8   8   8   8   8
#     4  10  19  31  43  71 104 129 151 190 237 304
#     4  10  18  30  46  66 101 126 153 196 238 281
#     4  11  19  32  50  69 100 133 158 198 241 279
#     4  10  17  26  44  68  96 128 154 184 240 290
#     4  10  15  28  46  67  94 126 153 193 238 281
#     4  10  20  33  51  72  91 124 172 208 236 274
#
# _framework density 15.73348
#
# number of rings (size 3 to 8) (size 9 to 14) (size 15 to 20)
#    0.000    1.833    8.333    1.000    0.000    4.000 
#    0.000    0.833    0.000    0.000    0.000    0.000 
#    0.000   18.667    0.000    0.000    0.000    0.000 
#
# Total GULP energy -133744.603683 kJ/mol
# GULP energy per Si atom -5572.691820 kJ/mol
# Density = 1.569767 g / cm^3
# Si number density = 15.733480 Si / 1000 Ang^3
#
#
#
# Elastic Constant Matrix: (Units=GPa)
#
#
# Indices 1 2 3 4 5 6 
#
# 1 30.9051 3.2953 16.1018 0.0000 16.3399 0.0000
# 2 3.2953 71.8530 32.2111 0.0000 0.5340 0.0000
# 3 16.1018 32.2111 102.4108 0.0000 19.5218 0.0000
# 4 0.0000 0.0000 0.0000 10.2884 0.0000 2.3816
# 5 16.3399 0.5340 19.5218 0.0000 15.3559 0.0000
# 6 0.0000 0.0000 0.0000 2.3816 0.0000 14.5174
#
#
#
# Elastic Compliance Matrix: (Units=1/GPa)
#
#
# Indices 1 2 3 4 5 6 
#
# 1 0.077673 -0.006087 0.007150 0.000000 -0.091528 0.000000
# 2 -0.006087 0.017420 -0.007446 0.000000 0.015337 0.000000
# 3 0.007150 -0.007446 0.016344 0.000000 -0.028127 0.000000
# 4 0.000000 0.000000 0.000000 0.101034 0.000000 -0.016575
# 5 -0.091528 0.015337 -0.028127 0.000000 0.197739 0.000000
# 6 0.000000 0.000000 0.000000 -0.016575 0.000000 0.071602
#
#
# Mechanical properties :
#
#
# Convention : Reuss Voigt Hill
#
# Bulk Modulus (GPa) = 10.13470 34.26503 22.19987
# Shear Modulus (GPa) = 9.47922 18.26970 13.87446
#
# Velocity S-wave (km/s) = 2.45722 3.41133 2.97281
# Velocity P-wave (km/s) = 3.80868 6.11081 5.09156
#
# Compressibility (1/GPa) = 0.09867087
#
# Stress axis : x y z
#
# Youngs Moduli (GPa) = 12.87443 57.40412 61.18469
#
# Poissons Ratio (x) = 0.34943 -0.43744
# Poissons Ratio (y) = 0.07837 0.45556
# Poissons Ratio (z) = -0.09205 0.42742
#
# Static dielectric constant tensor:
#      x y z
#    x 1.508830 0.000000 -0.000040 
#    y 0.000000 1.536460 0.000000 
#    z -0.000040 0.000000 1.557490 
# 
# From -- ./inp_files/166551.got.cif
#   From: 2010.05.17/outbox.cif.g08.bks.cpg/sg12_84_cif.got.tgz:166551.got - 2010.06.03 13:09:07.
