data_PCOD9168059
_publ_section_title
;
Structure prediction by ZEFSAII (Michael W. Deem and Ramdas Pophale) SiO2 
 PCOD9168059
Probable space group: P 21/M
;
_chemical_formula_sum "Si O2"
_cell_formula_units_Z 32
_cell_length_a 12.000000
_cell_length_b 9.000000
_cell_length_c 21.000000
_cell_angle_alpha 90.000000
_cell_angle_beta 50.000000
_cell_angle_gamma 90.000000
_cell_volume 1737.388797
_symmetry_space_group_name_H-M "P 21/M"
_symmetry_group_IT_number 11
_symmetry_cell_setting 'monoclinic'
loop_
_space_group_symop_operation_xyz
x,y,z
-x,1/2+y,-z
-x,-y,-z
x,1/2-y,z
loop_
_atom_site_type_symbol
_atom_site_label
_atom_site_fract_x
_atom_site_fract_y
_atom_site_fract_z
Si Si1 0.894117 0.573077 0.373777
Si Si2 0.572291 0.928220 0.535393
Si Si3 0.104554 0.573415 0.410120
Si Si4 0.512238 0.573331 0.901468
Si Si5 0.418738 0.575459 0.255228
Si Si6 0.737172 0.571271 0.930545
Si Si7 0.639179 0.924277 0.284539
Si Si8 0.930893 0.071321 0.222469
O O1 0.889008 0.750000 0.361450
O O2 0.744700 0.537421 0.466774
O O3 0.906939 0.483745 0.303714
O O4 0.031504 0.543487 0.368409
O O5 0.556932 0.750000 0.541444
O O6 0.500000 0.000000 0.500000
O O7 0.479076 0.997655 0.626431
O O8 0.100320 0.750000 0.422669
O O9 0.273232 0.526684 0.346702
O O10 0.000000 0.500000 0.500000
O O11 0.496246 0.750000 0.909958
O O12 0.561765 0.518784 0.814829
O O13 0.640751 0.530941 0.903793
O O14 0.359126 0.499666 0.978016
O O15 0.396155 0.750000 0.247531
O O16 0.564023 0.564868 0.243578
O O17 0.735185 0.750000 0.937680
O O18 0.906315 0.526543 0.860537
O O19 0.651614 0.750000 0.297548
O O20 0.796317 0.000170 0.233386
O O21 0.922019 0.250000 0.223183
#
# Coordination Sequence:
#
# PCOD9168059 Si02
#       8
#     4   4   4   4   4   4   4   4
#     4  10  21  35  54  80 111 143 182 231 281 333
#     4  11  21  34  53  78 109 148 189 233 280 326
#     4  10  21  37  56  81 111 147 186 228 278 328
#     4  10  20  36  62  91 114 143 182 224 274 334
#     4  10  22  39  58  80 113 154 189 226 279 334
#     4   9  20  38  59  87 119 144 175 224 282 337
#     4  11  23  38  55  78 111 151 193 235 278 329
#     4  11  22  36  57  83 110 144 184 229 280 330
#
# _framework density 18.418444999999998
#
# number of rings (size 3 to 8) (size 9 to 14) (size 15 to 20)
#    0.000    1.750    1.250    3.000    0.000    4.000 
#    0.000    0.625    0.000    0.000    0.000    0.000 
#    0.000    0.000    0.000    0.000    0.000    0.000 
#
# Total GULP energy -178638.027549 kJ/mol
# GULP energy per Si atom -5582.438361 kJ/mol
# Density = 1.837652 g / cm^3
# Si number density = 18.418445 Si / 1000 Ang^3
#
#
#
# Elastic Constant Matrix: (Units=GPa)
#
#
# Indices 1 2 3 4 5 6 
#
# 1 95.0133 38.0697 47.6305 0.0000 -31.6950 0.0000
# 2 38.0697 42.6530 34.4184 0.0000 -12.0928 0.0000
# 3 47.6305 34.4184 107.9352 0.0000 -28.7719 0.0000
# 4 0.0000 0.0000 0.0000 37.6447 0.0000 -2.5473
# 5 -31.6950 -12.0928 -28.7719 0.0000 36.6318 0.0000
# 6 0.0000 0.0000 0.0000 -2.5473 0.0000 24.2970
#
#
#
# Elastic Compliance Matrix: (Units=1/GPa)
#
#
# Indices 1 2 3 4 5 6 
#
# 1 0.021042 -0.014058 -0.001501 0.000000 0.012386 0.000000
# 2 -0.014058 0.041256 -0.008302 0.000000 -0.005065 0.000000
# 3 -0.001501 -0.008302 0.014543 0.000000 0.007383 0.000000
# 4 0.000000 0.000000 0.000000 0.026754 0.000000 0.002805
# 5 0.012386 -0.005065 0.007383 0.000000 0.042143 0.000000
# 6 0.000000 0.000000 0.000000 0.002805 0.000000 0.041451
#
#
# Mechanical properties :
#
#
# Convention : Reuss Voigt Hill
#
# Bulk Modulus (GPa) = 34.34285 53.98210 44.16248
# Shear Modulus (GPa) = 20.44018 28.08022 24.26020
#
# Velocity S-wave (km/s) = 3.33493 3.90881 3.63322
# Velocity P-wave (km/s) = 5.78925 7.05295 6.45211
#
# Compressibility (1/GPa) = 0.02911814
#
# Stress axis : x y z
#
# Youngs Moduli (GPa) = 47.52431 24.23909 68.76344
#
# Poissons Ratio (x) = 0.34075 0.10321
# Poissons Ratio (y) = 0.66809 0.57089
# Poissons Ratio (z) = 0.07133 0.20124
#
# Static dielectric constant tensor:
#      x y z
#    x 1.644910 0.000000 0.008030 
#    y 0.000000 1.619020 0.000000 
#    z 0.008030 0.000000 1.626380 
# 
# From -- ./inp_files/64375.got.cif
#   From: 2010.05.17/outbox.ucp.g08.bks.cvg/sg11_33_cif.got.tgz:64375.got - 2010.06.11 11:38:39.
