data_PCOD9168410
_publ_section_title
;
Structure prediction by ZEFSAII (Michael W. Deem and Ramdas Pophale) SiO2 
 PCOD9168410
Probable space group: C 2/M
;
_chemical_formula_sum "Si O2"
_cell_formula_units_Z 64
_cell_length_a 16.266620
_cell_length_b 17.308213
_cell_length_c 13.741905
_cell_angle_alpha 90.000000
_cell_angle_beta 101.279018
_cell_angle_gamma 90.000000
_cell_volume 3794.255956
_symmetry_space_group_name_H-M "C 2/M"
_symmetry_group_IT_number 12
_symmetry_cell_setting 'monoclinic'
loop_
_space_group_symop_operation_xyz
x,y,z
-x,y,-z
-x,-y,-z
x,-y,z
1/2+x,1/2+y,z
1/2-x,1/2+y,-z
1/2-x,1/2-y,-z
1/2+x,1/2-y,z
loop_
_atom_site_type_symbol
_atom_site_label
_atom_site_fract_x
_atom_site_fract_y
_atom_site_fract_z
Si Si1 0.695525 0.824771 0.017863
Si Si2 0.197672 0.833180 0.252914
Si Si3 0.036343 0.727495 0.749509
Si Si4 0.850615 0.590464 0.192214
Si Si5 0.791509 0.177186 0.229095
Si Si6 0.064819 0.160010 0.391085
Si Si7 0.934488 0.219730 0.913579
Si Si8 0.103023 0.911574 0.601008
O O1 0.746122 0.856384 0.123083
O O2 0.608894 0.789107 0.037421
O O3 0.750000 0.750000 0.000000
O O4 0.678597 0.877826 0.920916
O O5 0.276440 0.887444 0.250347
O O6 0.232181 0.744514 0.260149
O O7 0.140359 0.850770 0.332666
O O8 0.137028 0.835505 0.144909
O O9 0.068315 0.640192 0.757629
O O10 0.122295 0.777421 0.777027
O O11 0.981104 0.759089 0.646601
O O12 0.981543 0.746697 0.830969
O O13 0.865391 0.500000 0.192368
O O14 0.821217 0.113753 0.312608
O O15 0.097775 0.145808 0.507383
O O16 0.986247 0.100615 0.364648
O O17 0.000000 0.179926 0.000000
O O18 0.109659 0.000000 0.570483
#
# Coordination Sequence:
#
# PCOD9168410 Si02
#       8
#     8   8   8   8   8   8   8   8
#     4  11  17  32  51  72 104 138 181 207 240 300
#     4   9  19  32  51  77  97 133 178 217 245 300
#     4   9  17  31  48  76  95 132 177 212 247 296
#     4  11  21  32  48  76 111 141 168 210 263 305
#     4   9  18  32  53  74 104 136 173 212 244 303
#     4   9  18  33  55  76  98 131 176 212 250 306
#     4  10  15  26  53  74  92 130 179 216 244 287
#     4  10  20  34  54  80 108 133 159 210 273 314
#
# _framework density 16.867601000000001
#
# number of rings (size 3 to 8) (size 9 to 14) (size 15 to 20)
#    0.000    2.250    5.000    0.750    0.000    2.000 
#    0.000    1.250    0.000    4.875    0.000   15.750 
#    0.000    0.000    0.000    0.000    0.000    0.000 
#
# Total GULP energy -178148.932200 kJ/mol
# GULP energy per Si atom -5567.154131 kJ/mol
# Density = 1.682921 g / cm^3
# Si number density = 16.867601 Si / 1000 Ang^3
#
#
#
# Elastic Constant Matrix: (Units=GPa)
#
#
# Indices 1 2 3 4 5 6 
#
# 1 47.2630 9.7989 30.2164 0.0000 -10.8692 0.0000
# 2 9.7989 83.3246 36.6982 0.0000 1.5840 0.0000
# 3 30.2164 36.6982 90.9425 0.0000 5.8368 0.0000
# 4 0.0000 0.0000 0.0000 16.7106 0.0000 3.6021
# 5 -10.8692 1.5840 5.8368 0.0000 33.2965 0.0000
# 6 0.0000 0.0000 0.0000 3.6021 0.0000 9.5059
#
#
#
# Elastic Compliance Matrix: (Units=1/GPa)
#
#
# Indices 1 2 3 4 5 6 
#
# 1 0.031120 0.001224 -0.011613 0.000000 0.012136 0.000000
# 2 0.001224 0.014647 -0.006370 0.000000 0.000819 0.000000
# 3 -0.011613 -0.006370 0.017850 0.000000 -0.006617 0.000000
# 4 0.000000 0.000000 0.000000 0.065165 0.000000 -0.024693
# 5 0.012136 0.000819 -0.006617 0.000000 0.035116 0.000000
# 6 0.000000 0.000000 0.000000 -0.024693 0.000000 0.114555
#
#
# Mechanical properties :
#
#
# Convention : Reuss Voigt Hill
#
# Bulk Modulus (GPa) = 33.22320 41.66190 37.44255
# Shear Modulus (GPa) = 15.52786 21.55703 18.54244
#
# Velocity S-wave (km/s) = 3.03739 3.57881 3.31916
# Velocity P-wave (km/s) = 5.66040 6.46762 6.07743
#
# Compressibility (1/GPa) = 0.03009945
#
# Stress axis : x y z
#
# Youngs Moduli (GPa) = 32.13407 68.27242 56.02391
#
# Poissons Ratio (x) = -0.08358 0.65059
# Poissons Ratio (y) = -0.03934 0.35687
# Poissons Ratio (z) = 0.37316 0.43489
#
# Static dielectric constant tensor:
#      x y z
#    x 1.597760 0.000000 0.008090 
#    y 0.000000 1.558080 0.000000 
#    z 0.008090 0.000000 1.604360 
# 
# From -- ./inp_files/215946.got.cif
#   From: 2010.05.17/outbox.cif.g08.bks.cpg/sg12_108_cif.got.tgz:215946.got - 2010.06.03 13:09:07.
