data_PCOD9168445
_publ_section_title
;
Structure prediction by ZEFSAII (Michael W. Deem and Ramdas Pophale) SiO2 
 PCOD9168445
Probable space group: C 2/M
;
_chemical_formula_sum "Si O2"
_cell_formula_units_Z 56
_cell_length_a 9.529054
_cell_length_b 29.036976
_cell_length_c 13.746356
_cell_angle_alpha 90.000000
_cell_angle_beta 70.576212
_cell_angle_gamma 90.000000
_cell_volume 3587.066650
_symmetry_space_group_name_H-M "C 2/M"
_symmetry_group_IT_number 12
_symmetry_cell_setting 'monoclinic'
loop_
_space_group_symop_operation_xyz
x,y,z
-x,y,-z
-x,-y,-z
x,-y,z
1/2+x,1/2+y,z
1/2-x,1/2+y,-z
1/2-x,1/2-y,-z
1/2+x,1/2-y,z
loop_
_atom_site_type_symbol
_atom_site_label
_atom_site_fract_x
_atom_site_fract_y
_atom_site_fract_z
Si Si1 0.367997 0.097648 0.917483
Si Si2 0.163532 0.553866 0.859378
Si Si3 0.564346 0.810083 0.888366
Si Si4 0.898468 0.146353 0.116675
Si Si5 0.525360 0.290958 0.379860
Si Si6 0.644474 0.366442 0.219683
Si Si7 0.192574 0.231551 0.735257
O O1 0.499626 0.063629 0.853047
O O2 0.451358 0.147315 0.900225
O O3 0.219769 0.107947 0.891345
O O4 0.333418 0.076892 0.032654
O O5 0.192319 0.500000 0.858819
O O6 0.282488 0.584557 0.775412
O O7 0.727145 0.833889 0.858560
O O8 0.586464 0.772198 0.801077
O O9 0.500000 0.786709 0.000000
O O10 0.816529 0.190340 0.184110
O O11 0.010806 0.129295 0.174317
O O12 0.000000 0.159075 0.000000
O O13 0.500000 0.289452 0.500000
O O14 0.592706 0.339218 0.326708
O O15 0.645476 0.252538 0.319775
O O16 0.376975 0.284087 0.350813
#
# Coordination Sequence:
#
# PCOD9168445 Si02
#       7
#     8   8   8   8   8   8   8
#     4  10  17  28  46  65  95 130 156 183 223 263
#     4  10  18  33  50  66  89 121 161 190 220 284
#     4  10  15  29  45  64  98 128 161 186 212 267
#     4  11  18  29  43  68 105 129 153 189 219 270
#     4  10  20  35  49  65  95 124 162 206 234 266
#     4   9  19  31  46  69  92 124 155 188 241 276
#     4  10  21  29  47  72  91 131 168 189 226 264
#
# _framework density 15.611642
#
# number of rings (size 3 to 8) (size 9 to 14) (size 15 to 20)
#    0.000    2.000    4.286    2.571    0.000    0.000 
#    0.000    7.857    0.000    0.429    0.000    0.000 
#    0.000    4.571    0.000    0.000    0.000    0.143 
#
# Total GULP energy -155878.912276 kJ/mol
# GULP energy per Si atom -5567.104010 kJ/mol
# Density = 1.557611 g / cm^3
# Si number density = 15.611642 Si / 1000 Ang^3
#
#
#
# Elastic Constant Matrix: (Units=GPa)
#
#
# Indices 1 2 3 4 5 6 
#
# 1 83.2464 31.8326 30.3349 0.0000 3.6087 0.0000
# 2 31.8326 88.2193 26.0963 0.0000 2.8947 0.0000
# 3 30.3349 26.0963 67.1938 0.0000 3.5536 0.0000
# 4 0.0000 0.0000 0.0000 7.6176 0.0000 -0.5788
# 5 3.6087 2.8947 3.5536 0.0000 14.5469 0.0000
# 6 0.0000 0.0000 0.0000 -0.5788 0.0000 9.6278
#
#
#
# Elastic Compliance Matrix: (Units=1/GPa)
#
#
# Indices 1 2 3 4 5 6 
#
# 1 0.015571 -0.003965 -0.005397 0.000000 -0.001756 0.000000
# 2 -0.003965 0.013842 -0.003538 0.000000 -0.000907 0.000000
# 3 -0.005397 -0.003538 0.018828 0.000000 -0.002556 0.000000
# 4 0.000000 0.000000 0.000000 0.131877 0.000000 0.007928
# 5 -0.001756 -0.000907 -0.002556 0.000000 0.069984 0.000000
# 6 0.000000 0.000000 0.000000 0.007928 0.000000 0.104342
#
#
# Mechanical properties :
#
#
# Convention : Reuss Voigt Hill
#
# Bulk Modulus (GPa) = 44.55924 46.13188 45.34556
# Shear Modulus (GPa) = 12.89574 16.38485 14.64030
#
# Velocity S-wave (km/s) = 2.87720 3.24316 3.06564
# Velocity P-wave (km/s) = 6.29619 6.60590 6.45290
#
# Compressibility (1/GPa) = 0.02244204
#
# Stress axis : x y z
#
# Youngs Moduli (GPa) = 64.22047 72.24213 53.11162
#
# Poissons Ratio (x) = 0.28641 0.28665
# Poissons Ratio (y) = 0.25460 0.18792
# Poissons Ratio (z) = 0.34661 0.25561
#
# Static dielectric constant tensor:
#      x y z
#    x 1.550950 0.000000 -0.012590 
#    y 0.000000 1.523060 0.000000 
#    z -0.012590 0.000000 1.514040 
# 
# From -- ./inp_files/125211.got.cif
#   From: 2010.05.17/outbox.cif.g08.bks.cpg/sg12_63_cif.got.tgz:125211.got - 2010.06.03 13:09:07.
