data_PCOD9168831
_publ_section_title
;
Structure prediction by ZEFSAII (Michael W. Deem and Ramdas Pophale) SiO2 
 PCOD9168831
Probable space group: C 2/M
;
_chemical_formula_sum "Si O2"
_cell_formula_units_Z 64
_cell_length_a 14.280913
_cell_length_b 28.602799
_cell_length_c 9.250769
_cell_angle_alpha 90.000000
_cell_angle_beta 98.704315
_cell_angle_gamma 90.000000
_cell_volume 3735.178195
_symmetry_space_group_name_H-M "C 2/M"
_symmetry_group_IT_number 12
_symmetry_cell_setting 'monoclinic'
loop_
_space_group_symop_operation_xyz
x,y,z
-x,y,-z
-x,-y,-z
x,-y,z
1/2+x,1/2+y,z
1/2-x,1/2+y,-z
1/2-x,1/2-y,-z
1/2+x,1/2-y,z
loop_
_atom_site_type_symbol
_atom_site_label
_atom_site_fract_x
_atom_site_fract_y
_atom_site_fract_z
Si Si1 0.406404 0.282830 0.403612
Si Si2 0.094500 0.247689 0.927520
Si Si3 0.255252 0.854931 0.700715
Si Si4 0.391863 0.817061 0.517543
Si Si5 0.320198 0.891921 0.285835
Si Si6 0.716659 0.053799 0.434912
Si Si7 0.249728 0.670831 0.971793
Si Si8 0.001102 0.447317 0.325377
O O1 0.500000 0.303012 0.500000
O O2 0.427484 0.265807 0.244428
O O3 0.320647 0.318172 0.376311
O O4 0.378544 0.237627 0.491647
O O5 0.159353 0.294286 0.935908
O O6 0.159636 0.205867 0.010098
O O7 0.000000 0.253877 0.000000
O O8 0.356110 0.836860 0.661074
O O9 0.227657 0.905537 0.633026
O O10 0.254108 0.851562 0.871093
O O11 0.500000 0.827018 0.500000
O O12 0.333202 0.846545 0.388795
O O13 0.289138 0.931178 0.396559
O O14 0.255619 0.871596 0.143638
O O15 0.422614 0.910780 0.253688
O O16 0.613328 0.058330 0.331225
O O17 0.745856 0.000000 0.430569
O O18 0.973986 0.500000 0.274362
O O19 0.000000 0.445133 0.500000
#
# Coordination Sequence:
#
# PCOD9168831 Si02
#       8
#     8   8   8   8   8   8   8   8
#     4  10  21  35  52  77 101 138 187 217 257 306
#     4  10  22  37  51  71 110 148 174 216 260 306
#     4  10  21  35  52  73 109 140 171 224 262 309
#     4  10  19  30  47  76 103 137 177 211 251 301
#     4  10  16  29  50  72 104 134 177 213 248 310
#     4   9  18  33  53  76 101 136 178 221 270 311
#     4  10  22  35  49  77 107 143 181 207 263 318
#     4   8  14  26  45  70  99 130 166 211 256 299
#
# _framework density 17.134388999999999
#
# number of rings (size 3 to 8) (size 9 to 14) (size 15 to 20)
#    0.000    2.375    1.250    3.375    3.500    3.000 
#    0.000    1.250    0.000    1.875    0.000    0.000 
#    0.000    6.000    0.000    0.000    0.000    0.000 
#
# Total GULP energy -178169.229526 kJ/mol
# GULP energy per Si atom -5567.788423 kJ/mol
# Density = 1.709539 g / cm^3
# Si number density = 17.134389 Si / 1000 Ang^3
#
#
#
# Elastic Constant Matrix: (Units=GPa)
#
#
# Indices 1 2 3 4 5 6 
#
# 1 40.0822 9.3934 16.3885 0.0000 -3.5112 0.0000
# 2 9.3934 71.5050 26.2604 0.0000 -6.7729 0.0000
# 3 16.3885 26.2604 49.4405 0.0000 7.8734 0.0000
# 4 0.0000 0.0000 0.0000 13.3297 0.0000 0.4042
# 5 -3.5112 -6.7729 7.8734 0.0000 16.8482 0.0000
# 6 0.0000 0.0000 0.0000 0.4042 0.0000 12.9184
#
#
#
# Elastic Compliance Matrix: (Units=1/GPa)
#
#
# Indices 1 2 3 4 5 6 
#
# 1 0.031264 0.002264 -0.013774 0.000000 0.013862 0.000000
# 2 0.002264 0.020220 -0.013894 0.000000 0.015093 0.000000
# 3 -0.013774 -0.013894 0.036213 0.000000 -0.025379 0.000000
# 4 0.000000 0.000000 0.000000 0.075092 0.000000 -0.002349
# 5 0.013862 0.015093 -0.025379 0.000000 0.080170 0.000000
# 6 0.000000 0.000000 0.000000 -0.002349 0.000000 0.077482
#
#
# Mechanical properties :
#
#
# Convention : Reuss Voigt Hill
#
# Bulk Modulus (GPa) = 27.10706 29.45691 28.28198
# Shear Modulus (GPa) = 13.03631 15.88496 14.46064
#
# Velocity S-wave (km/s) = 2.76130 3.04810 2.90824
# Velocity P-wave (km/s) = 5.10108 5.44214 5.27437
#
# Compressibility (1/GPa) = 0.03689076
#
# Stress axis : x y z
#
# Youngs Moduli (GPa) = 31.98560 49.45677 27.61417
#
# Poissons Ratio (x) = -0.11199 0.38035
# Poissons Ratio (y) = -0.07243 0.38367
# Poissons Ratio (z) = 0.44056 0.68714
#
# Static dielectric constant tensor:
#      x y z
#    x 1.620370 0.000000 -0.012770 
#    y 0.000000 1.595110 0.000000 
#    z -0.012770 0.000000 1.605900 
# 
# From -- ./inp_files/67001.got.cif
#   From: 2010.05.17/outbox.cif.g08.bks.cpg/sg12_34_cif.got.tgz:67001.got - 2010.06.03 13:09:07.
