data_PCOD9168538
_publ_section_title
;
Structure prediction by ZEFSAII (Michael W. Deem and Ramdas Pophale) SiO2 
 PCOD9168538
Probable space group: C 2/M
;
_chemical_formula_sum "Si O2"
_cell_formula_units_Z 64
_cell_length_a 19.809029
_cell_length_b 13.565766
_cell_length_c 12.251861
_cell_angle_alpha 90.000000
_cell_angle_beta 118.148899
_cell_angle_gamma 90.000000
_cell_volume 2902.969738
_symmetry_space_group_name_H-M "C 2/M"
_symmetry_group_IT_number 12
_symmetry_cell_setting 'monoclinic'
loop_
_space_group_symop_operation_xyz
x,y,z
-x,y,-z
-x,-y,-z
x,-y,z
1/2+x,1/2+y,z
1/2-x,1/2+y,-z
1/2-x,1/2-y,-z
1/2+x,1/2-y,z
loop_
_atom_site_type_symbol
_atom_site_label
_atom_site_fract_x
_atom_site_fract_y
_atom_site_fract_z
Si Si1 0.668083 0.785164 0.270246
Si Si2 0.681986 0.383767 0.581903
Si Si3 0.514808 0.114801 0.143121
Si Si4 0.520635 0.612814 0.387991
Si Si5 0.758160 0.388105 0.255048
Si Si6 0.645854 0.111946 0.020651
Si Si7 0.193524 0.894486 0.972250
Si Si8 0.874802 0.234957 0.251891
O O1 0.732541 0.849637 0.380073
O O2 0.581354 0.813539 0.236066
O O3 0.708708 0.678580 0.300118
O O4 0.663091 0.820744 0.138482
O O5 0.680501 0.500000 0.587880
O O6 0.609853 0.355819 0.450791
O O7 0.661911 0.340979 0.686253
O O8 0.427550 0.133593 0.111872
O O9 0.533902 0.000000 0.180414
O O10 0.500000 0.127536 0.000000
O O11 0.500000 0.601564 0.500000
O O12 0.511720 0.500000 0.334493
O O13 0.463188 0.700808 0.312064
O O14 0.772800 0.500000 0.301993
O O15 0.836523 0.334437 0.272208
O O16 0.702273 0.390813 0.107485
O O17 0.720978 0.104980 0.007367
O O18 0.632197 0.000000 0.053833
O O19 0.157246 0.800752 0.888482
O O20 0.156774 0.000000 0.912613
#
# Coordination Sequence:
#
# PCOD9168538 Si02
#       8
#     8   8   8   8   8   8   8   8
#     4  10  16  24  40  52  78 111 129 150 191 235
#     4   9  14  21  36  59  80  97 120 152 194 243
#     4   8  14  23  37  61  82  97 121 155 194 240
#     4   8  14  22  34  56  79  94 118 157 194 236
#     4  10  21  29  35  52  78 108 142 172 182 204
#     4   9  15  23  39  61  82 100 123 155 194 242
#     4  10  17  26  40  59  79 103 130 157 193 236
#     4  10  16  24  39  50  71 104 132 153 192 233
#
# _framework density 22.046389000000001
#
# number of rings (size 3 to 8) (size 9 to 14) (size 15 to 20)
#    0.000    2.750    2.500    4.125    0.000    0.000 
#    0.000    0.000    0.000   12.750    0.000    0.000 
#    0.000    1.000    0.000    0.250    0.250    3.250 
#
# Total GULP energy -178157.874339 kJ/mol
# GULP energy per Si atom -5567.433573 kJ/mol
# Density = 2.199621 g / cm^3
# Si number density = 22.046389 Si / 1000 Ang^3
#
#
#
# Elastic Constant Matrix: (Units=GPa)
#
#
# Indices 1 2 3 4 5 6 
#
# 1 63.2245 27.1564 26.9868 0.0000 35.4209 0.0000
# 2 27.1564 151.5443 36.2032 0.0000 29.2414 0.0000
# 3 26.9868 36.2032 66.5067 0.0000 38.7296 0.0000
# 4 0.0000 0.0000 0.0000 21.7520 0.0000 11.8940
# 5 35.4209 29.2414 38.7296 0.0000 42.0528 0.0000
# 6 0.0000 0.0000 0.0000 11.8940 0.0000 15.6822
#
#
#
# Elastic Compliance Matrix: (Units=1/GPa)
#
#
# Indices 1 2 3 4 5 6 
#
# 1 0.031035 -0.001020 0.005978 0.000000 -0.030937 0.000000
# 2 -0.001020 0.007820 -0.002538 0.000000 -0.002241 0.000000
# 3 0.005978 -0.002538 0.034283 0.000000 -0.034844 0.000000
# 4 0.000000 0.000000 0.000000 0.078548 0.000000 -0.059574
# 5 -0.030937 -0.002241 -0.034844 0.000000 0.083487 0.000000
# 6 0.000000 0.000000 0.000000 -0.059574 0.000000 0.108950
#
#
# Mechanical properties :
#
#
# Convention : Reuss Voigt Hill
#
# Bulk Modulus (GPa) = 12.82402 51.32983 32.07692
# Shear Modulus (GPa) = 13.68820 28.62600 21.15710
#
# Velocity S-wave (km/s) = 2.49445 3.60730 3.10120
# Velocity P-wave (km/s) = 3.75844 6.37835 5.23494
#
# Compressibility (1/GPa) = 0.07797869
#
# Stress axis : x y z
#
# Youngs Moduli (GPa) = 32.22131 127.87262 29.16870
#
# Poissons Ratio (x) = 0.13044 -0.17437
# Poissons Ratio (y) = 0.03287 0.07403
# Poissons Ratio (z) = -0.19261 0.32453
#
# Static dielectric constant tensor:
#      x y z
#    x 1.909830 0.000000 0.026770 
#    y 0.000000 1.894540 0.000000 
#    z 0.026770 0.000000 1.858640 
# 
# From -- ./inp_files/289134.got.cif
#   From: 2010.05.17/outbox.cif.g08.bks.cpg/sg12_145_cif.got.tgz:289134.got - 2010.06.03 13:09:07.
