data_PCOD9168982
_publ_section_title
;
Structure prediction by ZEFSAII (Michael W. Deem and Ramdas Pophale) SiO2 
 PCOD9168982
Probable space group: C 2/M
;
_chemical_formula_sum "Si O2"
_cell_formula_units_Z 40
_cell_length_a 7.994432
_cell_length_b 28.361039
_cell_length_c 11.136375
_cell_angle_alpha 90.000000
_cell_angle_beta 38.147912
_cell_angle_gamma 90.000000
_cell_volume 1559.648661
_symmetry_space_group_name_H-M "C 2/M"
_symmetry_group_IT_number 12
_symmetry_cell_setting 'monoclinic'
loop_
_space_group_symop_operation_xyz
x,y,z
-x,y,-z
-x,-y,-z
x,-y,z
1/2+x,1/2+y,z
1/2-x,1/2+y,-z
1/2-x,1/2-y,-z
1/2+x,1/2-y,z
loop_
_atom_site_type_symbol
_atom_site_label
_atom_site_fract_x
_atom_site_fract_y
_atom_site_fract_z
Si Si1 0.500000 0.834224 0.500000
Si Si2 0.915674 0.000000 0.711689
Si Si3 0.466160 0.397795 0.292267
Si Si4 0.247088 0.177787 0.263730
Si Si5 0.041792 0.732822 0.283515
Si Si6 0.000000 0.922709 0.000000
Si Si7 0.603667 0.000000 0.145775
O O1 0.700654 0.866310 0.463133
O O2 0.335903 0.799775 0.680634
O O3 0.709991 0.000000 0.714694
O O4 0.068405 0.049599 0.637949
O O5 0.747352 0.000000 0.933226
O O6 0.717034 0.372535 0.217311
O O7 0.497009 0.397606 0.130397
O O8 0.495059 0.197816 0.200380
O O9 0.000000 0.178048 0.500000
O O10 0.195172 0.218164 0.193855
O O11 0.750000 0.750000 0.500000
O O12 0.269091 0.955623 0.856103
#
# Coordination Sequence:
#
# PCOD9168982 Si02
#       7
#     4   4   8   8   8   4   4
#     4  12  20  33  60  88 116 153 190 250 284 342
#     4   9  20  37  58  84 115 155 191 243 279 350
#     4  11  22  36  57  86 120 151 199 235 294 339
#     4  10  17  32  55  82 107 146 193 242 271 341
#     4  10  16  31  55  84 106 148 199 235 273 341
#     4   9  20  38  62  86 108 152 198 244 276 349
#     4   8  16  40  65  74 102 161 215 223 268 348
#
# _framework density 25.646801
#
# number of rings (size 3 to 8) (size 9 to 14) (size 15 to 20)
#    0.000    2.000    7.000    0.600    0.000    2.000 
#    0.000    0.500    0.000    4.800    0.000    0.000 
#    0.000    0.000    0.000    0.000    0.000    0.000 
#
# Total GULP energy -111718.382953 kJ/mol
# GULP energy per Si atom -5585.919148 kJ/mol
# Density = 2.558843 g / cm^3
# Si number density = 25.646801 Si / 1000 Ang^3
#
#
#
# Elastic Constant Matrix: (Units=GPa)
#
#
# Indices 1 2 3 4 5 6 
#
# 1 135.4276 45.6340 17.4273 0.0000 33.8075 0.0000
# 2 45.6340 156.8516 15.8953 0.0000 21.9034 0.0000
# 3 17.4273 15.8953 81.8950 0.0000 17.1696 0.0000
# 4 0.0000 0.0000 0.0000 44.8212 0.0000 10.0104
# 5 33.8075 21.9034 17.1696 0.0000 39.1367 0.0000
# 6 0.0000 0.0000 0.0000 10.0104 0.0000 45.7700
#
#
#
# Elastic Compliance Matrix: (Units=1/GPa)
#
#
# Indices 1 2 3 4 5 6 
#
# 1 0.009875 -0.001816 -0.000191 0.000000 -0.007430 0.000000
# 2 -0.001816 0.007275 -0.000552 0.000000 -0.002261 0.000000
# 3 -0.000191 -0.000552 0.013501 0.000000 -0.005449 0.000000
# 4 0.000000 0.000000 0.000000 0.023457 0.000000 -0.005130
# 5 -0.007430 -0.002261 -0.005449 0.000000 0.035626 0.000000
# 6 0.000000 0.000000 0.000000 -0.005130 0.000000 0.022970
#
#
# Mechanical properties :
#
#
# Convention : Reuss Voigt Hill
#
# Bulk Modulus (GPa) = 39.16353 59.12081 49.14217
# Shear Modulus (GPa) = 39.57756 45.62676 42.60216
#
# Velocity S-wave (km/s) = 3.93259 4.22245 4.08009
# Velocity P-wave (km/s) = 5.99365 6.84646 6.43420
#
# Compressibility (1/GPa) = 0.02553396
#
# Stress axis : x y z
#
# Youngs Moduli (GPa) = 101.26070 137.44803 74.06894
#
# Poissons Ratio (x) = 0.24963 0.01416
# Poissons Ratio (y) = 0.18391 0.04086
# Poissons Ratio (z) = 0.01936 0.07582
#
# Static dielectric constant tensor:
#      x y z
#    x 2.032100 0.000000 -0.031540 
#    y 0.000000 2.006900 0.000000 
#    z -0.031540 0.000000 2.134450 
# 
# From -- ./inp_files/123465.got.cif
#   From: 2010.05.17/outbox.cif.g08.bks.cpg/sg12_62_cif.got.tgz:123465.got - 2010.06.03 13:09:07.
