data_PCOD9168399
_publ_section_title
;
Structure prediction by ZEFSAII (Michael W. Deem and Ramdas Pophale) SiO2 
 PCOD9168399
Probable space group: C 2/M
;
_chemical_formula_sum "Si O2"
_cell_formula_units_Z 56
_cell_length_a 20.338553
_cell_length_b 21.110117
_cell_length_c 5.600890
_cell_angle_alpha 90.000000
_cell_angle_beta 104.076902
_cell_angle_gamma 90.000000
_cell_volume 2332.523903
_symmetry_space_group_name_H-M "C 2/M"
_symmetry_group_IT_number 12
_symmetry_cell_setting 'monoclinic'
loop_
_space_group_symop_operation_xyz
x,y,z
-x,y,-z
-x,-y,-z
x,-y,z
1/2+x,1/2+y,z
1/2-x,1/2+y,-z
1/2-x,1/2-y,-z
1/2+x,1/2-y,z
loop_
_atom_site_type_symbol
_atom_site_label
_atom_site_fract_x
_atom_site_fract_y
_atom_site_fract_z
Si Si1 0.302330 0.911870 0.287252
Si Si2 0.639876 0.571015 0.140437
Si Si3 0.178521 0.400698 0.195980
Si Si4 0.212191 0.260594 0.716904
Si Si5 0.161401 0.079386 0.659630
Si Si6 0.567494 0.202874 0.126816
Si Si7 0.067797 0.776768 0.627866
O O1 0.222721 0.930601 0.213723
O O2 0.335387 0.932449 0.563039
O O3 0.304837 0.835377 0.292612
O O4 0.335629 0.931956 0.070103
O O5 0.612851 0.500000 0.118285
O O6 0.624337 0.599322 0.383293
O O7 0.622999 0.598506 0.868198
O O8 0.260950 0.396073 0.269639
O O9 0.136114 0.336147 0.160873
O O10 0.250000 0.250000 0.500000
O O11 0.147887 0.214200 0.663588
O O12 0.250000 0.250000 0.000000
O O13 0.166200 0.000000 0.663557
O O14 0.560830 0.226245 0.394571
O O15 0.500000 0.163321 0.000000
O O16 0.566088 0.254190 0.906766
O O17 0.000000 0.816292 0.500000
#
# Coordination Sequence:
#
# PCOD9168399 Si02
#       7
#     8   8   8   8   8   8   8
#     4  10  18  28  42  59  86 112 140 177 222 267
#     4   8  14  24  38  56  75 102 139 175 209 257
#     4  10  15  26  41  54  78 101 136 176 216 257
#     4  12  22  32  47  68  95 120 148 183 230 269
#     4   8  14  21  33  52  71  96 126 166 212 257
#     4  10  17  27  44  61  77 101 142 186 220 251
#     4  10  20  34  48  63  85 114 153 189 219 261
#
# _framework density 24.008326
#
# number of rings (size 3 to 8) (size 9 to 14) (size 15 to 20)
#    0.000    2.286    2.857    1.714    0.000    0.000 
#    0.000    0.000    0.000    0.429    0.000    0.000 
#    0.000   15.429    0.000    0.000    0.000    6.571 
#
# Total GULP energy -155873.944052 kJ/mol
# GULP energy per Si atom -5566.926573 kJ/mol
# Density = 2.395368 g / cm^3
# Si number density = 24.008326 Si / 1000 Ang^3
#
#
#
# Elastic Constant Matrix: (Units=GPa)
#
#
# Indices 1 2 3 4 5 6 
#
# 1 78.1326 10.9130 48.1968 0.0000 -7.0510 0.0000
# 2 10.9130 92.6466 19.9591 0.0000 -5.9483 0.0000
# 3 48.1968 19.9591 258.5890 0.0000 -52.8219 0.0000
# 4 0.0000 0.0000 0.0000 1.9169 0.0000 -5.1712
# 5 -7.0510 -5.9483 -52.8219 0.0000 47.8295 0.0000
# 6 0.0000 0.0000 0.0000 -5.1712 0.0000 -8.3654
#
#
#
# Elastic Compliance Matrix: (Units=1/GPa)
#
#
# Indices 1 2 3 4 5 6 
#
# 1 0.014631 -0.001179 -0.002874 0.000000 -0.001163 0.000000
# 2 -0.001179 0.011083 -0.000503 0.000000 0.000649 0.000000
# 3 -0.002874 -0.000503 0.005607 0.000000 0.005706 0.000000
# 4 0.000000 0.000000 0.000000 0.195557 0.000000 -0.120887
# 5 -0.001163 0.000649 0.005706 0.000000 0.027119 0.000000
# 6 0.000000 0.000000 0.000000 -0.120887 0.000000 -0.044812
#
#
# Mechanical properties :
#
#
# Convention : Reuss Voigt Hill
#
# Bulk Modulus (GPa) = 45.02605 65.27844 55.15224
# Shear Modulus (GPa) = 22.15335 31.62949 26.89142
#
# Velocity S-wave (km/s) = 3.04095 3.63359 3.35040
# Velocity P-wave (km/s) = 5.57897 6.69723 6.16352
#
# Compressibility (1/GPa) = 0.02220937
#
# Stress axis : x y z
#
# Youngs Moduli (GPa) = 68.34771 90.23130 178.34257
#
# Poissons Ratio (x) = 0.10639 0.51249
# Poissons Ratio (y) = 0.08058 0.08973
# Poissons Ratio (z) = 0.19640 0.04540
#
# Static dielectric constant tensor:
#      x y z
#    x 1.965730 0.000000 -0.036990 
#    y 0.000000 2.075190 0.000000 
#    z -0.036990 0.000000 1.998970 
# 
# From -- ./inp_files/22700.got.cif
#   From: 2010.05.17/outbox.cif.g08.bks.cpg/sg12_12_cif.got.tgz:22700.got - 2010.06.03 13:09:07.
