data_PCOD9168483
_publ_section_title
;
Structure prediction by ZEFSAII (Michael W. Deem and Ramdas Pophale) SiO2 
 PCOD9168483
Probable space group: C 2/M
;
_chemical_formula_sum "Si O2"
_cell_formula_units_Z 28
_cell_length_a 7.850821
_cell_length_b 32.528579
_cell_length_c 7.026269
_cell_angle_alpha 90.000000
_cell_angle_beta 40.079538
_cell_angle_gamma 90.000000
_cell_volume 1155.287085
_symmetry_space_group_name_H-M "C 2/M"
_symmetry_group_IT_number 12
_symmetry_cell_setting 'monoclinic'
loop_
_space_group_symop_operation_xyz
x,y,z
-x,y,-z
-x,-y,-z
x,-y,z
1/2+x,1/2+y,z
1/2-x,1/2+y,-z
1/2-x,1/2-y,-z
1/2+x,1/2-y,z
loop_
_atom_site_type_symbol
_atom_site_label
_atom_site_fract_x
_atom_site_fract_y
_atom_site_fract_z
Si Si1 0.986145 0.415228 0.280901
Si Si2 0.981854 0.874408 0.783952
Si Si3 0.208649 0.500000 0.150204
Si Si4 0.284283 0.290627 0.347832
O O1 0.676395 0.407340 0.519955
O O2 0.000000 0.411621 0.500000
O O3 0.129372 0.458322 0.109711
O O4 0.172958 0.381769 0.022212
O O5 0.099205 0.829768 0.639831
O O6 0.000000 0.878385 0.000000
O O7 0.000000 0.500000 0.500000
O O8 0.500000 0.500000 0.000000
O O9 0.250000 0.250000 0.500000
O O10 0.000000 0.301863 0.500000
O O11 0.500000 0.282194 0.000000
#
# Coordination Sequence:
#
# PCOD9168483 Si02
#       4
#     8   8   4   8
#     4   9  15  23  35  54  81 116 154 188 224 279
#     4   9  16  27  42  59  84 119 157 190 231 288
#     4  10  16  20  30  50  78 112 150 186 222 268
#     4  11  22  36  54  76 101 133 170 210 253 299
#
# _framework density 24.2364
#
# number of rings (size 3 to 8) (size 9 to 14) (size 15 to 20)
#    0.000    2.286    0.000    9.429    0.000    0.000 
#    0.000    0.000    0.000    0.000    0.000    0.000 
#    0.000    0.000    0.000   25.714    0.000   64.286 
#
# Total GULP energy -78159.949493 kJ/mol
# GULP energy per Si atom -5582.853535 kJ/mol
# Density = 2.418124 g / cm^3
# Si number density = 24.236400 Si / 1000 Ang^3
#
#
#
# Elastic Constant Matrix: (Units=GPa)
#
#
# Indices 1 2 3 4 5 6 
#
# 1 97.0622 28.3628 47.7225 0.0000 -11.3205 0.0000
# 2 28.3628 162.2689 71.0088 0.0000 -32.5923 0.0000
# 3 47.7225 71.0088 158.8738 0.0000 -40.8189 0.0000
# 4 0.0000 0.0000 0.0000 42.8773 0.0000 -15.9182
# 5 -11.3205 -32.5923 -40.8189 0.0000 35.7132 0.0000
# 6 0.0000 0.0000 0.0000 -15.9182 0.0000 -23.6499
#
#
#
# Elastic Compliance Matrix: (Units=1/GPa)
#
#
# Indices 1 2 3 4 5 6 
#
# 1 0.012162 -0.000752 -0.003543 0.000000 -0.000881 0.000000
# 2 -0.000752 0.008218 -0.002239 0.000000 0.004703 0.000000
# 3 -0.003543 -0.002239 0.010683 0.000000 0.009044 0.000000
# 4 0.000000 0.000000 0.000000 0.018660 0.000000 -0.012559
# 5 -0.000881 0.004703 0.009044 0.000000 0.042350 0.000000
# 6 0.000000 0.000000 0.000000 -0.012559 0.000000 -0.033830
#
#
# Mechanical properties :
#
#
# Convention : Reuss Voigt Hill
#
# Bulk Modulus (GPa) = 55.57422 79.15479 67.36450
# Shear Modulus (GPa) = 64.67459 29.06216 46.86838
#
# Velocity S-wave (km/s) = 5.17135 3.46658 4.40227
# Velocity P-wave (km/s) = 7.65748 6.98235 7.32769
#
# Compressibility (1/GPa) = 0.01799395
#
# Stress axis : x y z
#
# Youngs Moduli (GPa) = 82.22415 121.67761 93.60674
#
# Poissons Ratio (x) = 0.09152 0.33169
# Poissons Ratio (y) = 0.06185 0.20959
# Poissons Ratio (z) = 0.29136 0.27244
#
# Static dielectric constant tensor:
#      x y z
#    x 1.999660 0.000000 -0.004740 
#    y 0.000000 2.028740 0.000000 
#    z -0.004740 0.000000 1.775280 
# 
# From -- ./inp_files/41264.got.cif
#   From: 2010.05.17/outbox.cif.g08.bks.cpg/sg12_21_cif.got.tgz:41264.got - 2010.06.03 13:09:07.
