data_PCOD9168322
_publ_section_title
;
Structure prediction by ZEFSAII (Michael W. Deem and Ramdas Pophale) SiO2 
 PCOD9168322
Probable space group: C 2/M
;
_chemical_formula_sum "Si O2"
_cell_formula_units_Z 28
_cell_length_a 7.649867
_cell_length_b 33.936432
_cell_length_c 5.552317
_cell_angle_alpha 90.000000
_cell_angle_beta 56.175409
_cell_angle_gamma 90.000000
_cell_volume 1197.463778
_symmetry_space_group_name_H-M "C 2/M"
_symmetry_group_IT_number 12
_symmetry_cell_setting 'monoclinic'
loop_
_space_group_symop_operation_xyz
x,y,z
-x,y,-z
-x,-y,-z
x,-y,z
1/2+x,1/2+y,z
1/2-x,1/2+y,-z
1/2-x,1/2-y,-z
1/2+x,1/2-y,z
loop_
_atom_site_type_symbol
_atom_site_label
_atom_site_fract_x
_atom_site_fract_y
_atom_site_fract_z
Si Si1 0.254138 0.172297 0.552770
Si Si2 0.364650 0.585761 0.355454
Si Si3 0.232501 0.203813 0.065642
Si Si4 0.364286 0.500000 0.353482
O O1 0.268358 0.125336 0.517074
O O2 0.318763 0.194940 0.263097
O O3 0.006117 0.186520 0.749068
O O4 0.330353 0.182635 0.760161
O O5 0.500000 0.585711 0.500000
O O6 0.254444 0.542782 0.434273
O O7 0.500000 0.589319 0.000000
O O8 0.250000 0.250000 0.000000
O O9 0.500000 0.500000 0.500000
O O10 0.500000 0.500000 0.000000
#
# Coordination Sequence:
#
# PCOD9168322 Si02
#       4
#     8   8   8   4
#     4  10  17  28  40  53  75 100 125 156 184 217
#     4  10  14  25  36  51  73  96 125 147 175 211
#     4  10  18  27  39  54  70  95 131 159 186 217
#     4   8  16  20  34  52  68  94 124 144 164 214
#
# _framework density 23.382753000000001
#
# number of rings (size 3 to 8) (size 9 to 14) (size 15 to 20)
#    0.000    2.286    5.714    0.857    0.000    0.000 
#    0.000    0.000    0.000    0.000    0.000    0.000 
#    0.000    0.000    0.000    0.000    0.000  194.286 
#
# Total GULP energy -78053.784426 kJ/mol
# GULP energy per Si atom -5575.270316 kJ/mol
# Density = 2.332953 g / cm^3
# Si number density = 23.382753 Si / 1000 Ang^3
#
#
#
# Elastic Constant Matrix: (Units=GPa)
#
#
# Indices 1 2 3 4 5 6 
#
# 1 76.9743 3.6214 42.0897 0.0000 44.0006 0.0000
# 2 3.6214 274.6702 43.0965 0.0000 25.6386 0.0000
# 3 42.0897 43.0965 212.5218 0.0000 38.3214 0.0000
# 4 0.0000 0.0000 0.0000 36.3587 0.0000 24.1106
# 5 44.0006 25.6386 38.3214 0.0000 56.8632 0.0000
# 6 0.0000 0.0000 0.0000 24.1106 0.0000 -7.7447
#
#
#
# Elastic Compliance Matrix: (Units=1/GPa)
#
#
# Indices 1 2 3 4 5 6 
#
# 1 0.024475 0.001692 -0.001864 0.000000 -0.018445 0.000000
# 2 0.001692 0.003970 -0.000662 0.000000 -0.002653 0.000000
# 3 -0.001864 -0.000662 0.005572 0.000000 -0.002014 0.000000
# 4 0.000000 0.000000 0.000000 0.008975 0.000000 0.027941
# 5 -0.018445 -0.002653 -0.002014 0.000000 0.034412 0.000000
# 6 0.000000 0.000000 0.000000 0.027941 0.000000 -0.042135
#
#
# Mechanical properties :
#
#
# Convention : Reuss Voigt Hill
#
# Bulk Modulus (GPa) = 30.91418 82.42015 56.66716
# Shear Modulus (GPa) = 104.77774 48.78603 76.78189
#
# Velocity S-wave (km/s) = 6.70128 4.57268 5.73657
# Velocity P-wave (km/s) = 8.55136 7.95009 8.25620
#
# Compressibility (1/GPa) = 0.03234762
#
# Stress axis : x y z
#
# Youngs Moduli (GPa) = 40.85861 251.89682 179.46914
#
# Poissons Ratio (x) = -0.42609 0.33458
# Poissons Ratio (y) = -0.06911 0.11875
# Poissons Ratio (z) = 0.07617 0.16667
#
# Static dielectric constant tensor:
#      x y z
#    x 1.862590 0.000000 -0.024400 
#    y 0.000000 1.852760 0.000000 
#    z -0.024400 0.000000 1.879450 
# 
# From -- ./inp_files/7855.got.cif
#   From: 2010.05.17/outbox.cif.g08.bks.cpg/sg12_4_cif.got.tgz:7855.got - 2010.06.03 13:09:07.
