data_PCOD9168000
_publ_section_title
;
Structure prediction by ZEFSAII (Michael W. Deem and Ramdas Pophale) SiO2 
 PCOD9168000
Probable space group: P 21/M
;
_chemical_formula_sum "Si O2"
_cell_formula_units_Z 32
_cell_length_a 15.000000
_cell_length_b 21.000000
_cell_length_c 15.000000
_cell_angle_alpha 90.000000
_cell_angle_beta 160.000000
_cell_angle_gamma 90.000000
_cell_volume 1616.045177
_symmetry_space_group_name_H-M "P 21/M"
_symmetry_group_IT_number 11
_symmetry_cell_setting 'monoclinic'
loop_
_space_group_symop_operation_xyz
x,y,z
-x,1/2+y,-z
-x,-y,-z
x,1/2-y,z
loop_
_atom_site_type_symbol
_atom_site_label
_atom_site_fract_x
_atom_site_fract_y
_atom_site_fract_z
Si Si1 0.116537 0.598201 0.487054
Si Si2 0.537414 0.823479 0.212580
Si Si3 0.082299 0.057833 0.143314
Si Si4 0.892582 0.325023 0.338098
Si Si5 0.667934 0.536589 0.960951
Si Si6 0.524596 0.075306 0.705479
Si Si7 0.295816 0.377222 0.174754
Si Si8 0.844866 0.178702 0.649552
O O1 0.095510 0.630127 0.563769
O O2 0.409497 0.571988 0.752340
O O3 0.081696 0.652187 0.378537
O O4 0.899791 0.546340 0.250516
O O5 0.470187 0.750000 0.164631
O O6 0.545912 0.858406 0.315342
O O7 0.824028 0.827965 0.440026
O O8 0.325697 0.845635 0.939331
O O9 0.296954 0.048624 0.424952
O O10 0.218035 0.105336 0.201215
O O11 0.805028 0.080006 0.921339
O O12 0.000000 0.000000 0.000000
O O13 0.840415 0.250000 0.313228
O O14 0.573804 0.468309 0.839178
O O15 0.752260 0.567337 0.944504
O O16 0.600972 0.361718 0.456302
O O17 0.095455 0.325362 0.948472
O O18 0.749848 0.250000 0.551929
#
# Coordination Sequence:
#
# PCOD9168000 Si02
#       8
#     4   4   4   4   4   4   4   4
#     4  10  20  35  58  90 121 155 201 240 291 350
#     4  10  23  43  64  87 119 159 205 255 302 348
#     4  12  24  39  65  90 114 150 211 246 290 362
#     4  10  20  39  65  88 117 160 211 251 286 352
#     4  10  21  35  56  87 125 154 188 244 300 358
#     4  12  24  41  64  90 119 159 202 250 309 358
#     4  10  21  36  55  84 116 151 197 244 287 344
#     4  10  20  35  55  81 123 159 186 232 301 363
#
# _framework density 19.801427
#
# number of rings (size 3 to 8) (size 9 to 14) (size 15 to 20)
#    0.000    1.500    1.250    4.125    3.500    0.000 
#    0.000   11.250    0.000    0.000    0.000    0.000 
#    0.000    0.000    0.000    0.000    0.000    0.000 
#
# Total GULP energy -178492.985451 kJ/mol
# GULP energy per Si atom -5577.905795 kJ/mol
# Density = 1.975636 g / cm^3
# Si number density = 19.801427 Si / 1000 Ang^3
#
#
#
# Elastic Constant Matrix: (Units=GPa)
#
#
# Indices 1 2 3 4 5 6 
#
# 1 89.9869 35.2592 33.0514 0.0000 -5.2055 0.0000
# 2 35.2592 42.4303 8.9403 0.0000 -8.7084 0.0000
# 3 33.0514 8.9403 123.6504 0.0000 -13.2147 0.0000
# 4 0.0000 0.0000 0.0000 15.1800 0.0000 -2.5520
# 5 -5.2055 -8.7084 -13.2147 0.0000 27.1904 0.0000
# 6 0.0000 0.0000 0.0000 -2.5520 0.0000 4.6331
#
#
#
# Elastic Compliance Matrix: (Units=1/GPa)
#
#
# Indices 1 2 3 4 5 6 
#
# 1 0.018352 -0.015056 -0.004173 0.000000 -0.003337 0.000000
# 2 -0.015056 0.037699 0.002406 0.000000 0.010361 0.000000
# 3 -0.004173 0.002406 0.009520 0.000000 0.004599 0.000000
# 4 0.000000 0.000000 0.000000 0.072599 0.000000 0.039990
# 5 -0.003337 0.010361 0.004599 0.000000 0.041692 0.000000
# 6 0.000000 0.000000 0.000000 0.039990 0.000000 0.237867
#
#
# Mechanical properties :
#
#
# Convention : Reuss Voigt Hill
#
# Bulk Modulus (GPa) = 31.32394 45.61882 38.47138
# Shear Modulus (GPa) = 10.82211 21.32180 16.07196
#
# Velocity S-wave (km/s) = 2.34034 3.28499 2.85205
# Velocity P-wave (km/s) = 4.81210 6.12180 5.50603
#
# Compressibility (1/GPa) = 0.03192447
#
# Stress axis : x y z
#
# Youngs Moduli (GPa) = 54.49075 26.52611 105.03805
#
# Poissons Ratio (x) = 0.39937 0.43837
# Poissons Ratio (y) = 0.82039 -0.25271
# Poissons Ratio (z) = 0.22741 -0.06382
#
# Static dielectric constant tensor:
#      x y z
#    x 1.674750 0.000000 0.015170 
#    y 0.000000 1.826040 0.000000 
#    z 0.015170 0.000000 1.685420 
# 
# From -- ./inp_files/52710.got.cif
#   From: 2010.05.17/outbox.ucp.g08.bks.cvg/sg11_27_cif.got.tgz:52710.got - 2010.06.11 11:38:39.
