data_PCOD9168030
_publ_section_title
;
Structure prediction by ZEFSAII (Michael W. Deem and Ramdas Pophale) SiO2 
 PCOD9168030
Probable space group: P 21/M
;
_chemical_formula_sum "Si O2"
_cell_formula_units_Z 32
_cell_length_a 12.000000
_cell_length_b 9.000000
_cell_length_c 30.000000
_cell_angle_alpha 90.000000
_cell_angle_beta 30.000000
_cell_angle_gamma 90.000000
_cell_volume 1620.000000
_symmetry_space_group_name_H-M "P 21/M"
_symmetry_group_IT_number 11
_symmetry_cell_setting 'monoclinic'
loop_
_space_group_symop_operation_xyz
x,y,z
-x,1/2+y,-z
-x,-y,-z
x,1/2-y,z
loop_
_atom_site_type_symbol
_atom_site_label
_atom_site_fract_x
_atom_site_fract_y
_atom_site_fract_z
Si Si1 0.866796 0.570292 0.757507
Si Si2 0.811102 0.424506 0.986813
Si Si3 0.664270 0.077695 0.635128
Si Si4 0.736182 0.928917 0.431130
Si Si5 0.456861 0.924066 0.836869
Si Si6 0.942581 0.076758 0.447774
Si Si7 0.580209 0.424679 0.927198
Si Si8 0.272953 0.929033 0.807600
O O1 0.883016 0.750000 0.751851
O O2 0.673838 0.523000 0.788577
O O3 0.784293 0.511070 0.833730
O O4 0.089211 0.489702 0.665616
O O5 0.769781 0.250000 0.988976
O O6 0.042980 0.483110 0.888501
O O7 0.763426 0.433627 0.056074
O O8 0.627836 0.537615 0.032104
O O9 0.621966 0.250000 0.661302
O O10 0.780727 0.074655 0.546592
O O11 0.439207 0.982119 0.711810
O O12 0.835283 0.003455 0.611109
O O13 0.726021 0.750000 0.435592
O O14 0.500000 0.000000 0.500000
O O15 0.829643 0.993092 0.445612
O O16 0.501636 0.750000 0.814835
O O17 0.399121 0.983734 0.808800
O O18 0.988540 0.250000 0.420077
O O19 0.622221 0.250000 0.916908
O O20 0.500000 0.500000 0.000000
O O21 0.241833 0.750000 0.818887
#
# Coordination Sequence:
#
# PCOD9168030 Si02
#       8
#     4   4   4   4   4   4   4   4
#     4  10  20  39  64  91 120 154 198 244 295 356
#     4  10  20  36  54  78 114 153 194 241 293 348
#     4  10  21  37  59  87 118 157 201 245 299 363
#     4  12  25  42  64  92 124 159 202 255 314 369
#     4   8  17  32  54  81 113 151 188 232 283 340
#     4  10  21  40  63  86 117 155 199 250 303 362
#     4  11  22  40  63  88 116 153 199 246 296 353
#     4  11  20  32  52  83 119 154 193 237 292 353
#
# _framework density 19.753086
#
# number of rings (size 3 to 8) (size 9 to 14) (size 15 to 20)
#    0.000    1.750    0.000    6.000    0.000    2.500 
#    2.250    6.250    0.000    0.000    0.000    0.000 
#    0.000    0.000    0.000    0.000    0.000    0.000 
#
# Total GULP energy -178524.230180 kJ/mol
# GULP energy per Si atom -5578.882193 kJ/mol
# Density = 1.970813 g / cm^3
# Si number density = 19.753086 Si / 1000 Ang^3
#
#
#
# Elastic Constant Matrix: (Units=GPa)
#
#
# Indices 1 2 3 4 5 6 
#
# 1 39.3169 27.7990 32.4617 0.0000 10.3476 0.0000
# 2 27.7990 134.9853 37.2220 0.0000 1.3073 0.0000
# 3 32.4617 37.2220 97.2167 0.0000 -20.5055 0.0000
# 4 0.0000 0.0000 0.0000 35.0422 0.0000 -0.3455
# 5 10.3476 1.3073 -20.5055 0.0000 16.5739 0.0000
# 6 0.0000 0.0000 0.0000 -0.3455 0.0000 27.2355
#
#
#
# Elastic Compliance Matrix: (Units=1/GPa)
#
#
# Indices 1 2 3 4 5 6 
#
# 1 0.233388 -0.005152 -0.144251 0.000000 -0.323774 0.000000
# 2 -0.005152 0.008894 -0.001563 0.000000 0.000581 0.000000
# 3 -0.144251 -0.001563 0.105642 0.000000 0.220885 0.000000
# 4 0.000000 0.000000 0.000000 0.028541 0.000000 0.000362
# 5 -0.323774 0.000581 0.220885 0.000000 0.535714 0.000000
# 6 0.000000 0.000000 0.000000 0.000362 0.000000 0.036721
#
#
# Mechanical properties :
#
#
# Convention : Reuss Voigt Hill
#
# Bulk Modulus (GPa) = 21.74176 51.83158 36.78667
# Shear Modulus (GPa) = 3.94894 27.37275 15.66085
#
# Velocity S-wave (km/s) = 1.41545 3.72660 2.81878
# Velocity P-wave (km/s) = 3.70162 6.69428 5.40904
#
# Compressibility (1/GPa) = 0.04599444
#
# Stress axis : x y z
#
# Youngs Moduli (GPa) = 4.28471 112.43019 9.46594
#
# Poissons Ratio (x) = 0.57919 1.36547
# Poissons Ratio (y) = 0.02207 0.01479
# Poissons Ratio (z) = 0.61807 0.17569
#
# Static dielectric constant tensor:
#      x y z
#    x 0.670750 0.000000 -0.402990 
#    y 0.000000 1.634250 0.000000 
#    z -0.402990 0.000000 1.586880 
# 
# From -- ./inp_files/73046.got.cif
#   From: 2010.05.17/outbox.ucp.g08.bks.cvg/sg11_37_cif.got.tgz:73046.got - 2010.06.11 11:38:39.
