data_PCOD9168539
_publ_section_title
;
Structure prediction by ZEFSAII (Michael W. Deem and Ramdas Pophale) SiO2 
 PCOD9168539
Probable space group: C 2/M
;
_chemical_formula_sum "Si O2"
_cell_formula_units_Z 64
_cell_length_a 9.772956
_cell_length_b 23.929048
_cell_length_c 12.458364
_cell_angle_alpha 90.000000
_cell_angle_beta 85.439999
_cell_angle_gamma 90.000000
_cell_volume 2904.260005
_symmetry_space_group_name_H-M "C 2/M"
_symmetry_group_IT_number 12
_symmetry_cell_setting 'monoclinic'
loop_
_space_group_symop_operation_xyz
x,y,z
-x,y,-z
-x,-y,-z
x,-y,z
1/2+x,1/2+y,z
1/2-x,1/2+y,-z
1/2-x,1/2-y,-z
1/2+x,1/2-y,z
loop_
_atom_site_type_symbol
_atom_site_label
_atom_site_fract_x
_atom_site_fract_y
_atom_site_fract_z
Si Si1 0.547001 0.348027 0.756419
Si Si2 0.541680 0.438643 0.384526
Si Si3 0.355011 0.065423 0.422082
Si Si4 0.315504 0.328934 0.911821
Si Si5 0.721505 0.162529 0.414517
Si Si6 0.884576 0.703140 0.913490
Si Si7 0.892159 0.341621 0.257787
Si Si8 0.346567 0.718363 0.609733
O O1 0.510763 0.409009 0.716226
O O2 0.474789 0.341902 0.876277
O O3 0.701436 0.341218 0.705016
O O4 0.454494 0.308437 0.684492
O O5 0.500000 0.411669 0.500000
O O6 0.479958 0.500000 0.391238
O O7 0.704016 0.438850 0.380026
O O8 0.335495 0.104387 0.530777
O O9 0.428410 0.106537 0.332586
O O10 0.397741 0.000000 0.431609
O O11 0.312399 0.261830 0.892453
O O12 0.217737 0.357677 0.829019
O O13 0.235069 0.335675 0.028991
O O14 0.624139 0.216440 0.409582
O O15 0.828957 0.186744 0.497457
O O16 0.974596 0.680971 0.810339
O O17 0.000000 0.712278 0.000000
O O18 0.804198 0.295488 0.329239
#
# Coordination Sequence:
#
# PCOD9168539 Si02
#       8
#     8   8   8   8   8   8   8   8
#     4  11  16  27  40  59  88 115 139 174 211 247
#     4  10  16  24  39  58  84 118 144 166 207 252
#     4  10  18  28  41  60  87 118 148 175 208 252
#     4   9  17  27  42  62  83 113 142 169 212 258
#     4  10  17  25  39  59  87 117 140 169 209 247
#     4   9  17  29  44  60  84 112 140 171 211 261
#     4   9  16  29  43  62  88 115 141 179 214 250
#     4   9  17  25  36  59  86 111 140 169 206 252
#
# _framework density 22.036593
#
# number of rings (size 3 to 8) (size 9 to 14) (size 15 to 20)
#    0.000    2.375    5.000    1.125    0.000    0.000 
#    0.000    0.000    0.000    4.125    0.000    0.000 
#    0.000   53.000    0.000   36.375    0.000   18.250 
#
# Total GULP energy -178359.563021 kJ/mol
# GULP energy per Si atom -5573.736344 kJ/mol
# Density = 2.198644 g / cm^3
# Si number density = 22.036593 Si / 1000 Ang^3
#
#
#
# Elastic Constant Matrix: (Units=GPa)
#
#
# Indices 1 2 3 4 5 6 
#
# 1 75.6010 11.1933 36.1151 0.0000 -6.7101 0.0000
# 2 11.1933 132.6338 39.6753 0.0000 -9.7848 0.0000
# 3 36.1151 39.6753 131.6179 0.0000 -51.3194 0.0000
# 4 0.0000 0.0000 0.0000 18.2630 0.0000 -4.0132
# 5 -6.7101 -9.7848 -51.3194 0.0000 45.0245 0.0000
# 6 0.0000 0.0000 0.0000 -4.0132 0.0000 7.4276
#
#
#
# Elastic Compliance Matrix: (Units=1/GPa)
#
#
# Indices 1 2 3 4 5 6 
#
# 1 0.015747 0.000181 -0.006201 0.000000 -0.004682 0.000000
# 2 0.000181 0.008379 -0.003338 0.000000 -0.001957 0.000000
# 3 -0.006201 -0.003338 0.017392 0.000000 0.018174 0.000000
# 4 0.000000 0.000000 0.000000 0.062132 0.000000 0.033571
# 5 -0.004682 -0.001957 0.018174 0.000000 0.041801 0.000000
# 6 0.000000 0.000000 0.000000 0.033571 0.000000 0.152772
#
#
# Mechanical properties :
#
#
# Convention : Reuss Voigt Hill
#
# Bulk Modulus (GPa) = 43.85949 57.09113 50.47531
# Shear Modulus (GPa) = 15.40638 31.00094 23.20366
#
# Velocity S-wave (km/s) = 2.64697 3.75479 3.24846
# Velocity P-wave (km/s) = 5.41185 6.69041 6.08481
#
# Compressibility (1/GPa) = 0.02280008
#
# Stress axis : x y z
#
# Youngs Moduli (GPa) = 63.50316 119.35238 57.49893
#
# Poissons Ratio (x) = -0.02155 0.35654
# Poissons Ratio (y) = -0.01146 0.19196
# Poissons Ratio (z) = 0.39377 0.39845
#
# Static dielectric constant tensor:
#      x y z
#    x 1.876690 0.000000 -0.000460 
#    y 0.000000 1.828160 0.000000 
#    z -0.000460 0.000000 1.804070 
# 
# From -- ./inp_files/208401.got.cif
#   From: 2010.05.17/outbox.cif.g08.bks.cpg/sg12_105_cif.got.tgz:208401.got - 2010.06.03 13:09:07.
