data_PCOD9168251
_publ_section_title
;
Structure prediction by ZEFSAII (Michael W. Deem and Ramdas Pophale) SiO2 
 PCOD9168251
Probable space group: P 21/M
;
_chemical_formula_sum "Si O2"
_cell_formula_units_Z 28
_cell_length_a 9.000000
_cell_length_b 9.000000
_cell_length_c 27.000000
_cell_angle_alpha 90.000000
_cell_angle_beta 140.000000
_cell_angle_gamma 90.000000
_cell_volume 1405.776502
_symmetry_space_group_name_H-M "P 21/M"
_symmetry_group_IT_number 11
_symmetry_cell_setting 'monoclinic'
loop_
_space_group_symop_operation_xyz
x,y,z
-x,1/2+y,-z
-x,-y,-z
x,1/2-y,z
loop_
_atom_site_type_symbol
_atom_site_label
_atom_site_fract_x
_atom_site_fract_y
_atom_site_fract_z
Si Si1 0.358334 0.426810 0.008571
Si Si2 0.468423 0.572488 0.836972
Si Si3 0.710681 0.072265 0.526332
Si Si4 0.754870 0.576803 0.435645
Si Si5 0.121854 0.426696 0.136060
Si Si6 0.306959 0.072902 0.292181
Si Si7 0.982646 0.075147 0.693152
O O1 0.374408 0.250000 0.007808
O O2 0.096811 0.481066 0.937200
O O3 0.500000 0.500000 0.000000
O O4 0.450040 0.466251 0.086697
O O5 0.419996 0.750000 0.823629
O O6 0.663503 0.543244 0.845547
O O7 0.239200 0.482671 0.766685
O O8 0.692061 0.250000 0.509481
O O9 0.916708 0.053953 0.618532
O O10 0.500000 0.000000 0.500000
O O11 0.696023 0.963901 0.476262
O O12 0.768608 0.750000 0.428012
O O13 0.560599 0.498769 0.353296
O O14 0.000000 0.500000 0.500000
O O15 0.071842 0.250000 0.119980
O O16 0.175974 0.459736 0.207406
O O17 0.326539 0.250000 0.302286
O O18 0.178290 0.008851 0.307771
O O19 0.957122 0.250000 0.696818
#
# Coordination Sequence:
#
# PCOD9168251 Si02
#       7
#     4   4   4   4   4   4   4
#     4  11  23  40  65  94 125 164 206 251 304 366
#     4  10  23  42  63  91 126 164 205 253 310 369
#     4  11  23  41  64  93 125 165 213 262 317 373
#     4  12  26  43  64  91 126 166 211 264 319 378
#     4  10  23  42  64  92 125 161 204 254 310 369
#     4  11  23  41  64  91 123 163 209 258 314 375
#     4  11  24  40  62  93 125 162 209 258 310 370
#
# _framework density 19.917818
#
# number of rings (size 3 to 8) (size 9 to 14) (size 15 to 20)
#    0.000    1.143    1.429    4.286    2.000    8.000 
#    0.000    0.000    0.000    0.000    0.000    0.000 
#    0.000    0.000    0.000    0.000    0.000    0.000 
#
# Total GULP energy -156237.310525 kJ/mol
# GULP energy per Si atom -5579.903947 kJ/mol
# Density = 1.987248 g / cm^3
# Si number density = 19.917818 Si / 1000 Ang^3
#
#
#
# Elastic Constant Matrix: (Units=GPa)
#
#
# Indices 1 2 3 4 5 6 
#
# 1 6.7498 -16.2052 -21.3777 0.0000 4.3990 0.0000
# 2 -16.2052 50.3226 44.5837 0.0000 10.3866 0.0000
# 3 -21.3777 44.5837 111.9168 0.0000 6.3820 0.0000
# 4 0.0000 0.0000 0.0000 35.8253 0.0000 3.8137
# 5 4.3990 10.3866 6.3820 0.0000 27.5946 0.0000
# 6 0.0000 0.0000 0.0000 3.8137 0.0000 29.2567
#
#
#
# Elastic Compliance Matrix: (Units=1/GPa)
#
#
# Indices 1 2 3 4 5 6 
#
# 1 -0.739911 -0.227266 -0.063237 0.000000 0.218121 0.000000
# 2 -0.227266 -0.036805 -0.032028 0.000000 0.057490 0.000000
# 3 -0.063237 -0.032028 0.008464 0.000000 0.020179 0.000000
# 4 0.000000 0.000000 0.000000 0.028306 0.000000 -0.003690
# 5 0.218121 0.057490 0.020179 0.000000 -0.024839 0.000000
# 6 0.000000 0.000000 0.000000 -0.003690 0.000000 0.034661
#
#
# Mechanical properties :
#
#
# Convention : Reuss Voigt Hill
#
# Bulk Modulus (GPa) = -0.70756 20.33233 9.81238
# Shear Modulus (GPa) = -8.99011 29.33454 10.17222
#
# Velocity S-wave (km/s) = -2.12683 3.84184 2.26234
# Velocity P-wave (km/s) = 2.52729 5.46900 3.42949
#
# Compressibility (1/GPa) = -1.41331145
#
# Stress axis : x y z
#
# Youngs Moduli (GPa) = -1.35151 -27.17057 118.14589
#
# Poissons Ratio (x) = -6.17494 7.47116
# Poissons Ratio (y) = -0.30715 3.78393
# Poissons Ratio (z) = -0.08547 -0.87021
#
# Static dielectric constant tensor:
#      x y z
#    x 1.664210 0.000000 0.012830 
#    y 0.000000 1.641870 0.000000 
#    z 0.012830 0.000000 1.705930 
# 
# From -- ./inp_files/70914.got.cif
#   From: 2010.05.17/outbox.ucp.g08.bks.cvg/sg11_36_cif.got.tgz:70914.got - 2010.06.11 11:38:39.
