data_PCOD9168079
_publ_section_title
;
Structure prediction by ZEFSAII (Michael W. Deem and Ramdas Pophale) SiO2 
 PCOD9168079
Probable space group: P 21/M
;
_chemical_formula_sum "Si O2"
_cell_formula_units_Z 32
_cell_length_a 24.000000
_cell_length_b 15.000000
_cell_length_c 9.000000
_cell_angle_alpha 90.000000
_cell_angle_beta 150.000000
_cell_angle_gamma 90.000000
_cell_volume 1620.000000
_symmetry_space_group_name_H-M "P 21/M"
_symmetry_group_IT_number 11
_symmetry_cell_setting 'monoclinic'
loop_
_space_group_symop_operation_xyz
x,y,z
-x,1/2+y,-z
-x,-y,-z
x,1/2-y,z
loop_
_atom_site_type_symbol
_atom_site_label
_atom_site_fract_x
_atom_site_fract_y
_atom_site_fract_z
Si Si1 0.676469 0.152907 0.911897
Si Si2 0.850683 0.476189 0.449788
Si Si3 0.061777 0.144072 0.846396
Si Si4 0.584168 0.646342 0.038783
Si Si5 0.440780 0.402815 0.363457
Si Si6 0.676913 0.352955 0.554628
Si Si7 0.803423 0.645101 0.148576
Si Si8 0.773334 0.517867 0.594501
O O1 0.726788 0.250000 0.061533
O O2 0.546990 0.154407 0.658637
O O3 0.684213 0.138833 0.751302
O O4 0.739415 0.073904 0.138143
O O5 0.849314 0.575344 0.376401
O O6 0.839651 0.485046 0.601218
O O7 0.950095 0.414059 0.616700
O O8 0.047435 0.250000 0.847859
O O9 0.113451 0.139160 0.799707
O O10 0.152262 0.092325 0.153898
O O11 0.618382 0.750000 0.144478
O O12 0.661640 0.571588 0.290675
O O13 0.587398 0.627249 0.869495
O O14 0.454644 0.638148 0.786073
O O15 0.500000 0.500000 0.500000
O O16 0.324387 0.387876 0.180736
O O17 0.710703 0.250000 0.596085
O O18 0.743606 0.431796 0.627099
O O19 0.797612 0.750000 0.179660
#
# Coordination Sequence:
#
# PCOD9168079 Si02
#       8
#     4   4   4   4   4   4   4   4
#     4  10  20  38  65  90 127 166 201 256 315 366
#     4  12  24  43  65  95 122 163 213 263 313 364
#     4  11  27  46  64  88 124 166 214 264 311 364
#     4  10  20  37  61  90 130 168 209 253 306 378
#     4  11  19  35  62  98 128 158 201 255 315 371
#     4   9  21  38  60  94 129 168 205 252 314 378
#     4  11  23  42  67  94 126 163 210 262 308 372
#     4  12  23  40  65  89 125 171 210 258 313 370
#
# _framework density 19.753086
#
# number of rings (size 3 to 8) (size 9 to 14) (size 15 to 20)
#    0.000    1.250    2.500    4.500    1.750    1.500 
#    2.250    1.875    0.000    0.000    0.000    0.000 
#    0.000    0.000    0.000    0.000    0.000    0.000 
#
# Total GULP energy -178666.783837 kJ/mol
# GULP energy per Si atom -5583.336995 kJ/mol
# Density = 1.970813 g / cm^3
# Si number density = 19.753086 Si / 1000 Ang^3
#
#
#
# Elastic Constant Matrix: (Units=GPa)
#
#
# Indices 1 2 3 4 5 6 
#
# 1 82.7876 36.0667 0.0040 0.0000 17.8138 0.0000
# 2 36.0667 144.6252 6.4908 0.0000 10.3493 0.0000
# 3 0.0040 6.4908 32.9086 0.0000 11.4924 0.0000
# 4 0.0000 0.0000 0.0000 38.3088 0.0000 6.0156
# 5 17.8138 10.3493 11.4924 0.0000 22.4363 0.0000
# 6 0.0000 0.0000 0.0000 6.0156 0.0000 29.8772
#
#
#
# Elastic Compliance Matrix: (Units=1/GPa)
#
#
# Indices 1 2 3 4 5 6 
#
# 1 0.016707 -0.003376 0.005788 0.000000 -0.014672 0.000000
# 2 -0.003376 0.007835 -0.001485 0.000000 -0.000173 0.000000
# 3 0.005788 -0.001485 0.039026 0.000000 -0.023900 0.000000
# 4 0.000000 0.000000 0.000000 0.026956 0.000000 -0.005427
# 5 -0.014672 -0.000173 -0.023900 0.000000 0.068542 0.000000
# 6 0.000000 0.000000 0.000000 -0.005427 0.000000 0.034563
#
#
# Mechanical properties :
#
#
# Convention : Reuss Voigt Hill
#
# Bulk Modulus (GPa) = 15.28544 38.38272 26.83408
# Shear Modulus (GPa) = 23.41020 32.64180 28.02600
#
# Velocity S-wave (km/s) = 3.44632 4.06949 3.77080
# Velocity P-wave (km/s) = 4.85708 6.44628 5.70726
#
# Compressibility (1/GPa) = 0.06542174
#
# Stress axis : x y z
#
# Youngs Moduli (GPa) = 59.85633 127.62594 25.62404
#
# Poissons Ratio (x) = 0.43089 -0.14830
# Poissons Ratio (y) = 0.20208 0.03804
# Poissons Ratio (z) = -0.34642 0.18946
#
# Static dielectric constant tensor:
#      x y z
#    x 1.692140 0.000000 0.013780 
#    y 0.000000 1.712480 0.000000 
#    z 0.013780 0.000000 1.724360 
# 
# From -- ./inp_files/27828.got.cif
#   From: 2010.05.17/outbox.ucp.g08.bks.cvg/sg11_14_cif.got.tgz:27828.got - 2010.06.11 11:38:39.
