data_PCOD9168935
_publ_section_title
;
Structure prediction by ZEFSAII (Michael W. Deem and Ramdas Pophale) SiO2 
 PCOD9168935
Probable space group: C 2/M
;
_chemical_formula_sum "Si O2"
_cell_formula_units_Z 40
_cell_length_a 18.607204
_cell_length_b 25.433745
_cell_length_c 8.152622
_cell_angle_alpha 90.000000
_cell_angle_beta 30.149661
_cell_angle_gamma 90.000000
_cell_volume 1937.838996
_symmetry_space_group_name_H-M "C 2/M"
_symmetry_group_IT_number 12
_symmetry_cell_setting 'monoclinic'
loop_
_space_group_symop_operation_xyz
x,y,z
-x,y,-z
-x,-y,-z
x,-y,z
1/2+x,1/2+y,z
1/2-x,1/2+y,-z
1/2-x,1/2-y,-z
1/2+x,1/2-y,z
loop_
_atom_site_type_symbol
_atom_site_label
_atom_site_fract_x
_atom_site_fract_y
_atom_site_fract_z
Si Si1 0.636819 0.389782 0.134117
Si Si2 0.221502 0.719236 0.225942
Si Si3 0.609975 0.900706 0.134613
Si Si4 0.426679 0.795587 0.969964
Si Si5 0.888743 0.000000 0.879925
Si Si6 0.544676 0.000000 0.603405
O O1 0.500000 0.368268 0.500000
O O2 0.587291 0.438388 0.117425
O O3 0.721140 0.340596 0.893544
O O4 0.744470 0.415507 0.057508
O O5 0.055077 0.719670 0.594294
O O6 0.250000 0.750000 0.000000
O O7 0.308164 0.750928 0.192336
O O8 0.500000 0.887287 0.500000
O O9 0.636103 0.850217 0.972609
O O10 0.533255 0.947062 0.183884
O O11 0.500000 0.802114 0.000000
O O12 0.000000 0.000000 0.500000
O O13 0.715122 0.000000 0.262295
O O14 0.500000 0.000000 0.500000
#
# Coordination Sequence:
#
# PCOD9168935 Si02
#       6
#     8   8   8   8   4   4
#     4  11  20  32  56  87 111 143 190 239 287 333
#     4  12  22  40  61  83 110 153 199 238 283 348
#     4  11  18  36  58  82 113 151 193 238 285 344
#     4  12  25  39  56  85 120 151 188 241 298 351
#     4  10  18  28  48  86 121 135 178 249 295 328
#     4  10  16  30  55  84 111 150 189 245 289 327
#
# _framework density 20.641549000000001
#
# number of rings (size 3 to 8) (size 9 to 14) (size 15 to 20)
#    0.000    0.800    8.000    2.400    0.000    0.000 
#    0.000    0.500    0.000    0.000    0.000    0.700 
#    0.000    0.200    0.000    0.000    0.000    0.000 
#
# Total GULP energy -111340.986763 kJ/mol
# GULP energy per Si atom -5567.049338 kJ/mol
# Density = 2.059457 g / cm^3
# Si number density = 20.641549 Si / 1000 Ang^3
#
#
#
# Elastic Constant Matrix: (Units=GPa)
#
#
# Indices 1 2 3 4 5 6 
#
# 1 42.8830 6.1378 -10.2002 0.0000 1.7188 0.0000
# 2 6.1378 141.5241 -1.7079 0.0000 -0.9076 0.0000
# 3 -10.2002 -1.7079 73.4428 0.0000 -17.6262 0.0000
# 4 0.0000 0.0000 0.0000 24.6177 0.0000 -11.1190
# 5 1.7188 -0.9076 -17.6262 0.0000 20.6838 0.0000
# 6 0.0000 0.0000 0.0000 -11.1190 0.0000 8.9287
#
#
#
# Elastic Compliance Matrix: (Units=1/GPa)
#
#
# Indices 1 2 3 4 5 6 
#
# 1 0.024276 -0.001003 0.003587 0.000000 0.000996 0.000000
# 2 -0.001003 0.007115 0.000152 0.000000 0.000525 0.000000
# 3 0.003587 0.000152 0.017660 0.000000 0.014758 0.000000
# 4 0.000000 0.000000 0.000000 0.092842 0.000000 0.115618
# 5 0.000996 0.000525 0.014758 0.000000 0.060864 0.000000
# 6 0.000000 0.000000 0.000000 0.115618 0.000000 0.255979
#
#
# Mechanical properties :
#
#
# Convention : Reuss Voigt Hill
#
# Bulk Modulus (GPa) = 18.34088 27.36771 22.85430
# Shear Modulus (GPa) = 10.60587 28.42071 19.51329
#
# Velocity S-wave (km/s) = 2.26920 3.71464 3.07797
# Velocity P-wave (km/s) = 3.97120 5.62898 4.87113
#
# Compressibility (1/GPa) = 0.05452301
#
# Stress axis : x y z
#
# Youngs Moduli (GPa) = 41.19263 140.55518 56.62628
#
# Poissons Ratio (x) = 0.14100 -0.20313
# Poissons Ratio (y) = 0.04132 -0.00862
# Poissons Ratio (z) = -0.14777 -0.02139
#
# Static dielectric constant tensor:
#      x y z
#    x 1.787120 0.000000 -0.011490 
#    y 0.000000 1.830890 0.000000 
#    z -0.011490 0.000000 1.735730 
# 
# From -- ./inp_files/40369.got.cif
#   From: 2010.05.17/outbox.cif.g08.bks.cpg/sg12_21_cif.got.tgz:40369.got - 2010.06.03 13:09:07.
