data_PCOD9168300
_publ_section_title
;
Structure prediction by ZEFSAII (Michael W. Deem and Ramdas Pophale) SiO2 
 PCOD9168300
Probable space group: C 2/M
;
_chemical_formula_sum "Si O2"
_cell_formula_units_Z 44
_cell_length_a 5.333355
_cell_length_b 15.002119
_cell_length_c 27.432662
_cell_angle_alpha 90.000000
_cell_angle_beta 95.319858
_cell_angle_gamma 90.000000
_cell_volume 2185.477505
_symmetry_space_group_name_H-M "C 2/M"
_symmetry_group_IT_number 12
_symmetry_cell_setting 'monoclinic'
loop_
_space_group_symop_operation_xyz
x,y,z
-x,y,-z
-x,-y,-z
x,-y,z
1/2+x,1/2+y,z
1/2-x,1/2+y,-z
1/2-x,1/2-y,-z
1/2+x,1/2-y,z
loop_
_atom_site_type_symbol
_atom_site_label
_atom_site_fract_x
_atom_site_fract_y
_atom_site_fract_z
Si Si1 0.081797 0.307875 0.264470
Si Si2 0.112736 0.392775 0.160204
Si Si3 0.913555 0.892720 0.894207
Si Si4 0.768203 0.307372 0.631287
Si Si5 0.739934 0.853297 0.478854
Si Si6 0.500000 0.308965 0.000000
O O1 0.300128 0.232105 0.263625
O O2 0.102219 0.364526 0.216044
O O3 0.154532 0.355126 0.316946
O O4 0.114407 0.500000 0.157636
O O5 0.364926 0.360361 0.137722
O O6 0.860644 0.360704 0.128196
O O7 0.910252 0.000000 0.891481
O O8 0.972357 0.865317 0.950249
O O9 0.484356 0.269542 0.631200
O O10 0.783907 0.354466 0.579617
O O11 0.500000 0.894186 0.500000
O O12 0.750000 0.750000 0.500000
O O13 0.000000 0.894393 0.500000
O O14 0.250000 0.250000 0.000000
#
# Coordination Sequence:
#
# PCOD9168300 Si02
#       6
#     8   8   8   8   8   4
#     4  10  21  32  49  73 104 133 162 212 265 306
#     4  10  21  38  58  78 100 139 182 213 247 304
#     4  10  22  40  60  78 106 141 177 212 250 301
#     4  10  16  25  36  58  89 122 154 194 246 302
#     4  10  14  20  34  52  78 120 153 188 234 289
#     4  12  25  38  57  90 116 140 166 214 259 308
#
# _framework density 20.132898999999998
#
# number of rings (size 3 to 8) (size 9 to 14) (size 15 to 20)
#    0.000    1.818    3.636    2.455    0.000    4.364 
#    0.000    3.636    0.000    0.000    0.000    0.000 
#    0.000    1.455    0.000    0.000    0.000    7.273 
#
# Total GULP energy -122755.075109 kJ/mol
# GULP energy per Si atom -5579.776141 kJ/mol
# Density = 2.008708 g / cm^3
# Si number density = 20.132899 Si / 1000 Ang^3
#
#
#
# Elastic Constant Matrix: (Units=GPa)
#
#
# Indices 1 2 3 4 5 6 
#
# 1 130.6133 5.0459 4.0914 0.0000 0.6972 0.0000
# 2 5.0459 27.2838 -2.1856 0.0000 1.2394 0.0000
# 3 4.0914 -2.1856 135.1631 0.0000 -0.5425 0.0000
# 4 0.0000 0.0000 0.0000 -99.0112 0.0000 16.7414
# 5 0.6972 1.2394 -0.5425 0.0000 38.0906 0.0000
# 6 0.0000 0.0000 0.0000 16.7414 0.0000 -6.2524
#
#
#
# Elastic Compliance Matrix: (Units=1/GPa)
#
#
# Indices 1 2 3 4 5 6 
#
# 1 0.007721 -0.001444 -0.000257 0.000000 -0.000098 0.000000
# 2 -0.001444 0.037023 0.000638 0.000000 -0.001169 0.000000
# 3 -0.000257 0.000638 0.007417 0.000000 0.000090 0.000000
# 4 0.000000 0.000000 0.000000 -0.018455 0.000000 -0.049416
# 5 -0.000098 -0.001169 0.000090 0.000000 0.026294 0.000000
# 6 0.000000 0.000000 0.000000 -0.049416 0.000000 -0.292253
#
#
# Mechanical properties :
#
#
# Convention : Reuss Voigt Hill
#
# Bulk Modulus (GPa) = 19.98682 34.10707 27.04695
# Shear Modulus (GPa) = -23.42483 5.63930 -8.89277
#
# Velocity S-wave (km/s) = -3.41473 1.67545 -2.10395
# Velocity P-wave (km/s) = 2.36604 4.55198 2.74976
#
# Compressibility (1/GPa) = 0.05003297
#
# Stress axis : x y z
#
# Youngs Moduli (GPa) = 129.52425 27.01021 134.82662
#
# Poissons Ratio (x) = 0.03900 0.03471
# Poissons Ratio (y) = 0.18703 -0.08598
# Poissons Ratio (z) = 0.03335 -0.01722
#
# Static dielectric constant tensor:
#      x y z
#    x 1.716820 0.000000 0.000550 
#    y 0.000000 1.694550 0.000000 
#    z 0.000550 0.000000 1.711440 
# 
# From -- ./inp_files/297616.got.cif
#   From: 2010.05.17/outbox.cif.g08.bks.cpg/sg12_149_cif.got.tgz:297616.got - 2010.06.03 13:09:07.
