data_PCOD9168170
_publ_section_title
;
Structure prediction by ZEFSAII (Michael W. Deem and Ramdas Pophale) SiO2 
 PCOD9168170
Probable space group: P 21/M
;
_chemical_formula_sum "Si O2"
_cell_formula_units_Z 20
_cell_length_a 15.000000
_cell_length_b 9.000000
_cell_length_c 24.000000
_cell_angle_alpha 90.000000
_cell_angle_beta 160.000000
_cell_angle_gamma 90.000000
_cell_volume 1108.145264
_symmetry_space_group_name_H-M "P 21/M"
_symmetry_group_IT_number 11
_symmetry_cell_setting 'monoclinic'
loop_
_space_group_symop_operation_xyz
x,y,z
-x,1/2+y,-z
-x,-y,-z
x,1/2-y,z
loop_
_atom_site_type_symbol
_atom_site_label
_atom_site_fract_x
_atom_site_fract_y
_atom_site_fract_z
Si Si1 0.272986 0.570284 0.185879
Si Si2 0.286538 0.569073 0.329600
Si Si3 0.159374 0.070127 0.539341
Si Si4 0.197938 0.072181 0.765183
Si Si5 0.186678 0.571712 0.880802
O O1 0.247205 0.750000 0.168676
O O2 0.312610 0.533552 0.276981
O O3 0.535136 0.533387 0.301361
O O4 0.000000 0.500000 0.000000
O O5 0.500000 0.500000 0.500000
O O6 0.297223 0.750000 0.340153
O O7 0.009412 0.505404 0.190285
O O8 0.152224 0.250000 0.541185
O O9 0.000000 0.000000 0.500000
O O10 0.987530 0.011537 0.386831
O O11 0.149312 0.250000 0.737822
O O12 0.150630 0.002460 0.798633
O O13 0.502260 0.051515 0.926064
O O14 0.135901 0.750000 0.849021
#
# Coordination Sequence:
#
# PCOD9168170 Si02
#       5
#     4   4   4   4   4
#     4  10  25  45  65  93 129 168 215 266 320 383
#     4  11  23  40  64  94 126 166 215 266 324 387
#     4  11  24  42  64  91 126 166 213 265 317 381
#     4  10  21  38  61  91 125 163 209 259 316 376
#     4  10  21  37  60  91 126 163 205 259 316 378
#
# _framework density 18.048175000000001
#
# number of rings (size 3 to 8) (size 9 to 14) (size 15 to 20)
#    0.000    1.600    0.000    3.600    2.800    7.200 
#    0.000    0.000    0.000    0.000    0.000    0.000 
#    0.000    0.000    0.000    0.000    0.000    0.000 
#
# Total GULP energy -111441.726248 kJ/mol
# GULP energy per Si atom -5572.086312 kJ/mol
# Density = 1.800710 g / cm^3
# Si number density = 18.048175 Si / 1000 Ang^3
#
#
#
# Elastic Constant Matrix: (Units=GPa)
#
#
# Indices 1 2 3 4 5 6 
#
# 1 156.1839 45.9346 67.9379 0.0000 19.8988 0.0000
# 2 45.9346 103.7507 46.9176 0.0000 7.6885 0.0000
# 3 67.9379 46.9176 130.9587 0.0000 5.4192 0.0000
# 4 0.0000 0.0000 0.0000 41.2844 0.0000 1.3587
# 5 19.8988 7.6885 5.4192 0.0000 40.5737 0.0000
# 6 0.0000 0.0000 0.0000 1.3587 0.0000 44.3162
#
#
#
# Elastic Compliance Matrix: (Units=1/GPa)
#
#
# Indices 1 2 3 4 5 6 
#
# 1 0.009137 -0.002033 -0.003864 0.000000 -0.003580 0.000000
# 2 -0.002033 0.012064 -0.003232 0.000000 -0.000857 0.000000
# 3 -0.003864 -0.003232 0.010754 0.000000 0.001071 0.000000
# 4 0.000000 0.000000 0.000000 0.024247 0.000000 -0.000743
# 5 -0.003580 -0.000857 0.001071 0.000000 0.026422 0.000000
# 6 0.000000 0.000000 0.000000 -0.000743 0.000000 0.022588
#
#
# Mechanical properties :
#
#
# Convention : Reuss Voigt Hill
#
# Bulk Modulus (GPa) = 73.00415 79.16371 76.08393
# Shear Modulus (GPa) = 39.05208 40.57508 39.81358
#
# Velocity S-wave (km/s) = 4.65668 4.74661 4.70186
# Velocity P-wave (km/s) = 8.33368 8.60222 8.46901
#
# Compressibility (1/GPa) = 0.01369785
#
# Stress axis : x y z
#
# Youngs Moduli (GPa) = 109.44013 82.89433 92.98927
#
# Poissons Ratio (x) = 0.16852 0.35929
# Poissons Ratio (y) = 0.22249 0.30052
# Poissons Ratio (z) = 0.42285 0.26790
#
# Static dielectric constant tensor:
#      x y z
#    x 1.640780 0.000000 0.006400 
#    y 0.000000 1.611790 0.000000 
#    z 0.006400 0.000000 1.649070 
# 
# From -- ./inp_files/55482.got.cif
#   From: 2010.05.17/outbox.ucp.g08.bks.cvg/sg11_28_cif.got.tgz:55482.got - 2010.06.11 11:38:39.
