data_PCOD9168136
_publ_section_title
;
Structure prediction by ZEFSAII (Michael W. Deem and Ramdas Pophale) SiO2 
 PCOD9168136
Probable space group: P 21/M
;
_chemical_formula_sum "Si O2"
_cell_formula_units_Z 28
_cell_length_a 30.000000
_cell_length_b 9.000000
_cell_length_c 30.000000
_cell_angle_alpha 90.000000
_cell_angle_beta 10.000000
_cell_angle_gamma 90.000000
_cell_volume 1406.550239
_symmetry_space_group_name_H-M "P 21/M"
_symmetry_group_IT_number 11
_symmetry_cell_setting 'monoclinic'
loop_
_space_group_symop_operation_xyz
x,y,z
-x,1/2+y,-z
-x,-y,-z
x,1/2-y,z
loop_
_atom_site_type_symbol
_atom_site_label
_atom_site_fract_x
_atom_site_fract_y
_atom_site_fract_z
Si Si1 0.822142 0.070706 0.982016
Si Si2 0.759326 0.921773 0.759627
Si Si3 0.987589 0.428969 0.114692
Si Si4 0.302831 0.930653 0.458239
Si Si5 0.461043 0.073160 0.586036
Si Si6 0.113655 0.075058 0.261356
Si Si7 0.400168 0.070000 0.265298
O O1 0.807931 0.250000 0.990556
O O2 0.543411 0.995045 0.249558
O O3 0.925682 0.023102 0.928389
O O4 0.032742 0.998081 0.741316
O O5 0.751765 0.750000 0.753599
O O6 0.793949 0.928964 0.778658
O O7 0.000000 0.000000 0.500000
O O8 0.500000 0.000000 0.000000
O O9 0.000342 0.250000 0.111774
O O10 0.699722 0.466520 0.382979
O O11 0.189824 0.461635 0.876103
O O12 0.298018 0.750000 0.464066
O O13 0.354524 0.995752 0.358334
O O14 0.472344 0.250000 0.569062
O O15 0.500000 0.000000 0.500000
O O16 0.088325 0.250000 0.273077
O O17 0.841144 0.991816 0.525445
O O18 0.331115 0.992180 0.018344
O O19 0.401589 0.250000 0.265822
#
# Coordination Sequence:
#
# PCOD9168136 Si02
#       7
#     4   4   4   4   4   4   4
#     4  12  25  42  65  96 127 159 206 263 308 357
#     4  11  24  41  64  92 126 164 208 257 308 367
#     4  10  21  38  58  84 117 158 200 243 300 367
#     4  12  25  44  67  91 125 169 206 247 308 377
#     4  10  21  36  57  83 115 153 199 248 297 356
#     4  11  24  43  64  91 126 167 208 251 308 375
#     4  12  25  42  65  95 126 160 206 261 308 359
#
# _framework density 19.906860999999999
#
# number of rings (size 3 to 8) (size 9 to 14) (size 15 to 20)
#    0.000    0.857    0.000    7.714    0.000    8.000 
#    0.000    0.000    0.000    0.000    0.000    0.000 
#    0.000    0.000    0.000    0.000    0.000    0.000 
#
# Total GULP energy -156703.256147 kJ/mol
# GULP energy per Si atom -5596.544862 kJ/mol
# Density = 1.986155 g / cm^3
# Si number density = 19.906861 Si / 1000 Ang^3
#
#
#
# Elastic Constant Matrix: (Units=GPa)
#
#
# Indices 1 2 3 4 5 6 
#
# 1 41.5901 18.5897 -20.3850 0.0000 -0.8429 0.0000
# 2 18.5897 149.4135 17.8199 0.0000 1.6947 0.0000
# 3 -20.3850 17.8199 71.2280 0.0000 -1.3185 0.0000
# 4 0.0000 0.0000 0.0000 37.3752 0.0000 -0.2919
# 5 -0.8429 1.6947 -1.3185 0.0000 39.4878 0.0000
# 6 0.0000 0.0000 0.0000 -0.2919 0.0000 38.4016
#
#
#
# Elastic Compliance Matrix: (Units=1/GPa)
#
#
# Indices 1 2 3 4 5 6 
#
# 1 0.031423 -0.005153 0.010305 0.000000 0.001236 0.000000
# 2 -0.005153 0.007749 -0.003424 0.000000 -0.000557 0.000000
# 3 0.010305 -0.003424 0.017863 0.000000 0.000963 0.000000
# 4 0.000000 0.000000 0.000000 0.026757 0.000000 0.000203
# 5 0.001236 -0.000557 0.000963 0.000000 0.025407 0.000000
# 6 0.000000 0.000000 0.000000 0.000203 0.000000 0.026042
#
#
# Mechanical properties :
#
#
# Convention : Reuss Voigt Hill
#
# Bulk Modulus (GPa) = 16.53092 32.69788 24.61440
# Shear Modulus (GPa) = 32.90612 39.46671 36.18642
#
# Velocity S-wave (km/s) = 4.07013 4.45743 4.26818
# Velocity P-wave (km/s) = 5.51453 6.55383 6.05652
#
# Compressibility (1/GPa) = 0.06049270
#
# Stress axis : x y z
#
# Youngs Moduli (GPa) = 31.82352 129.05641 55.98156
#
# Poissons Ratio (x) = 0.66499 -0.57690
# Poissons Ratio (y) = 0.16398 0.19165
# Poissons Ratio (z) = -0.32795 0.44183
#
# Static dielectric constant tensor:
#      x y z
#    x 1.718290 0.000000 -0.007920 
#    y 0.000000 1.665260 0.000000 
#    z -0.007920 0.000000 1.680060 
# 
# From -- ./inp_files/73841.got.cif
#   From: 2010.05.17/outbox.ucp.g08.bks.cvg/sg11_37_cif.got.tgz:73841.got - 2010.06.11 11:38:39.
