data_PCOD9168479
_publ_section_title
;
Structure prediction by ZEFSAII (Michael W. Deem and Ramdas Pophale) SiO2 
 PCOD9168479
Probable space group: C 2/M
;
_chemical_formula_sum "Si O2"
_cell_formula_units_Z 48
_cell_length_a 14.244398
_cell_length_b 7.865861
_cell_length_c 20.673198
_cell_angle_alpha 90.000000
_cell_angle_beta 55.555793
_cell_angle_gamma 90.000000
_cell_volume 1910.214323
_symmetry_space_group_name_H-M "C 2/M"
_symmetry_group_IT_number 12
_symmetry_cell_setting 'monoclinic'
loop_
_space_group_symop_operation_xyz
x,y,z
-x,y,-z
-x,-y,-z
x,-y,z
1/2+x,1/2+y,z
1/2-x,1/2+y,-z
1/2-x,1/2-y,-z
1/2+x,1/2-y,z
loop_
_atom_site_type_symbol
_atom_site_label
_atom_site_fract_x
_atom_site_fract_y
_atom_site_fract_z
Si Si1 0.307332 0.689012 0.911193
Si Si2 0.204666 0.295181 0.750851
Si Si3 0.431930 0.708380 0.743762
Si Si4 0.153080 0.692417 0.412473
Si Si5 0.067202 0.806102 0.574492
Si Si6 0.920988 0.305815 0.083912
O O1 0.349131 0.500000 0.909691
O O2 0.403515 0.773802 0.827311
O O3 0.199871 0.679538 0.904550
O O4 0.250000 0.750000 0.000000
O O5 0.195743 0.500000 0.751817
O O6 0.319597 0.251051 0.745409
O O7 0.229360 0.225389 0.670456
O O8 0.104066 0.229324 0.836279
O O9 0.439120 0.500000 0.744242
O O10 0.533911 0.769416 0.657459
O O11 0.117784 0.500000 0.413701
O O12 0.150743 0.721732 0.489967
O O13 0.054566 0.804448 0.417068
O O14 0.103280 0.000000 0.569824
O O15 0.966306 0.500000 0.076579
O O16 0.000000 0.218752 0.000000
#
# Coordination Sequence:
#
# PCOD9168479 Si02
#       6
#     8   8   8   8   8   8
#     4   9  16  27  42  61  84 108 136 168 205 245
#     4   8  13  23  37  51  69  97 131 162 195 234
#     4   7  12  22  35  49  68  97 129 159 189 228
#     4  10  16  20  28  47  74  99 123 154 194 239
#     4   9  14  22  34  46  64  95 132 163 192 228
#     4   8  14  26  45  64  80 104 142 182 208 231
#
# _framework density 25.128070999999998
#
# number of rings (size 3 to 8) (size 9 to 14) (size 15 to 20)
#    0.000    3.500    0.000    6.000    0.000    0.000 
#    0.000    8.333    0.000    2.000    0.000    0.000 
#    0.000    1.333    0.000    2.667    0.000    8.667 
#
# Total GULP energy -133669.811191 kJ/mol
# GULP energy per Si atom -5569.575466 kJ/mol
# Density = 2.507088 g / cm^3
# Si number density = 25.128071 Si / 1000 Ang^3
#
#
#
# Elastic Constant Matrix: (Units=GPa)
#
#
# Indices 1 2 3 4 5 6 
#
# 1 81.2848 -8.2378 5.6916 0.0000 15.9966 0.0000
# 2 -8.2378 49.6739 31.8383 0.0000 -1.3604 0.0001
# 3 5.6916 31.8383 365.9916 0.0000 6.9586 0.0000
# 4 0.0000 0.0000 0.0000 -17.8230 0.0000 11.2914
# 5 15.9966 -1.3604 6.9586 0.0000 6.6386 0.0000
# 6 0.0000 0.0001 0.0000 11.2914 0.0000 -3.7607
#
#
#
# Elastic Compliance Matrix: (Units=1/GPa)
#
#
# Indices 1 2 3 4 5 6 
#
# 1 0.023774 0.002019 0.000547 0.000000 -0.057445 0.000000
# 2 0.002019 0.021765 -0.001956 0.000000 0.001646 -0.000001
# 3 0.000547 -0.001956 0.002986 0.000000 -0.004849 0.000000
# 4 0.000000 0.000000 0.000000 0.062194 0.000000 0.186734
# 5 -0.057445 0.001646 -0.004849 0.000000 0.294475 0.000000
# 6 0.000000 -0.000001 0.000000 0.186734 0.000000 0.294753
#
#
# Mechanical properties :
#
#
# Convention : Reuss Voigt Hill
#
# Bulk Modulus (GPa) = 20.10288 61.72605 40.91447
# Shear Modulus (GPa) = 6.99000 28.18819 17.58910
#
# Velocity S-wave (km/s) = 1.66967 3.35293 2.64858
# Velocity P-wave (km/s) = 3.42558 6.29345 5.06666
#
# Compressibility (1/GPa) = 0.04974411
#
# Stress axis : x y z
#
# Youngs Moduli (GPa) = 42.06319 45.94551 334.87970
#
# Poissons Ratio (x) = -0.09276 -0.18314
# Poissons Ratio (y) = -0.08492 0.65504
# Poissons Ratio (z) = -0.02300 0.08987
#
# Static dielectric constant tensor:
#      x y z
#    x 2.358030 0.000000 0.032600 
#    y 0.000000 1.926270 0.000000 
#    z 0.032600 0.000000 2.145910 
# 
# From -- ./inp_files/348293.got.cif
#   From: 2010.05.17/outbox.cif.g08.bks.cpg/sg12_175_cif.got.tgz:348293.got - 2010.06.03 13:09:07.
