data_PCOD9168446
_publ_section_title
;
Structure prediction by ZEFSAII (Michael W. Deem and Ramdas Pophale) SiO2 
 PCOD9168446
Probable space group: C 2/M
;
_chemical_formula_sum "Si O2"
_cell_formula_units_Z 56
_cell_length_a 17.986244
_cell_length_b 22.892976
_cell_length_c 8.509315
_cell_angle_alpha 90.000000
_cell_angle_beta 75.458241
_cell_angle_gamma 90.000000
_cell_volume 3391.539996
_symmetry_space_group_name_H-M "C 2/M"
_symmetry_group_IT_number 12
_symmetry_cell_setting 'monoclinic'
loop_
_space_group_symop_operation_xyz
x,y,z
-x,y,-z
-x,-y,-z
x,-y,z
1/2+x,1/2+y,z
1/2-x,1/2+y,-z
1/2-x,1/2-y,-z
1/2+x,1/2-y,z
loop_
_atom_site_type_symbol
_atom_site_label
_atom_site_fract_x
_atom_site_fract_y
_atom_site_fract_z
Si Si1 0.243079 0.208565 0.354885
Si Si2 0.547870 0.714992 0.809898
Si Si3 0.103561 0.782753 0.249879
Si Si4 0.194102 0.188815 0.884210
Si Si5 0.010186 0.567164 0.307555
Si Si6 0.889554 0.345254 0.215787
Si Si7 0.639260 0.151124 0.142850
O O1 0.250000 0.250000 0.500000
O O2 0.154528 0.195996 0.367915
O O3 0.272316 0.248605 0.192065
O O4 0.303649 0.156304 0.333505
O O5 0.484371 0.698043 0.716256
O O6 0.625034 0.677418 0.797012
O O7 0.574562 0.781560 0.765372
O O8 0.500000 0.716194 0.000000
O O9 0.107438 0.711921 0.234262
O O10 0.149825 0.805041 0.071664
O O11 0.269927 0.150128 0.866048
O O12 0.006957 0.500000 0.256905
O O13 0.091863 0.596997 0.231890
O O14 0.000000 0.569352 0.500000
O O15 0.945362 0.605710 0.254297
O O16 0.878895 0.347997 0.033556
#
# Coordination Sequence:
#
# PCOD9168446 Si02
#       7
#     8   8   8   8   8   8   8
#     4  10  19  26  41  71 100 124 162 192 235 286
#     4   9  14  24  45  69  95 122 155 180 224 284
#     4  10  15  29  45  70  97 130 155 188 228 296
#     4   9  17  28  44  69  93 124 155 192 227 292
#     4  11  26  39  48  67  93 125 170 217 259 292
#     4  11  18  31  49  68  91 127 169 201 229 286
#     4  11  17  32  51  65  90 123 165 202 241 281
#
# _framework density 16.511672999999998
#
# number of rings (size 3 to 8) (size 9 to 14) (size 15 to 20)
#    0.000    1.857    7.143    1.286    4.000    1.143 
#    0.000    2.143    0.000    0.000    0.000    0.000 
#    0.000    6.286    0.000    3.143    1.143    0.000 
#
# Total GULP energy -155967.875344 kJ/mol
# GULP energy per Si atom -5570.281262 kJ/mol
# Density = 1.647409 g / cm^3
# Si number density = 16.511673 Si / 1000 Ang^3
#
#
#
# Elastic Constant Matrix: (Units=GPa)
#
#
# Indices 1 2 3 4 5 6 
#
# 1 193.6543 44.8853 23.6569 0.0000 21.2651 0.0000
# 2 44.8853 59.2352 16.6792 0.0000 -1.1406 0.0000
# 3 23.6569 16.6792 26.0573 0.0000 3.4784 0.0000
# 4 0.0000 0.0000 0.0000 13.3072 0.0000 1.0395
# 5 21.2651 -1.1406 3.4784 0.0000 14.7552 0.0000
# 6 0.0000 0.0000 0.0000 1.0395 0.0000 16.0014
#
#
#
# Elastic Compliance Matrix: (Units=1/GPa)
#
#
# Indices 1 2 3 4 5 6 
#
# 1 0.007999 -0.005695 -0.002084 0.000000 -0.011477 0.000000
# 2 -0.005695 0.024990 -0.012575 0.000000 0.013104 0.000000
# 3 -0.002084 -0.012575 0.049609 0.000000 -0.009663 0.000000
# 4 0.000000 0.000000 0.000000 0.075530 0.000000 -0.004907
# 5 -0.011477 0.013104 -0.009663 0.000000 0.087604 0.000000
# 6 0.000000 0.000000 0.000000 -0.004907 0.000000 0.062813
#
#
# Mechanical properties :
#
#
# Convention : Reuss Voigt Hill
#
# Bulk Modulus (GPa) = 23.87294 49.93218 36.90256
# Shear Modulus (GPa) = 13.76585 21.72778 17.74682
#
# Velocity S-wave (km/s) = 2.89053 3.63147 3.28198
# Velocity P-wave (km/s) = 5.06259 6.92024 6.06298
#
# Compressibility (1/GPa) = 0.04188843
#
# Stress axis : x y z
#
# Youngs Moduli (GPa) = 125.01975 40.01527 20.15779
#
# Poissons Ratio (x) = 0.22789 0.04202
# Poissons Ratio (y) = 0.71200 0.25349
# Poissons Ratio (z) = 0.26060 0.50320
#
# Static dielectric constant tensor:
#      x y z
#    x 1.651280 0.000000 0.010170 
#    y 0.000000 1.507870 0.000000 
#    z 0.010170 0.000000 1.621270 
# 
# From -- ./inp_files/78423.got.cif
#   From: 2010.05.17/outbox.cif.g08.bks.cpg/sg12_40_cif.got.tgz:78423.got - 2010.06.03 13:09:07.
