data_PCOD9168500
_publ_section_title
;
Structure prediction by ZEFSAII (Michael W. Deem and Ramdas Pophale) SiO2 
 PCOD9168500
Probable space group: C 2/M
;
_chemical_formula_sum "Si O2"
_cell_formula_units_Z 56
_cell_length_a 5.556440
_cell_length_b 18.207684
_cell_length_c 26.260913
_cell_angle_alpha 90.000000
_cell_angle_beta 65.482472
_cell_angle_gamma 90.000000
_cell_volume 2417.260713
_symmetry_space_group_name_H-M "C 2/M"
_symmetry_group_IT_number 12
_symmetry_cell_setting 'monoclinic'
loop_
_space_group_symop_operation_xyz
x,y,z
-x,y,-z
-x,-y,-z
x,-y,z
1/2+x,1/2+y,z
1/2-x,1/2+y,-z
1/2-x,1/2-y,-z
1/2+x,1/2-y,z
loop_
_atom_site_type_symbol
_atom_site_label
_atom_site_fract_x
_atom_site_fract_y
_atom_site_fract_z
Si Si1 0.887585 0.341579 0.094625
Si Si2 0.746124 0.339480 0.390666
Si Si3 0.319052 0.500000 0.151360
Si Si4 0.494470 0.674535 0.218493
Si Si5 0.543811 0.372222 0.940339
Si Si6 0.589420 0.839648 0.739177
Si Si7 0.339250 0.172047 0.565871
Si Si8 0.172837 0.500000 0.851397
O O1 0.691669 0.308853 0.154539
O O2 0.729433 0.336756 0.055596
O O3 0.895286 0.428471 0.109267
O O4 0.195337 0.321447 0.075333
O O5 0.733021 0.251424 0.403261
O O6 0.441921 0.365015 0.421843
O O7 0.840065 0.353448 0.325249
O O8 0.963170 0.367231 0.411968
O O9 0.392512 0.430979 0.108883
O O10 0.513920 0.500000 0.181490
O O11 0.006191 0.500000 0.182584
O O12 0.407525 0.751635 0.250836
O O13 0.217597 0.638795 0.225057
O O14 0.680846 0.633241 0.242856
O O15 0.500000 0.405434 0.000000
O O16 0.500000 0.185802 0.500000
#
# Coordination Sequence:
#
# PCOD9168500 Si02
#       8
#     8   8   4   8   8   8   8   4
#     4  10  19  30  45  64  85 108 128 159 194 240
#     4  10  16  25  36  51  75  98 129 174 200 218
#     4   8  15  26  42  60  84 108 128 148 176 224
#     4  10  18  30  44  62  80  99 133 173 214 237
#     4  10  18  29  43  63  84 106 128 152 189 240
#     4  10  19  30  45  62  76 101 140 187 212 226
#     4  10  16  22  33  51  75 105 132 158 188 234
#     4   8  16  28  41  62  88 108 128 148 185 234
#
# _framework density 23.166719000000001
#
# number of rings (size 3 to 8) (size 9 to 14) (size 15 to 20)
#    0.000    2.286    0.000    7.929    0.000    0.000 
#    0.000    4.286    0.000    0.000    0.000   40.000 
#    0.000    0.000    0.000    0.000    0.000    0.000 
#
# Total GULP energy -156194.959963 kJ/mol
# GULP energy per Si atom -5578.391427 kJ/mol
# Density = 2.311399 g / cm^3
# Si number density = 23.166719 Si / 1000 Ang^3
#
#
#
# Elastic Constant Matrix: (Units=GPa)
#
#
# Indices 1 2 3 4 5 6 
#
# 1 257.9804 1.6369 8.5188 0.0000 6.5603 0.0000
# 2 1.6369 50.2599 -10.2570 0.0000 -2.7909 0.0000
# 3 8.5188 -10.2570 71.0144 0.0000 5.8362 0.0000
# 4 0.0000 0.0000 0.0000 -1.4470 0.0000 -11.4296
# 5 6.5603 -2.7909 5.8362 0.0000 43.1271 0.0000
# 6 0.0000 0.0000 0.0000 -11.4296 0.0000 -0.5320
#
#
#
# Elastic Compliance Matrix: (Units=1/GPa)
#
#
# Indices 1 2 3 4 5 6 
#
# 1 0.003907 -0.000252 -0.000460 0.000000 -0.000548 0.000000
# 2 -0.000252 0.020555 0.002919 0.000000 0.000973 0.000000
# 3 -0.000460 0.002919 0.014701 0.000000 -0.001731 0.000000
# 4 0.000000 0.000000 0.000000 0.004097 0.000000 -0.088011
# 5 -0.000548 0.000973 -0.001731 0.000000 0.023568 0.000000
# 6 0.000000 0.000000 0.000000 -0.088011 0.000000 0.011143
#
#
# Mechanical properties :
#
#
# Convention : Reuss Voigt Hill
#
# Bulk Modulus (GPa) = 22.94784 42.11691 32.53238
# Shear Modulus (GPa) = 56.76649 33.52001 45.14325
#
# Velocity S-wave (km/s) = 4.95547 3.80795 4.41911
# Velocity P-wave (km/s) = 6.53217 6.12808 6.33335
#
# Compressibility (1/GPa) = 0.04357708
#
# Stress axis : x y z
#
# Youngs Moduli (GPa) = 255.95143 48.65108 68.02424
#
# Poissons Ratio (x) = 0.01224 0.03129
# Poissons Ratio (y) = 0.06439 -0.19856
# Poissons Ratio (z) = 0.11772 -0.14201
#
# Static dielectric constant tensor:
#      x y z
#    x 2.026870 0.000000 -0.009760 
#    y 0.000000 2.593350 0.000000 
#    z -0.009760 0.000000 1.810480 
# 
# From -- ./inp_files/331523.got.cif
#   From: 2010.05.17/outbox.cif.g08.bks.cpg/sg12_166_cif.got.tgz:331523.got - 2010.06.03 13:09:07.
