data_PCOD9168710
_publ_section_title
;
Structure prediction by ZEFSAII (Michael W. Deem and Ramdas Pophale) SiO2 
 PCOD9168710
Probable space group: C 2/M
;
_chemical_formula_sum "Si O2"
_cell_formula_units_Z 56
_cell_length_a 17.416789
_cell_length_b 16.410980
_cell_length_c 7.394673
_cell_angle_alpha 90.000000
_cell_angle_beta 89.522333
_cell_angle_gamma 90.000000
_cell_volume 2113.520613
_symmetry_space_group_name_H-M "C 2/M"
_symmetry_group_IT_number 12
_symmetry_cell_setting 'monoclinic'
loop_
_space_group_symop_operation_xyz
x,y,z
-x,y,-z
-x,-y,-z
x,-y,z
1/2+x,1/2+y,z
1/2-x,1/2+y,-z
1/2-x,1/2-y,-z
1/2+x,1/2-y,z
loop_
_atom_site_type_symbol
_atom_site_label
_atom_site_fract_x
_atom_site_fract_y
_atom_site_fract_z
Si Si1 0.832902 0.829319 0.402689
Si Si2 0.697058 0.085272 0.262288
Si Si3 0.410955 0.263822 0.978133
Si Si4 0.349602 0.592095 0.796309
Si Si5 0.584923 0.183194 0.422798
Si Si6 0.411731 0.910580 0.075579
Si Si7 0.976780 0.907499 0.304125
O O1 0.754783 0.841954 0.299306
O O2 0.828874 0.883508 0.589397
O O3 0.859068 0.742473 0.470046
O O4 0.901216 0.857371 0.264703
O O5 0.627103 0.097359 0.402851
O O6 0.655995 0.083088 0.071205
O O7 0.739292 0.000000 0.290463
O O8 0.343588 0.330276 0.930089
O O9 0.418057 0.220546 0.778566
O O10 0.400355 0.186817 0.117110
O O11 0.500000 0.292950 0.000000
O O12 0.320971 0.500000 0.840964
O O13 0.442990 0.586028 0.797042
O O14 0.500000 0.177148 0.500000
O O15 0.406301 0.000000 0.175586
O O16 0.500000 0.911575 0.000000
O O17 0.000000 0.872378 0.500000
O O18 0.949397 0.000000 0.329735
#
# Coordination Sequence:
#
# PCOD9168710 Si02
#       7
#     8   8   8   8   8   8   8
#     4  10  16  27  45  70 100 128 161 203 248 290
#     4  10  19  29  46  74 101 125 159 207 257 299
#     4   9  17  29  46  68  91 120 163 207 241 281
#     4   9  16  25  40  66 100 135 162 190 239 298
#     4  10  20  33  49  71 101 134 166 203 248 296
#     4   8  15  29  46  64  87 116 154 201 248 287
#     4   8  13  22  38  61  92 129 160 186 226 281
#
# _framework density 26.496072999999999
#
# number of rings (size 3 to 8) (size 9 to 14) (size 15 to 20)
#    0.000    2.857    0.000    4.714    0.000    0.571 
#    0.000    0.000    0.000    0.000    0.000   85.000 
#    0.000   13.714    0.000    0.000    0.000    0.000 
#
# Total GULP energy -155959.185846 kJ/mol
# GULP energy per Si atom -5569.970923 kJ/mol
# Density = 2.643577 g / cm^3
# Si number density = 26.496073 Si / 1000 Ang^3
#
#
#
# Elastic Constant Matrix: (Units=GPa)
#
#
# Indices 1 2 3 4 5 6 
#
# 1 82.6198 -0.5927 20.1526 0.0000 14.7832 0.0000
# 2 -0.5927 86.9795 19.5586 0.0000 -0.3624 0.0000
# 3 20.1526 19.5586 70.3818 0.0000 16.5595 0.0000
# 4 0.0000 0.0000 0.0000 -34.1911 0.0000 -18.7120
# 5 14.7832 -0.3624 16.5595 0.0000 35.5433 0.0000
# 6 0.0000 0.0000 0.0000 -18.7120 0.0000 -1.1805
#
#
#
# Elastic Compliance Matrix: (Units=1/GPa)
#
#
# Indices 1 2 3 4 5 6 
#
# 1 0.013624 0.000779 -0.003129 0.000000 -0.004201 0.000000
# 2 0.000779 0.012426 -0.004077 0.000000 0.001702 0.000000
# 3 -0.003129 -0.004077 0.017903 0.000000 -0.007081 0.000000
# 4 0.000000 0.000000 0.000000 0.003811 0.000000 -0.060405
# 5 -0.004201 0.001702 -0.007081 0.000000 0.033198 0.000000
# 6 0.000000 0.000000 0.000000 -0.060405 0.000000 0.110374
#
#
# Mechanical properties :
#
#
# Convention : Reuss Voigt Hill
#
# Bulk Modulus (GPa) = 32.15461 35.35755 33.75608
# Shear Modulus (GPa) = 23.30389 13.42519 18.36454
#
# Velocity S-wave (km/s) = 2.96889 2.25341 2.63554
# Velocity P-wave (km/s) = 4.89023 4.48820 4.69352
#
# Compressibility (1/GPa) = 0.03109974
#
# Stress axis : x y z
#
# Youngs Moduli (GPa) = 73.39925 80.47619 55.85632
#
# Poissons Ratio (x) = -0.06269 0.17478
# Poissons Ratio (y) = -0.05718 0.22770
# Poissons Ratio (z) = 0.22968 0.32807
#
# Static dielectric constant tensor:
#      x y z
#    x 2.011520 0.000000 -0.020990 
#    y 0.000000 2.248670 0.000000 
#    z -0.020990 0.000000 2.237490 
# 
# From -- ./inp_files/157350.got.cif
#   From: 2010.05.17/outbox.cif.g08.bks.cpg/sg12_79_cif.got.tgz:157350.got - 2010.06.03 13:09:07.
