data_PCOD9168923
_publ_section_title
;
Structure prediction by ZEFSAII (Michael W. Deem and Ramdas Pophale) SiO2 
 PCOD9168923
Probable space group: C 2/M
;
_chemical_formula_sum "Si O2"
_cell_formula_units_Z 56
_cell_length_a 13.525553
_cell_length_b 29.191869
_cell_length_c 11.189414
_cell_angle_alpha 90.000000
_cell_angle_beta 139.995213
_cell_angle_gamma 90.000000
_cell_volume 2840.109015
_symmetry_space_group_name_H-M "C 2/M"
_symmetry_group_IT_number 12
_symmetry_cell_setting 'monoclinic'
loop_
_space_group_symop_operation_xyz
x,y,z
-x,y,-z
-x,-y,-z
x,-y,z
1/2+x,1/2+y,z
1/2-x,1/2+y,-z
1/2-x,1/2-y,-z
1/2+x,1/2-y,z
loop_
_atom_site_type_symbol
_atom_site_label
_atom_site_fract_x
_atom_site_fract_y
_atom_site_fract_z
Si Si1 0.595330 0.332517 0.250472
Si Si2 0.543864 0.220953 0.675783
Si Si3 0.242281 0.305421 0.143315
Si Si4 0.395989 0.774846 0.756581
Si Si5 0.900286 0.946104 0.033932
Si Si6 0.239658 0.137363 0.161449
Si Si7 0.531472 0.613803 0.670378
O O1 0.600287 0.279339 0.222397
O O2 0.722416 0.357616 0.287697
O O3 0.590680 0.350848 0.381521
O O4 0.426402 0.347734 0.045179
O O5 0.500000 0.227530 0.500000
O O6 0.644372 0.265938 0.802023
O O7 0.389647 0.217357 0.610201
O O8 0.640681 0.174433 0.773027
O O9 0.312169 0.355282 0.185285
O O10 0.226268 0.296717 0.269942
O O11 0.067878 0.294830 0.941560
O O12 0.961145 0.926351 0.220254
O O13 0.876177 0.000000 0.023183
O O14 0.749784 0.915032 0.868551
O O15 0.000000 0.939827 0.000000
O O16 0.500000 0.602486 0.500000
#
# Coordination Sequence:
#
# PCOD9168923 Si02
#       7
#     8   8   8   8   8   8   8
#     4  10  16  30  53  73 101 148 188 213 262 298
#     4  12  23  30  46  77 110 145 181 215 257 313
#     4  11  21  34  51  73 108 153 194 214 255 311
#     4  11  20  33  50  71 103 157 195 224 236 298
#     4  10  20  37  63  87  99 128 185 230 272 336
#     4  10  17  34  52  76 102 136 176 225 266 305
#     4  11  22  34  51  82 120 148 165 217 286 332
#
# _framework density 19.717552000000001
#
# number of rings (size 3 to 8) (size 9 to 14) (size 15 to 20)
#    0.000    1.286    7.143    3.429    0.000    2.000 
#    0.000    0.000    0.000    0.429    0.000    8.000 
#    0.000    0.000    0.000    0.000    0.000    0.000 
#
# Total GULP energy -155997.556748 kJ/mol
# GULP energy per Si atom -5571.341312 kJ/mol
# Density = 1.967267 g / cm^3
# Si number density = 19.717552 Si / 1000 Ang^3
#
#
#
# Elastic Constant Matrix: (Units=GPa)
#
#
# Indices 1 2 3 4 5 6 
#
# 1 128.4154 33.4862 14.7782 0.0000 -32.1911 0.0000
# 2 33.4862 131.7448 34.5367 0.0000 -2.5727 0.0000
# 3 14.7782 34.5367 62.6182 0.0000 -21.4030 0.0000
# 4 0.0000 0.0000 0.0000 18.0629 0.0000 -6.5368
# 5 -32.1911 -2.5727 -21.4030 0.0000 37.8927 0.0000
# 6 0.0000 0.0000 0.0000 -6.5368 0.0000 27.5440
#
#
#
# Elastic Compliance Matrix: (Units=1/GPa)
#
#
# Indices 1 2 3 4 5 6 
#
# 1 0.011036 -0.003367 0.002948 0.000000 0.010812 0.000000
# 2 -0.003367 0.010126 -0.006856 0.000000 -0.006045 0.000000
# 3 0.002948 -0.006856 0.024478 0.000000 0.015865 0.000000
# 4 0.000000 0.000000 0.000000 0.060563 0.000000 0.014373
# 5 0.010812 -0.006045 0.015865 0.000000 0.044126 0.000000
# 6 0.000000 0.000000 0.000000 0.014373 0.000000 0.039716
#
#
# Mechanical properties :
#
#
# Convention : Reuss Voigt Hill
#
# Bulk Modulus (GPa) = 32.16505 54.26452 43.21478
# Shear Modulus (GPa) = 23.26012 32.69842 27.97927
#
# Velocity S-wave (km/s) = 3.43835 4.07669 3.77105
# Velocity P-wave (km/s) = 5.66669 7.05265 6.39731
#
# Compressibility (1/GPa) = 0.03108965
#
# Stress axis : x y z
#
# Youngs Moduli (GPa) = 90.60987 98.76017 40.85235
#
# Poissons Ratio (x) = 0.33251 -0.12043
# Poissons Ratio (y) = 0.30507 0.28010
# Poissons Ratio (z) = -0.26711 0.67714
#
# Static dielectric constant tensor:
#      x y z
#    x 1.804140 0.000000 -0.108350 
#    y 0.000000 1.713940 0.000000 
#    z -0.108350 0.000000 1.875740 
# 
# From -- ./inp_files/150130.got.cif
#   From: 2010.05.17/outbox.cif.g08.bks.cpg/sg12_76_cif.got.tgz:150130.got - 2010.06.03 13:09:07.
