data_PCOD9168681
_publ_section_title
;
Structure prediction by ZEFSAII (Michael W. Deem and Ramdas Pophale) SiO2 
 PCOD9168681
Probable space group: C 2/M
;
_chemical_formula_sum "Si O2"
_cell_formula_units_Z 64
_cell_length_a 22.512296
_cell_length_b 13.190232
_cell_length_c 28.480526
_cell_angle_alpha 90.000000
_cell_angle_beta 153.946346
_cell_angle_gamma 90.000000
_cell_volume 3714.454485
_symmetry_space_group_name_H-M "C 2/M"
_symmetry_group_IT_number 12
_symmetry_cell_setting 'monoclinic'
loop_
_space_group_symop_operation_xyz
x,y,z
-x,y,-z
-x,-y,-z
x,-y,z
1/2+x,1/2+y,z
1/2-x,1/2+y,-z
1/2-x,1/2-y,-z
1/2+x,1/2-y,z
loop_
_atom_site_type_symbol
_atom_site_label
_atom_site_fract_x
_atom_site_fract_y
_atom_site_fract_z
Si Si1 0.995723 0.121534 0.717904
Si Si2 0.023869 0.881142 0.405569
Si Si3 0.444152 0.878167 0.805449
Si Si4 0.837452 0.616660 0.383209
Si Si5 0.719843 0.250661 0.384233
Si Si6 0.841531 0.610688 0.894759
Si Si7 0.271906 0.882159 0.954372
Si Si8 0.266097 0.293839 0.267259
O O1 0.026387 0.134827 0.684089
O O2 0.863954 0.184757 0.637732
O O3 0.118255 0.156659 0.839481
O O4 0.977996 0.000000 0.711991
O O5 0.156767 0.813885 0.507527
O O6 0.911419 0.848273 0.364016
O O7 0.054596 0.000000 0.432739
O O8 0.379986 0.824987 0.714641
O O9 0.341989 0.850154 0.775826
O O10 0.447051 0.000000 0.803530
O O11 0.598420 0.840883 0.925308
O O12 0.794474 0.500000 0.350257
O O13 0.779061 0.671545 0.387699
O O14 0.788213 0.683551 0.304429
O O15 0.000000 0.620307 0.500000
O O16 0.782870 0.500000 0.837649
O O17 0.817149 0.620401 0.932209
O O18 0.789993 0.699412 0.825120
O O19 0.000000 0.605263 0.000000
O O20 0.259089 0.000000 0.959732
#
# Coordination Sequence:
#
# PCOD9168681 Si02
#       8
#     8   8   8   8   8   8   8   8
#     4  10  21  36  55  75 100 136 180 223 253 295
#     4  11  21  34  53  81 112 134 162 213 269 321
#     4  10  20  32  51  80 113 139 164 207 262 321
#     4  10  21  38  54  71  99 136 183 224 252 296
#     4  11  22  36  52  75 102 143 180 210 257 311
#     4  10  16  26  49  81 114 138 162 205 261 324
#     4   9  17  30  49  78 106 134 170 210 258 304
#     4  11  19  31  54  84 107 137 170 206 267 321
#
# _framework density 17.229986
#
# number of rings (size 3 to 8) (size 9 to 14) (size 15 to 20)
#    0.000    1.750    3.750    2.250    0.000    0.500 
#    0.000    1.875    0.000    1.125    0.000    0.875 
#    0.000    0.000    0.000    0.000    0.000    0.000 
#
# Total GULP energy -178282.586512 kJ/mol
# GULP energy per Si atom -5571.330829 kJ/mol
# Density = 1.719077 g / cm^3
# Si number density = 17.229986 Si / 1000 Ang^3
#
#
#
# Elastic Constant Matrix: (Units=GPa)
#
#
# Indices 1 2 3 4 5 6 
#
# 1 36.5900 23.1683 10.1920 -0.0010 7.0624 -0.0003
# 2 23.1683 94.2277 42.0869 -0.0056 -1.1417 -0.0006
# 3 10.1920 42.0869 99.5231 -0.0046 2.9118 -0.0008
# 4 -0.0010 -0.0056 -0.0046 17.8398 -0.0009 -1.0878
# 5 7.0624 -1.1417 2.9118 -0.0009 27.0785 0.0000
# 6 -0.0003 -0.0006 -0.0008 -1.0878 0.0000 19.4412
#
#
#
# Elastic Compliance Matrix: (Units=1/GPa)
#
#
# Indices 1 2 3 4 5 6 
#
# 1 0.034618 -0.008835 0.000468 -0.000001 -0.009452 0.000000
# 2 -0.008835 0.015375 -0.005701 0.000003 0.003566 0.000000
# 3 0.000468 -0.005701 0.012461 0.000001 -0.001702 0.000000
# 4 -0.000001 0.000003 0.000001 0.056246 0.000002 0.003147
# 5 -0.009452 0.003566 -0.001702 0.000002 0.039728 0.000000
# 6 0.000000 0.000000 0.000000 0.003147 0.000000 0.051613
#
#
# Mechanical properties :
#
#
# Convention : Reuss Voigt Hill
#
# Bulk Modulus (GPa) = 29.14088 42.35948 35.75018
# Shear Modulus (GPa) = 20.03064 23.19815 21.61439
#
# Velocity S-wave (km/s) = 3.41331 3.67329 3.54568
# Velocity P-wave (km/s) = 5.69946 6.52908 6.12832
#
# Compressibility (1/GPa) = 0.03431605
#
# Stress axis : x y z
#
# Youngs Moduli (GPa) = 28.88651 65.04232 80.25158
#
# Poissons Ratio (x) = 0.57466 -0.03752
# Poissons Ratio (y) = 0.25522 0.45753
# Poissons Ratio (z) = -0.01351 0.37082
#
# Static dielectric constant tensor:
#      x y z
#    x 1.580730 0.000000 0.019630 
#    y 0.000000 1.562140 0.000000 
#    z 0.019630 0.000000 1.639010 
# 
# From -- ./inp_files/366044.got.cif
#   From: 2010.05.17/outbox.cif.g08.bks.cpg/sg12_184_cif.got.tgz:366044.got - 2010.06.03 13:09:07.
