data_PCOD9168857
_publ_section_title
;
Structure prediction by ZEFSAII (Michael W. Deem and Ramdas Pophale) SiO2 
 PCOD9168857
Probable space group: C 2/M
;
_chemical_formula_sum "Si O2"
_cell_formula_units_Z 36
_cell_length_a 20.261939
_cell_length_b 20.472156
_cell_length_c 5.287843
_cell_angle_alpha 90.000000
_cell_angle_beta 95.977105
_cell_angle_gamma 90.000000
_cell_volume 2181.502383
_symmetry_space_group_name_H-M "C 2/M"
_symmetry_group_IT_number 12
_symmetry_cell_setting 'monoclinic'
loop_
_space_group_symop_operation_xyz
x,y,z
-x,y,-z
-x,-y,-z
x,-y,z
1/2+x,1/2+y,z
1/2-x,1/2+y,-z
1/2-x,1/2-y,-z
1/2+x,1/2-y,z
loop_
_atom_site_type_symbol
_atom_site_label
_atom_site_fract_x
_atom_site_fract_y
_atom_site_fract_z
Si Si1 0.386280 0.133414 0.548947
Si Si2 0.260722 0.328952 0.532805
Si Si3 0.689666 0.696730 0.947532
Si Si4 0.426213 0.206930 0.068024
Si Si5 0.045604 0.500000 0.272908
O O1 0.309336 0.137382 0.441358
O O2 0.425721 0.157787 0.311586
O O3 0.410752 0.064801 0.670673
O O4 0.392836 0.179582 0.797766
O O5 0.250000 0.250000 0.500000
O O6 0.290245 0.348610 0.276240
O O7 0.309983 0.338498 0.784266
O O8 0.621312 0.734024 0.867711
O O9 0.750000 0.750000 0.000000
O O10 0.500000 0.222433 0.000000
O O11 0.000000 0.500000 0.500000
O O12 0.000000 0.500000 0.000000
#
# Coordination Sequence:
#
# PCOD9168857 Si02
#       5
#     8   8   8   8   4
#     4  12  21  35  50  64  92 130 172 205 232 273
#     4  10  16  30  51  69  83 113 159 199 252 288
#     4  10  16  30  46  68  91 111 152 193 251 298
#     4  12  21  30  48  71  93 124 161 198 242 294
#     4  12  26  40  46  64 100 142 179 206 229 270
#
# _framework density 16.502389000000001
#
# number of rings (size 3 to 8) (size 9 to 14) (size 15 to 20)
#    0.000    0.889    8.889    4.000    0.000    0.000 
#    0.000    0.000    0.000    0.000    0.000    0.000 
#    0.000    0.000    0.000    6.000    0.000    0.000 
#
# Total GULP energy -100206.309788 kJ/mol
# GULP energy per Si atom -5567.017210 kJ/mol
# Density = 1.646483 g / cm^3
# Si number density = 16.502389 Si / 1000 Ang^3
#
#
#
# Elastic Constant Matrix: (Units=GPa)
#
#
# Indices 1 2 3 4 5 6 
#
# 1 89.8427 33.6490 15.9478 0.0000 -5.5397 0.0000
# 2 33.6490 26.9585 8.5579 0.0000 7.0331 0.0000
# 3 15.9478 8.5579 127.5143 0.0000 -8.7001 0.0000
# 4 0.0000 0.0000 0.0000 15.7784 0.0000 4.9175
# 5 -5.5397 7.0331 -8.7001 0.0000 30.8573 0.0000
# 6 0.0000 0.0000 0.0000 4.9175 0.0000 19.4961
#
#
#
# Elastic Compliance Matrix: (Units=1/GPa)
#
#
# Indices 1 2 3 4 5 6 
#
# 1 0.024523 -0.033776 0.000026 0.000000 0.012108 0.000000
# 2 -0.033776 0.087392 -0.003481 0.000000 -0.026964 0.000000
# 3 0.000026 -0.003481 0.008286 0.000000 0.003134 0.000000
# 4 0.000000 0.000000 0.000000 0.068785 0.000000 -0.017350
# 5 0.012108 -0.026964 0.003134 0.000000 0.041610 0.000000
# 6 0.000000 0.000000 0.000000 -0.017350 0.000000 0.055668
#
#
# Mechanical properties :
#
#
# Convention : Reuss Voigt Hill
#
# Bulk Modulus (GPa) = 21.86275 40.06944 30.96609
# Shear Modulus (GPa) = 13.29887 25.63707 19.46797
#
# Velocity S-wave (km/s) = 2.84187 3.94577 3.43841
# Velocity P-wave (km/s) = 4.90360 6.71509 5.87953
#
# Compressibility (1/GPa) = 0.04573990
#
# Stress axis : x y z
#
# Youngs Moduli (GPa) = 40.77869 11.44276 120.67882
#
# Poissons Ratio (x) = 0.38649 -0.00313
# Poissons Ratio (y) = 1.37733 0.42004
# Poissons Ratio (z) = -0.00106 0.03983
#
# Static dielectric constant tensor:
#      x y z
#    x 1.444610 0.000000 0.120780 
#    y 0.000000 1.572810 0.000000 
#    z 0.120780 0.000000 1.213940 
# 
# From -- ./inp_files/15574.got.cif
#   From: 2010.05.17/outbox.cif.g08.bks.cpg/sg12_8_cif.got.tgz:15574.got - 2010.06.03 13:09:07.
