data_PCOD9168342
_publ_section_title
;
Structure prediction by ZEFSAII (Michael W. Deem and Ramdas Pophale) SiO2 
 PCOD9168342
Probable space group: C 2/M
;
_chemical_formula_sum "Si O2"
_cell_formula_units_Z 48
_cell_length_a 18.049900
_cell_length_b 18.678048
_cell_length_c 7.264084
_cell_angle_alpha 90.000000
_cell_angle_beta 56.584829
_cell_angle_gamma 90.000000
_cell_volume 2044.177663
_symmetry_space_group_name_H-M "C 2/M"
_symmetry_group_IT_number 12
_symmetry_cell_setting 'monoclinic'
loop_
_space_group_symop_operation_xyz
x,y,z
-x,y,-z
-x,-y,-z
x,-y,z
1/2+x,1/2+y,z
1/2-x,1/2+y,-z
1/2-x,1/2-y,-z
1/2+x,1/2-y,z
loop_
_atom_site_type_symbol
_atom_site_label
_atom_site_fract_x
_atom_site_fract_y
_atom_site_fract_z
Si Si1 0.158527 0.725188 0.240316
Si Si2 0.784249 0.579209 0.720326
Si Si3 0.101256 0.134963 0.912261
Si Si4 0.595208 0.799698 0.938499
Si Si5 0.098245 0.126109 0.354828
Si Si6 0.277721 0.075703 0.180634
O O1 0.172420 0.658165 0.356103
O O2 0.093078 0.705181 0.163905
O O3 0.116975 0.793405 0.398040
O O4 0.250000 0.750000 0.000000
O O5 0.820483 0.500000 0.621128
O O6 0.688212 0.587731 0.752371
O O7 0.783141 0.578298 0.948461
O O8 0.112253 0.218776 0.844687
O O9 0.109365 0.133452 0.121704
O O10 0.000000 0.113072 0.000000
O O11 0.500000 0.824069 0.000000
O O12 0.671870 0.857604 0.800987
O O13 0.172622 0.080312 0.349987
O O14 0.000000 0.098253 0.500000
O O15 0.314999 0.000000 0.190968
#
# Coordination Sequence:
#
# PCOD9168342 Si02
#       6
#     8   8   8   8   8   8
#     4  10  14  30  47  65  90 126 157 198 229 277
#     4   9  15  25  45  68  86 116 160 197 232 270
#     4   9  16  28  45  67  94 120 152 198 237 276
#     4   9  15  25  45  67  87 118 158 196 230 269
#     4  10  18  29  48  73  94 122 159 196 236 287
#     4   9  16  27  42  65  96 123 151 192 235 283
#
# _framework density 23.481323
#
# number of rings (size 3 to 8) (size 9 to 14) (size 15 to 20)
#    0.000    2.667    6.667    0.000    0.000    1.000 
#    0.000    0.000    0.000   16.500    0.000    0.000 
#    0.000    0.000    0.000    0.000    0.000    0.167 
#
# Total GULP energy -133653.067635 kJ/mol
# GULP energy per Si atom -5568.877818 kJ/mol
# Density = 2.342788 g / cm^3
# Si number density = 23.481323 Si / 1000 Ang^3
#
#
#
# Elastic Constant Matrix: (Units=GPa)
#
#
# Indices 1 2 3 4 5 6 
#
# 1 136.6573 27.9881 24.3018 0.0000 -9.7365 0.0000
# 2 27.9881 105.8755 -1.6266 0.0000 -6.1621 0.0000
# 3 24.3018 -1.6266 17.5870 0.0000 2.5475 0.0000
# 4 0.0000 0.0000 0.0000 -4.1072 0.0000 -11.2915
# 5 -9.7365 -6.1621 2.5475 0.0000 39.6203 0.0000
# 6 0.0000 0.0000 0.0000 -11.2915 0.0000 28.1802
#
#
#
# Elastic Compliance Matrix: (Units=1/GPa)
#
#
# Indices 1 2 3 4 5 6 
#
# 1 0.010990 -0.002960 -0.015932 0.000000 0.003265 0.000000
# 2 -0.002960 0.010336 0.004965 0.000000 0.000561 0.000000
# 3 -0.015932 0.004965 0.080540 0.000000 -0.008322 0.000000
# 4 0.000000 0.000000 0.000000 -0.115854 0.000000 -0.046421
# 5 0.003265 0.000561 -0.008322 0.000000 0.026664 0.000000
# 6 0.000000 0.000000 0.000000 -0.046421 0.000000 0.016885
#
#
# Mechanical properties :
#
#
# Convention : Reuss Voigt Hill
#
# Bulk Modulus (GPa) = 13.51146 40.16072 26.83609
# Shear Modulus (GPa) = 60.91135 26.70242 43.80689
#
# Velocity S-wave (km/s) = 5.09869 3.37586 4.32395
# Velocity P-wave (km/s) = 6.35837 5.68645 6.03177
#
# Compressibility (1/GPa) = 0.07401124
#
# Stress axis : x y z
#
# Youngs Moduli (GPa) = 90.99530 96.74541 12.41621
#
# Poissons Ratio (x) = 0.28635 0.19782
# Poissons Ratio (y) = 0.26933 -0.06164
# Poissons Ratio (z) = 1.44975 -0.48031
#
# Static dielectric constant tensor:
#      x y z
#    x 1.862280 0.000000 -0.002370 
#    y 0.000000 1.960830 0.000000 
#    z -0.002370 0.000000 2.072210 
# 
# From -- ./inp_files/158798.got.cif
#   From: 2010.05.17/outbox.cif.g08.bks.cpg/sg12_80_cif.got.tgz:158798.got - 2010.06.03 13:09:07.
