data_PCOD9168063
_publ_section_title
;
Structure prediction by ZEFSAII (Michael W. Deem and Ramdas Pophale) SiO2 
 PCOD9168063
Probable space group: P 21/M
;
_chemical_formula_sum "Si O2"
_cell_formula_units_Z 28
_cell_length_a 15.000000
_cell_length_b 9.000000
_cell_length_c 12.000000
_cell_angle_alpha 90.000000
_cell_angle_beta 120.000000
_cell_angle_gamma 90.000000
_cell_volume 1402.961154
_symmetry_space_group_name_H-M "P 21/M"
_symmetry_group_IT_number 11
_symmetry_cell_setting 'monoclinic'
loop_
_space_group_symop_operation_xyz
x,y,z
-x,1/2+y,-z
-x,-y,-z
x,1/2-y,z
loop_
_atom_site_type_symbol
_atom_site_label
_atom_site_fract_x
_atom_site_fract_y
_atom_site_fract_z
Si Si1 0.306648 0.424232 0.495738
Si Si2 0.038112 0.577581 0.695947
Si Si3 0.520056 0.578755 0.673526
Si Si4 0.268245 0.926247 0.255233
Si Si5 0.150726 0.919018 0.531821
Si Si6 0.210308 0.928677 0.973616
Si Si7 0.422305 0.079490 0.034882
O O1 0.322906 0.250000 0.499297
O O2 0.413863 0.511341 0.565720
O O3 0.241531 0.483465 0.349295
O O4 0.243692 0.471031 0.565323
O O5 0.003200 0.750000 0.687723
O O6 0.113106 0.575752 0.635264
O O7 0.106418 0.530811 0.843808
O O8 0.944622 0.472258 0.603634
O O9 0.533804 0.750000 0.644479
O O10 0.614657 0.476283 0.696037
O O11 0.524923 0.578641 0.810403
O O12 0.260954 0.750000 0.269190
O O13 0.208993 0.966119 0.104218
O O14 0.181082 0.750000 0.523794
O O15 0.221839 0.750000 0.972111
O O16 0.311411 0.001682 0.981745
O O17 0.406360 0.250000 0.990769
O O18 0.500000 0.000000 0.000000
#
# Coordination Sequence:
#
# PCOD9168063 Si02
#       7
#     4   4   4   4   4   4   4
#     4  12  24  37  56  81 112 147 189 233 276 326
#     4   9  19  38  61  84 112 143 178 224 280 333
#     4  10  21  37  55  78 111 150 188 227 276 325
#     4  10  20  37  58  82 112 146 187 229 275 331
#     4  10  21  37  58  85 114 143 181 227 276 331
#     4   9  19  36  59  82 108 145 183 224 277 331
#     4  10  21  34  51  78 113 147 184 227 268 323
#
# _framework density 19.957787
#
# number of rings (size 3 to 8) (size 9 to 14) (size 15 to 20)
#    0.000    2.000    0.000    3.429    2.000    3.429 
#    0.000    0.714    0.000    0.000    0.000    0.000 
#    0.000    0.000    0.000    0.000    0.000    0.000 
#
# Total GULP energy -156369.872887 kJ/mol
# GULP energy per Si atom -5584.638317 kJ/mol
# Density = 1.991236 g / cm^3
# Si number density = 19.957787 Si / 1000 Ang^3
#
#
#
# Elastic Constant Matrix: (Units=GPa)
#
#
# Indices 1 2 3 4 5 6 
#
# 1 15.3962 -5.7130 -0.4996 0.0000 -13.4851 0.0000
# 2 -5.7130 50.6486 11.6538 0.0000 -1.9892 0.0000
# 3 -0.4996 11.6538 69.0071 0.0000 19.4824 0.0000
# 4 0.0000 0.0000 0.0000 26.1618 0.0000 -1.5092
# 5 -13.4851 -1.9892 19.4824 0.0000 14.9286 0.0000
# 6 0.0000 0.0000 0.0000 -1.5092 0.0000 27.0932
#
#
#
# Elastic Compliance Matrix: (Units=1/GPa)
#
#
# Indices 1 2 3 4 5 6 
#
# 1 -0.137986 -0.039535 0.067064 0.000000 -0.217433 0.000000
# 2 -0.039535 0.010543 0.012064 0.000000 -0.050051 0.000000
# 3 0.067064 0.012064 -0.007311 0.000000 0.071729 0.000000
# 4 0.000000 0.000000 0.000000 0.038347 0.000000 0.002136
# 5 -0.217433 -0.050051 0.071729 0.000000 -0.229701 0.000000
# 6 0.000000 0.000000 0.000000 0.002136 0.000000 0.037029
#
#
# Mechanical properties :
#
#
# Convention : Reuss Voigt Hill
#
# Bulk Modulus (GPa) = -17.99616 16.21494 -0.89061
# Shear Modulus (GPa) = -12.92693 22.27744 4.67525
#
# Velocity S-wave (km/s) = -2.54778 3.34462 1.53221
# Velocity P-wave (km/s) = 4.20614 4.80183 1.63798
#
# Compressibility (1/GPa) = -0.05556740
#
# Stress axis : x y z
#
# Youngs Moduli (GPa) = -7.24711 94.85062 -136.77204
#
# Poissons Ratio (x) = 3.74991 9.17254
# Poissons Ratio (y) = -0.28651 1.65003
# Poissons Ratio (z) = 0.48602 -1.14428
#
# Static dielectric constant tensor:
#      x y z
#    x 1.708920 0.000000 -0.032550 
#    y 0.000000 1.658280 0.000000 
#    z -0.032550 0.000000 1.726350 
# 
# From -- ./inp_files/37648.got.cif
#   From: 2010.05.17/outbox.ucp.g08.bks.cvg/sg11_19_cif.got.tgz:37648.got - 2010.06.11 11:38:39.
