data_PCOD9168424
_publ_section_title
;
Structure prediction by ZEFSAII (Michael W. Deem and Ramdas Pophale) SiO2 
 PCOD9168424
Probable space group: C 2/M
;
_chemical_formula_sum "Si O2"
_cell_formula_units_Z 48
_cell_length_a 15.848312
_cell_length_b 18.406629
_cell_length_c 7.789643
_cell_angle_alpha 90.000000
_cell_angle_beta 64.008260
_cell_angle_gamma 90.000000
_cell_volume 2042.516360
_symmetry_space_group_name_H-M "C 2/M"
_symmetry_group_IT_number 12
_symmetry_cell_setting 'monoclinic'
loop_
_space_group_symop_operation_xyz
x,y,z
-x,y,-z
-x,-y,-z
x,-y,z
1/2+x,1/2+y,z
1/2-x,1/2+y,-z
1/2-x,1/2-y,-z
1/2+x,1/2-y,z
loop_
_atom_site_type_symbol
_atom_site_label
_atom_site_fract_x
_atom_site_fract_y
_atom_site_fract_z
Si Si1 0.108123 0.422907 0.952790
Si Si2 0.862707 0.086949 0.928597
Si Si3 0.057314 0.320228 0.299294
Si Si4 0.766239 0.141983 0.654023
Si Si5 0.745434 0.286129 0.815487
Si Si6 0.536745 0.669592 0.661950
O O1 0.137458 0.500000 0.002487
O O2 0.106382 0.364842 0.105813
O O3 0.174749 0.408783 0.729794
O O4 0.000000 0.425233 0.000000
O O5 0.814628 0.111112 0.788379
O O6 0.970561 0.114795 0.826427
O O7 0.856629 0.000000 0.957217
O O8 0.809840 0.139146 0.112578
O O9 0.145809 0.291987 0.329038
O O10 0.000000 0.360451 0.500000
O O11 0.998689 0.252577 0.271498
O O12 0.715020 0.220025 0.722985
O O13 0.852780 0.150084 0.446068
O O14 0.750000 0.250000 0.000000
O O15 0.500000 0.659939 0.500000
#
# Coordination Sequence:
#
# PCOD9168424 Si02
#       6
#     8   8   8   8   8   8
#     4  11  24  38  51  73 109 146 175 206 250 307
#     4  10  17  24  41  74 107 127 157 207 267 316
#     4  11  18  33  56  77 102 133 172 219 257 298
#     4  10  17  31  51  71  98 139 170 209 255 304
#     4  10  15  27  50  73 100 135 166 208 261 298
#     4   9  16  28  48  77 100 124 160 219 268 297
#
# _framework density 23.500423999999999
#
# number of rings (size 3 to 8) (size 9 to 14) (size 15 to 20)
#    0.000    1.833   10.000    0.500    0.000    4.000 
#    0.000    0.833    0.000    0.000    0.000    0.000 
#    0.000    3.333    0.000    0.000    0.000    0.000 
#
# Total GULP energy -133606.167557 kJ/mol
# GULP energy per Si atom -5566.923648 kJ/mol
# Density = 2.344694 g / cm^3
# Si number density = 23.500424 Si / 1000 Ang^3
#
#
#
# Elastic Constant Matrix: (Units=GPa)
#
#
# Indices 1 2 3 4 5 6 
#
# 1 36.4595 26.1746 43.7825 0.0000 -10.4813 0.0000
# 2 26.1746 175.1238 67.9297 0.0000 -19.9945 0.0000
# 3 43.7825 67.9297 118.8689 0.0000 -47.1410 0.0000
# 4 0.0000 0.0000 0.0000 32.3050 0.0000 -26.2789
# 5 -10.4813 -19.9945 -47.1410 0.0000 47.2892 0.0000
# 6 0.0000 0.0000 0.0000 -26.2789 0.0000 34.2417
#
#
#
# Elastic Compliance Matrix: (Units=1/GPa)
#
#
# Indices 1 2 3 4 5 6 
#
# 1 0.053548 0.000206 -0.024971 0.000000 -0.012938 0.000000
# 2 0.000206 0.007429 -0.005057 0.000000 -0.001854 0.000000
# 3 -0.024971 -0.005057 0.028871 0.000000 0.021108 0.000000
# 4 0.000000 0.000000 0.000000 0.082391 0.000000 0.063231
# 5 -0.012938 -0.001854 0.021108 0.000000 0.038536 0.000000
# 6 0.000000 0.000000 0.000000 0.063231 0.000000 0.077731
#
#
# Mechanical properties :
#
#
# Convention : Reuss Voigt Hill
#
# Bulk Modulus (GPa) = 33.10912 67.35841 50.23377
# Shear Modulus (GPa) = 13.95798 35.60488 24.78143
#
# Velocity S-wave (km/s) = 2.43974 3.89662 3.25084
# Velocity P-wave (km/s) = 4.69636 6.99784 5.95926
#
# Compressibility (1/GPa) = 0.03020316
#
# Stress axis : x y z
#
# Youngs Moduli (GPa) = 18.67496 134.60310 34.63719
#
# Poissons Ratio (x) = -0.02769 0.86494
# Poissons Ratio (y) = -0.00384 0.17515
# Poissons Ratio (z) = 0.46634 0.68063
#
# Static dielectric constant tensor:
#      x y z
#    x 2.104900 0.000000 -0.081970 
#    y 0.000000 1.953790 0.000000 
#    z -0.081970 0.000000 1.993360 
# 
# From -- ./inp_files/157167.got.cif
#   From: 2010.05.17/outbox.cif.g08.bks.cpg/sg12_79_cif.got.tgz:157167.got - 2010.06.03 13:09:07.
