data_PCOD9168172
_publ_section_title
;
Structure prediction by ZEFSAII (Michael W. Deem and Ramdas Pophale) SiO2 
 PCOD9168172
Probable space group: P 21/M
;
_chemical_formula_sum "Si O2"
_cell_formula_units_Z 32
_cell_length_a 12.000000
_cell_length_b 24.000000
_cell_length_c 9.000000
_cell_angle_alpha 90.000000
_cell_angle_beta 140.000000
_cell_angle_gamma 90.000000
_cell_volume 1666.105484
_symmetry_space_group_name_H-M "P 21/M"
_symmetry_group_IT_number 11
_symmetry_cell_setting 'monoclinic'
loop_
_space_group_symop_operation_xyz
x,y,z
-x,1/2+y,-z
-x,-y,-z
x,1/2-y,z
loop_
_atom_site_type_symbol
_atom_site_label
_atom_site_fract_x
_atom_site_fract_y
_atom_site_fract_z
Si Si1 0.480426 0.060650 0.284074
Si Si2 0.691131 0.813124 0.566276
Si Si3 0.863919 0.611822 0.184217
Si Si4 0.349098 0.873448 0.292995
Si Si5 0.346655 0.945949 0.014729
Si Si6 0.972724 0.313972 0.878838
Si Si7 0.271536 0.091188 0.636915
Si Si8 0.175541 0.967488 0.533809
O O1 0.550635 0.076755 0.517792
O O2 0.657832 0.062247 0.370120
O O3 0.397079 0.000954 0.159661
O O4 0.322409 0.101923 0.083018
O O5 0.691802 0.750000 0.506479
O O6 0.498950 0.826649 0.432340
O O7 0.723749 0.861948 0.482001
O O8 0.851041 0.816930 0.843873
O O9 0.821353 0.614842 0.313616
O O10 0.967386 0.662768 0.218913
O O11 0.997123 0.560253 0.301860
O O12 0.294716 0.897885 0.077164
O O13 0.181602 0.850686 0.208265
O O14 0.528853 0.926516 0.126585
O O15 0.211514 0.960594 0.747196
O O16 0.916046 0.250000 0.814880
O O17 0.184327 0.032692 0.502567
#
# Coordination Sequence:
#
# PCOD9168172 Si02
#       8
#     4   4   4   4   4   4   4   4
#     4  11  20  38  57  91 126 156 197 237 295 363
#     4  10  23  42  63  85 116 157 207 256 298 348
#     4  12  22  37  64  88 122 160 198 244 301 361
#     4  11  22  40  63  86 121 159 197 251 297 357
#     4  10  21  37  61  92 127 159 193 240 300 362
#     4  11  25  43  61  85 116 162 210 251 300 353
#     4  10  21  38  62  90 121 159 198 245 303 356
#     4  11  21  38  59  93 128 162 193 238 300 373
#
# _framework density 19.206467
#
# number of rings (size 3 to 8) (size 9 to 14) (size 15 to 20)
#    0.000    1.250    5.000    1.875    1.750    0.500 
#    0.000    1.250    0.000    0.750    0.000    0.000 
#    0.000    0.000    0.000    0.000    0.000    0.000 
#
# Total GULP energy -178546.846316 kJ/mol
# GULP energy per Si atom -5579.588947 kJ/mol
# Density = 1.916275 g / cm^3
# Si number density = 19.206467 Si / 1000 Ang^3
#
#
#
# Elastic Constant Matrix: (Units=GPa)
#
#
# Indices 1 2 3 4 5 6 
#
# 1 81.7194 25.5226 4.6130 0.0000 17.2317 0.0000
# 2 25.5226 68.1319 21.5026 0.0000 -2.4833 0.0000
# 3 4.6130 21.5026 38.5427 0.0000 6.4354 0.0000
# 4 0.0000 0.0000 0.0000 23.7612 0.0000 2.5002
# 5 17.2317 -2.4833 6.4354 0.0000 22.1692 0.0000
# 6 0.0000 0.0000 0.0000 2.5002 0.0000 24.8535
#
#
#
# Elastic Compliance Matrix: (Units=1/GPa)
#
#
# Indices 1 2 3 4 5 6 
#
# 1 0.018442 -0.009389 0.005885 0.000000 -0.017094 0.000000
# 2 -0.009389 0.023166 -0.014138 0.000000 0.013997 0.000000
# 3 0.005885 -0.014138 0.035896 0.000000 -0.016578 0.000000
# 4 0.000000 0.000000 0.000000 0.042536 0.000000 -0.004279
# 5 -0.017094 0.013997 -0.016578 0.000000 0.064775 0.000000
# 6 0.000000 0.000000 0.000000 -0.004279 0.000000 0.040666
#
#
# Mechanical properties :
#
#
# Convention : Reuss Voigt Hill
#
# Bulk Modulus (GPa) = 23.68470 32.40783 28.04627
# Shear Modulus (GPa) = 18.19255 23.27384 20.73319
#
# Velocity S-wave (km/s) = 3.08102 3.48483 3.28912
# Velocity P-wave (km/s) = 5.00153 5.75344 5.39061
#
# Compressibility (1/GPa) = 0.04222135
#
# Stress axis : x y z
#
# Youngs Moduli (GPa) = 54.22505 43.16579 27.85813
#
# Poissons Ratio (x) = 0.40527 -0.16394
# Poissons Ratio (y) = 0.50910 0.39385
# Poissons Ratio (z) = -0.31911 0.61026
#
# Static dielectric constant tensor:
#      x y z
#    x 1.694120 0.000000 -0.013210 
#    y 0.000000 1.666620 0.000000 
#    z -0.013210 0.000000 1.666740 
# 
# From -- ./inp_files/19745.got.cif
#   From: 2010.05.17/outbox.ucp.g08.bks.cvg/sg11_10_cif.got.tgz:19745.got - 2010.06.11 11:38:39.
