data_PCOD9168610
_publ_section_title
;
Structure prediction by ZEFSAII (Michael W. Deem and Ramdas Pophale) SiO2 
 PCOD9168610
Probable space group: C 2/M
;
_chemical_formula_sum "Si O2"
_cell_formula_units_Z 56
_cell_length_a 30.206489
_cell_length_b 8.276158
_cell_length_c 18.052240
_cell_angle_alpha 90.000000
_cell_angle_beta 130.398167
_cell_angle_gamma 90.000000
_cell_volume 3436.874702
_symmetry_space_group_name_H-M "C 2/M"
_symmetry_group_IT_number 12
_symmetry_cell_setting 'monoclinic'
loop_
_space_group_symop_operation_xyz
x,y,z
-x,y,-z
-x,-y,-z
x,-y,z
1/2+x,1/2+y,z
1/2-x,1/2+y,-z
1/2-x,1/2-y,-z
1/2+x,1/2-y,z
loop_
_atom_site_type_symbol
_atom_site_label
_atom_site_fract_x
_atom_site_fract_y
_atom_site_fract_z
Si Si1 0.234165 0.307500 0.868858
Si Si2 0.711798 0.804838 0.389885
Si Si3 0.043202 0.305020 0.867393
Si Si4 0.842906 0.192106 0.084651
Si Si5 0.579616 0.802836 0.228763
Si Si6 0.271579 0.194449 0.757050
Si Si7 0.905861 0.303853 0.921636
O O1 0.234073 0.500000 0.874893
O O2 0.182211 0.240900 0.862856
O O3 0.232819 0.259845 0.781598
O O4 0.294449 0.245563 0.972647
O O5 0.750000 0.750000 0.500000
O O6 0.644316 0.749306 0.321566
O O7 0.737300 0.751842 0.337511
O O8 0.710586 0.000000 0.387155
O O9 0.042840 0.500000 0.868470
O O10 0.093141 0.254234 0.864951
O O11 0.976443 0.250869 0.785093
O O12 0.063688 0.245901 0.970990
O O13 0.843833 0.000000 0.079944
O O14 0.570044 0.754429 0.132347
O O15 0.580997 0.000000 0.231118
O O16 0.338066 0.241063 0.848228
O O17 0.268399 0.000000 0.754885
O O18 0.909199 0.500000 0.926273
#
# Coordination Sequence:
#
# PCOD9168610 Si02
#       7
#     8   8   8   8   8   8   8
#     4  10  19  30  44  63  87 120 160 192 221 261
#     4   9  18  32  49  70  94 119 150 188 229 271
#     4  10  16  25  44  65  87 119 156 187 217 258
#     4  10  20  30  41  60  92 126 155 188 223 261
#     4   8  15  26  42  66  90 115 151 189 220 260
#     4   9  16  28  46  67  91 118 150 189 229 266
#     4   8  13  22  39  63  88 115 148 182 215 255
#
# _framework density 16.293873000000001
#
# number of rings (size 3 to 8) (size 9 to 14) (size 15 to 20)
#    0.000    2.857    1.429    3.000    0.000    3.429 
#    0.000    0.714    0.000    2.571    0.000    1.000 
#    0.000    8.000    0.000    0.000    0.000    0.000 
#
# Total GULP energy -155939.240013 kJ/mol
# GULP energy per Si atom -5569.258572 kJ/mol
# Density = 1.625679 g / cm^3
# Si number density = 16.293873 Si / 1000 Ang^3
#
#
#
# Elastic Constant Matrix: (Units=GPa)
#
#
# Indices 1 2 3 4 5 6 
#
# 1 151.6242 14.4660 57.0842 0.0000 -8.2266 0.0000
# 2 14.4660 7.6790 10.6986 0.0000 1.5215 0.0000
# 3 57.0842 10.6986 78.4752 0.0000 -7.2218 0.0000
# 4 0.0000 0.0000 0.0000 17.0818 0.0000 -3.2736
# 5 -8.2266 1.5215 -7.2218 0.0000 11.9678 0.0000
# 6 0.0000 0.0000 0.0000 -3.2736 0.0000 16.3742
#
#
#
# Elastic Compliance Matrix: (Units=1/GPa)
#
#
# Indices 1 2 3 4 5 6 
#
# 1 0.010020 -0.012988 -0.005010 0.000000 0.005516 0.000000
# 2 -0.012988 0.193366 -0.021174 0.000000 -0.046289 0.000000
# 3 -0.005010 -0.021174 0.020334 0.000000 0.011518 0.000000
# 4 0.000000 0.000000 0.000000 0.060874 0.000000 0.012170
# 5 0.005516 -0.046289 0.011518 0.000000 0.100185 0.000000
# 6 0.000000 0.000000 0.000000 0.012170 0.000000 0.063505
#
#
# Mechanical properties :
#
#
# Convention : Reuss Voigt Hill
#
# Bulk Modulus (GPa) = 6.87875 44.69733 25.78804
# Shear Modulus (GPa) = 8.69433 19.45337 14.07385
#
# Velocity S-wave (km/s) = 2.31247 3.45904 2.94215
# Velocity P-wave (km/s) = 3.37059 6.59127 5.23478
#
# Compressibility (1/GPa) = 0.14537529
#
# Stress axis : x y z
#
# Youngs Moduli (GPa) = 99.79975 5.17154 49.17835
#
# Poissons Ratio (x) = 0.06717 0.24641
# Poissons Ratio (y) = 1.29625 1.04128
# Poissons Ratio (z) = 0.50004 0.10950
#
# Static dielectric constant tensor:
#      x y z
#    x 1.571650 0.000000 -0.000800 
#    y 0.000000 1.572710 0.000000 
#    z -0.000800 0.000000 1.534580 
# 
# From -- ./inp_files/244297.got.cif
#   From: 2010.05.17/outbox.cif.g08.bks.cpg/sg12_123_cif.got.tgz:244297.got - 2010.06.03 13:09:07.
