data_PCOD9168009
_publ_section_title
;
Structure prediction by ZEFSAII (Michael W. Deem and Ramdas Pophale) SiO2 
 PCOD9168009
Probable space group: P 21/M
;
_chemical_formula_sum "Si O2"
_cell_formula_units_Z 32
_cell_length_a 18.000000
_cell_length_b 15.000000
_cell_length_c 12.000000
_cell_angle_alpha 90.000000
_cell_angle_beta 150.000000
_cell_angle_gamma 90.000000
_cell_volume 1620.000000
_symmetry_space_group_name_H-M "P 21/M"
_symmetry_group_IT_number 11
_symmetry_cell_setting 'monoclinic'
loop_
_space_group_symop_operation_xyz
x,y,z
-x,1/2+y,-z
-x,-y,-z
x,1/2-y,z
loop_
_atom_site_type_symbol
_atom_site_label
_atom_site_fract_x
_atom_site_fract_y
_atom_site_fract_z
Si Si1 0.172658 0.144406 0.123433
Si Si2 0.188122 0.145756 0.491146
Si Si3 0.532606 0.146477 0.871194
Si Si4 0.862463 0.642623 0.318120
Si Si5 0.636065 0.645776 0.841048
Si Si6 0.169013 0.857109 0.598405
Si Si7 0.873697 0.039234 0.687017
Si Si8 0.592223 0.991717 0.456294
O O1 0.165246 0.250000 0.152640
O O2 0.225350 0.149124 0.063894
O O3 0.304551 0.083294 0.347354
O O4 0.017400 0.089265 0.926090
O O5 0.146752 0.250000 0.414009
O O6 0.367843 0.140975 0.712554
O O7 0.149097 0.122289 0.567046
O O8 0.112738 0.068194 0.318381
O O9 0.548151 0.250000 0.851901
O O10 0.518068 0.071962 0.757436
O O11 0.674404 0.128362 0.134232
O O12 0.859724 0.750000 0.304852
O O13 0.022827 0.614834 0.478762
O O14 0.715471 0.614257 0.058780
O O15 0.581297 0.750000 0.778745
O O16 0.514637 0.573023 0.641189
O O17 0.159349 0.750000 0.564964
O O18 0.159364 0.911453 0.472075
O O19 0.721834 0.044634 0.559352
#
# Coordination Sequence:
#
# PCOD9168009 Si02
#       8
#     4   4   4   4   4   4   4   4
#     4  11  23  45  66  83 113 156 199 245 292 347
#     4   9  20  36  55  83 124 161 193 234 290 349
#     4   9  20  37  57  85 120 159 196 238 291 349
#     4   9  18  35  56  83 118 160 196 231 285 346
#     4  10  22  39  61  88 119 153 198 242 289 346
#     4  10  20  35  56  85 120 152 196 244 289 347
#     4  11  23  37  61  90 118 150 200 238 298 345
#     4  11  24  39  61  88 120 151 200 241 296 345
#
# _framework density 19.753086
#
# number of rings (size 3 to 8) (size 9 to 14) (size 15 to 20)
#    0.000    2.000    1.250    1.500    3.500    4.000 
#    0.000    0.625    0.000    0.750    0.000    0.000 
#    0.000    0.000    0.000    0.000    0.000    0.000 
#
# Total GULP energy -178323.742640 kJ/mol
# GULP energy per Si atom -5572.616958 kJ/mol
# Density = 1.970813 g / cm^3
# Si number density = 19.753086 Si / 1000 Ang^3
#
#
#
# Elastic Constant Matrix: (Units=GPa)
#
#
# Indices 1 2 3 4 5 6 
#
# 1 -11.6861 24.2157 -8.3616 0.0000 -11.5371 0.0000
# 2 24.2157 118.5047 58.8705 0.0000 8.4629 0.0000
# 3 -8.3616 58.8705 104.1894 0.0000 -0.1413 0.0000
# 4 0.0000 0.0000 0.0000 41.2093 0.0000 -0.9916
# 5 -11.5371 8.4629 -0.1413 0.0000 18.7085 0.0000
# 6 0.0000 0.0000 0.0000 -0.9916 0.0000 28.6704
#
#
#
# Elastic Compliance Matrix: (Units=1/GPa)
#
#
# Indices 1 2 3 4 5 6 
#
# 1 -0.029519 0.012416 -0.009417 0.000000 -0.023891 0.000000
# 2 0.012416 0.007071 -0.002993 0.000000 0.004435 0.000000
# 3 -0.009417 -0.002993 0.010527 0.000000 -0.004374 0.000000
# 4 0.000000 0.000000 0.000000 0.024287 0.000000 0.000840
# 5 -0.023891 0.004435 -0.004374 0.000000 0.036679 0.000000
# 6 0.000000 0.000000 0.000000 0.000840 0.000000 0.034908
#
#
# Mechanical properties :
#
#
# Convention : Reuss Voigt Hill
#
# Bulk Modulus (GPa) = -83.98075 40.05079 -21.96498
# Shear Modulus (GPa) = 62.52124 26.80321 44.66223
#
# Velocity S-wave (km/s) = 5.63206 3.68763 4.76018
# Velocity P-wave (km/s) = 0.56044 6.20090 4.36675
#
# Compressibility (1/GPa) = -0.01190749
#
# Stress axis : x y z
#
# Youngs Moduli (GPa) = -33.87688 141.41305 94.98973
#
# Poissons Ratio (x) = -1.75582 0.89452
# Poissons Ratio (y) = 0.42062 0.28432
# Poissons Ratio (z) = -0.31902 0.42327
#
# Static dielectric constant tensor:
#      x y z
#    x 1.738930 0.000000 -0.044110 
#    y 0.000000 1.713730 0.000000 
#    z -0.044110 0.000000 1.687660 
# 
# From -- ./inp_files/18077.got.cif
#   From: 2010.05.17/outbox.ucp.g08.bks.cvg/sg11_10_cif.got.tgz:18077.got - 2010.06.11 11:38:39.
