data_PCOD9168175
_publ_section_title
;
Structure prediction by ZEFSAII (Michael W. Deem and Ramdas Pophale) SiO2 
 PCOD9168175
Probable space group: P 21/M
;
_chemical_formula_sum "Si O2"
_cell_formula_units_Z 32
_cell_length_a 9.000000
_cell_length_b 15.000000
_cell_length_c 24.000000
_cell_angle_alpha 90.000000
_cell_angle_beta 150.000000
_cell_angle_gamma 90.000000
_cell_volume 1620.000000
_symmetry_space_group_name_H-M "P 21/M"
_symmetry_group_IT_number 11
_symmetry_cell_setting 'monoclinic'
loop_
_space_group_symop_operation_xyz
x,y,z
-x,1/2+y,-z
-x,-y,-z
x,1/2-y,z
loop_
_atom_site_type_symbol
_atom_site_label
_atom_site_fract_x
_atom_site_fract_y
_atom_site_fract_z
Si Si1 0.800869 0.459580 0.662547
Si Si2 0.861379 0.648419 0.317557
Si Si3 0.738686 0.560056 0.979376
Si Si4 0.912920 0.356630 0.251479
Si Si5 0.222281 0.859075 0.054003
Si Si6 0.785777 0.651747 0.535224
Si Si7 0.155325 0.405376 0.563869
Si Si8 0.854322 0.359692 0.790570
O O1 0.461833 0.426197 0.543572
O O2 0.930719 0.396786 0.754053
O O3 0.977651 0.427398 0.665712
O O4 0.854692 0.564717 0.692573
O O5 0.948176 0.750000 0.330370
O O6 0.509443 0.640962 0.188366
O O7 0.940727 0.632546 0.407806
O O8 0.928543 0.608372 0.991625
O O9 0.918888 0.594627 0.092355
O O10 0.408225 0.602763 0.869183
O O11 0.729879 0.450102 0.969770
O O12 0.943501 0.250000 0.244722
O O13 0.973989 0.357343 0.337991
O O14 0.197230 0.750000 0.028462
O O15 0.641554 0.750000 0.496201
O O16 0.914091 0.649087 0.514708
O O17 0.516938 0.398231 0.687512
O O18 0.000000 0.500000 0.500000
O O19 0.852411 0.250000 0.793790
#
# Coordination Sequence:
#
# PCOD9168175 Si02
#       8
#     4   4   4   4   4   4   4   4
#     4  11  22  40  63  91 123 165 213 265 314 372
#     4  11  20  37  63  96 126 157 210 267 313 368
#     4  11  22  40  65  91 129 171 213 255 320 378
#     4  11  23  39  60  89 126 166 211 259 323 388
#     4  10  21  37  63  94 127 164 212 265 313 368
#     4  10  22  41  63  89 124 166 210 260 317 385
#     4  11  22  35  61  92 126 160 206 258 313 362
#     4  11  23  43  67  93 126 171 217 257 312 386
#
# _framework density 19.753086
#
# number of rings (size 3 to 8) (size 9 to 14) (size 15 to 20)
#    0.000    1.250    2.500    5.250    0.000    1.500 
#    0.000    0.625    0.000    7.500    0.000    0.000 
#    0.000    0.000    0.000    0.000    0.000    0.000 
#
# Total GULP energy -178287.960783 kJ/mol
# GULP energy per Si atom -5571.498774 kJ/mol
# Density = 1.970813 g / cm^3
# Si number density = 19.753086 Si / 1000 Ang^3
#
#
#
# Elastic Constant Matrix: (Units=GPa)
#
#
# Indices 1 2 3 4 5 6 
#
# 1 48.1388 21.7516 14.5156 0.0000 -6.9939 0.0000
# 2 21.7516 196.1743 47.0934 0.0000 -1.5303 0.0000
# 3 14.5156 47.0934 106.0767 0.0000 -21.6701 0.0000
# 4 0.0000 0.0000 0.0000 41.9184 0.0000 1.6654
# 5 -6.9939 -1.5303 -21.6701 0.0000 26.3517 0.0000
# 6 0.0000 0.0000 0.0000 1.6654 0.0000 30.9030
#
#
#
# Elastic Compliance Matrix: (Units=1/GPa)
#
#
# Indices 1 2 3 4 5 6 
#
# 1 0.022844 -0.002227 -0.001112 0.000000 0.005019 0.000000
# 2 -0.002227 0.006022 -0.002906 0.000000 -0.002631 0.000000
# 3 -0.001112 -0.002906 0.012950 0.000000 0.010186 0.000000
# 4 0.000000 0.000000 0.000000 0.023907 0.000000 -0.001288
# 5 0.005019 -0.002631 0.010186 0.000000 0.047504 0.000000
# 6 0.000000 0.000000 0.000000 -0.001288 0.000000 0.032429
#
#
# Mechanical properties :
#
#
# Convention : Reuss Voigt Hill
#
# Bulk Modulus (GPa) = 34.09949 57.45677 45.77813
# Shear Modulus (GPa) = 29.77601 37.63656 33.70628
#
# Velocity S-wave (km/s) = 3.88675 4.36977 4.13532
# Velocity P-wave (km/s) = 6.11905 7.38989 6.78429
#
# Compressibility (1/GPa) = 0.02932595
#
# Stress axis : x y z
#
# Youngs Moduli (GPa) = 43.77518 166.07112 77.21835
#
# Poissons Ratio (x) = 0.36981 0.08587
# Poissons Ratio (y) = 0.09748 0.22440
# Poissons Ratio (z) = 0.04868 0.48261
#
# Static dielectric constant tensor:
#      x y z
#    x 1.778070 0.000000 0.004620 
#    y 0.000000 1.743750 0.000000 
#    z 0.004620 0.000000 1.687150 
# 
# From -- ./inp_files/68154.got.cif
#   From: 2010.05.17/outbox.ucp.g08.bks.cvg/sg11_35_cif.got.tgz:68154.got - 2010.06.11 11:38:39.
