data_PCOD9168646
_publ_section_title
;
Structure prediction by ZEFSAII (Michael W. Deem and Ramdas Pophale) SiO2 
 PCOD9168646
Probable space group: C 2/M
;
_chemical_formula_sum "Si O2"
_cell_formula_units_Z 40
_cell_length_a 8.313286
_cell_length_b 27.626203
_cell_length_c 7.458121
_cell_angle_alpha 90.000000
_cell_angle_beta 95.675884
_cell_angle_gamma 90.000000
_cell_volume 1704.468138
_symmetry_space_group_name_H-M "C 2/M"
_symmetry_group_IT_number 12
_symmetry_cell_setting 'monoclinic'
loop_
_space_group_symop_operation_xyz
x,y,z
-x,y,-z
-x,-y,-z
x,-y,z
1/2+x,1/2+y,z
1/2-x,1/2+y,-z
1/2-x,1/2-y,-z
1/2+x,1/2-y,z
loop_
_atom_site_type_symbol
_atom_site_label
_atom_site_fract_x
_atom_site_fract_y
_atom_site_fract_z
Si Si1 0.353169 0.714367 0.383152
Si Si2 0.469683 0.556060 0.779573
Si Si3 0.818868 0.557603 0.821028
Si Si4 0.981718 0.303527 0.788095
Si Si5 0.639510 0.900659 0.774001
O O1 0.500000 0.687677 0.500000
O O2 0.250000 0.750000 0.500000
O O3 0.206648 0.686457 0.275066
O O4 0.450075 0.751775 0.266537
O O5 0.435992 0.500000 0.736942
O O6 0.644140 0.569077 0.719283
O O7 0.310343 0.584992 0.711553
O O8 0.500000 0.559667 0.000000
O O9 0.818232 0.500000 0.865919
O O10 0.975576 0.569288 0.719998
O O11 0.835166 0.587699 0.009087
O O12 0.094019 0.345816 0.723845
O O13 0.000000 0.305544 0.000000
#
# Coordination Sequence:
#
# PCOD9168646 Si02
#       5
#     8   8   8   8   8
#     4   9  21  42  60  74 106 160 193 225 295 382
#     4   8  14  24  38  61 101 157 189 203 264 351
#     4   9  15  26  42  65 116 164 180 205 291 364
#     4  11  20  36  58  89 114 139 193 253 305 338
#     4  10  16  26  43  76 110 142 179 239 284 332
#
# _framework density 23.467732000000002
#
# number of rings (size 3 to 8) (size 9 to 14) (size 15 to 20)
#    0.000    2.600    2.000    4.200    0.000    0.000 
#    7.200    1.000    0.000    0.000    0.000    0.000 
#    0.000   72.000    0.000    0.000    0.000    0.000 
#
# Total GULP energy -111582.350418 kJ/mol
# GULP energy per Si atom -5579.117521 kJ/mol
# Density = 2.341432 g / cm^3
# Si number density = 23.467732 Si / 1000 Ang^3
#
#
#
# Elastic Constant Matrix: (Units=GPa)
#
#
# Indices 1 2 3 4 5 6 
#
# 1 245.2036 50.4217 41.2988 0.0000 55.4810 0.0000
# 2 50.4217 72.6467 7.5907 0.0000 19.0007 0.0000
# 3 41.2988 7.5907 53.8098 0.0000 11.2087 0.0000
# 4 0.0000 0.0000 0.0000 -26.0167 0.0000 -14.4171
# 5 55.4810 19.0007 11.2087 0.0000 26.7065 0.0000
# 6 0.0000 0.0000 0.0000 -14.4171 0.0000 -13.0573
#
#
#
# Elastic Compliance Matrix: (Units=1/GPa)
#
#
# Indices 1 2 3 4 5 6 
#
# 1 0.008247 -0.001547 -0.003037 0.000000 -0.014757 0.000000
# 2 -0.001547 0.017203 0.000702 0.000000 -0.009321 0.000000
# 3 -0.003037 0.000702 0.021484 0.000000 -0.003206 0.000000
# 4 0.000000 0.000000 0.000000 -0.099028 0.000000 0.109341
# 5 -0.014757 -0.009321 -0.003206 0.000000 0.076078 0.000000
# 6 0.000000 0.000000 0.000000 0.109341 0.000000 -0.197313
#
#
# Mechanical properties :
#
#
# Convention : Reuss Voigt Hill
#
# Bulk Modulus (GPa) = 25.52992 63.36473 44.44732
# Shear Modulus (GPa) = -32.78545 15.68306 -8.55119
#
# Velocity S-wave (km/s) = -3.74176 2.58792 -1.91095
# Velocity P-wave (km/s) = 2.78664 5.99910 3.75658
#
# Compressibility (1/GPa) = 0.03916973
#
# Stress axis : x y z
#
# Youngs Moduli (GPa) = 121.25715 58.12824 46.54632
#
# Poissons Ratio (x) = 0.08991 0.14138
# Poissons Ratio (y) = 0.18756 -0.03267
# Poissons Ratio (z) = 0.36830 -0.04080
#
# Static dielectric constant tensor:
#      x y z
#    x 1.943010 0.000000 0.011210 
#    y 0.000000 0.077130 0.000000 
#    z 0.011210 0.000000 1.927190 
# 
# From -- ./inp_files/39440.got.cif
#   From: 2010.05.17/outbox.cif.g08.bks.cpg/sg12_20_cif.got.tgz:39440.got - 2010.06.03 13:09:07.
