data_PCOD9168011
_publ_section_title
;
Structure prediction by ZEFSAII (Michael W. Deem and Ramdas Pophale) SiO2 
 PCOD9168011
Probable space group: P 21/M
;
_chemical_formula_sum "Si O2"
_cell_formula_units_Z 32
_cell_length_a 21.000000
_cell_length_b 9.000000
_cell_length_c 27.000000
_cell_angle_alpha 90.000000
_cell_angle_beta 160.000000
_cell_angle_gamma 90.000000
_cell_volume 1745.328791
_symmetry_space_group_name_H-M "P 21/M"
_symmetry_group_IT_number 11
_symmetry_cell_setting 'monoclinic'
loop_
_space_group_symop_operation_xyz
x,y,z
-x,1/2+y,-z
-x,-y,-z
x,1/2-y,z
loop_
_atom_site_type_symbol
_atom_site_label
_atom_site_fract_x
_atom_site_fract_y
_atom_site_fract_z
Si Si1 0.889058 0.571562 0.074296
Si Si2 0.878346 0.572426 0.953515
Si Si3 0.808635 0.918859 0.359540
Si Si4 0.553546 0.072156 0.356623
Si Si5 0.270392 0.918925 0.890324
Si Si6 0.511693 0.571442 0.221586
Si Si7 0.076865 0.928680 0.314412
Si Si8 0.371466 0.912456 0.848398
O O1 0.863798 0.750000 0.055436
O O2 0.028989 0.536799 0.221759
O O3 0.937516 0.527902 0.052924
O O4 0.690181 0.495235 0.937935
O O5 0.895883 0.750000 0.963496
O O6 0.659997 0.535436 0.785673
O O7 0.000000 0.500000 0.000000
O O8 0.835908 0.750000 0.392326
O O9 0.657135 0.980304 0.286659
O O10 0.732531 0.946185 0.249451
O O11 0.000000 0.000000 0.500000
O O12 0.559347 0.250000 0.351613
O O13 0.713869 0.038198 0.513769
O O14 0.582512 0.986910 0.326270
O O15 0.301105 0.750000 0.933247
O O16 0.316105 0.906654 0.865340
O O17 0.068970 0.977878 0.759063
O O18 0.416863 0.047932 0.010955
O O19 0.499570 0.750000 0.212852
O O20 0.048183 0.750000 0.299974
O O21 0.321351 0.750000 0.790794
#
# Coordination Sequence:
#
# PCOD9168011 Si02
#       8
#     4   4   4   4   4   4   4   4
#     4   9  19  36  58  83 110 142 180 220 265 323
#     4   9  18  35  58  83 113 147 182 218 259 315
#     4  11  24  37  51  73 103 138 181 232 284 332
#     4   9  20  37  57  83 112 145 183 222 271 329
#     4  10  21  35  53  76 105 138 175 226 279 329
#     4  10  21  36  54  77 106 140 183 231 276 325
#     4  10  20  35  57  82 108 142 183 225 274 328
#     4  10  21  37  53  72 100 137 183 228 278 335
#
# _framework density 18.334654
#
# number of rings (size 3 to 8) (size 9 to 14) (size 15 to 20)
#    0.000    2.250    0.000    3.000    1.750    8.500 
#    0.000    0.625    0.000    0.000    0.000    0.000 
#    0.000    0.000    0.000    0.000    0.000    0.000 
#
# Total GULP energy -178230.267794 kJ/mol
# GULP energy per Si atom -5569.695869 kJ/mol
# Density = 1.829292 g / cm^3
# Si number density = 18.334654 Si / 1000 Ang^3
#
#
#
# Elastic Constant Matrix: (Units=GPa)
#
#
# Indices 1 2 3 4 5 6 
#
# 1 80.7517 43.8296 42.3230 0.0000 -4.0417 0.0000
# 2 43.8296 27.1250 28.7915 0.0000 2.6314 0.0000
# 3 42.3230 28.7915 88.6850 0.0000 -23.7903 0.0000
# 4 0.0000 0.0000 0.0000 23.5194 0.0000 2.7656
# 5 -4.0417 2.6314 -23.7903 0.0000 17.6660 0.0000
# 6 0.0000 0.0000 0.0000 2.7656 0.0000 25.9916
#
#
#
# Elastic Compliance Matrix: (Units=1/GPa)
#
#
# Indices 1 2 3 4 5 6 
#
# 1 -0.097703 0.276025 -0.093949 0.000000 -0.189986 0.000000
# 2 0.276025 -0.658972 0.196445 0.000000 0.425852 0.000000
# 3 -0.093949 0.196445 -0.033315 0.000000 -0.095620 0.000000
# 4 0.000000 0.000000 0.000000 0.043057 0.000000 -0.004581
# 5 -0.189986 0.425852 -0.095620 0.000000 -0.179060 0.000000
# 6 0.000000 0.000000 0.000000 -0.004581 0.000000 0.038961
#
#
# Mechanical properties :
#
#
# Convention : Reuss Voigt Hill
#
# Bulk Modulus (GPa) = -30.34985 47.38330 8.51672
# Shear Modulus (GPa) = -3.02105 18.87660 7.92778
#
# Velocity S-wave (km/s) = -1.28503 3.21215 2.08166
# Velocity P-wave (km/s) = 4.33485 6.29737 3.23001
#
# Compressibility (1/GPa) = -0.03294909
#
# Stress axis : x y z
#
# Youngs Moduli (GPa) = -10.23507 -1.51752 -30.01651
#
# Poissons Ratio (x) = 0.41887 -2.82003
# Poissons Ratio (y) = 2.82514 5.89659
# Poissons Ratio (z) = -0.96158 0.29811
#
# Static dielectric constant tensor:
#      x y z
#    x 1.656460 0.000000 -0.054250 
#    y 0.000000 1.643320 0.000000 
#    z -0.054250 0.000000 1.549040 
# 
# From -- ./inp_files/67204.got.cif
#   From: 2010.05.17/outbox.ucp.g08.bks.cvg/sg11_34_cif.got.tgz:67204.got - 2010.06.11 11:38:39.
