data_PCOD9168648
_publ_section_title
;
Structure prediction by ZEFSAII (Michael W. Deem and Ramdas Pophale) SiO2 
 PCOD9168648
Probable space group: C 2/M
;
_chemical_formula_sum "Si O2"
_cell_formula_units_Z 52
_cell_length_a 24.480751
_cell_length_b 28.337465
_cell_length_c 5.421269
_cell_angle_alpha 90.000000
_cell_angle_beta 125.070956
_cell_angle_gamma 90.000000
_cell_volume 3078.038983
_symmetry_space_group_name_H-M "C 2/M"
_symmetry_group_IT_number 12
_symmetry_cell_setting 'monoclinic'
loop_
_space_group_symop_operation_xyz
x,y,z
-x,y,-z
-x,-y,-z
x,-y,z
1/2+x,1/2+y,z
1/2-x,1/2+y,-z
1/2-x,1/2-y,-z
1/2+x,1/2-y,z
loop_
_atom_site_type_symbol
_atom_site_label
_atom_site_fract_x
_atom_site_fract_y
_atom_site_fract_z
Si Si1 0.430322 0.446750 0.061246
Si Si2 0.500000 0.370883 0.500000
Si Si3 0.377175 0.696757 0.096363
Si Si4 0.724865 0.832429 0.640073
Si Si5 0.156325 0.053757 0.659717
Si Si6 0.161147 0.769008 0.505996
Si Si7 0.743443 0.138744 0.184981
O O1 0.458256 0.500000 0.145193
O O2 0.485721 0.406836 0.239892
O O3 0.382329 0.440868 0.178597
O O4 0.390483 0.442301 0.703916
O O5 0.564820 0.338105 0.666775
O O6 0.369843 0.733647 0.301244
O O7 0.305777 0.670101 0.883602
O O8 0.386744 0.718498 0.848591
O O9 0.699414 0.779042 0.545172
O O10 0.709208 0.863731 0.362072
O O11 0.698569 0.852126 0.830257
O O12 0.210886 0.094055 0.758841
O O13 0.182970 0.000000 0.728753
O O14 0.212079 0.813258 0.664723
#
# Coordination Sequence:
#
# PCOD9168648 Si02
#       7
#     8   4   8   8   8   8   8
#     4  10  21  34  46  58  80 118 160 198 230 263
#     4  12  23  34  46  66  90 116 154 194 239 282
#     4  10  20  29  44  62  85 110 133 176 229 269
#     4  10  18  30  48  66  82 104 140 187 227 265
#     4  10  20  34  48  63  86 118 155 193 234 273
#     4  10  18  32  47  64  83 106 140 186 226 266
#     4  10  16  26  44  66  83 103 134 180 230 263
#
# _framework density 16.893872000000002
#
# number of rings (size 3 to 8) (size 9 to 14) (size 15 to 20)
#    0.000    1.846    0.000    9.462    0.000    2.462 
#    0.000    2.308    0.000    0.000    0.000    0.000 
#    0.000    0.000    0.000    0.000    0.000    0.000 
#
# Total GULP energy -144911.095078 kJ/mol
# GULP energy per Si atom -5573.503657 kJ/mol
# Density = 1.685542 g / cm^3
# Si number density = 16.893872 Si / 1000 Ang^3
#
#
#
# Elastic Constant Matrix: (Units=GPa)
#
#
# Indices 1 2 3 4 5 6 
#
# 1 37.9488 25.2097 29.3923 0.0000 -25.5227 0.0000
# 2 25.2097 81.0593 24.0469 0.0000 2.1063 0.0000
# 3 29.3923 24.0469 80.8837 0.0000 -38.9983 0.0000
# 4 0.0000 0.0000 0.0000 18.9747 0.0000 20.1411
# 5 -25.5227 2.1063 -38.9983 0.0000 40.6744 0.0000
# 6 0.0000 0.0000 0.0000 20.1411 0.0000 -22.9149
#
#
#
# Elastic Compliance Matrix: (Units=1/GPa)
#
#
# Indices 1 2 3 4 5 6 
#
# 1 0.077735 -0.028060 0.008021 0.000000 0.057922 0.000000
# 2 -0.028060 0.025437 -0.012070 0.000000 -0.030497 0.000000
# 3 0.008021 -0.012070 0.029319 0.000000 0.033769 0.000000
# 4 0.000000 0.000000 0.000000 0.027264 0.000000 0.023964
# 5 0.057922 -0.030497 0.033769 0.000000 0.094887 0.000000
# 6 0.000000 0.000000 0.000000 0.023964 0.000000 -0.022576
#
#
# Mechanical properties :
#
#
# Convention : Reuss Voigt Hill
#
# Bulk Modulus (GPa) = 14.64720 39.68773 27.16746
# Shear Modulus (GPa) = 15.67202 15.42970 15.55086
#
# Velocity S-wave (km/s) = 3.04908 3.02542 3.03727
# Velocity P-wave (km/s) = 4.59182 5.97893 5.33068
#
# Compressibility (1/GPa) = 0.06827243
#
# Stress axis : x y z
#
# Youngs Moduli (GPa) = 12.86428 39.31351 34.10807
#
# Poissons Ratio (x) = 1.10315 -0.27360
# Poissons Ratio (y) = 0.36098 0.41168
# Poissons Ratio (z) = -0.10319 0.47450
#
# Static dielectric constant tensor:
#      x y z
#    x 1.645390 0.000000 -0.079820 
#    y 0.000000 1.587340 0.000000 
#    z -0.079820 0.000000 1.636390 
# 
# From -- ./inp_files/17396.got.cif
#   From: 2010.05.17/outbox.cif.g08.bks.cpg/sg12_9_cif.got.tgz:17396.got - 2010.06.03 13:09:07.
