data_PCOD9168629
_publ_section_title
;
Structure prediction by ZEFSAII (Michael W. Deem and Ramdas Pophale) SiO2 
 PCOD9168629
Probable space group: C 2/M
;
_chemical_formula_sum "Si O2"
_cell_formula_units_Z 56
_cell_length_a 15.232261
_cell_length_b 23.349011
_cell_length_c 6.579380
_cell_angle_alpha 90.000000
_cell_angle_beta 109.440801
_cell_angle_gamma 90.000000
_cell_volume 2206.597002
_symmetry_space_group_name_H-M "C 2/M"
_symmetry_group_IT_number 12
_symmetry_cell_setting 'monoclinic'
loop_
_space_group_symop_operation_xyz
x,y,z
-x,y,-z
-x,-y,-z
x,-y,z
1/2+x,1/2+y,z
1/2-x,1/2+y,-z
1/2-x,1/2-y,-z
1/2+x,1/2-y,z
loop_
_atom_site_type_symbol
_atom_site_label
_atom_site_fract_x
_atom_site_fract_y
_atom_site_fract_z
Si Si1 0.332191 0.838423 0.625833
Si Si2 0.920642 0.000000 0.141220
Si Si3 0.420292 0.372741 0.157552
Si Si4 0.391186 0.064258 0.978021
Si Si5 0.849363 0.244233 0.978672
Si Si6 0.870980 0.000000 0.581261
Si Si7 0.859419 0.125815 0.576622
Si Si8 0.030316 0.337117 0.774046
O O1 0.232696 0.837775 0.441713
O O2 0.431154 0.840843 0.585392
O O3 0.337680 0.896049 0.772603
O O4 0.342822 0.781078 0.768439
O O5 0.889819 0.935906 0.058242
O O6 0.898245 0.000000 0.365740
O O7 0.032686 0.000000 0.219935
O O8 0.383605 0.320438 0.996814
O O9 0.532788 0.371060 0.264751
O O10 0.376175 0.364675 0.347137
O O11 0.402910 0.107243 0.178132
O O12 0.351474 0.000000 0.975509
O O13 0.500000 0.055320 0.000000
O O14 0.918577 0.276968 0.188348
O O15 0.750000 0.250000 0.000000
O O16 0.825759 0.939519 0.586498
O O17 0.000000 0.337014 0.000000
#
# Coordination Sequence:
#
# PCOD9168629 Si02
#       8
#     8   4   8   8   8   4   8   8
#     4   9  16  25  37  56  79 103 129 158 187 227
#     4   7  12  24  34  50  78 102 123 152 188 226
#     4   9  16  25  38  55  79 105 127 158 190 226
#     4   7  11  20  33  50  73 102 128 145 169 212
#     4  10  16  26  40  55  71 105 134 159 190 220
#     4   7  12  20  34  52  78 105 127 138 176 233
#     4   9  15  24  36  57  80 105 129 152 183 230
#     4   7  15  26  35  51  79 102 126 157 188 224
#
# _framework density 25.378443999999998
#
# number of rings (size 3 to 8) (size 9 to 14) (size 15 to 20)
#    0.000    4.286    1.429    1.714    1.000    0.000 
#    0.000    0.714    0.000    0.000    0.000    4.500 
#    0.000    0.000    9.714   31.071    0.000    0.000 
#
# Total GULP energy -156074.205291 kJ/mol
# GULP energy per Si atom -5574.078760 kJ/mol
# Density = 2.532068 g / cm^3
# Si number density = 25.378444 Si / 1000 Ang^3
#
#
#
# Elastic Constant Matrix: (Units=GPa)
#
#
# Indices 1 2 3 4 5 6 
#
# 1 81.3678 25.0838 21.8341 0.0000 30.1560 0.0000
# 2 25.0838 207.9131 60.8068 0.0000 23.2612 0.0000
# 3 21.8341 60.8068 122.9878 0.0000 31.2976 0.0000
# 4 0.0000 0.0000 0.0000 -34.8451 0.0000 -34.9391
# 5 30.1560 23.2612 31.2976 0.0000 39.5942 0.0000
# 6 0.0000 0.0000 0.0000 -34.9391 0.0000 -3.2616
#
#
#
# Elastic Compliance Matrix: (Units=1/GPa)
#
#
# Indices 1 2 3 4 5 6 
#
# 1 0.017249 -0.000807 0.000700 0.000000 -0.013217 0.000000
# 2 -0.000807 0.005722 -0.002487 0.000000 -0.000781 0.000000
# 3 0.000700 -0.002487 0.011266 0.000000 -0.007978 0.000000
# 4 0.000000 0.000000 0.000000 0.002946 0.000000 -0.031559
# 5 -0.013217 -0.000781 -0.007978 0.000000 0.042087 0.000000
# 6 0.000000 0.000000 0.000000 -0.031559 0.000000 0.031475
#
#
# Mechanical properties :
#
#
# Convention : Reuss Voigt Hill
#
# Bulk Modulus (GPa) = 34.42419 69.74647 52.08533
# Shear Modulus (GPa) = 39.80391 20.60044 30.20218
#
# Velocity S-wave (km/s) = 3.96462 2.85218 3.45348
# Velocity P-wave (km/s) = 5.87804 6.19587 6.03905
#
# Compressibility (1/GPa) = 0.02904934
#
# Stress axis : x y z
#
# Youngs Moduli (GPa) = 57.97424 174.77092 88.76029
#
# Poissons Ratio (x) = 0.14106 -0.06214
# Poissons Ratio (y) = 0.04679 0.22074
# Poissons Ratio (z) = -0.04059 0.43464
#
# Static dielectric constant tensor:
#      x y z
#    x 2.162320 0.000000 -0.195350 
#    y 0.000000 2.052650 0.000000 
#    z -0.195350 0.000000 2.251550 
# 
# From -- ./inp_files/169289.got.cif
#   From: 2010.05.17/outbox.cif.g08.bks.cpg/sg12_85_cif.got.tgz:169289.got - 2010.06.03 13:09:07.
