data_PCOD9168716
_publ_section_title
;
Structure prediction by ZEFSAII (Michael W. Deem and Ramdas Pophale) SiO2 
 PCOD9168716
Probable space group: C 2/M
;
_chemical_formula_sum "Si O2"
_cell_formula_units_Z 60
_cell_length_a 21.377804
_cell_length_b 23.889764
_cell_length_c 13.838641
_cell_angle_alpha 90.000000
_cell_angle_beta 31.207826
_cell_angle_gamma 90.000000
_cell_volume 3662.003301
_symmetry_space_group_name_H-M "C 2/M"
_symmetry_group_IT_number 12
_symmetry_cell_setting 'monoclinic'
loop_
_space_group_symop_operation_xyz
x,y,z
-x,y,-z
-x,-y,-z
x,-y,z
1/2+x,1/2+y,z
1/2-x,1/2+y,-z
1/2-x,1/2-y,-z
1/2+x,1/2-y,z
loop_
_atom_site_type_symbol
_atom_site_label
_atom_site_fract_x
_atom_site_fract_y
_atom_site_fract_z
Si Si1 0.779161 0.061671 0.039269
Si Si2 0.810642 0.122526 0.810761
Si Si3 0.654087 0.770784 0.048281
Si Si4 0.062906 0.060624 0.716866
Si Si5 0.000000 0.107317 0.000000
Si Si6 0.709603 0.666674 0.841756
Si Si7 0.434745 0.232248 0.480518
Si Si8 0.081413 0.141149 0.526191
O O1 0.745377 0.116797 0.145861
O O2 0.727761 0.000000 0.131729
O O3 0.762766 0.075956 0.947880
O O4 0.922341 0.057710 0.871173
O O5 0.855038 0.107492 0.644958
O O6 0.936561 0.142769 0.695571
O O7 0.713127 0.172069 0.931689
O O8 0.530487 0.780081 0.269638
O O9 0.750000 0.750000 0.000000
O O10 0.653125 0.719443 0.974439
O O11 0.109757 0.111455 0.589544
O O12 0.118430 0.000000 0.621919
O O13 0.060777 0.072107 0.833515
O O14 0.895054 0.142649 0.087589
O O15 0.825498 0.689253 0.632241
O O16 0.500000 0.233462 0.500000
O O17 0.383110 0.294252 0.528846
#
# Coordination Sequence:
#
# PCOD9168716 Si02
#       8
#     8   8   8   8   4   8   8   8
#     4   9  17  29  46  71 102 134 167 205 254 304
#     4  10  16  27  46  72 106 131 156 200 258 310
#     4  12  17  30  52  76 102 133 170 207 252 313
#     4   9  18  31  49  70  96 133 173 210 251 301
#     4  10  21  36  50  68 106 138 171 212 248 296
#     4  11  21  34  51  77 103 139 173 208 255 301
#     4  12  18  28  52  79 104 133 166 203 256 312
#     4  10  16  27  46  75 103 128 159 204 254 311
#
# _framework density 16.384474999999998
#
# number of rings (size 3 to 8) (size 9 to 14) (size 15 to 20)
#    0.000    1.600    6.667    1.800    0.000    1.067 
#    0.000    5.333    0.000    3.600    0.000    0.000 
#    0.000    1.067    0.000    0.000    0.000    0.000 
#
# Total GULP energy -167013.149802 kJ/mol
# GULP energy per Si atom -5567.104993 kJ/mol
# Density = 1.634718 g / cm^3
# Si number density = 16.384475 Si / 1000 Ang^3
#
#
#
# Elastic Constant Matrix: (Units=GPa)
#
#
# Indices 1 2 3 4 5 6 
#
# 1 46.3837 25.3181 16.2610 0.0008 15.9030 -0.0005
# 2 25.3181 89.0728 35.3254 0.0011 7.4900 -0.0008
# 3 16.2610 35.3254 94.0603 0.0022 12.3327 -0.0013
# 4 0.0008 0.0011 0.0022 16.2210 -0.0017 4.9623
# 5 15.9030 7.4900 12.3327 -0.0017 18.2540 0.0011
# 6 -0.0005 -0.0008 -0.0013 4.9623 0.0011 4.8402
#
#
#
# Elastic Compliance Matrix: (Units=1/GPa)
#
#
# Indices 1 2 3 4 5 6 
#
# 1 0.035204 -0.007874 0.000514 -0.000010 -0.027786 0.000020
# 2 -0.007874 0.015039 -0.004802 0.000001 0.003934 -0.000002
# 3 0.000514 -0.004802 0.013327 -0.000005 -0.007481 0.000010
# 4 -0.000010 0.000001 -0.000005 0.089819 0.000026 -0.092085
# 5 -0.027786 0.003934 -0.007481 0.000026 0.082431 -0.000050
# 6 0.000020 -0.000002 0.000010 -0.092085 -0.000050 0.301009
#
#
# Mechanical properties :
#
#
# Convention : Reuss Voigt Hill
#
# Bulk Modulus (GPa) = 25.48063 42.59176 34.03619
# Shear Modulus (GPa) = 8.70726 18.03722 13.37224
#
# Velocity S-wave (km/s) = 2.30779 3.32154 2.85994
# Velocity P-wave (km/s) = 4.76305 6.38450 5.63242
#
# Compressibility (1/GPa) = 0.03924550
#
# Stress axis : x y z
#
# Youngs Moduli (GPa) = 28.40626 66.49540 75.03497
#
# Poissons Ratio (x) = 0.52356 -0.03859
# Poissons Ratio (y) = 0.22366 0.36035
# Poissons Ratio (z) = -0.01461 0.31934
#
# Static dielectric constant tensor:
#      x y z
#    x 1.542300 0.000000 0.035220 
#    y 0.000000 1.624080 0.000000 
#    z 0.035220 0.000000 1.582840 
# 
# From -- ./inp_files/241746.got.cif
#   From: 2010.05.17/outbox.cif.g08.bks.cpg/sg12_121_cif.got.tgz:241746.got - 2010.06.03 13:09:07.
