data_PCOD9168527
_publ_section_title
;
Structure prediction by ZEFSAII (Michael W. Deem and Ramdas Pophale) SiO2 
 PCOD9168527
Probable space group: C 2/M
;
_chemical_formula_sum "Si O2"
_cell_formula_units_Z 48
_cell_length_a 10.134640
_cell_length_b 23.656550
_cell_length_c 9.593230
_cell_angle_alpha 90.000000
_cell_angle_beta 59.553137
_cell_angle_gamma 90.000000
_cell_volume 1982.814014
_symmetry_space_group_name_H-M "C 2/M"
_symmetry_group_IT_number 12
_symmetry_cell_setting 'monoclinic'
loop_
_space_group_symop_operation_xyz
x,y,z
-x,y,-z
-x,-y,-z
x,-y,z
1/2+x,1/2+y,z
1/2-x,1/2+y,-z
1/2-x,1/2-y,-z
1/2+x,1/2-y,z
loop_
_atom_site_type_symbol
_atom_site_label
_atom_site_fract_x
_atom_site_fract_y
_atom_site_fract_z
Si Si1 0.850088 0.659726 0.872858
Si Si2 0.252122 0.340311 0.368961
Si Si3 0.932432 0.779036 0.841376
Si Si4 0.948121 0.062615 0.177456
Si Si5 0.678166 0.661114 0.368584
Si Si6 0.215323 0.434751 0.881272
O O1 0.864311 0.657886 0.697617
O O2 0.945416 0.713556 0.872173
O O3 0.681035 0.684828 0.001170
O O4 0.863845 0.600754 0.949214
O O5 0.400561 0.304201 0.248176
O O6 0.322037 0.403388 0.328044
O O7 0.231242 0.322391 0.539827
O O8 0.854299 0.790644 0.730373
O O9 0.105416 0.060921 0.176061
O O10 0.889098 0.000000 0.179596
O O11 0.000000 0.086484 0.000000
O O12 0.500000 0.644332 0.500000
O O13 0.774297 0.609583 0.250961
O O14 0.164343 0.500000 0.887915
#
# Coordination Sequence:
#
# PCOD9168527 Si02
#       6
#     8   8   8   8   8   8
#     4  10  18  29  46  62  87 119 153 185 216 250
#     4  11  17  29  44  63  92 118 149 182 214 257
#     4   9  18  30  42  61  86 119 153 183 216 257
#     4  10  16  23  39  62  86 114 148 173 205 259
#     4   9  17  28  40  60  90 119 144 177 214 258
#     4  10  18  28  42  63  91 121 147 174 215 265
#
# _framework density 24.208020000000001
#
# number of rings (size 3 to 8) (size 9 to 14) (size 15 to 20)
#    0.000    2.167    6.667    0.500    0.000    1.667 
#    0.000    0.000    0.000    0.000    0.000    0.000 
#    0.000   31.333    0.000    0.000    0.000    4.667 
#
# Total GULP energy -133896.981324 kJ/mol
# GULP energy per Si atom -5579.040888 kJ/mol
# Density = 2.415292 g / cm^3
# Si number density = 24.208020 Si / 1000 Ang^3
#
#
#
# Elastic Constant Matrix: (Units=GPa)
#
#
# Indices 1 2 3 4 5 6 
#
# 1 44.9045 -8.5632 20.5051 0.0000 -3.7235 0.0000
# 2 -8.5632 140.1322 26.5232 0.0000 -10.3587 0.0000
# 3 20.5051 26.5232 118.8175 0.0000 33.3310 0.0000
# 4 0.0000 0.0000 0.0000 6.4939 0.0000 0.3824
# 5 -3.7235 -10.3587 33.3310 0.0000 25.7390 0.0000
# 6 0.0000 0.0000 0.0000 0.3824 0.0000 10.0117
#
#
#
# Elastic Compliance Matrix: (Units=1/GPa)
#
#
# Indices 1 2 3 4 5 6 
#
# 1 0.032146 0.006557 -0.014223 0.000000 0.025707 0.000000
# 2 0.006557 0.010042 -0.007496 0.000000 0.014697 0.000000
# 3 -0.014223 -0.007496 0.021936 0.000000 -0.033481 0.000000
# 4 0.000000 0.000000 0.000000 0.154339 0.000000 -0.005896
# 5 0.025707 0.014697 -0.033481 0.000000 0.091841 0.000000
# 6 0.000000 0.000000 0.000000 -0.005896 0.000000 0.100108
#
#
# Mechanical properties :
#
#
# Convention : Reuss Voigt Hill
#
# Bulk Modulus (GPa) = 29.58563 42.30940 35.94751
# Shear Modulus (GPa) = 11.06188 26.14153 18.60170
#
# Velocity S-wave (km/s) = 2.13996 3.28970 2.77503
# Velocity P-wave (km/s) = 4.28414 5.65198 5.01492
#
# Compressibility (1/GPa) = 0.03380020
#
# Stress axis : x y z
#
# Youngs Moduli (GPa) = 31.10809 99.58214 45.58684
#
# Poissons Ratio (x) = -0.65292 0.64836
# Poissons Ratio (y) = -0.20396 0.34172
# Poissons Ratio (z) = 0.44244 0.74646
#
# Static dielectric constant tensor:
#      x y z
#    x 1.949870 0.000000 0.024930 
#    y 0.000000 1.944370 0.000000 
#    z 0.024930 0.000000 2.031790 
# 
# From -- ./inp_files/64690.got.cif
#   From: 2010.05.17/outbox.cif.g08.bks.cpg/sg12_33_cif.got.tgz:64690.got - 2010.06.03 13:09:07.
