data_PCOD9168203
_publ_section_title
;
Structure prediction by ZEFSAII (Michael W. Deem and Ramdas Pophale) SiO2 
 PCOD9168203
Probable space group: P 21/M
;
_chemical_formula_sum "Si O2"
_cell_formula_units_Z 28
_cell_length_a 21.000000
_cell_length_b 9.000000
_cell_length_c 24.000000
_cell_angle_alpha 90.000000
_cell_angle_beta 20.000000
_cell_angle_gamma 90.000000
_cell_volume 1551.403370
_symmetry_space_group_name_H-M "P 21/M"
_symmetry_group_IT_number 11
_symmetry_cell_setting 'monoclinic'
loop_
_space_group_symop_operation_xyz
x,y,z
-x,1/2+y,-z
-x,-y,-z
x,1/2-y,z
loop_
_atom_site_type_symbol
_atom_site_label
_atom_site_fract_x
_atom_site_fract_y
_atom_site_fract_z
Si Si1 0.401911 0.926972 0.740290
Si Si2 0.818483 0.069474 0.392696
Si Si3 0.543523 0.577236 0.024013
Si Si4 0.317110 0.572105 0.679486
Si Si5 0.897394 0.070588 0.753920
Si Si6 0.009657 0.930603 0.122967
Si Si7 0.134475 0.578972 0.348877
O O1 0.437384 0.750000 0.719388
O O2 0.333140 0.947378 0.732942
O O3 0.603671 0.010873 0.576816
O O4 0.225073 0.966977 0.926649
O O5 0.818772 0.250000 0.389524
O O6 0.942890 0.008671 0.342020
O O7 0.924292 0.001625 0.250547
O O8 0.599476 0.750000 0.970863
O O9 0.332547 0.573316 0.217525
O O10 0.500000 0.500000 0.000000
O O11 0.690856 0.488185 0.939771
O O12 0.500000 0.500000 0.500000
O O13 0.312355 0.750000 0.671710
O O14 0.133740 0.492764 0.805675
O O15 0.909285 0.250000 0.749023
O O16 0.888872 0.022648 0.695551
O O17 0.998217 0.750000 0.136078
O O18 0.087453 0.750000 0.381395
O O19 0.000000 0.500000 0.500000
#
# Coordination Sequence:
#
# PCOD9168203 Si02
#       7
#     4   4   4   4   4   4   4
#     4  10  23  42  64  89 122 163 206 254 307 366
#     4  12  25  41  63  89 122 164 205 255 309 368
#     4   9  17  32  54  81 109 142 184 231 280 337
#     4  11  21  36  62  93 123 161 204 254 311 364
#     4  10  21  39  60  83 114 155 197 240 293 357
#     4  11  23  41  64  90 122 162 206 255 308 366
#     4   9  19  34  56  86 117 148 186 236 288 342
#
# _framework density 18.048175000000001
#
# number of rings (size 3 to 8) (size 9 to 14) (size 15 to 20)
#    0.000    1.714    1.429    4.286    0.000    5.143 
#    2.571    0.000    0.000    0.000    0.000    0.000 
#    0.000    0.000    0.000    0.000    0.000    0.000 
#
# Total GULP energy -155889.982362 kJ/mol
# GULP energy per Si atom -5567.499370 kJ/mol
# Density = 1.800710 g / cm^3
# Si number density = 18.048175 Si / 1000 Ang^3
#
#
#
# Elastic Constant Matrix: (Units=GPa)
#
#
# Indices 1 2 3 4 5 6 
#
# 1 94.1315 33.7177 63.9060 0.0000 -27.9381 0.0000
# 2 33.7177 77.7565 89.0662 0.0000 -25.7713 0.0000
# 3 63.9060 89.0662 140.7221 0.0000 -6.5107 0.0000
# 4 0.0000 0.0000 0.0000 37.4191 0.0000 -5.6668
# 5 -27.9381 -25.7713 -6.5107 0.0000 28.2349 0.0000
# 6 0.0000 0.0000 0.0000 -5.6668 0.0000 33.8532
#
#
#
# Elastic Compliance Matrix: (Units=1/GPa)
#
#
# Indices 1 2 3 4 5 6 
#
# 1 -0.009515 -0.053922 0.036122 0.000000 -0.050302 0.000000
# 2 -0.053922 -0.088385 0.075028 0.000000 -0.116727 0.000000
# 3 0.036122 0.075028 -0.052523 0.000000 0.092112 0.000000
# 4 0.000000 0.000000 0.000000 0.027419 0.000000 0.004590
# 5 -0.050302 -0.116727 0.092112 0.000000 -0.099657 0.000000
# 6 0.000000 0.000000 0.000000 0.004590 0.000000 0.030308
#
#
# Mechanical properties :
#
#
# Convention : Reuss Voigt Hill
#
# Bulk Modulus (GPa) = -27.80352 76.22110 24.20879
# Shear Modulus (GPa) = -15.68391 28.29615 6.30612
#
# Velocity S-wave (km/s) = -2.95108 3.96386 1.87127
# Velocity P-wave (km/s) = 5.20101 7.95445 4.25575
#
# Compressibility (1/GPa) = -0.03596667
#
# Stress axis : x y z
#
# Youngs Moduli (GPa) = -105.10254 -11.31408 -19.03933
#
# Poissons Ratio (x) = -0.61007 0.68773
# Poissons Ratio (y) = -5.66729 1.42848
# Poissons Ratio (z) = 3.79648 0.84887
#
# Static dielectric constant tensor:
#      x y z
#    x 1.611090 0.000000 0.025130 
#    y 0.000000 1.627150 0.000000 
#    z 0.025130 0.000000 1.715250 
# 
# From -- ./inp_files/69784.got.cif
#   From: 2010.05.17/outbox.ucp.g08.bks.cvg/sg11_35_cif.got.tgz:69784.got - 2010.06.11 11:38:39.
