data_PCOD9168904
_publ_section_title
;
Structure prediction by ZEFSAII (Michael W. Deem and Ramdas Pophale) SiO2 
 PCOD9168904
Probable space group: C 2/M
;
_chemical_formula_sum "Si O2"
_cell_formula_units_Z 52
_cell_length_a 30.224295
_cell_length_b 20.204610
_cell_length_c 9.361017
_cell_angle_alpha 90.000000
_cell_angle_beta 26.041002
_cell_angle_gamma 90.000000
_cell_volume 2509.621823
_symmetry_space_group_name_H-M "C 2/M"
_symmetry_group_IT_number 12
_symmetry_cell_setting 'monoclinic'
loop_
_space_group_symop_operation_xyz
x,y,z
-x,y,-z
-x,-y,-z
x,-y,z
1/2+x,1/2+y,z
1/2-x,1/2+y,-z
1/2-x,1/2-y,-z
1/2+x,1/2-y,z
loop_
_atom_site_type_symbol
_atom_site_label
_atom_site_fract_x
_atom_site_fract_y
_atom_site_fract_z
Si Si1 0.776474 0.000000 0.420783
Si Si2 0.892596 0.359665 0.398251
Si Si3 0.379998 0.000000 0.336506
Si Si4 0.586294 0.392148 0.852963
Si Si5 0.119045 0.000000 0.193718
Si Si6 0.462447 0.778928 0.446322
Si Si7 0.064769 0.864974 0.454044
Si Si8 0.847786 0.749193 0.314088
O O1 0.660296 0.000000 0.709968
O O2 0.819254 0.062270 0.383048
O O3 0.826538 0.000000 0.117182
O O4 0.848224 0.432257 0.504688
O O5 0.906584 0.336928 0.520762
O O6 0.833617 0.304843 0.478392
O O7 0.000000 0.359942 0.000000
O O8 0.500000 0.000000 0.000000
O O9 0.625318 0.319949 0.693658
O O10 0.500000 0.420197 0.000000
O O11 0.520439 0.381948 0.184554
O O12 0.133040 0.069633 0.237078
O O13 0.000000 0.000000 0.500000
O O14 0.500000 0.792583 0.500000
O O15 0.398199 0.710099 0.626532
O O16 0.560050 0.766721 0.061368
O O17 0.000000 0.856408 0.500000
O O18 0.750000 0.750000 0.500000
#
# Coordination Sequence:
#
# PCOD9168904 Si02
#       8
#     4   8   4   8   4   8   8   8
#     4  12  21  33  55  85 114 149 191 228 280 350
#     4   9  18  37  57  79 102 139 185 237 287 337
#     4  10  22  39  63  83 100 142 203 250 282 339
#     4  11  20  31  52  85 119 151 179 228 284 334
#     4  10  16  30  50  74 111 153 185 213 264 334
#     4   9  18  32  56  78 107 144 187 230 290 336
#     4   9  15  29  49  76 109 157 182 209 264 336
#     4  10  19  33  54  80 115 151 192 233 276 333
#
# _framework density 20.720254000000001
#
# number of rings (size 3 to 8) (size 9 to 14) (size 15 to 20)
#    0.000    2.154    3.077    3.462    0.000    0.000 
#    0.000    1.154    3.385    0.000    8.000    0.000 
#    0.000    0.000    0.000    0.000    0.000    0.000 
#
# Total GULP energy -144837.498873 kJ/mol
# GULP energy per Si atom -5570.673034 kJ/mol
# Density = 2.067309 g / cm^3
# Si number density = 20.720254 Si / 1000 Ang^3
#
#
#
# Elastic Constant Matrix: (Units=GPa)
#
#
# Indices 1 2 3 4 5 6 
#
# 1 134.7157 72.3577 7.0783 0.0000 -5.3917 0.0000
# 2 72.3577 178.1686 5.8454 0.0000 1.6010 0.0000
# 3 7.0783 5.8454 28.6423 0.0000 -5.7717 0.0000
# 4 0.0000 0.0000 0.0000 -14.9124 0.0000 -3.8804
# 5 -5.3917 1.6010 -5.7717 0.0000 37.0811 0.0000
# 6 0.0000 0.0000 0.0000 -3.8804 0.0000 32.9202
#
#
#
# Elastic Compliance Matrix: (Units=1/GPa)
#
#
# Indices 1 2 3 4 5 6 
#
# 1 0.009631 -0.003880 -0.001313 0.000000 0.001363 0.000000
# 2 -0.003880 0.007221 -0.000714 0.000000 -0.000987 0.000000
# 3 -0.001313 -0.000714 0.036496 0.000000 0.005520 0.000000
# 4 0.000000 0.000000 0.000000 -0.065063 0.000000 -0.007669
# 5 0.001363 -0.000987 0.005520 0.000000 0.028068 0.000000
# 6 0.000000 0.000000 0.000000 -0.007669 0.000000 0.029472
#
#
# Mechanical properties :
#
#
# Convention : Reuss Voigt Hill
#
# Bulk Modulus (GPa) = 24.07729 56.89884 40.48806
# Shear Modulus (GPa) = 69.94493 28.10078 49.02286
#
# Velocity S-wave (km/s) = 5.81636 3.68666 4.86937
# Velocity P-wave (km/s) = 7.53340 6.75589 7.15521
#
# Compressibility (1/GPa) = 0.04153291
#
# Stress axis : x y z
#
# Youngs Moduli (GPa) = 103.83288 138.48754 27.40025
#
# Poissons Ratio (x) = 0.53739 0.03599
# Poissons Ratio (y) = 0.40292 0.01955
# Poissons Ratio (z) = 0.13637 0.09882
#
# Static dielectric constant tensor:
#      x y z
#    x 1.754900 0.000000 -0.071420 
#    y 0.000000 1.844080 0.000000 
#    z -0.071420 0.000000 1.782420 
# 
# From -- ./inp_files/113286.got.cif
#   From: 2010.05.17/outbox.cif.g08.bks.cpg/sg12_57_cif.got.tgz:113286.got - 2010.06.03 13:09:07.
