data_PCOD9168790
_publ_section_title
;
Structure prediction by ZEFSAII (Michael W. Deem and Ramdas Pophale) SiO2 
 PCOD9168790
Probable space group: C 2/M
;
_chemical_formula_sum "Si O2"
_cell_formula_units_Z 44
_cell_length_a 21.264694
_cell_length_b 12.781664
_cell_length_c 13.694375
_cell_angle_alpha 90.000000
_cell_angle_beta 30.112885
_cell_angle_gamma 90.000000
_cell_volume 1867.400308
_symmetry_space_group_name_H-M "C 2/M"
_symmetry_group_IT_number 12
_symmetry_cell_setting 'monoclinic'
loop_
_space_group_symop_operation_xyz
x,y,z
-x,y,-z
-x,-y,-z
x,-y,z
1/2+x,1/2+y,z
1/2-x,1/2+y,-z
1/2-x,1/2-y,-z
1/2+x,1/2-y,z
loop_
_atom_site_type_symbol
_atom_site_label
_atom_site_fract_x
_atom_site_fract_y
_atom_site_fract_z
Si Si1 0.615730 0.767242 0.226977
Si Si2 0.269794 0.237931 0.725877
Si Si3 0.381597 0.000000 0.731858
Si Si4 0.086169 0.000000 0.786118
Si Si5 0.789477 0.500000 0.665611
Si Si6 0.504774 0.287439 0.799838
Si Si7 0.630026 0.878872 0.762935
O O1 0.635741 0.733192 0.312475
O O2 0.518066 0.714861 0.285268
O O3 0.604325 0.892796 0.232241
O O4 0.750000 0.750000 0.000000
O O5 0.322189 0.124991 0.621374
O O6 0.234486 0.318974 0.687839
O O7 0.131847 0.221067 0.962434
O O8 0.500000 0.000000 0.500000
O O9 0.260471 0.000000 0.823617
O O10 0.217964 0.000000 0.660489
O O11 0.061275 0.104088 0.760098
O O12 0.000000 0.000000 0.000000
O O13 0.591380 0.192884 0.722832
O O14 0.662845 0.000000 0.699683
O O15 0.500000 0.880712 0.000000
#
# Coordination Sequence:
#
# PCOD9168790 Si02
#       7
#     8   8   4   4   4   8   8
#     4   9  20  33  51  83 117 142 192 256 298 325
#     4   9  15  28  40  66 101 142 179 230 283 344
#     4  10  22  40  62  82 116 168 203 231 291 377
#     4  12  16  26  50  76 113 149 186 240 295 366
#     4  10  16  28  52  74 100 135 200 234 262 337
#     4  10  17  26  43  72 107 142 180 239 304 325
#     4   9  16  24  37  58  97 144 179 211 277 355
#
# _framework density 23.562169000000001
#
# number of rings (size 3 to 8) (size 9 to 14) (size 15 to 20)
#    0.000    2.364    3.636    0.545    1.273    0.000 
#    6.545    0.000    0.000    1.091    0.000    2.545 
#    0.000    0.000    0.000    0.000    0.000    0.000 
#
# Total GULP energy -122632.251990 kJ/mol
# GULP energy per Si atom -5574.193272 kJ/mol
# Density = 2.350854 g / cm^3
# Si number density = 23.562169 Si / 1000 Ang^3
#
#
#
# Elastic Constant Matrix: (Units=GPa)
#
#
# Indices 1 2 3 4 5 6 
#
# 1 262.4443 107.8083 29.7432 0.0000 -4.6756 0.0000
# 2 107.8083 177.4137 31.5349 0.0000 -2.4148 0.0000
# 3 29.7432 31.5349 69.7759 0.0000 -3.7746 0.0000
# 4 0.0000 0.0000 0.0000 -124.8583 0.0000 150.3708
# 5 -4.6756 -2.4148 -3.7746 0.0000 29.7812 0.0000
# 6 0.0000 0.0000 0.0000 150.3708 0.0000 -107.2058
#
#
#
# Elastic Compliance Matrix: (Units=1/GPa)
#
#
# Indices 1 2 3 4 5 6 
#
# 1 0.005130 -0.002965 -0.000822 0.000000 0.000461 0.000000
# 2 -0.002965 0.007843 -0.002287 0.000000 -0.000119 0.000000
# 3 -0.000822 -0.002287 0.015807 0.000000 0.001689 0.000000
# 4 0.000000 0.000000 0.000000 0.011620 0.000000 0.016299
# 5 0.000461 -0.000119 0.001689 0.000000 0.033855 0.000000
# 6 0.000000 0.000000 0.000000 0.016299 0.000000 0.013534
#
#
# Mechanical properties :
#
#
# Convention : Reuss Voigt Hill
#
# Bulk Modulus (GPa) = 60.12500 94.20075 77.16287
# Shear Modulus (GPa) = 47.40246 -17.75342 14.82452
#
# Velocity S-wave (km/s) = 4.49018 -2.74792 2.51104
# Velocity P-wave (km/s) = 7.24260 5.47708 6.42081
#
# Compressibility (1/GPa) = 0.01663202
#
# Stress axis : x y z
#
# Youngs Moduli (GPa) = 194.94960 127.50163 63.26313
#
# Poissons Ratio (x) = 0.37801 0.05199
# Poissons Ratio (y) = 0.57797 0.14470
# Poissons Ratio (z) = 0.16020 0.29164
#
# Static dielectric constant tensor:
#      x y z
#    x 1.986870 0.000000 -0.043110 
#    y 0.000000 1.830550 0.000000 
#    z -0.043110 0.000000 1.937480 
# 
# From -- ./inp_files/223520.got.cif
#   From: 2010.05.17/outbox.cif.g08.bks.cpg/sg12_112_cif.got.tgz:223520.got - 2010.06.03 13:09:07.
