data_PCOD9168560
_publ_section_title
;
Structure prediction by ZEFSAII (Michael W. Deem and Ramdas Pophale) SiO2 
 PCOD9168560
Probable space group: C 2/M
;
_chemical_formula_sum "Si O2"
_cell_formula_units_Z 48
_cell_length_a 29.387269
_cell_length_b 8.542343
_cell_length_c 22.338415
_cell_angle_alpha 90.000000
_cell_angle_beta 147.730236
_cell_angle_gamma 90.000000
_cell_volume 2994.012199
_symmetry_space_group_name_H-M "C 2/M"
_symmetry_group_IT_number 12
_symmetry_cell_setting 'monoclinic'
loop_
_space_group_symop_operation_xyz
x,y,z
-x,y,-z
-x,-y,-z
x,-y,z
1/2+x,1/2+y,z
1/2-x,1/2+y,-z
1/2-x,1/2-y,-z
1/2+x,1/2-y,z
loop_
_atom_site_type_symbol
_atom_site_label
_atom_site_fract_x
_atom_site_fract_y
_atom_site_fract_z
Si Si1 0.866766 0.311609 0.464379
Si Si2 0.577957 0.809521 0.166118
Si Si3 0.760944 0.688016 0.578892
Si Si4 0.295418 0.313253 0.259051
Si Si5 0.891921 0.690250 0.938819
Si Si6 0.458040 0.182321 0.386872
O O1 0.866954 0.500000 0.465804
O O2 0.814412 0.245703 0.461597
O O3 0.822042 0.257866 0.352910
O O4 0.965886 0.258772 0.570997
O O5 0.649819 0.756432 0.292143
O O6 0.603388 0.766424 0.126358
O O7 0.577756 0.000000 0.167437
O O8 0.480411 0.756160 0.067047
O O9 0.761303 0.500000 0.578916
O O10 0.750000 0.750000 0.500000
O O11 0.294713 0.500000 0.265240
O O12 0.199371 0.259185 0.137495
O O13 0.368205 0.268002 0.292660
O O14 0.893362 0.500000 0.942416
O O15 0.500000 0.190965 0.500000
O O16 0.442056 0.000000 0.356260
#
# Coordination Sequence:
#
# PCOD9168560 Si02
#       6
#     8   8   8   8   8   8
#     4  10  19  31  44  60  89 124 154 185 221 265
#     4   8  14  26  43  63  89 118 149 181 218 265
#     4  11  21  33  49  68  89 119 155 189 225 262
#     4  10  16  24  43  70  93 116 148 184 224 266
#     4   8  13  23  42  67  91 116 146 181 218 265
#     4   8  16  28  40  58  88 123 150 176 220 273
#
# _framework density 16.031998999999999
#
# number of rings (size 3 to 8) (size 9 to 14) (size 15 to 20)
#    0.000    2.833    1.667    3.500    0.000    3.667 
#    0.000    0.000    0.000    5.000    0.000    1.167 
#    0.000    0.000    0.000    0.000    0.000    0.000 
#
# Total GULP energy -133601.385129 kJ/mol
# GULP energy per Si atom -5566.724380 kJ/mol
# Density = 1.599551 g / cm^3
# Si number density = 16.031999 Si / 1000 Ang^3
#
#
#
# Elastic Constant Matrix: (Units=GPa)
#
#
# Indices 1 2 3 4 5 6 
#
# 1 113.3636 25.7152 81.1482 0.0000 32.3809 0.0000
# 2 25.7152 28.0778 21.6661 0.0000 8.3880 0.0000
# 3 81.1482 21.6661 111.8168 0.0000 29.8088 0.0000
# 4 0.0000 0.0000 0.0000 -8.8708 0.0000 -0.9249
# 5 32.3809 8.3880 29.8088 0.0000 34.6753 0.0000
# 6 0.0000 0.0000 0.0000 -0.9249 0.0000 24.0846
#
#
#
# Elastic Compliance Matrix: (Units=1/GPa)
#
#
# Indices 1 2 3 4 5 6 
#
# 1 0.021383 -0.008093 -0.011869 0.000000 -0.007807 0.000000
# 2 -0.008093 0.045392 -0.002607 0.000000 -0.001182 0.000000
# 3 -0.011869 -0.002607 0.019380 0.000000 -0.004947 0.000000
# 4 0.000000 0.000000 0.000000 -0.112279 0.000000 -0.004312
# 5 -0.007807 -0.001182 -0.004947 0.000000 0.040668 0.000000
# 6 0.000000 0.000000 0.000000 -0.004312 0.000000 0.041355
#
#
# Mechanical properties :
#
#
# Convention : Reuss Voigt Hill
#
# Bulk Modulus (GPa) = 24.37949 56.70190 40.54069
# Shear Modulus (GPa) = 43.58889 18.29307 30.94098
#
# Velocity S-wave (km/s) = 5.21993 3.38159 4.39789
# Velocity P-wave (km/s) = 7.18123 7.11980 7.15058
#
# Compressibility (1/GPa) = 0.04101809
#
# Stress axis : x y z
#
# Youngs Moduli (GPa) = 46.76659 22.03032 51.59857
#
# Poissons Ratio (x) = 0.17829 0.61240
# Poissons Ratio (y) = 0.37847 0.13453
# Poissons Ratio (z) = 0.55505 0.05744
#
# Static dielectric constant tensor:
#      x y z
#    x 1.540920 0.000000 0.051280 
#    y 0.000000 1.551970 0.000000 
#    z 0.051280 0.000000 1.547620 
# 
# From -- ./inp_files/326658.got.cif
#   From: 2010.05.17/outbox.cif.g08.bks.cpg/sg12_164_cif.got.tgz:326658.got - 2010.06.03 13:09:07.
