data_PCOD9168343
_publ_section_title
;
Structure prediction by ZEFSAII (Michael W. Deem and Ramdas Pophale) SiO2 
 PCOD9168343
Probable space group: C 2/M
;
_chemical_formula_sum "Si O2"
_cell_formula_units_Z 48
_cell_length_a 14.264707
_cell_length_b 19.050222
_cell_length_c 8.931824
_cell_angle_alpha 90.000000
_cell_angle_beta 63.661367
_cell_angle_gamma 90.000000
_cell_volume 2175.213669
_symmetry_space_group_name_H-M "C 2/M"
_symmetry_group_IT_number 12
_symmetry_cell_setting 'monoclinic'
loop_
_space_group_symop_operation_xyz
x,y,z
-x,y,-z
-x,-y,-z
x,-y,z
1/2+x,1/2+y,z
1/2-x,1/2+y,-z
1/2-x,1/2-y,-z
1/2+x,1/2-y,z
loop_
_atom_site_type_symbol
_atom_site_label
_atom_site_fract_x
_atom_site_fract_y
_atom_site_fract_z
Si Si1 0.639371 0.283064 0.648028
Si Si2 0.933291 0.647298 0.193442
Si Si3 0.140870 0.576072 0.486791
Si Si4 0.784698 0.317195 0.798849
Si Si5 0.363444 0.421341 0.510051
Si Si6 0.216229 0.844000 0.172547
O O1 0.750000 0.250000 0.500000
O O2 0.555815 0.221959 0.732059
O O3 0.676254 0.310191 0.783739
O O4 0.594122 0.348103 0.587365
O O5 0.938009 0.590923 0.321327
O O6 0.817340 0.653475 0.207812
O O7 0.000000 0.634937 0.000000
O O8 0.125630 0.500000 0.429454
O O9 0.143792 0.636390 0.360608
O O10 0.253113 0.576277 0.494484
O O11 0.823005 0.236976 0.794363
O O12 0.757938 0.353429 0.974953
O O13 0.407371 0.500000 0.459169
O O14 0.352358 0.402686 0.694904
#
# Coordination Sequence:
#
# PCOD9168343 Si02
#       6
#     8   8   8   8   8   8
#     4  10  14  30  48  64  83 114 144 181 210 249
#     4  10  18  29  45  63  85 115 146 175 211 257
#     4   9  16  27  42  60  84 115 146 174 209 256
#     4   9  15  26  46  63  84 112 142 183 218 245
#     4   9  15  25  44  66  85 109 143 178 215 254
#     4   9  16  27  42  66  89 108 139 185 219 248
#
# _framework density 22.066799
#
# number of rings (size 3 to 8) (size 9 to 14) (size 15 to 20)
#    0.000    2.667    6.667    0.000    0.000    1.000 
#    0.000    0.833    0.000    1.500    0.000    0.000 
#    0.000   12.000    0.000    0.000    0.000    0.000 
#
# Total GULP energy -133605.835936 kJ/mol
# GULP energy per Si atom -5566.909831 kJ/mol
# Density = 2.201657 g / cm^3
# Si number density = 22.066799 Si / 1000 Ang^3
#
#
#
# Elastic Constant Matrix: (Units=GPa)
#
#
# Indices 1 2 3 4 5 6 
#
# 1 51.8223 -7.8296 -11.1853 0.0000 8.4635 0.0000
# 2 -7.8296 107.7419 43.0258 0.0000 3.4596 0.0000
# 3 -11.1853 43.0258 114.8067 0.0000 22.9237 0.0000
# 4 0.0000 0.0000 0.0000 23.6410 0.0000 7.3518
# 5 8.4635 3.4596 22.9237 0.0000 17.7350 0.0000
# 6 0.0000 0.0000 0.0000 7.3518 0.0000 2.9783
#
#
#
# Elastic Compliance Matrix: (Units=1/GPa)
#
#
# Indices 1 2 3 4 5 6 
#
# 1 0.023791 -0.000142 0.006244 0.000000 -0.019396 0.000000
# 2 -0.000142 0.011160 -0.005088 0.000000 0.004467 0.000000
# 3 0.006244 -0.005088 0.015665 0.000000 -0.022236 0.000000
# 4 0.000000 0.000000 0.000000 0.182034 0.000000 -0.449343
# 5 -0.019396 0.004467 -0.022236 0.000000 0.093511 0.000000
# 6 0.000000 0.000000 0.000000 -0.449343 0.000000 1.444953
#
#
# Mechanical properties :
#
#
# Convention : Reuss Voigt Hill
#
# Bulk Modulus (GPa) = 18.99558 35.82142 27.40850
# Shear Modulus (GPa) = 2.79856 25.56153 14.18004
#
# Velocity S-wave (km/s) = 1.12738 3.40718 2.53770
# Velocity P-wave (km/s) = 3.21271 5.63444 4.58631
#
# Compressibility (1/GPa) = 0.05264384
#
# Stress axis : x y z
#
# Youngs Moduli (GPa) = 42.03306 89.60918 63.83544
#
# Poissons Ratio (x) = 0.01270 -0.39858
# Poissons Ratio (y) = 0.00596 0.32480
# Poissons Ratio (z) = -0.26245 0.45594
#
# Static dielectric constant tensor:
#      x y z
#    x 1.881280 0.000000 -0.057610 
#    y 0.000000 1.868390 0.000000 
#    z -0.057610 0.000000 1.853220 
# 
# From -- ./inp_files/98525.got.cif
#   From: 2010.05.17/outbox.cif.g08.bks.cpg/sg12_50_cif.got.tgz:98525.got - 2010.06.03 13:09:07.
