data_PCOD9168553
_publ_section_title
;
Structure prediction by ZEFSAII (Michael W. Deem and Ramdas Pophale) SiO2 
 PCOD9168553
Probable space group: C 2/M
;
_chemical_formula_sum "Si O2"
_cell_formula_units_Z 56
_cell_length_a 28.565444
_cell_length_b 7.697755
_cell_length_c 15.140115
_cell_angle_alpha 90.000000
_cell_angle_beta 76.427899
_cell_angle_gamma 90.000000
_cell_volume 3236.191273
_symmetry_space_group_name_H-M "C 2/M"
_symmetry_group_IT_number 12
_symmetry_cell_setting 'monoclinic'
loop_
_space_group_symop_operation_xyz
x,y,z
-x,y,-z
-x,-y,-z
x,-y,z
1/2+x,1/2+y,z
1/2-x,1/2+y,-z
1/2-x,1/2-y,-z
1/2+x,1/2-y,z
loop_
_atom_site_type_symbol
_atom_site_label
_atom_site_fract_x
_atom_site_fract_y
_atom_site_fract_z
Si Si1 0.065371 0.792178 0.899051
Si Si2 0.959128 0.791026 0.897541
Si Si3 0.622570 0.791842 0.711449
Si Si4 0.959352 0.288242 0.387590
Si Si5 0.114744 0.288254 0.431894
Si Si6 0.435469 0.208135 0.713119
Si Si7 0.305744 0.791264 0.465627
O O1 0.110585 0.752159 0.817263
O O2 0.014882 0.727518 0.878071
O O3 0.061551 0.000000 0.904000
O O4 0.065677 0.730345 0.000357
O O5 0.933579 0.743834 0.817803
O O6 0.960751 0.000000 0.899095
O O7 0.576842 0.730870 0.673745
O O8 0.669432 0.729132 0.636992
O O9 0.623098 0.000000 0.706482
O O10 0.960914 0.500000 0.386043
O O11 0.932813 0.241026 0.490138
O O12 0.012824 0.224878 0.344864
O O13 0.117352 0.500000 0.430892
O O14 0.105871 0.229090 0.335654
O O15 0.160863 0.227448 0.467680
O O16 0.436542 0.000000 0.703650
O O17 0.250000 0.750000 0.500000
O O18 0.309713 0.000000 0.464027
#
# Coordination Sequence:
#
# PCOD9168553 Si02
#       7
#     8   8   8   8   8   8   8
#     4   9  17  29  42  57  83 122 155 175 208 255
#     4   9  18  29  39  56  88 123 150 178 210 247
#     4   9  16  27  44  66  88 109 142 186 218 242
#     4   8  13  22  37  60  86 111 139 171 205 243
#     4   8  15  26  41  62  87 112 141 176 211 252
#     4  10  16  24  42  64  83 113 151 177 204 246
#     4   9  18  32  48  67  90 113 139 177 221 261
#
# _framework density 17.304293000000001
#
# number of rings (size 3 to 8) (size 9 to 14) (size 15 to 20)
#    0.000    3.143    1.429    3.000    0.000    2.857 
#    0.000    2.143    0.000    2.571    0.000    1.000 
#    0.000    0.000    0.000    0.000    0.000    0.000 
#
# Total GULP energy -155894.727485 kJ/mol
# GULP energy per Si atom -5567.668839 kJ/mol
# Density = 1.726491 g / cm^3
# Si number density = 17.304293 Si / 1000 Ang^3
#
#
#
# Elastic Constant Matrix: (Units=GPa)
#
#
# Indices 1 2 3 4 5 6 
#
# 1 85.3868 7.5891 77.5192 0.0000 -7.0934 0.0000
# 2 7.5891 24.9474 3.5570 0.0000 -0.1911 0.0000
# 3 77.5192 3.5570 161.3076 0.0000 4.8857 0.0000
# 4 0.0000 0.0000 0.0000 39.0199 0.0000 5.0324
# 5 -7.0934 -0.1911 4.8857 0.0000 19.3845 0.0000
# 6 0.0000 0.0000 0.0000 5.0324 0.0000 13.9626
#
#
#
# Elastic Compliance Matrix: (Units=1/GPa)
#
#
# Indices 1 2 3 4 5 6 
#
# 1 0.023709 -0.005467 -0.011623 0.000000 0.011552 0.000000
# 2 -0.005467 0.041479 0.001774 0.000000 -0.002039 0.000000
# 3 -0.011623 0.001774 0.011966 0.000000 -0.007252 0.000000
# 4 0.000000 0.000000 0.000000 0.026877 0.000000 -0.009687
# 5 0.011552 -0.002039 -0.007252 0.000000 0.057622 0.000000
# 6 0.000000 0.000000 0.000000 -0.009687 0.000000 0.075111
#
#
# Mechanical properties :
#
#
# Convention : Reuss Voigt Hill
#
# Bulk Modulus (GPa) = 21.49512 49.88581 35.69047
# Shear Modulus (GPa) = 17.67391 26.67184 22.17287
#
# Velocity S-wave (km/s) = 3.19934 3.93025 3.58348
# Velocity P-wave (km/s) = 5.10847 7.03470 6.14750
#
# Compressibility (1/GPa) = 0.04652218
#
# Stress axis : x y z
#
# Youngs Moduli (GPa) = 42.17783 24.10871 83.57312
#
# Poissons Ratio (x) = 0.13179 0.97138
# Poissons Ratio (y) = 0.23057 -0.14828
# Poissons Ratio (z) = 0.49024 -0.04277
#
# Static dielectric constant tensor:
#      x y z
#    x 1.574030 0.000000 0.008350 
#    y 0.000000 1.653080 0.000000 
#    z 0.008350 0.000000 1.638560 
# 
# From -- ./inp_files/247802.got.cif
#   From: 2010.05.17/outbox.cif.g08.bks.cpg/sg12_124_cif.got.tgz:247802.got - 2010.06.03 13:09:07.
