data_PCOD9168506
_publ_section_title
;
Structure prediction by ZEFSAII (Michael W. Deem and Ramdas Pophale) SiO2 
 PCOD9168506
Probable space group: C 2/M
;
_chemical_formula_sum "Si O2"
_cell_formula_units_Z 64
_cell_length_a 16.206355
_cell_length_b 7.746330
_cell_length_c 26.081259
_cell_angle_alpha 90.000000
_cell_angle_beta 132.020069
_cell_angle_gamma 90.000000
_cell_volume 2432.463511
_symmetry_space_group_name_H-M "C 2/M"
_symmetry_group_IT_number 12
_symmetry_cell_setting 'monoclinic'
loop_
_space_group_symop_operation_xyz
x,y,z
-x,y,-z
-x,-y,-z
x,-y,z
1/2+x,1/2+y,z
1/2-x,1/2+y,-z
1/2-x,1/2-y,-z
1/2+x,1/2-y,z
loop_
_atom_site_type_symbol
_atom_site_label
_atom_site_fract_x
_atom_site_fract_y
_atom_site_fract_z
Si Si1 0.520215 0.702130 0.583264
Si Si2 0.255491 0.799326 0.699042
Si Si3 0.769292 0.290100 0.086477
Si Si4 0.792837 0.300941 0.460661
Si Si5 0.442110 0.199702 0.664095
Si Si6 0.537180 0.290991 0.958593
Si Si7 0.182364 0.709637 0.781842
Si Si8 0.015743 0.296395 0.171619
O O1 0.536707 0.500000 0.599693
O O2 0.644260 0.777012 0.625979
O O3 0.587950 0.712251 0.498188
O O4 0.476435 0.782389 0.618403
O O5 0.222170 0.791320 0.745622
O O6 0.380076 0.723342 0.753240
O O7 0.264501 0.000000 0.687144
O O8 0.771613 0.500000 0.083021
O O9 0.750405 0.252386 0.138851
O O10 0.892314 0.221919 0.126621
O O11 0.665766 0.229641 0.009876
O O12 0.819109 0.500000 0.471736
O O13 0.750000 0.250000 0.500000
O O14 0.682162 0.271258 0.381157
O O15 0.553643 0.265439 0.737545
O O16 0.432901 0.000000 0.672328
O O17 0.532471 0.500000 0.953774
O O18 0.466919 0.221565 0.882106
O O19 0.500000 0.241850 0.000000
O O20 0.182801 0.500000 0.775115
O O21 0.010197 0.500000 0.182094
#
# Coordination Sequence:
#
# PCOD9168506 Si02
#       8
#     8   8   8   8   8   8   8   8
#     4   9  15  24  37  55  83 115 148 186 228 273
#     4   9  18  30  45  67  93 122 154 193 239 279
#     4   9  18  33  51  71  96 125 156 192 233 275
#     4  10  16  22  34  55  85 118 149 182 227 276
#     4   9  15  23  37  59  85 113 148 187 228 273
#     4  10  20  34  53  75  98 125 157 192 230 273
#     4   9  17  30  49  69  90 122 160 195 232 277
#     4  10  20  34  51  71  97 126 156 191 233 280
#
# _framework density 26.310776000000001
#
# number of rings (size 3 to 8) (size 9 to 14) (size 15 to 20)
#    0.000    2.625    0.000    4.500    0.000    2.750 
#    0.000    1.250    0.000    0.000    0.000    0.875 
#    0.000    7.000    0.000    0.000    0.000    0.000 
#
# Total GULP energy -178833.891192 kJ/mol
# GULP energy per Si atom -5588.559100 kJ/mol
# Density = 2.625089 g / cm^3
# Si number density = 26.310776 Si / 1000 Ang^3
#
#
#
# Elastic Constant Matrix: (Units=GPa)
#
#
# Indices 1 2 3 4 5 6 
#
# 1 111.6269 2.5413 40.9582 0.0000 32.0755 0.0000
# 2 2.5413 57.1587 -3.3883 0.0000 3.5801 0.0000
# 3 40.9582 -3.3883 214.2447 0.0000 24.9271 0.0000
# 4 0.0000 0.0000 0.0000 14.5640 0.0000 1.1705
# 5 32.0755 3.5801 24.9271 0.0000 59.8141 0.0000
# 6 0.0000 0.0000 0.0000 1.1705 0.0000 5.8078
#
#
#
# Elastic Compliance Matrix: (Units=1/GPa)
#
#
# Indices 1 2 3 4 5 6 
#
# 1 0.011030 -0.000249 -0.001499 0.000000 -0.005275 0.000000
# 2 -0.000249 0.017603 0.000455 0.000000 -0.001110 0.000000
# 3 -0.001499 0.000455 0.005119 0.000000 -0.001357 0.000000
# 4 0.000000 0.000000 0.000000 0.069793 0.000000 -0.014066
# 5 -0.005275 -0.001110 -0.001357 0.000000 0.020179 0.000000
# 6 0.000000 0.000000 0.000000 -0.014066 0.000000 0.175018
#
#
# Mechanical properties :
#
#
# Convention : Reuss Voigt Hill
#
# Bulk Modulus (GPa) = 32.08562 51.47253 41.77907
# Shear Modulus (GPa) = 16.04027 38.89845 27.46936
#
# Velocity S-wave (km/s) = 2.47178 3.84920 3.23466
# Velocity P-wave (km/s) = 4.51305 6.27382 5.46482
#
# Compressibility (1/GPa) = 0.03116661
#
# Stress axis : x y z
#
# Youngs Moduli (GPa) = 90.66313 56.80946 195.34459
#
# Poissons Ratio (x) = 0.01414 0.29278
# Poissons Ratio (y) = 0.02256 -0.08890
# Poissons Ratio (z) = 0.13589 -0.02585
#
# Static dielectric constant tensor:
#      x y z
#    x 2.151310 0.000000 0.006350 
#    y 0.000000 1.787010 0.000000 
#    z 0.006350 0.000000 2.061070 
# 
# From -- ./inp_files/375687.got.cif
#   From: 2010.05.17/outbox.cif.g08.bks.cpg/sg12_188_cif.got.tgz:375687.got - 2010.06.03 13:09:07.
