data_PCOD9168652
_publ_section_title
;
Structure prediction by ZEFSAII (Michael W. Deem and Ramdas Pophale) SiO2 
 PCOD9168652
Probable space group: C 2/M
;
_chemical_formula_sum "Si O2"
_cell_formula_units_Z 56
_cell_length_a 10.265918
_cell_length_b 32.985209
_cell_length_c 7.845327
_cell_angle_alpha 90.000000
_cell_angle_beta 62.970401
_cell_angle_gamma 90.000000
_cell_volume 2366.434983
_symmetry_space_group_name_H-M "C 2/M"
_symmetry_group_IT_number 12
_symmetry_cell_setting 'monoclinic'
loop_
_space_group_symop_operation_xyz
x,y,z
-x,y,-z
-x,-y,-z
x,-y,z
1/2+x,1/2+y,z
1/2-x,1/2+y,-z
1/2-x,1/2-y,-z
1/2+x,1/2-y,z
loop_
_atom_site_type_symbol
_atom_site_label
_atom_site_fract_x
_atom_site_fract_y
_atom_site_fract_z
Si Si1 0.630251 0.373086 0.715319
Si Si2 0.343026 0.131425 0.287421
Si Si3 0.393463 0.322995 0.732390
Si Si4 0.120107 0.345909 0.276051
Si Si5 0.531421 0.454779 0.184124
Si Si6 0.172039 0.259627 0.362741
Si Si7 0.158597 0.543832 0.816969
O O1 0.741639 0.355989 0.506741
O O2 0.503564 0.339780 0.807831
O O3 0.746802 0.377810 0.798105
O O4 0.555635 0.415011 0.700495
O O5 0.239834 0.145937 0.197589
O O6 0.503279 0.150427 0.194490
O O7 0.348488 0.083222 0.294558
O O8 0.500000 0.324253 0.500000
O O9 0.319737 0.278973 0.766475
O O10 0.199358 0.302455 0.254315
O O11 0.000000 0.353487 0.500000
O O12 0.482571 0.500000 0.272808
O O13 0.701362 0.452000 0.140216
O O14 0.500000 0.453651 0.000000
O O15 0.250000 0.250000 0.500000
O O16 0.000000 0.263595 0.500000
O O17 0.175827 0.500000 0.720118
O O18 0.000000 0.543651 0.000000
#
# Coordination Sequence:
#
# PCOD9168652 Si02
#       7
#     8   8   8   8   8   8   8
#     4  10  19  33  52  80 110 140 172 219 269 313
#     4  10  19  33  52  80 112 140 173 221 268 315
#     4   9  16  27  47  73 107 139 173 216 259 307
#     4   9  18  29  45  75 113 145 174 211 260 312
#     4  10  22  39  58  79 103 135 178 222 264 320
#     4  10  16  26  44  72 109 148 178 210 259 310
#     4  10  22  39  58  79 103 136 178 221 265 320
#
# _framework density 23.664290000000001
#
# number of rings (size 3 to 8) (size 9 to 14) (size 15 to 20)
#    0.000    2.286    1.429    4.286    2.000    0.571 
#    0.000    1.429    0.000    2.571    0.000    6.000 
#    0.000    0.000    0.000    0.000    0.000    0.000 
#
# Total GULP energy -155916.121170 kJ/mol
# GULP energy per Si atom -5568.432899 kJ/mol
# Density = 2.361043 g / cm^3
# Si number density = 23.664290 Si / 1000 Ang^3
#
#
#
# Elastic Constant Matrix: (Units=GPa)
#
#
# Indices 1 2 3 4 5 6 
#
# 1 214.4282 65.5905 22.9588 0.0000 -21.5020 0.0000
# 2 65.5905 151.6664 -5.8002 0.0000 -9.3408 0.0000
# 3 22.9588 -5.8002 51.7868 0.0000 -4.7659 0.0000
# 4 0.0000 0.0000 0.0000 39.4683 0.0000 -4.1910
# 5 -21.5020 -9.3408 -4.7659 0.0000 24.5397 0.0000
# 6 0.0000 0.0000 0.0000 -4.1910 0.0000 35.1573
#
#
#
# Elastic Compliance Matrix: (Units=1/GPa)
#
#
# Indices 1 2 3 4 5 6 
#
# 1 0.006098 -0.002499 -0.002626 0.000000 0.003882 0.000000
# 2 -0.002499 0.007828 0.002095 0.000000 0.001197 0.000000
# 3 -0.002626 0.002095 0.020945 0.000000 0.002564 0.000000
# 4 0.000000 0.000000 0.000000 0.025662 0.000000 0.003059
# 5 0.003882 0.001197 0.002564 0.000000 0.045106 0.000000
# 6 0.000000 0.000000 0.000000 0.003059 0.000000 0.028808
#
#
# Mechanical properties :
#
#
# Convention : Reuss Voigt Hill
#
# Bulk Modulus (GPa) = 34.70949 64.81995 49.76472
# Shear Modulus (GPa) = 33.30882 42.17522 37.74202
#
# Velocity S-wave (km/s) = 3.75581 4.22623 3.99794
# Velocity P-wave (km/s) = 5.78856 7.16000 6.51049
#
# Compressibility (1/GPa) = 0.02881056
#
# Stress axis : x y z
#
# Youngs Moduli (GPa) = 163.97858 127.74934 47.74463
#
# Poissons Ratio (x) = 0.31920 0.12539
# Poissons Ratio (y) = 0.40973 -0.10001
# Poissons Ratio (z) = 0.43064 -0.26759
#
# Static dielectric constant tensor:
#      x y z
#    x 1.982400 0.000000 0.115860 
#    y 0.000000 2.006920 0.000000 
#    z 0.115860 0.000000 1.990050 
# 
# From -- ./inp_files/125153.got.cif
#   From: 2010.05.17/outbox.cif.g08.bks.cpg/sg12_63_cif.got.tgz:125153.got - 2010.06.03 13:09:07.
