data_PCOD9168960
_publ_section_title
;
Structure prediction by ZEFSAII (Michael W. Deem and Ramdas Pophale) SiO2 
 PCOD9168960
Probable space group: C 2/M
;
_chemical_formula_sum "Si O2"
_cell_formula_units_Z 44
_cell_length_a 14.469934
_cell_length_b 18.266034
_cell_length_c 11.833652
_cell_angle_alpha 90.000000
_cell_angle_beta 143.654403
_cell_angle_gamma 90.000000
_cell_volume 1853.664325
_symmetry_space_group_name_H-M "C 2/M"
_symmetry_group_IT_number 12
_symmetry_cell_setting 'monoclinic'
loop_
_space_group_symop_operation_xyz
x,y,z
-x,y,-z
-x,-y,-z
x,-y,z
1/2+x,1/2+y,z
1/2-x,1/2+y,-z
1/2-x,1/2-y,-z
1/2+x,1/2-y,z
loop_
_atom_site_type_symbol
_atom_site_label
_atom_site_fract_x
_atom_site_fract_y
_atom_site_fract_z
Si Si1 0.156109 0.500000 0.878988
Si Si2 0.631877 0.757183 0.728926
Si Si3 0.944346 0.831193 0.125058
Si Si4 0.317215 0.000000 0.352813
Si Si5 0.406939 0.876932 0.598134
Si Si6 0.144001 0.702366 0.224878
Si Si7 0.436367 0.500000 0.075248
O O1 0.245279 0.500000 0.838005
O O2 0.048619 0.430027 0.778751
O O3 0.320790 0.500000 0.094671
O O4 0.597171 0.697909 0.791541
O O5 0.489132 0.814033 0.605327
O O6 0.696041 0.712050 0.685298
O O7 0.784290 0.807960 0.903128
O O8 0.080829 0.780025 0.209804
O O9 0.980645 0.915228 0.144109
O O10 0.500000 0.000000 0.500000
O O11 0.304260 0.071573 0.416137
O O12 0.335917 0.846054 0.643031
O O13 0.000000 0.676902 0.000000
O O14 0.500000 0.500000 0.000000
#
# Coordination Sequence:
#
# PCOD9168960 Si02
#       7
#     4   8   8   4   8   8   4
#     4   9  18  28  50  70  91 132 158 206 244 273
#     4   9  16  30  48  68 100 133 156 198 245 292
#     4   9  17  30  48  69  98 131 163 198 240 295
#     4   9  20  30  52  73  91 131 166 207 248 276
#     4  10  16  31  48  70  99 127 166 200 241 292
#     4   9  19  29  47  70  99 135 158 194 244 297
#     4  10  18  31  51  71  95 131 166 203 245 280
#
# _framework density 23.736767
#
# number of rings (size 3 to 8) (size 9 to 14) (size 15 to 20)
#    0.545    2.182    1.818    2.182    0.000    0.000 
#    0.000    9.545    0.000   19.636    0.000    0.000 
#    0.000    0.000    0.000  248.000    0.000    0.000 
#
# Total GULP energy -122597.010681 kJ/mol
# GULP energy per Si atom -5572.591395 kJ/mol
# Density = 2.368274 g / cm^3
# Si number density = 23.736767 Si / 1000 Ang^3
#
#
#
# Elastic Constant Matrix: (Units=GPa)
#
#
# Indices 1 2 3 4 5 6 
#
# 1 190.2586 57.8944 30.9171 0.0000 -32.9358 0.0000
# 2 57.8944 146.0152 32.1566 0.0000 -24.6329 0.0000
# 3 30.9171 32.1566 61.7091 0.0000 -17.2938 0.0000
# 4 0.0000 0.0000 0.0000 16.8943 0.0000 -9.6984
# 5 -32.9358 -24.6329 -17.2938 0.0000 39.7340 0.0000
# 6 0.0000 0.0000 0.0000 -9.6984 0.0000 19.7687
#
#
#
# Elastic Compliance Matrix: (Units=1/GPa)
#
#
# Indices 1 2 3 4 5 6 
#
# 1 0.006664 -0.001685 -0.001373 0.000000 0.003882 0.000000
# 2 -0.001685 0.008605 -0.002889 0.000000 0.002681 0.000000
# 3 -0.001373 -0.002889 0.020019 0.000000 0.005784 0.000000
# 4 0.000000 0.000000 0.000000 0.082397 0.000000 0.040423
# 5 0.003882 0.002681 0.005784 0.000000 0.032564 0.000000
# 6 0.000000 0.000000 0.000000 0.040423 0.000000 0.070416
#
#
# Mechanical properties :
#
#
# Convention : Reuss Voigt Hill
#
# Bulk Modulus (GPa) = 42.74383 71.10210 56.92297
# Shear Modulus (GPa) = 20.80241 33.74706 27.27473
#
# Velocity S-wave (km/s) = 2.96358 3.77466 3.39344
# Velocity P-wave (km/s) = 5.45499 7.00121 6.27590
#
# Compressibility (1/GPa) = 0.02339519
#
# Stress axis : x y z
#
# Youngs Moduli (GPa) = 150.06549 116.21018 49.95205
#
# Poissons Ratio (x) = 0.19581 0.06857
# Poissons Ratio (y) = 0.25286 0.14429
# Poissons Ratio (z) = 0.20601 0.33569
#
# Static dielectric constant tensor:
#      x y z
#    x 2.319130 0.000000 0.865870 
#    y 0.000000 1.860850 0.000000 
#    z 0.865870 0.000000 4.671900 
# 
# From -- ./inp_files/145019.got.cif
#   From: 2010.05.17/outbox.cif.g08.bks.cpg/sg12_73_cif.got.tgz:145019.got - 2010.06.03 13:09:07.
