data_PCOD9168255
_publ_section_title
;
Structure prediction by ZEFSAII (Michael W. Deem and Ramdas Pophale) SiO2 
 PCOD9168255
Probable space group: P 21/M
;
_chemical_formula_sum "Si O2"
_cell_formula_units_Z 32
_cell_length_a 12.000000
_cell_length_b 24.000000
_cell_length_c 18.000000
_cell_angle_alpha 90.000000
_cell_angle_beta 20.000000
_cell_angle_gamma 90.000000
_cell_volume 1773.032423
_symmetry_space_group_name_H-M "P 21/M"
_symmetry_group_IT_number 11
_symmetry_cell_setting 'monoclinic'
loop_
_space_group_symop_operation_xyz
x,y,z
-x,1/2+y,-z
-x,-y,-z
x,1/2-y,z
loop_
_atom_site_type_symbol
_atom_site_label
_atom_site_fract_x
_atom_site_fract_y
_atom_site_fract_z
Si Si1 0.472244 0.925017 0.942491
Si Si2 0.837010 0.882144 0.276232
Si Si3 0.428892 0.471939 0.668677
Si Si4 0.956341 0.933816 0.506490
Si Si5 0.354447 0.401686 0.867892
Si Si6 0.848004 0.548094 0.852214
Si Si7 0.973013 0.818401 0.037528
Si Si8 0.470157 0.098610 0.370564
O O1 0.715315 0.915603 0.722461
O O2 0.640590 0.919933 0.917796
O O3 0.178366 0.884752 0.105392
O O4 0.331914 0.988420 0.025896
O O5 0.777350 0.939424 0.265703
O O6 0.846445 0.837798 0.200396
O O7 0.611709 0.880653 0.492962
O O8 0.378003 0.444160 0.782051
O O9 0.367349 0.537670 0.717519
O O10 0.799012 0.463205 0.406297
O O11 0.813011 0.919063 0.513681
O O12 0.294081 0.903213 0.312514
O O13 0.000000 0.000000 0.500000
O O14 0.252462 0.344734 0.888243
O O15 0.141062 0.421548 0.073915
O O16 0.001144 0.750000 0.016728
O O17 0.302947 0.854961 0.812388
#
# Coordination Sequence:
#
# PCOD9168255 Si02
#       8
#     4   4   4   4   4   4   4   4
#     4  11  20  33  55  91 137 166 184 234 305 384
#     4  11  24  38  62  93 127 163 201 254 316 369
#     4  11  22  34  56  98 133 158 198 237 317 394
#     4  12  20  36  58 101 137 159 194 238 317 396
#     4  11  23  38  63  88 129 170 198 254 309 369
#     4  11  20  34  56  93 137 164 189 234 306 392
#     4  11  28  48  62  83 117 166 226 270 299 345
#     4  12  22  38  67  94 127 164 201 251 312 380
#
# _framework density 18.048175000000001
#
# number of rings (size 3 to 8) (size 9 to 14) (size 15 to 20)
#    0.000    0.750    6.250    1.875    1.750    1.500 
#    0.000    0.625    0.000    2.250    0.000    0.000 
#    0.000    0.000    0.000    0.000    0.000    0.000 
#
# Total GULP energy -178287.158792 kJ/mol
# GULP energy per Si atom -5571.473712 kJ/mol
# Density = 1.800710 g / cm^3
# Si number density = 18.048175 Si / 1000 Ang^3
#
#
#
# Elastic Constant Matrix: (Units=GPa)
#
#
# Indices 1 2 3 4 5 6 
#
# 1 170.5954 40.7027 39.4389 0.0000 13.5972 0.0000
# 2 40.7027 115.0581 26.8284 0.0000 4.7851 0.0000
# 3 39.4389 26.8284 90.2332 0.0000 9.4567 0.0000
# 4 0.0000 0.0000 0.0000 19.5693 0.0000 3.3801
# 5 13.5972 4.7851 9.4567 0.0000 50.7846 0.0000
# 6 0.0000 0.0000 0.0000 3.3801 0.0000 26.9510
#
#
#
# Elastic Compliance Matrix: (Units=1/GPa)
#
#
# Indices 1 2 3 4 5 6 
#
# 1 0.006949 -0.001857 -0.002354 0.000000 -0.001247 0.000000
# 2 -0.001857 0.009842 -0.002111 0.000000 -0.000037 0.000000
# 3 -0.002354 -0.002111 0.012904 0.000000 -0.001574 0.000000
# 4 0.000000 0.000000 0.000000 0.052232 0.000000 -0.006551
# 5 -0.001247 -0.000037 -0.001574 0.000000 0.020321 0.000000
# 6 0.000000 0.000000 0.000000 -0.006551 0.000000 0.037926
#
#
# Mechanical properties :
#
#
# Convention : Reuss Voigt Hill
#
# Bulk Modulus (GPa) = 58.65010 65.53627 62.09319
# Shear Modulus (GPa) = 31.54552 37.38877 34.46714
#
# Velocity S-wave (km/s) = 4.18527 4.55643 4.37479
# Velocity P-wave (km/s) = 7.47812 8.00451 7.74578
#
# Compressibility (1/GPa) = 0.01705027
#
# Stress axis : x y z
#
# Youngs Moduli (GPa) = 143.91374 101.60566 77.49661
#
# Poissons Ratio (x) = 0.18872 0.18244
# Poissons Ratio (y) = 0.26730 0.16356
# Poissons Ratio (z) = 0.33880 0.21444
#
# Static dielectric constant tensor:
#      x y z
#    x 1.635240 0.000000 -0.025730 
#    y 0.000000 1.603500 0.000000 
#    z -0.025730 0.000000 1.769190 
# 
# From -- ./inp_files/59747.got.cif
#   From: 2010.05.17/outbox.ucp.g08.bks.cvg/sg11_30_cif.got.tgz:59747.got - 2010.06.11 11:38:39.
