data_PCOD9168113
_publ_section_title
;
Structure prediction by ZEFSAII (Michael W. Deem and Ramdas Pophale) SiO2 
 PCOD9168113
Probable space group: P 21/M
;
_chemical_formula_sum "Si O2"
_cell_formula_units_Z 32
_cell_length_a 21.000000
_cell_length_b 9.000000
_cell_length_c 27.000000
_cell_angle_alpha 90.000000
_cell_angle_beta 20.000000
_cell_angle_gamma 90.000000
_cell_volume 1745.328791
_symmetry_space_group_name_H-M "P 21/M"
_symmetry_group_IT_number 11
_symmetry_cell_setting 'monoclinic'
loop_
_space_group_symop_operation_xyz
x,y,z
-x,1/2+y,-z
-x,-y,-z
x,1/2-y,z
loop_
_atom_site_type_symbol
_atom_site_label
_atom_site_fract_x
_atom_site_fract_y
_atom_site_fract_z
Si Si1 0.403261 0.570633 0.800845
Si Si2 0.025390 0.072640 0.243178
Si Si3 0.600450 0.920037 0.852619
Si Si4 0.635310 0.572907 0.535679
Si Si5 0.787217 0.419541 0.802451
Si Si6 0.398261 0.428560 0.911029
Si Si7 0.023778 0.430254 0.037133
Si Si8 0.375398 0.572991 0.633546
O O1 0.387114 0.750000 0.813411
O O2 0.560818 0.531828 0.644773
O O3 0.438534 0.506763 0.829598
O O4 0.210195 0.497555 0.924000
O O5 0.019422 0.250000 0.248970
O O6 0.190662 0.031420 0.083783
O O7 0.822208 0.007765 0.381485
O O8 0.083755 0.008824 0.254093
O O9 0.649734 0.750000 0.804450
O O10 0.752979 0.999253 0.775514
O O11 0.412860 0.914578 0.023362
O O12 0.542248 0.013454 0.847189
O O13 0.669388 0.750000 0.510519
O O14 0.471847 0.541315 0.615921
O O15 0.851298 0.250000 0.749275
O O16 0.405983 0.250000 0.900990
O O17 0.032847 0.250000 0.027512
O O18 0.841126 0.470496 0.203257
O O19 0.000000 0.500000 0.000000
O O20 0.500000 0.500000 0.500000
O O21 0.380006 0.750000 0.622539
#
# Coordination Sequence:
#
# PCOD9168113 Si02
#       8
#     4   4   4   4   4   4   4   4
#     4  11  23  40  60  82 110 148 189 230 279 332
#     4  10  21  35  54  82 114 147 186 231 277 330
#     4   9  16  28  49  78 111 146 185 228 274 326
#     4  10  22  41  58  78 111 148 185 228 276 333
#     4   9  16  28  49  77 110 148 184 226 277 326
#     4  10  21  36  54  83 116 146 185 233 278 327
#     4  11  22  40  62  85 112 143 185 231 275 330
#     4  10  23  41  59  84 114 144 182 229 278 330
#
# _framework density 18.334654
#
# number of rings (size 3 to 8) (size 9 to 14) (size 15 to 20)
#    0.000    2.000    1.250    2.250    1.750    7.000 
#    0.000    0.000    0.000    0.750    0.000    0.000 
#    0.000    0.000    0.000    0.000    0.000    0.000 
#
# Total GULP energy -178614.754868 kJ/mol
# GULP energy per Si atom -5581.711090 kJ/mol
# Density = 1.829292 g / cm^3
# Si number density = 18.334654 Si / 1000 Ang^3
#
#
#
# Elastic Constant Matrix: (Units=GPa)
#
#
# Indices 1 2 3 4 5 6 
#
# 1 54.1029 19.0611 -4.9697 0.0000 24.1124 0.0000
# 2 19.0611 61.0300 12.2185 0.0000 13.7631 0.0000
# 3 -4.9697 12.2185 36.0522 0.0000 20.2642 0.0000
# 4 0.0000 0.0000 0.0000 27.3825 0.0000 -0.2940
# 5 24.1124 13.7631 20.2642 0.0000 25.2254 0.0000
# 6 0.0000 0.0000 0.0000 -0.2940 0.0000 36.8367
#
#
#
# Elastic Compliance Matrix: (Units=1/GPa)
#
#
# Indices 1 2 3 4 5 6 
#
# 1 11.506321 -1.579138 14.256337 0.000000-21.589529 0.000000
# 2 -1.579138 0.235431 -1.957652 0.000000 2.953642 0.000000
# 3 14.256337 -1.957652 17.714245 0.000000-26.789514 0.000000
# 4 0.000000 0.000000 0.000000 0.036523 0.000000 0.000291
# 5 -21.589529 2.953642-26.789514 0.000000 40.585767 0.000000
# 6 0.000000 0.000000 0.000000 0.000291 0.000000 0.027149
#
#
# Mechanical properties :
#
#
# Convention : Reuss Voigt Hill
#
# Bulk Modulus (GPa) = 0.01965 22.64499 11.33232
# Shear Modulus (GPa) = 0.07618 26.21393 13.14506
#
# Velocity S-wave (km/s) = 0.20406 3.78530 2.68050
# Velocity P-wave (km/s) = 0.25741 5.61092 3.97169
#
# Compressibility (1/GPa) = 50.89509160
#
# Stress axis : x y z
#
# Youngs Moduli (GPa) = 0.08691 4.24754 0.05645
#
# Poissons Ratio (x) = 6.70745 -0.80480
# Poissons Ratio (y) = 0.13724 0.11051
# Poissons Ratio (z) = -1.23900 8.31520
#
# Static dielectric constant tensor:
#      x y z
#    x 1.634480 0.000000 -0.007570 
#    y 0.000000 1.616390 0.000000 
#    z -0.007570 0.000000 1.614970 
# 
# From -- ./inp_files/72000.got.cif
#   From: 2010.05.17/outbox.ucp.g08.bks.cvg/sg11_36_cif.got.tgz:72000.got - 2010.06.11 11:38:39.
