data_PCOD9168948
_publ_section_title
;
Structure prediction by ZEFSAII (Michael W. Deem and Ramdas Pophale) SiO2 
 PCOD9168948
Probable space group: C 2/M
;
_chemical_formula_sum "Si O2"
_cell_formula_units_Z 40
_cell_length_a 13.004172
_cell_length_b 14.507320
_cell_length_c 11.924631
_cell_angle_alpha 90.000000
_cell_angle_beta 68.110312
_cell_angle_gamma 90.000000
_cell_volume 2087.457279
_symmetry_space_group_name_H-M "C 2/M"
_symmetry_group_IT_number 12
_symmetry_cell_setting 'monoclinic'
loop_
_space_group_symop_operation_xyz
x,y,z
-x,y,-z
-x,-y,-z
x,-y,z
1/2+x,1/2+y,z
1/2-x,1/2+y,-z
1/2-x,1/2-y,-z
1/2+x,1/2-y,z
loop_
_atom_site_type_symbol
_atom_site_label
_atom_site_fract_x
_atom_site_fract_y
_atom_site_fract_z
Si Si1 0.048732 0.171871 0.726956
Si Si2 0.839717 0.500000 0.870365
Si Si3 0.656347 0.203804 0.115087
Si Si4 0.906255 0.000000 0.130704
Si Si5 0.211553 0.303791 0.354213
Si Si6 0.620688 0.000000 0.399949
Si Si7 0.500000 0.681924 0.500000
O O1 0.954049 0.234758 0.822882
O O2 0.164879 0.226146 0.664632
O O3 0.012449 0.136388 0.617932
O O4 0.078153 0.088614 0.797349
O O5 0.865183 0.598417 0.916203
O O6 0.710227 0.500000 0.887035
O O7 0.899357 0.500000 0.725640
O O8 0.703012 0.196258 0.222690
O O9 0.750000 0.250000 0.000000
O O10 0.000000 0.000000 0.000000
O O11 0.187944 0.408357 0.402753
O O12 0.110335 0.243256 0.439708
O O13 0.500000 0.000000 0.500000
#
# Coordination Sequence:
#
# PCOD9168948 Si02
#       7
#     8   4   8   4   8   4   4
#     4  11  22  37  61  88 125 160 199 256 304 362
#     4  10  20  40  57  88 120 151 211 245 288 369
#     4  10  21  36  60  91 123 157 203 257 306 352
#     4  12  22  37  64  92 112 158 211 249 294 363
#     4  10  19  35  56  88 117 160 201 247 300 369
#     4  10  16  30  59  82 116 147 206 254 287 341
#     4  10  22  36  54  84 126 156 194 241 316 367
#
# _framework density 19.162068999999999
#
# number of rings (size 3 to 8) (size 9 to 14) (size 15 to 20)
#    0.000    1.600    5.000    1.800    0.000    0.400 
#    0.000    0.000    0.000    7.200    0.000    0.000 
#    0.000    0.000    0.000    0.000    0.000    0.000 
#
# Total GULP energy -111500.557704 kJ/mol
# GULP energy per Si atom -5575.027885 kJ/mol
# Density = 1.911846 g / cm^3
# Si number density = 19.162069 Si / 1000 Ang^3
#
#
#
# Elastic Constant Matrix: (Units=GPa)
#
#
# Indices 1 2 3 4 5 6 
#
# 1 102.2643 18.4034 31.2936 0.0000 -34.7832 0.0000
# 2 18.4034 63.6917 15.8540 0.0000 -16.9756 0.0000
# 3 31.2936 15.8540 99.1459 0.0000 -38.8295 0.0000
# 4 0.0000 0.0000 0.0000 1.0349 0.0000 -14.7716
# 5 -34.7832 -16.9756 -38.8295 0.0000 38.1744 0.0000
# 6 0.0000 0.0000 0.0000 -14.7716 0.0000 12.5376
#
#
#
# Elastic Compliance Matrix: (Units=1/GPa)
#
#
# Indices 1 2 3 4 5 6 
#
# 1 0.014256 -0.000721 0.000960 0.000000 0.013645 0.000000
# 2 -0.000721 0.017859 0.000374 0.000000 0.007664 0.000000
# 3 0.000960 0.000374 0.016839 0.000000 0.018169 0.000000
# 4 0.000000 0.000000 0.000000 -0.061092 0.000000 -0.071978
# 5 0.013645 0.007664 0.018169 0.000000 0.060517 0.000000
# 6 0.000000 0.000000 0.000000 -0.071978 0.000000 -0.005043
#
#
# Mechanical properties :
#
#
# Convention : Reuss Voigt Hill
#
# Bulk Modulus (GPa) = 19.92930 44.02263 31.97596
# Shear Modulus (GPa) = 84.97929 23.65275 54.31602
#
# Velocity S-wave (km/s) = 6.66663 3.51715 5.32983
# Velocity P-wave (km/s) = 8.34755 6.28629 7.38915
#
# Compressibility (1/GPa) = 0.05017739
#
# Stress axis : x y z
#
# Youngs Moduli (GPa) = 70.14739 55.99470 59.38569
#
# Poissons Ratio (x) = 0.04039 -0.05698
# Poissons Ratio (y) = 0.05060 -0.02219
# Poissons Ratio (z) = -0.06731 -0.02092
#
# Static dielectric constant tensor:
#      x y z
#    x 1.696950 0.000000 -0.013560 
#    y 0.000000 1.703900 0.000000 
#    z -0.013560 0.000000 1.685990 
# 
# From -- ./inp_files/129652.got.cif
#   From: 2010.05.17/outbox.cif.g08.bks.cpg/sg12_65_cif.got.tgz:129652.got - 2010.06.03 13:09:07.
