data_PCOD9168713
_publ_section_title
;
Structure prediction by ZEFSAII (Michael W. Deem and Ramdas Pophale) SiO2 
 PCOD9168713
Probable space group: C 2/M
;
_chemical_formula_sum "Si O2"
_cell_formula_units_Z 64
_cell_length_a 31.316584
_cell_length_b 7.487931
_cell_length_c 15.697930
_cell_angle_alpha 90.000000
_cell_angle_beta 78.168629
_cell_angle_gamma 90.000000
_cell_volume 3602.904253
_symmetry_space_group_name_H-M "C 2/M"
_symmetry_group_IT_number 12
_symmetry_cell_setting 'monoclinic'
loop_
_space_group_symop_operation_xyz
x,y,z
-x,y,-z
-x,-y,-z
x,-y,z
1/2+x,1/2+y,z
1/2-x,1/2+y,-z
1/2-x,1/2-y,-z
1/2+x,1/2-y,z
loop_
_atom_site_type_symbol
_atom_site_label
_atom_site_fract_x
_atom_site_fract_y
_atom_site_fract_z
Si Si1 0.195158 0.289734 0.586055
Si Si2 0.542401 0.717493 0.873407
Si Si3 0.789222 0.287384 0.792309
Si Si4 0.553752 0.717555 0.066404
Si Si5 0.648064 0.714876 0.078778
Si Si6 0.806206 0.781686 0.113685
Si Si7 0.869560 0.784750 0.241929
Si Si8 0.710477 0.204273 0.394277
O O1 0.205442 0.500000 0.575847
O O2 0.152625 0.267360 0.660565
O O3 0.236938 0.205184 0.615815
O O4 0.192811 0.217702 0.490456
O O5 0.542046 0.500000 0.871472
O O6 0.492818 0.776794 0.877102
O O7 0.581353 0.778211 0.796595
O O8 0.554029 0.766492 0.966191
O O9 0.783135 0.500000 0.783691
O O10 0.826877 0.260172 0.845426
O O11 0.742924 0.219998 0.847462
O O12 0.798960 0.213719 0.693998
O O13 0.553642 0.500000 0.068579
O O14 0.598191 0.779090 0.092065
O O15 0.646673 0.500000 0.073672
O O16 0.675113 0.777868 0.984936
O O17 0.838177 0.725930 0.177181
O O18 0.806296 0.000000 0.112543
O O19 0.870040 0.000000 0.239039
O O20 0.694463 0.000000 0.398720
#
# Coordination Sequence:
#
# PCOD9168713 Si02
#       8
#     8   8   8   8   8   8   8   8
#     4  10  19  29  45  68  89 109 140 183 225 260
#     4   8  13  22  42  66  86 112 146 177 212 260
#     4  10  19  31  44  58  83 120 154 176 203 254
#     4   8  13  23  40  65  89 109 142 187 218 245
#     4  10  18  28  43  64  89 115 146 185 217 241
#     4   9  16  27  42  60  86 119 149 173 203 247
#     4  10  16  27  46  66  89 120 147 170 210 266
#     4   9  18  33  48  61  83 116 148 180 218 259
#
# _framework density 17.763448
#
# number of rings (size 3 to 8) (size 9 to 14) (size 15 to 20)
#    0.000    2.750    2.500    1.500    0.000    1.000 
#    0.000    0.625    0.000    0.750    0.000    2.625 
#    0.000    7.000    0.000    0.000    0.000    0.000 
#
# Total GULP energy -178439.524525 kJ/mol
# GULP energy per Si atom -5576.235141 kJ/mol
# Density = 1.772302 g / cm^3
# Si number density = 17.763448 Si / 1000 Ang^3
#
#
#
# Elastic Constant Matrix: (Units=GPa)
#
#
# Indices 1 2 3 4 5 6 
#
# 1 128.6013 -1.0765 91.1277 0.0000 -6.0657 0.0000
# 2 -1.0765 48.8244 1.4085 0.0000 1.9715 0.0000
# 3 91.1277 1.4085 150.0879 0.0000 -6.7440 0.0000
# 4 0.0000 0.0000 0.0000 4.5041 0.0000 1.9095
# 5 -6.0657 1.9715 -6.7440 0.0000 27.2526 0.0000
# 6 0.0000 0.0000 0.0000 1.9095 0.0000 9.1111
#
#
#
# Elastic Compliance Matrix: (Units=1/GPa)
#
#
# Indices 1 2 3 4 5 6 
#
# 1 0.013687 0.000502 -0.008272 0.000000 0.000963 0.000000
# 2 0.000502 0.020570 -0.000566 0.000000 -0.001516 0.000000
# 3 -0.008272 -0.000566 0.011740 0.000000 0.001105 0.000000
# 4 0.000000 0.000000 0.000000 0.243673 0.000000 -0.051069
# 5 0.000963 -0.001516 0.001105 0.000000 0.037291 0.000000
# 6 0.000000 0.000000 0.000000 -0.051069 0.000000 0.120459
#
#
# Mechanical properties :
#
#
# Convention : Reuss Voigt Hill
#
# Bulk Modulus (GPa) = 34.10007 56.71477 45.40742
# Shear Modulus (GPa) = 10.55149 23.91049 17.23099
#
# Velocity S-wave (km/s) = 2.43986 3.67284 3.11790
# Velocity P-wave (km/s) = 5.21303 7.06989 6.21124
#
# Compressibility (1/GPa) = 0.02932546
#
# Stress axis : x y z
#
# Youngs Moduli (GPa) = 73.06245 48.61412 85.17931
#
# Poissons Ratio (x) = -0.02438 0.70457
# Poissons Ratio (y) = -0.03664 0.04818
# Poissons Ratio (z) = 0.60434 0.02750
#
# Static dielectric constant tensor:
#      x y z
#    x 1.594100 0.000000 -0.016030 
#    y 0.000000 1.691420 0.000000 
#    z -0.016030 0.000000 1.613980 
# 
# From -- ./inp_files/248267.got.cif
#   From: 2010.05.17/outbox.cif.g08.bks.cpg/sg12_125_cif.got.tgz:248267.got - 2010.06.03 13:09:07.
