data_PCOD9168863
_publ_section_title
;
Structure prediction by ZEFSAII (Michael W. Deem and Ramdas Pophale) SiO2 
 PCOD9168863
Probable space group: C 2/M
;
_chemical_formula_sum "Si O2"
_cell_formula_units_Z 56
_cell_length_a 5.368362
_cell_length_b 27.621785
_cell_length_c 29.364259
_cell_angle_alpha 90.000000
_cell_angle_beta 68.553827
_cell_angle_gamma 90.000000
_cell_volume 4052.760848
_symmetry_space_group_name_H-M "C 2/M"
_symmetry_group_IT_number 12
_symmetry_cell_setting 'monoclinic'
loop_
_space_group_symop_operation_xyz
x,y,z
-x,y,-z
-x,-y,-z
x,-y,z
1/2+x,1/2+y,z
1/2-x,1/2+y,-z
1/2-x,1/2-y,-z
1/2+x,1/2-y,z
loop_
_atom_site_type_symbol
_atom_site_label
_atom_site_fract_x
_atom_site_fract_y
_atom_site_fract_z
Si Si1 0.361469 0.770878 0.444254
Si Si2 0.193662 0.941004 0.028170
Si Si3 0.686052 0.116219 0.531977
Si Si4 0.967267 0.058986 0.141362
Si Si5 0.854461 0.440965 0.197767
Si Si6 0.628658 0.558850 0.310718
Si Si7 0.486015 0.941510 0.631943
O O1 0.250000 0.750000 0.500000
O O2 0.658415 0.750004 0.420785
O O3 0.352245 0.828411 0.448852
O O4 0.080467 0.925726 0.084768
O O5 0.193794 0.000000 0.028104
O O6 0.500000 0.925695 0.000000
O O7 0.000000 0.925695 0.000000
O O8 0.500000 0.109421 0.500000
O O9 0.593642 0.080905 0.578162
O O10 0.000000 0.109407 0.500000
O O11 0.160915 0.074255 0.169546
O O12 0.660881 0.074254 0.169540
O O13 0.967176 0.000000 0.141408
O O14 0.854207 0.500000 0.197892
O O15 0.741489 0.425297 0.254270
O O16 0.629950 0.500000 0.310070
O O17 0.321436 0.573562 0.339002
O O18 0.822837 0.573561 0.338984
O O19 0.491971 0.000000 0.628964
#
# Coordination Sequence:
#
# PCOD9168863 Si02
#       7
#     8   8   8   8   8   8   8
#     4  10  16  30  47  65  83  99 120 150 181 211
#     4   9  15  21  27  36  57  85 102 122 167 222
#     4  12  21  31  48  65  81 104 127 149 180 217
#     4   9  15  21  30  47  61  73 106 145 173 212
#     4   9  15  23  37  50  59  76 107 149 183 207
#     4   9  17  31  44  53  70  96 121 150 191 223
#     4  10  21  33  43  58  80 103 127 151 179 228
#
# _framework density 13.817741
#
# number of rings (size 3 to 8) (size 9 to 14) (size 15 to 20)
#    0.000    2.286    2.857    2.571    0.000    7.429 
#    0.000    0.000    0.000    0.000    0.000    0.000 
#    0.000    0.000    0.000    0.000    0.000    0.000 
#
# Total GULP energy -155968.256165 kJ/mol
# GULP energy per Si atom -5570.294863 kJ/mol
# Density = 1.378629 g / cm^3
# Si number density = 13.817741 Si / 1000 Ang^3
#
#
#
# Elastic Constant Matrix: (Units=GPa)
#
#
# Indices 1 2 3 4 5 6 
#
# 1 182.9743 18.0782 92.8239 0.0000 -1.4105 0.0000
# 2 18.0782 15.4822 21.6239 0.0000 0.0912 0.0000
# 3 92.8239 21.6239 127.0986 0.0000 -0.2100 0.0000
# 4 0.0000 0.0000 0.0000 -0.8112 0.0000 -0.1816
# 5 -1.4105 0.0912 -0.2100 0.0000 20.4183 0.0000
# 6 0.0000 0.0000 0.0000 -0.1816 0.0000 5.7187
#
#
#
# Elastic Compliance Matrix: (Units=1/GPa)
#
#
# Indices 1 2 3 4 5 6 
#
# 1 0.008721 -0.001695 -0.006080 0.000000 0.000548 0.000000
# 2 -0.001695 0.085058 -0.013235 0.000000 -0.000633 0.000000
# 3 -0.006080 -0.013235 0.014560 0.000000 -0.000211 0.000000
# 4 0.000000 0.000000 0.000000 -1.224006 0.000000 -0.038864
# 5 0.000548 -0.000633 -0.000211 0.000000 0.049014 0.000000
# 6 0.000000 0.000000 0.000000 -0.038864 0.000000 0.173632
#
#
# Mechanical properties :
#
#
# Convention : Reuss Voigt Hill
#
# Bulk Modulus (GPa) = 15.07843 65.62301 40.35072
# Shear Modulus (GPa) = -6.03213 17.93375 5.95081
#
# Velocity S-wave (km/s) = -2.09164 3.60652 2.07750
# Velocity P-wave (km/s) = 2.25893 8.05839 5.91778
#
# Compressibility (1/GPa) = 0.06631990
#
# Stress axis : x y z
#
# Youngs Moduli (GPa) = 114.65919 11.75668 68.68184
#
# Poissons Ratio (x) = 0.01992 0.41761
# Poissons Ratio (y) = 0.19432 0.90898
# Poissons Ratio (z) = 0.69717 0.15560
#
# Static dielectric constant tensor:
#      x y z
#    x 1.411360 0.000000 0.000850 
#    y 0.000000 1.415490 0.000000 
#    z 0.000850 0.000000 1.442200 
# 
# From -- ./inp_files/331500.got.cif
#   From: 2010.05.17/outbox.cif.g08.bks.cpg/sg12_166_cif.got.tgz:331500.got - 2010.06.03 13:09:07.
