data_PCOD9168645
_publ_section_title
;
Structure prediction by ZEFSAII (Michael W. Deem and Ramdas Pophale) SiO2 
 PCOD9168645
Probable space group: C 2/M
;
_chemical_formula_sum "Si O2"
_cell_formula_units_Z 52
_cell_length_a 20.110492
_cell_length_b 23.156227
_cell_length_c 15.256532
_cell_angle_alpha 90.000000
_cell_angle_beta 156.817703
_cell_angle_gamma 90.000000
_cell_volume 2796.824981
_symmetry_space_group_name_H-M "C 2/M"
_symmetry_group_IT_number 12
_symmetry_cell_setting 'monoclinic'
loop_
_space_group_symop_operation_xyz
x,y,z
-x,y,-z
-x,-y,-z
x,-y,z
1/2+x,1/2+y,z
1/2-x,1/2+y,-z
1/2-x,1/2-y,-z
1/2+x,1/2-y,z
loop_
_atom_site_type_symbol
_atom_site_label
_atom_site_fract_x
_atom_site_fract_y
_atom_site_fract_z
Si Si1 0.567167 0.565939 0.412367
Si Si2 0.276418 0.324106 0.457039
Si Si3 0.857206 0.565796 0.901121
Si Si4 0.725983 0.353811 0.888349
Si Si5 0.500000 0.266476 0.500000
Si Si6 0.837807 0.248541 0.842330
Si Si7 0.988852 0.274436 0.215877
O O1 0.556363 0.500000 0.370184
O O2 0.678720 0.609196 0.489582
O O3 0.673153 0.566454 0.631767
O O4 0.387566 0.596758 0.206016
O O5 0.189681 0.301274 0.261182
O O6 0.446755 0.286006 0.669568
O O7 0.160651 0.307928 0.399232
O O8 0.887014 0.500000 0.969032
O O9 0.845964 0.612717 0.963652
O O10 0.000000 0.576774 0.000000
O O11 0.597270 0.311127 0.681791
O O12 0.851510 0.313880 0.098049
O O13 0.644085 0.229824 0.624391
O O14 0.902282 0.263268 0.017120
O O15 0.000000 0.214440 0.000000
#
# Coordination Sequence:
#
# PCOD9168645 Si02
#       7
#     8   8   8   8   4   8   8
#     4  11  20  29  43  63  93 129 158 192 233 284
#     4  10  18  35  48  70  96 122 160 199 241 287
#     4  10  19  29  43  63  89 127 167 196 228 275
#     4  11  17  29  41  64  91 123 158 193 231 281
#     4  10  16  26  43  66  86 126 155 186 224 286
#     4   9  17  31  48  67  98 128 153 196 241 281
#     4   9  20  30  52  69  90 128 158 196 246 291
#
# _framework density 18.592511999999999
#
# number of rings (size 3 to 8) (size 9 to 14) (size 15 to 20)
#    0.000    2.000    3.077    2.308    0.000    4.923 
#    0.000    0.769    0.000    0.000    0.000    0.000 
#    0.000   19.077    0.000    0.000    0.000    0.000 
#
# Total GULP energy -144760.543310 kJ/mol
# GULP energy per Si atom -5567.713204 kJ/mol
# Density = 1.855019 g / cm^3
# Si number density = 18.592512 Si / 1000 Ang^3
#
#
#
# Elastic Constant Matrix: (Units=GPa)
#
#
# Indices 1 2 3 4 5 6 
#
# 1 35.9302 3.3113 12.1550 0.0000 19.0469 0.0000
# 2 3.3113 88.5846 36.0636 0.0000 -1.7317 0.0000
# 3 12.1550 36.0636 81.0956 0.0000 21.7049 0.0000
# 4 0.0000 0.0000 0.0000 25.3986 0.0000 6.8731
# 5 19.0469 -1.7317 21.7049 0.0000 28.4308 0.0000
# 6 0.0000 0.0000 0.0000 6.8731 0.0000 17.7057
#
#
#
# Elastic Compliance Matrix: (Units=1/GPa)
#
#
# Indices 1 2 3 4 5 6 
#
# 1 0.044309 -0.003882 0.003888 0.000000 -0.032889 0.000000
# 2 -0.003882 0.015306 -0.009012 0.000000 0.010413 0.000000
# 3 0.003888 -0.009012 0.020863 0.000000 -0.019081 0.000000
# 4 0.000000 0.000000 0.000000 0.043994 0.000000 -0.017078
# 5 -0.032889 0.010413 -0.019081 0.000000 0.072408 0.000000
# 6 0.000000 0.000000 0.000000 -0.017078 0.000000 0.063108
#
#
# Mechanical properties :
#
#
# Convention : Reuss Voigt Hill
#
# Bulk Modulus (GPa) = 16.00878 34.29668 25.15273
# Shear Modulus (GPa) = 16.73240 24.57905 20.65572
#
# Velocity S-wave (km/s) = 3.00318 3.63986 3.33674
# Velocity P-wave (km/s) = 4.54472 6.01260 5.32944
#
# Compressibility (1/GPa) = 0.06246574
#
# Stress axis : x y z
#
# Youngs Moduli (GPa) = 22.56883 65.33352 47.93197
#
# Poissons Ratio (x) = 0.25362 -0.18634
# Poissons Ratio (y) = 0.08761 0.43195
# Poissons Ratio (z) = -0.08774 0.58877
#
# Static dielectric constant tensor:
#      x y z
#    x 1.731860 0.000000 0.067300 
#    y 0.000000 1.649970 0.000000 
#    z 0.067300 0.000000 1.730460 
# 
# From -- ./inp_files/290771.got.cif
#   From: 2010.05.17/outbox.cif.g08.bks.cpg/sg12_146_cif.got.tgz:290771.got - 2010.06.03 13:09:07.
