data_PCOD9168240
_publ_section_title
;
Structure prediction by ZEFSAII (Michael W. Deem and Ramdas Pophale) SiO2 
 PCOD9168240
Probable space group: P 21/M
;
_chemical_formula_sum "Si O2"
_cell_formula_units_Z 32
_cell_length_a 12.000000
_cell_length_b 9.000000
_cell_length_c 15.000000
_cell_angle_alpha 90.000000
_cell_angle_beta 110.000000
_cell_angle_gamma 90.000000
_cell_volume 1522.302046
_symmetry_space_group_name_H-M "P 21/M"
_symmetry_group_IT_number 11
_symmetry_cell_setting 'monoclinic'
loop_
_space_group_symop_operation_xyz
x,y,z
-x,1/2+y,-z
-x,-y,-z
x,1/2-y,z
loop_
_atom_site_type_symbol
_atom_site_label
_atom_site_fract_x
_atom_site_fract_y
_atom_site_fract_z
Si Si1 0.123565 0.573672 0.063165
Si Si2 0.828524 0.576327 0.101739
Si Si3 0.471331 0.924628 0.223800
Si Si4 0.622822 0.427435 0.005253
Si Si5 0.712771 0.427136 0.346778
Si Si6 0.737279 0.925742 0.737038
Si Si7 0.931851 0.925718 0.311947
Si Si8 0.798452 0.426100 0.568648
O O1 0.115351 0.750000 0.070635
O O2 0.175348 0.502982 0.166417
O O3 0.190460 0.529372 0.990363
O O4 0.000000 0.500000 0.000000
O O5 0.836745 0.750000 0.078472
O O6 0.926556 0.544187 0.202951
O O7 0.701605 0.526291 0.099836
O O8 0.467992 0.750000 0.245851
O O9 0.402976 0.938025 0.110489
O O10 0.603316 0.985979 0.273413
O O11 0.391921 0.021817 0.268876
O O12 0.636359 0.250000 0.028163
O O13 0.500000 0.500000 0.000000
O O14 0.694685 0.250000 0.335124
O O15 0.833317 0.474823 0.330561
O O16 0.736204 0.464105 0.458156
O O17 0.752969 0.750000 0.748473
O O18 0.757378 0.981717 0.642750
O O19 0.901313 0.750000 0.310634
O O20 0.058988 0.948521 0.391638
O O21 0.779448 0.250000 0.580136
#
# Coordination Sequence:
#
# PCOD9168240 Si02
#       8
#     4   4   4   4   4   4   4   4
#     4  12  24  40  62  91 128 169 211 258 312 373
#     4  11  22  37  60  91 124 163 208 253 310 376
#     4  11  24  43  65  90 128 175 217 265 327 390
#     4  11  23  38  59  87 122 166 209 257 316 377
#     4  11  24  41  66  97 127 167 218 274 331 386
#     4  12  25  42  67  97 129 169 218 271 326 387
#     4  10  22  41  65  94 130 170 212 264 327 391
#     4  10  23  44  67  93 129 171 216 270 331 391
#
# _framework density 21.020796000000001
#
# number of rings (size 3 to 8) (size 9 to 14) (size 15 to 20)
#    0.000    1.000    1.250    5.625    0.000    8.500 
#    0.000    0.000    0.000    0.000    0.000    0.000 
#    0.000    0.000    0.000    0.000    0.000    0.000 
#
# Total GULP energy -178358.210577 kJ/mol
# GULP energy per Si atom -5573.694081 kJ/mol
# Density = 2.097295 g / cm^3
# Si number density = 21.020796 Si / 1000 Ang^3
#
#
#
# Elastic Constant Matrix: (Units=GPa)
#
#
# Indices 1 2 3 4 5 6 
#
# 1 22.4354 31.4272 33.2412 0.0000 5.0683 0.0000
# 2 31.4272 112.8733 58.3446 0.0000 -9.5259 0.0000
# 3 33.2412 58.3446 116.2944 0.0000 3.9801 0.0000
# 4 0.0000 0.0000 0.0000 33.2553 0.0000 -1.5596
# 5 5.0683 -9.5259 3.9801 0.0000 34.0120 0.0000
# 6 0.0000 0.0000 0.0000 -1.5596 0.0000 31.6292
#
#
#
# Elastic Compliance Matrix: (Units=1/GPa)
#
#
# Indices 1 2 3 4 5 6 
#
# 1 0.108343 -0.021873 -0.019310 0.000000 -0.020011 0.000000
# 2 -0.021873 0.016966 -0.002544 0.000000 0.008309 0.000000
# 3 -0.019310 -0.002544 0.015382 0.000000 0.000365 0.000000
# 4 0.000000 0.000000 0.000000 0.030140 0.000000 0.001486
# 5 -0.020011 0.008309 0.000365 0.000000 0.034668 0.000000
# 6 0.000000 0.000000 0.000000 0.001486 0.000000 0.031690
#
#
# Mechanical properties :
#
#
# Convention : Reuss Voigt Hill
#
# Bulk Modulus (GPa) = 18.78390 55.29210 37.03800
# Shear Modulus (GPa) = 14.60330 28.35198 21.47764
#
# Velocity S-wave (km/s) = 2.63859 3.67653 3.19992
# Velocity P-wave (km/s) = 4.27061 6.66207 5.59559
#
# Compressibility (1/GPa) = 0.05323709
#
# Stress axis : x y z
#
# Youngs Moduli (GPa) = 9.22993 58.94198 65.01096
#
# Poissons Ratio (x) = 1.28927 1.25534
# Poissons Ratio (y) = 0.20189 0.16538
# Poissons Ratio (z) = 0.17823 0.14994
#
# Static dielectric constant tensor:
#      x y z
#    x 1.605770 0.000000 -0.110650 
#    y 0.000000 1.703720 0.000000 
#    z -0.110650 0.000000 1.857630 
# 
# From -- ./inp_files/49446.got.cif
#   From: 2010.05.17/outbox.ucp.g08.bks.cvg/sg11_25_cif.got.tgz:49446.got - 2010.06.11 11:38:39.
