data_PCOD9168595
_publ_section_title
;
Structure prediction by ZEFSAII (Michael W. Deem and Ramdas Pophale) SiO2 
 PCOD9168595
Probable space group: C 2/M
;
_chemical_formula_sum "Si O2"
_cell_formula_units_Z 48
_cell_length_a 5.442670
_cell_length_b 14.392494
_cell_length_c 28.680766
_cell_angle_alpha 90.000000
_cell_angle_beta 106.537430
_cell_angle_gamma 90.000000
_cell_volume 2153.731846
_symmetry_space_group_name_H-M "C 2/M"
_symmetry_group_IT_number 12
_symmetry_cell_setting 'monoclinic'
loop_
_space_group_symop_operation_xyz
x,y,z
-x,y,-z
-x,-y,-z
x,-y,z
1/2+x,1/2+y,z
1/2-x,1/2+y,-z
1/2-x,1/2-y,-z
1/2+x,1/2-y,z
loop_
_atom_site_type_symbol
_atom_site_label
_atom_site_fract_x
_atom_site_fract_y
_atom_site_fract_z
Si Si1 0.200996 0.651585 0.800354
Si Si2 0.581203 0.188470 0.053842
Si Si3 0.550694 0.612063 0.366755
Si Si4 0.965751 0.612939 0.310126
Si Si5 0.238870 0.637133 0.159554
Si Si6 0.280686 0.354376 0.520462
O O1 0.113621 0.660267 0.742504
O O2 0.475278 0.602949 0.816865
O O3 0.241158 0.752064 0.827007
O O4 0.976814 0.602913 0.817026
O O5 0.336011 0.250167 0.056867
O O6 0.652618 0.125820 0.101699
O O7 0.500000 0.144380 0.000000
O O8 0.555902 0.500000 0.370244
O O9 0.760087 0.637619 0.338946
O O10 0.632408 0.648610 0.421529
O O11 0.258039 0.637619 0.338821
O O12 0.955303 0.500000 0.303195
O O13 0.500000 0.397821 0.500000
O O14 0.250000 0.250000 0.500000
O O15 0.000000 0.397829 0.500000
#
# Coordination Sequence:
#
# PCOD9168595 Si02
#       6
#     8   8   8   8   8   8
#     4  10  18  30  48  67  98 129 159 204 247 292
#     4  10  16  25  41  63  96 131 163 201 247 304
#     4  10  21  38  58  76  99 131 169 208 244 289
#     4  10  21  37  54  75  99 131 173 208 240 282
#     4  10  17  30  43  70 100 126 161 199 254 306
#     4  10  21  38  56  81 110 134 159 200 249 295
#
# _framework density 22.286897
#
# number of rings (size 3 to 8) (size 9 to 14) (size 15 to 20)
#    0.000    2.000    3.333    2.000    0.000    0.667 
#    0.000   20.000    0.000    0.000    0.000    0.000 
#    0.000    7.333    0.000    0.000    0.000    0.000 
#
# Total GULP energy -134095.958257 kJ/mol
# GULP energy per Si atom -5587.331594 kJ/mol
# Density = 2.223617 g / cm^3
# Si number density = 22.286897 Si / 1000 Ang^3
#
#
#
# Elastic Constant Matrix: (Units=GPa)
#
#
# Indices 1 2 3 4 5 6 
#
# 1 256.9327 7.7370 93.0453 0.0000 -1.0461 0.0000
# 2 7.7370 85.3434 10.5872 0.0000 0.0247 0.0000
# 3 93.0453 10.5872 239.5334 0.0000 0.7038 0.0000
# 4 0.0000 0.0000 0.0000 -54.9702 0.0000 -0.5872
# 5 -1.0461 0.0247 0.7038 0.0000 47.4031 0.0000
# 6 0.0000 0.0000 0.0000 -0.5872 0.0000 -22.7410
#
#
#
# Elastic Compliance Matrix: (Units=1/GPa)
#
#
# Indices 1 2 3 4 5 6 
#
# 1 0.004533 -0.000194 -0.001753 0.000000 0.000126 0.000000
# 2 -0.000194 0.011790 -0.000446 0.000000 -0.000004 0.000000
# 3 -0.001753 -0.000446 0.004876 0.000000 -0.000111 0.000000
# 4 0.000000 0.000000 0.000000 -0.018197 0.000000 0.000470
# 5 0.000126 -0.000004 -0.000111 0.000000 0.021100 0.000000
# 6 0.000000 0.000000 0.000000 0.000470 0.000000 -0.043986
#
#
# Mechanical properties :
#
#
# Convention : Reuss Voigt Hill
#
# Bulk Modulus (GPa) = 60.92115 89.39430 75.15773
# Shear Modulus (GPa) = -519.35888 25.30105 -247.02891
#
# Velocity S-wave (km/s) = -15.28199 3.37299 -10.53950
# Velocity P-wave (km/s) = 16.85204 7.44091 10.69168
#
# Compressibility (1/GPa) = 0.01641466
#
# Stress axis : x y z
#
# Youngs Moduli (GPa) = 220.59831 84.81594 205.10145
#
# Poissons Ratio (x) = 0.01642 0.35948
# Poissons Ratio (y) = 0.04270 0.09146
# Poissons Ratio (z) = 0.38664 0.03782
#
# Static dielectric constant tensor:
#      x y z
#    x 1.751130 0.000000 -0.000230 
#    y 0.000000 1.865310 0.000000 
#    z -0.000230 0.000000 1.753420 
# 
# From -- ./inp_files/331137.got.cif
#   From: 2010.05.17/outbox.cif.g08.bks.cpg/sg12_166_cif.got.tgz:331137.got - 2010.06.03 13:09:07.
