data_PCOD9168544
_publ_section_title
;
Structure prediction by ZEFSAII (Michael W. Deem and Ramdas Pophale) SiO2 
 PCOD9168544
Probable space group: C 2/M
;
_chemical_formula_sum "Si O2"
_cell_formula_units_Z 36
_cell_length_a 17.629698
_cell_length_b 8.467500
_cell_length_c 19.955379
_cell_angle_alpha 90.000000
_cell_angle_beta 154.175313
_cell_angle_gamma 90.000000
_cell_volume 1297.677729
_symmetry_space_group_name_H-M "C 2/M"
_symmetry_group_IT_number 12
_symmetry_cell_setting 'monoclinic'
loop_
_space_group_symop_operation_xyz
x,y,z
-x,y,-z
-x,-y,-z
x,-y,z
1/2+x,1/2+y,z
1/2-x,1/2+y,-z
1/2-x,1/2-y,-z
1/2+x,1/2-y,z
loop_
_atom_site_type_symbol
_atom_site_label
_atom_site_fract_x
_atom_site_fract_y
_atom_site_fract_z
Si Si1 0.077504 0.683582 0.324817
Si Si2 0.919983 0.000000 0.207623
Si Si3 0.383521 0.325940 0.839479
Si Si4 0.999585 0.670324 0.592885
Si Si5 0.474719 0.000000 0.061878
Si Si6 0.917795 0.000000 0.509914
O O1 0.104585 0.500000 0.321254
O O2 0.250000 0.750000 0.500000
O O3 0.953556 0.662898 0.291637
O O4 0.990869 0.842607 0.226872
O O5 0.714627 0.000000 0.055969
O O6 0.982722 0.000000 0.337167
O O7 0.409606 0.500000 0.830452
O O8 0.181951 0.309225 0.700898
O O9 0.500000 0.327453 0.000000
O O10 0.438741 0.164119 0.847768
O O11 0.922230 0.500000 0.514545
O O12 0.869789 0.813910 0.474611
O O13 0.500000 0.000000 0.000000
O O14 0.000000 0.000000 0.500000
#
# Coordination Sequence:
#
# PCOD9168544 Si02
#       6
#     8   4   8   8   4   4
#     4  10  17  27  41  56  78 110 146 174 199 238
#     4  10  20  30  40  62  88 114 146 168 206 244
#     4   9  15  24  39  58  80 109 136 154 199 253
#     4   9  18  29  41  60  86 113 142 170 205 246
#     4  10  16  24  40  58  82 112 134 160 196 250
#     4  10  18  28  42  56  78 114 152 182 204 230
#
# _framework density 27.741865000000001
#
# number of rings (size 3 to 8) (size 9 to 14) (size 15 to 20)
#    0.000    2.444    1.111    6.000    0.000    3.111 
#    0.000    0.000    0.000    0.000    0.000    0.000 
#    0.000    0.000    0.000  200.000   87.111    8.889 
#
# Total GULP energy -100283.434511 kJ/mol
# GULP energy per Si atom -5571.301917 kJ/mol
# Density = 2.767872 g / cm^3
# Si number density = 27.741865 Si / 1000 Ang^3
#
#
#
# Elastic Constant Matrix: (Units=GPa)
#
#
# Indices 1 2 3 4 5 6 
#
# 1 65.8210 51.9285 7.7020 0.0001 -12.8954 -0.0001
# 2 51.9285 404.2904 92.9611 -0.0006 29.1839 0.0000
# 3 7.7020 92.9611 109.8338 -0.0006 7.8243 0.0002
# 4 0.0001 -0.0006 -0.0006 33.3710 0.0000 16.4167
# 5 -12.8954 29.1839 7.8243 0.0000 28.9742 -0.0001
# 6 -0.0001 0.0000 0.0002 16.4167 -0.0001 58.3924
#
#
#
# Elastic Compliance Matrix: (Units=1/GPa)
#
#
# Indices 1 2 3 4 5 6 
#
# 1 0.020535 -0.003743 0.000824 0.000000 0.012687 0.000000
# 2 -0.003743 0.003932 -0.002717 0.000000 -0.004893 0.000000
# 3 0.000824 -0.002717 0.011344 0.000000 0.000040 0.000000
# 4 0.000000 0.000000 0.000000 0.034776 0.000000 -0.009777
# 5 0.012687 -0.004893 0.000040 0.000000 0.045077 0.000000
# 6 0.000000 0.000000 0.000000 -0.009777 0.000000 0.019874
#
#
# Mechanical properties :
#
#
# Convention : Reuss Voigt Hill
#
# Bulk Modulus (GPa) = 40.75162 98.34761 69.54961
# Shear Modulus (GPa) = 32.26038 52.63775 42.44907
#
# Velocity S-wave (km/s) = 3.41380 4.36066 3.91595
# Velocity P-wave (km/s) = 5.50092 7.80267 6.75062
#
# Compressibility (1/GPa) = 0.02453890
#
# Stress axis : x y z
#
# Youngs Moduli (GPa) = 48.69817 254.31396 88.15470
#
# Poissons Ratio (x) = 0.95185 -0.07265
# Poissons Ratio (y) = 0.18227 0.23952
# Poissons Ratio (z) = -0.04013 0.69099
#
# Static dielectric constant tensor:
#      x y z
#    x 2.295910 0.000000 0.059600 
#    y 0.000000 2.237080 0.000000 
#    z 0.059600 0.000000 2.120760 
# 
# From -- ./inp_files/151577.got.cif
#   From: 2010.05.17/outbox.cif.g08.bks.cpg/sg12_76_cif.got.tgz:151577.got - 2010.06.03 13:09:07.
