data_PCOD9168954
_publ_section_title
;
Structure prediction by ZEFSAII (Michael W. Deem and Ramdas Pophale) SiO2 
 PCOD9168954
Probable space group: C 2/M
;
_chemical_formula_sum "Si O2"
_cell_formula_units_Z 48
_cell_length_a 12.024643
_cell_length_b 21.257824
_cell_length_c 10.791225
_cell_angle_alpha 90.000000
_cell_angle_beta 62.232056
_cell_angle_gamma 90.000000
_cell_volume 2440.772846
_symmetry_space_group_name_H-M "C 2/M"
_symmetry_group_IT_number 12
_symmetry_cell_setting 'monoclinic'
loop_
_space_group_symop_operation_xyz
x,y,z
-x,y,-z
-x,-y,-z
x,-y,z
1/2+x,1/2+y,z
1/2-x,1/2+y,-z
1/2-x,1/2-y,-z
1/2+x,1/2-y,z
loop_
_atom_site_type_symbol
_atom_site_label
_atom_site_fract_x
_atom_site_fract_y
_atom_site_fract_z
Si Si1 0.456116 0.229177 0.363303
Si Si2 0.905062 0.670888 0.143622
Si Si3 0.642776 0.686611 0.927418
Si Si4 0.145022 0.836048 0.208573
Si Si5 0.440416 0.574317 0.395060
Si Si6 0.753384 0.165596 0.382952
O O1 0.471585 0.182764 0.239203
O O2 0.577027 0.275395 0.308048
O O3 0.383527 0.189851 0.506425
O O4 0.350091 0.279095 0.372364
O O5 0.873098 0.740063 0.102265
O O6 0.766347 0.642444 0.222616
O O7 0.000000 0.638478 0.000000
O O8 0.726669 0.656996 0.774723
O O9 0.500000 0.661009 0.000000
O O10 0.684523 0.679889 0.047291
O O11 0.041122 0.890337 0.256264
O O12 0.500000 0.587718 0.500000
O O13 0.434942 0.500000 0.381179
O O14 0.307274 0.606657 0.432311
#
# Coordination Sequence:
#
# PCOD9168954 Si02
#       6
#     8   8   8   8   8   8
#     4   9  17  29  47  71 101 131 169 202 251 311
#     4  10  18  29  48  74 104 138 166 202 258 313
#     4  10  16  31  46  70 105 135 162 200 252 313
#     4  11  19  32  52  71 105 141 166 212 257 302
#     4  10  20  33  50  74 101 134 175 214 253 293
#     4   9  17  31  47  68 103 132 162 212 245 300
#
# _framework density 19.665901000000002
#
# number of rings (size 3 to 8) (size 9 to 14) (size 15 to 20)
#    0.000    2.167    6.667    1.500    0.000    1.333 
#    0.000    1.667    0.000    0.500    0.000    0.000 
#    0.000   18.000    0.000    0.000    0.000    0.167 
#
# Total GULP energy -133738.839749 kJ/mol
# GULP energy per Si atom -5572.451656 kJ/mol
# Density = 1.962114 g / cm^3
# Si number density = 19.665901 Si / 1000 Ang^3
#
#
#
# Elastic Constant Matrix: (Units=GPa)
#
#
# Indices 1 2 3 4 5 6 
#
# 1 81.0833 23.4982 34.6671 0.0000 -18.9926 0.0000
# 2 23.4982 47.9795 38.8273 0.0000 8.2505 0.0000
# 3 34.6671 38.8273 134.9374 0.0000 0.8576 0.0000
# 4 0.0000 0.0000 0.0000 10.9776 0.0000 1.2546
# 5 -18.9926 8.2505 0.8576 0.0000 31.5456 0.0000
# 6 0.0000 0.0000 0.0000 1.2546 0.0000 17.2392
#
#
#
# Elastic Compliance Matrix: (Units=1/GPa)
#
#
# Indices 1 2 3 4 5 6 
#
# 1 0.019709 -0.010427 -0.002156 0.000000 0.014652 0.000000
# 2 -0.010427 0.034272 -0.007087 0.000000 -0.015048 0.000000
# 3 -0.002156 -0.007087 0.010002 0.000000 0.000283 0.000000
# 4 0.000000 0.000000 0.000000 0.091859 0.000000 -0.006685
# 5 0.014652 -0.015048 0.000283 0.000000 0.044449 0.000000
# 6 0.000000 0.000000 0.000000 -0.006685 0.000000 0.058494
#
#
# Mechanical properties :
#
#
# Convention : Reuss Voigt Hill
#
# Bulk Modulus (GPa) = 40.58071 50.88725 45.73398
# Shear Modulus (GPa) = 16.32181 23.08634 19.70407
#
# Velocity S-wave (km/s) = 2.88402 3.42998 3.16878
# Velocity P-wave (km/s) = 5.63648 6.45123 6.05757
#
# Compressibility (1/GPa) = 0.02464225
#
# Stress axis : x y z
#
# Youngs Moduli (GPa) = 50.73934 29.17859 99.97769
#
# Poissons Ratio (x) = 0.30424 0.21557
# Poissons Ratio (y) = 0.52905 0.70854
# Poissons Ratio (z) = 0.10941 0.20679
#
# Static dielectric constant tensor:
#      x y z
#    x 1.793000 0.000000 0.014460 
#    y 0.000000 1.662380 0.000000 
#    z 0.014460 0.000000 1.806160 
# 
# From -- ./inp_files/146911.got.cif
#   From: 2010.05.17/outbox.cif.g08.bks.cpg/sg12_74_cif.got.tgz:146911.got - 2010.06.03 13:09:07.
