data_PCOD9168807
_publ_section_title
;
Structure prediction by ZEFSAII (Michael W. Deem and Ramdas Pophale) SiO2 
 PCOD9168807
Probable space group: C 2/M
;
_chemical_formula_sum "Si O2"
_cell_formula_units_Z 38
_cell_length_a 7.956928
_cell_length_b 22.711591
_cell_length_c 9.635842
_cell_angle_alpha 90.000000
_cell_angle_beta 114.775917
_cell_angle_gamma 90.000000
_cell_volume 1581.052760
_symmetry_space_group_name_H-M "C 2/M"
_symmetry_group_IT_number 12
_symmetry_cell_setting 'monoclinic'
loop_
_space_group_symop_operation_xyz
x,y,z
-x,y,-z
-x,-y,-z
x,-y,z
1/2+x,1/2+y,z
1/2-x,1/2+y,-z
1/2-x,1/2-y,-z
1/2+x,1/2-y,z
loop_
_atom_site_type_symbol
_atom_site_label
_atom_site_fract_x
_atom_site_fract_y
_atom_site_fract_z
Si Si1 0.532567 0.801511 0.675691
Si Si2 0.000000 0.500000 0.500000
Si Si3 0.279721 0.000000 0.756841
Si Si4 0.786193 0.500000 0.092381
Si Si5 0.754693 0.900720 0.449093
Si Si6 0.063401 0.826131 0.254748
Si Si7 0.000000 0.097999 0.000000
O O1 0.500000 0.790792 0.500000
O O2 0.391624 0.853507 0.664343
O O3 0.742446 0.821444 0.760063
O O4 0.499699 0.739835 0.738143
O O5 0.846375 0.447216 0.483297
O O6 0.186955 0.056908 0.656767
O O7 0.279939 0.000000 0.922465
O O8 0.500148 0.000000 0.785317
O O9 0.669020 0.444338 0.101746
O O10 0.889869 0.860607 0.587970
O O11 0.937232 0.863214 0.108423
#
# Coordination Sequence:
#
# PCOD9168807 Si02
#       7
#     8   2   4   4   8   8   4
#     4  10  20  38  61  90 124 158 204 264 312 358
#     4  10  16  28  62  96 118 150 202 242 304 376
#     4  10  22  40  68  93 120 157 207 255 315 380
#     4  10  24  43  60  89 129 162 198 265 321 367
#     4  10  19  34  64  97 119 157 206 259 309 371
#     4  11  23  40  60  91 123 167 210 255 311 369
#     4  11  26  42  60  84 128 169 210 254 318 381
#
# _framework density 24.034617999999998
#
# number of rings (size 3 to 8) (size 9 to 14) (size 15 to 20)
#    0.000    1.684    3.158    3.789    2.947    6.737 
#    0.000    3.158    0.000    0.000    0.000    0.000 
#    0.000    0.000    0.000    0.000    0.000    0.000 
#
# Total GULP energy -106096.278444 kJ/mol
# GULP energy per Si atom -5584.014655 kJ/mol
# Density = 2.397991 g / cm^3
# Si number density = 24.034618 Si / 1000 Ang^3
#
#
#
# Elastic Constant Matrix: (Units=GPa)
#
#
# Indices 1 2 3 4 5 6 
#
# 1 43.1854 35.2513 6.3623 0.0000 4.8714 0.0000
# 2 35.2513 207.0594 41.2346 0.0000 -7.6313 0.0000
# 3 6.3623 41.2346 75.4030 0.0000 0.8042 0.0000
# 4 0.0000 0.0000 0.0000 22.7089 0.0000 -6.5059
# 5 4.8714 -7.6313 0.8042 0.0000 18.1269 0.0000
# 6 0.0000 0.0000 0.0000 -6.5059 0.0000 45.2760
#
#
#
# Elastic Compliance Matrix: (Units=1/GPa)
#
#
# Indices 1 2 3 4 5 6 
#
# 1 0.028556 -0.005353 0.000624 0.000000 -0.009955 0.000000
# 2 -0.005353 0.006531 -0.003166 0.000000 0.004328 0.000000
# 3 0.000624 -0.003166 0.014964 0.000000 -0.002164 0.000000
# 4 0.000000 0.000000 0.000000 0.045926 0.000000 0.006599
# 5 -0.009955 0.004328 -0.002164 0.000000 0.059760 0.000000
# 6 0.000000 0.000000 0.000000 0.006599 0.000000 0.023035
#
#
# Mechanical properties :
#
#
# Convention : Reuss Voigt Hill
#
# Bulk Modulus (GPa) = 29.18739 54.59382 41.89060
# Shear Modulus (GPa) = 24.27387 33.40901 28.84144
#
# Velocity S-wave (km/s) = 3.18143 3.73236 3.46785
# Velocity P-wave (km/s) = 5.06612 6.42947 5.78807
#
# Compressibility (1/GPa) = 0.03426137
#
# Stress axis : x y z
#
# Youngs Moduli (GPa) = 35.01838 153.11965 66.82783
#
# Poissons Ratio (x) = 0.81962 -0.04169
# Poissons Ratio (y) = 0.18745 0.21157
# Poissons Ratio (z) = -0.02185 0.48477
#
# Static dielectric constant tensor:
#      x y z
#    x 2.046590 0.000000 -0.051630 
#    y 0.000000 1.916980 0.000000 
#    z -0.051630 0.000000 1.983900 
# 
# From -- ./inp_files/79296.got.cif
#   From: 2010.05.17/outbox.cif.g08.bks.cpg/sg12_40_cif.got.tgz:79296.got - 2010.06.03 13:09:07.
