data_PCOD9168794
_publ_section_title
;
Structure prediction by ZEFSAII (Michael W. Deem and Ramdas Pophale) SiO2 
 PCOD9168794
Probable space group: C 2/M
;
_chemical_formula_sum "Si O2"
_cell_formula_units_Z 48
_cell_length_a 11.776850
_cell_length_b 18.896123
_cell_length_c 12.330163
_cell_angle_alpha 90.000000
_cell_angle_beta 110.212845
_cell_angle_gamma 90.000000
_cell_volume 2574.932695
_symmetry_space_group_name_H-M "C 2/M"
_symmetry_group_IT_number 12
_symmetry_cell_setting 'monoclinic'
loop_
_space_group_symop_operation_xyz
x,y,z
-x,y,-z
-x,-y,-z
x,-y,z
1/2+x,1/2+y,z
1/2-x,1/2+y,-z
1/2-x,1/2-y,-z
1/2+x,1/2-y,z
loop_
_atom_site_type_symbol
_atom_site_label
_atom_site_fract_x
_atom_site_fract_y
_atom_site_fract_z
Si Si1 0.247201 0.500000 0.556175
Si Si2 0.721724 0.000000 0.157376
Si Si3 0.995350 0.000000 0.294381
Si Si4 0.752566 0.346962 0.938745
Si Si5 0.755597 0.292430 0.172578
Si Si6 0.595378 0.881968 0.627109
Si Si7 0.946888 0.500000 0.698226
Si Si8 0.484748 0.618798 0.876619
O O1 0.391729 0.500000 0.585863
O O2 0.199968 0.431791 0.608967
O O3 0.167377 0.500000 0.421489
O O4 0.721838 0.927831 0.086292
O O5 0.608225 0.000000 0.200561
O O6 0.850557 0.000000 0.266435
O O7 0.018560 0.066098 0.223676
O O8 0.781710 0.288906 0.857503
O O9 0.607836 0.338094 0.903724
O O10 0.802821 0.323198 0.072126
O O11 0.850252 0.313526 0.296467
O O12 0.634134 0.334942 0.159093
O O13 0.500000 0.866402 0.500000
O O14 0.527125 0.931955 0.692118
O O15 0.500000 0.582826 0.000000
#
# Coordination Sequence:
#
# PCOD9168794 Si02
#       8
#     4   4   4   8   8   8   4   8
#     4   9  16  31  54  82 101 133 184 224 261 295
#     4  10  21  37  50  74 115 143 169 208 265 333
#     4  10  16  28  53  77 100 137 178 218 254 312
#     4   9  21  34  52  81 108 140 172 213 266 325
#     4  10  18  34  57  78 106 136 177 222 266 304
#     4   9  18  33  56  81 104 134 181 228 259 300
#     4   9  20  34  51  77 113 144 172 217 260 312
#     4   9  17  29  49  77 104 133 171 221 263 302
#
# _framework density 18.641265000000001
#
# number of rings (size 3 to 8) (size 9 to 14) (size 15 to 20)
#    0.000    2.667    1.667    1.250    0.000    5.000 
#    0.000    3.333    7.333    3.000    0.000    0.000 
#    0.000    0.000    0.000    0.000    0.000    0.000 
#
# Total GULP energy -133631.205375 kJ/mol
# GULP energy per Si atom -5567.966891 kJ/mol
# Density = 1.859884 g / cm^3
# Si number density = 18.641265 Si / 1000 Ang^3
#
#
#
# Elastic Constant Matrix: (Units=GPa)
#
#
# Indices 1 2 3 4 5 6 
#
# 1 40.0868 7.1566 3.0837 0.0000 -8.5330 0.0000
# 2 7.1566 96.8534 26.6987 0.0000 -3.1491 0.0000
# 3 3.0837 26.6987 46.8490 0.0000 8.1511 0.0000
# 4 0.0000 0.0000 0.0000 24.3639 0.0000 1.7764
# 5 -8.5330 -3.1491 8.1511 0.0000 24.0575 0.0000
# 6 0.0000 0.0000 0.0000 1.7764 0.0000 1.6807
#
#
#
# Elastic Compliance Matrix: (Units=1/GPa)
#
#
# Indices 1 2 3 4 5 6 
#
# 1 0.027636 -0.000797 -0.003243 0.000000 0.010797 0.000000
# 2 -0.000797 0.012688 -0.007883 0.000000 0.004049 0.000000
# 3 -0.003243 -0.007883 0.028087 0.000000 -0.011699 0.000000
# 4 0.000000 0.000000 0.000000 0.044471 0.000000 -0.047002
# 5 0.010797 0.004049 -0.011699 0.000000 0.049890 0.000000
# 6 0.000000 0.000000 0.000000 -0.047002 0.000000 0.644662
#
#
# Mechanical properties :
#
#
# Convention : Reuss Voigt Hill
#
# Bulk Modulus (GPa) = 22.43957 28.62968 25.53462
# Shear Modulus (GPa) = 5.90921 19.81042 12.85982
#
# Velocity S-wave (km/s) = 1.78237 3.26347 2.62936
# Velocity P-wave (km/s) = 4.03726 5.43984 4.79017
#
# Compressibility (1/GPa) = 0.04456413
#
# Stress axis : x y z
#
# Youngs Moduli (GPa) = 36.18489 78.81161 35.60424
#
# Poissons Ratio (x) = 0.06281 0.11548
# Poissons Ratio (y) = 0.02884 0.28067
# Poissons Ratio (z) = 0.11736 0.62128
#
# Static dielectric constant tensor:
#      x y z
#    x 1.655160 0.000000 0.000220 
#    y 0.000000 1.657960 0.000000 
#    z 0.000220 0.000000 1.672740 
# 
# From -- ./inp_files/131728.got.cif
#   From: 2010.05.17/outbox.cif.g08.bks.cpg/sg12_66_cif.got.tgz:131728.got - 2010.06.03 13:09:07.
