data_PCOD9168818
_publ_section_title
;
Structure prediction by ZEFSAII (Michael W. Deem and Ramdas Pophale) SiO2 
 PCOD9168818
Probable space group: C 2/M
;
_chemical_formula_sum "Si O2"
_cell_formula_units_Z 56
_cell_length_a 19.111333
_cell_length_b 22.421012
_cell_length_c 9.364041
_cell_angle_alpha 90.000000
_cell_angle_beta 123.166399
_cell_angle_gamma 90.000000
_cell_volume 3358.761807
_symmetry_space_group_name_H-M "C 2/M"
_symmetry_group_IT_number 12
_symmetry_cell_setting 'monoclinic'
loop_
_space_group_symop_operation_xyz
x,y,z
-x,y,-z
-x,-y,-z
x,-y,z
1/2+x,1/2+y,z
1/2-x,1/2+y,-z
1/2-x,1/2-y,-z
1/2+x,1/2-y,z
loop_
_atom_site_type_symbol
_atom_site_label
_atom_site_fract_x
_atom_site_fract_y
_atom_site_fract_z
Si Si1 0.151960 0.370131 0.946654
Si Si2 0.416749 0.708504 0.827303
Si Si3 0.341313 0.067293 0.761874
Si Si4 0.657872 0.160116 0.647187
Si Si5 0.218275 0.144544 0.479443
Si Si6 0.959320 0.664179 0.735365
Si Si7 0.238434 0.730926 0.212778
O O1 0.162865 0.381271 0.791116
O O2 0.057367 0.346310 0.857820
O O3 0.160357 0.422960 0.070009
O O4 0.216459 0.319611 0.074111
O O5 0.374735 0.659865 0.675941
O O6 0.437813 0.769836 0.767392
O O7 0.344250 0.728960 0.856828
O O8 0.500000 0.688226 0.000000
O O9 0.250656 0.086050 0.597469
O O10 0.407191 0.115227 0.769486
O O11 0.363722 0.000000 0.749039
O O12 0.725759 0.146253 0.600768
O O13 0.572678 0.158679 0.462816
O O14 0.683190 0.226413 0.728761
O O15 0.244436 0.197648 0.617281
#
# Coordination Sequence:
#
# PCOD9168818 Si02
#       7
#     8   8   8   8   8   8   8
#     4  11  20  28  44  72  99 129 158 202 243 279
#     4  11  15  27  51  74  98 123 159 194 240 294
#     4  10  21  36  53  67  88 131 182 208 231 285
#     4  10  18  29  44  68 101 130 156 192 244 289
#     4   9  18  32  52  69  96 132 164 199 242 288
#     4  11  18  32  47  69 101 133 161 192 242 291
#     4  10  16  29  46  66  97 137 160 185 228 299
#
# _framework density 16.672809999999998
#
# number of rings (size 3 to 8) (size 9 to 14) (size 15 to 20)
#    0.000    1.714    7.143    2.143    0.000    1.143 
#    0.000    2.857    0.000    4.714    0.000    0.000 
#    0.000    4.571    0.000    0.000    0.000    0.000 
#
# Total GULP energy -155925.465787 kJ/mol
# GULP energy per Si atom -5568.766635 kJ/mol
# Density = 1.663486 g / cm^3
# Si number density = 16.672810 Si / 1000 Ang^3
#
#
#
# Elastic Constant Matrix: (Units=GPa)
#
#
# Indices 1 2 3 4 5 6 
#
# 1 24.5179 18.3237 31.9114 0.0000 -2.6767 0.0000
# 2 18.3237 41.0828 26.4892 0.0000 1.0413 0.0000
# 3 31.9114 26.4892 134.1065 0.0000 4.2722 0.0000
# 4 0.0000 0.0000 0.0000 8.7721 0.0000 -0.6228
# 5 -2.6767 1.0413 4.2722 0.0000 30.9659 0.0000
# 6 0.0000 0.0000 0.0000 -0.6228 0.0000 5.9808
#
#
#
# Elastic Compliance Matrix: (Units=1/GPa)
#
#
# Indices 1 2 3 4 5 6 
#
# 1 0.080415 -0.027017 -0.014111 0.000000 0.009806 0.000000
# 2 -0.027017 0.036971 -0.000763 0.000000 -0.003473 0.000000
# 3 -0.014111 -0.000763 0.011052 0.000000 -0.002719 0.000000
# 4 0.000000 0.000000 0.000000 0.114847 0.000000 0.011959
# 5 0.009806 -0.003473 -0.002719 0.000000 0.033633 0.000000
# 6 0.000000 0.000000 0.000000 0.011959 0.000000 0.168448
#
#
# Mechanical properties :
#
#
# Convention : Reuss Voigt Hill
#
# Bulk Modulus (GPa) = 22.39346 39.23953 30.81650
# Shear Modulus (GPa) = 9.19061 17.34260 13.26660
#
# Velocity S-wave (km/s) = 2.35038 3.22867 2.82388
# Velocity P-wave (km/s) = 4.56355 6.12252 5.39959
#
# Compressibility (1/GPa) = 0.04465589
#
# Stress axis : x y z
#
# Youngs Moduli (GPa) = 12.43552 27.04806 90.48159
#
# Poissons Ratio (x) = 0.73075 1.27680
# Poissons Ratio (y) = 0.33597 0.06906
# Poissons Ratio (z) = 0.17548 0.02065
#
# Static dielectric constant tensor:
#      x y z
#    x 1.586160 0.000000 -0.009880 
#    y 0.000000 1.558550 0.000000 
#    z -0.009880 0.000000 1.617070 
# 
# From -- ./inp_files/79583.got.cif
#   From: 2010.05.17/outbox.cif.g08.bks.cpg/sg12_40_cif.got.tgz:79583.got - 2010.06.03 13:09:07.
