data_PCOD9168104
_publ_section_title
;
Structure prediction by ZEFSAII (Michael W. Deem and Ramdas Pophale) SiO2 
 PCOD9168104
Probable space group: P 21/M
;
_chemical_formula_sum "Si O2"
_cell_formula_units_Z 32
_cell_length_a 12.000000
_cell_length_b 12.000000
_cell_length_c 12.000000
_cell_angle_alpha 90.000000
_cell_angle_beta 110.000000
_cell_angle_gamma 90.000000
_cell_volume 1623.788849
_symmetry_space_group_name_H-M "P 21/M"
_symmetry_group_IT_number 11
_symmetry_cell_setting 'monoclinic'
loop_
_space_group_symop_operation_xyz
x,y,z
-x,1/2+y,-z
-x,-y,-z
x,1/2-y,z
loop_
_atom_site_type_symbol
_atom_site_label
_atom_site_fract_x
_atom_site_fract_y
_atom_site_fract_z
Si Si1 0.569999 0.555123 0.670571
Si Si2 0.080359 0.616321 0.002971
Si Si3 0.710946 0.031024 0.093154
Si Si4 0.621346 0.628133 0.445743
Si Si5 0.531285 0.628938 0.901566
Si Si6 0.097422 0.624164 0.453442
Si Si7 0.829508 0.938892 0.355340
Si Si8 0.769561 0.376087 0.723553
O O1 0.616805 0.622067 0.578972
O O2 0.451361 0.483501 0.607831
O O3 0.546838 0.622841 0.774114
O O4 0.666782 0.459304 0.721543
O O5 0.036404 0.750000 0.964427
O O6 0.141837 0.628040 0.143371
O O7 0.181262 0.586162 0.942817
O O8 0.000000 0.500000 0.000000
O O9 0.606103 0.106448 0.112203
O O10 0.767585 0.961949 0.215709
O O11 0.627632 0.955701 0.985137
O O12 0.569734 0.750000 0.397185
O O13 0.742389 0.618300 0.415973
O O14 0.563044 0.750000 0.956593
O O15 0.134828 0.750000 0.483974
O O16 0.133805 0.554201 0.572849
O O17 0.164747 0.582799 0.365748
O O18 0.956344 0.620164 0.385107
O O19 0.725931 0.250000 0.687665
#
# Coordination Sequence:
#
# PCOD9168104 Si02
#       8
#     4   4   4   4   4   4   4   4
#     4  11  21  42  61  92 124 161 213 261 319 392
#     4  11  24  43  68  96 132 173 224 273 327 392
#     4  11  24  44  64  96 132 174 218 267 327 398
#     4  11  23  38  63  93 124 163 207 267 326 384
#     4  11  24  42  66  95 131 174 217 269 326 391
#     4  10  22  39  63  89 119 162 208 261 319 377
#     4  11  22  41  62  90 130 162 210 261 318 395
#     4  10  20  39  65  88 119 162 208 261 317 384
#
# _framework density 19.706996
#
# number of rings (size 3 to 8) (size 9 to 14) (size 15 to 20)
#    0.000    1.250    3.750    2.250    0.000    2.500 
#    0.000    0.000    0.000    0.000    0.000    0.000 
#    0.000    0.000    0.000    0.000    0.000    0.000 
#
# Total GULP energy -178141.096975 kJ/mol
# GULP energy per Si atom -5566.909280 kJ/mol
# Density = 1.966214 g / cm^3
# Si number density = 19.706996 Si / 1000 Ang^3
#
#
#
# Elastic Constant Matrix: (Units=GPa)
#
#
# Indices 1 2 3 4 5 6 
#
# 1 106.4922 31.1396 11.4969 0.0000 -17.1302 0.0000
# 2 31.1396 91.0470 9.1442 0.0000 -5.2412 0.0000
# 3 11.4969 9.1442 74.3468 0.0000 -12.7264 0.0000
# 4 0.0000 0.0000 0.0000 99.4590 0.0000 105.6858
# 5 -17.1302 -5.2412 -12.7264 0.0000 31.6240 0.0000
# 6 0.0000 0.0000 0.0000 105.6858 0.0000 124.2944
#
#
#
# Elastic Compliance Matrix: (Units=1/GPa)
#
#
# Indices 1 2 3 4 5 6 
#
# 1 0.011332 -0.003525 -0.000395 0.000000 0.005395 0.000000
# 2 -0.003525 0.012275 -0.001013 0.000000 -0.000283 0.000000
# 3 -0.000395 -0.001013 0.014575 0.000000 0.005483 0.000000
# 4 0.000000 0.000000 0.000000 0.104212 0.000000 -0.088610
# 5 0.005395 -0.000283 0.005483 0.000000 0.036704 0.000000
# 6 0.000000 0.000000 0.000000 -0.088610 0.000000 0.083390
#
#
# Mechanical properties :
#
#
# Convention : Reuss Voigt Hill
#
# Bulk Modulus (GPa) = 35.31841 41.71637 38.51739
# Shear Modulus (GPa) = 17.74361 65.74917 41.74639
#
# Velocity S-wave (km/s) = 3.00387 5.78237 4.60755
# Velocity P-wave (km/s) = 5.47647 8.11143 6.92051
#
# Compressibility (1/GPa) = 0.02831384
#
# Stress axis : x y z
#
# Youngs Moduli (GPa) = 88.24803 81.46961 68.61158
#
# Poissons Ratio (x) = 0.28721 0.02712
# Poissons Ratio (y) = 0.31111 0.06950
# Poissons Ratio (z) = 0.03488 0.08253
#
# Static dielectric constant tensor:
#      x y z
#    x 1.697550 0.000000 0.009490 
#    y 0.000000 1.737550 0.000000 
#    z 0.009490 0.000000 1.681140 
# 
# From -- ./inp_files/35107.got.cif
#   From: 2010.05.17/outbox.ucp.g08.bks.cvg/sg11_18_cif.got.tgz:35107.got - 2010.06.11 11:38:39.
