data_PCOD9168728
_publ_section_title
;
Structure prediction by ZEFSAII (Michael W. Deem and Ramdas Pophale) SiO2 
 PCOD9168728
Probable space group: C 2/M
;
_chemical_formula_sum "Si O2"
_cell_formula_units_Z 56
_cell_length_a 14.822655
_cell_length_b 19.144739
_cell_length_c 22.644781
_cell_angle_alpha 90.000000
_cell_angle_beta 24.721613
_cell_angle_gamma 90.000000
_cell_volume 2687.433513
_symmetry_space_group_name_H-M "C 2/M"
_symmetry_group_IT_number 12
_symmetry_cell_setting 'monoclinic'
loop_
_space_group_symop_operation_xyz
x,y,z
-x,y,-z
-x,-y,-z
x,-y,z
1/2+x,1/2+y,z
1/2-x,1/2+y,-z
1/2-x,1/2-y,-z
1/2+x,1/2-y,z
loop_
_atom_site_type_symbol
_atom_site_label
_atom_site_fract_x
_atom_site_fract_y
_atom_site_fract_z
Si Si1 0.598428 0.148730 0.074668
Si Si2 0.862954 0.869316 0.802754
Si Si3 0.003606 0.190093 0.097197
Si Si4 0.331691 0.698151 0.528779
Si Si5 0.104556 0.720030 0.265867
Si Si6 0.261761 0.839246 0.632357
Si Si7 0.160663 0.919418 0.316965
O O1 0.531334 0.227177 0.094317
O O2 0.382300 0.106435 0.214380
O O3 0.720587 0.114140 0.945111
O O4 0.758100 0.157903 0.035801
O O5 0.831456 0.786243 0.811911
O O6 0.815288 0.905473 0.768730
O O7 0.117494 0.873974 0.667114
O O8 0.827605 0.183428 0.149991
O O9 0.876376 0.155324 0.227050
O O10 0.485443 0.743999 0.393177
O O11 0.282198 0.755820 0.607733
O O12 0.468335 0.628989 0.454591
O O13 0.096650 0.679965 0.642503
O O14 0.500000 0.867565 0.500000
O O15 0.121121 0.000000 0.350517
#
# Coordination Sequence:
#
# PCOD9168728 Si02
#       7
#     8   8   8   8   8   8   8
#     4  10  19  31  43  70 101 125 158 193 231 285
#     4   9  19  29  45  71  96 126 160 192 234 283
#     4  10  18  27  48  73  98 123 148 193 251 291
#     4   9  17  29  46  69  95 120 160 196 237 282
#     4   9  15  28  47  71  94 118 152 198 246 286
#     4  10  16  27  48  73  97 124 148 191 254 293
#     4  11  21  33  49  67  94 134 170 195 223 274
#
# _framework density 20.837724999999999
#
# number of rings (size 3 to 8) (size 9 to 14) (size 15 to 20)
#    0.000    2.286    4.286    1.286    0.000    1.143 
#    0.000    0.000    0.000    5.143    0.000    0.000 
#    0.000    0.000    0.000   24.571    0.286    0.000 
#
# Total GULP energy -156153.716621 kJ/mol
# GULP energy per Si atom -5576.918451 kJ/mol
# Density = 2.079030 g / cm^3
# Si number density = 20.837725 Si / 1000 Ang^3
#
#
#
# Elastic Constant Matrix: (Units=GPa)
#
#
# Indices 1 2 3 4 5 6 
#
# 1 66.8845 0.8363 57.4235 0.0256 -36.8834 0.0004
# 2 0.8363 47.1690 33.0778 0.0583 -13.4994 0.0064
# 3 57.4235 33.0778 124.4859 0.0879 -42.9657 0.0083
# 4 0.0256 0.0583 0.0879 6.6217 0.0237 -0.7572
# 5 -36.8834 -13.4994 -42.9657 0.0237 53.5907 0.0004
# 6 0.0004 0.0064 0.0083 -0.7572 0.0004 7.5014
#
#
#
# Elastic Compliance Matrix: (Units=1/GPa)
#
#
# Indices 1 2 3 4 5 6 
#
# 1 0.037404 0.014993 -0.015276 -0.000137 0.017272 -0.000012
# 2 0.014993 0.032141 -0.012582 -0.000208 0.008328 -0.000035
# 3 -0.015276 -0.012582 0.018942 -0.000089 0.001503 -0.000019
# 4 -0.000137 -0.000208 -0.000089 0.152787 -0.000286 0.015424
# 5 0.017272 0.008328 0.001503 -0.000286 0.033851 -0.000040
# 6 -0.000012 -0.000035 -0.000019 0.015424 -0.000040 0.134866
#
#
# Mechanical properties :
#
#
# Convention : Reuss Voigt Hill
#
# Bulk Modulus (GPa) = 15.93469 46.80161 31.36815
# Shear Modulus (GPa) = 10.94954 23.35620 17.15287
#
# Velocity S-wave (km/s) = 2.29479 3.35156 2.87220
# Velocity P-wave (km/s) = 3.83211 6.12259 5.10740
#
# Compressibility (1/GPa) = 0.06275617
#
# Stress axis : x y z
#
# Youngs Moduli (GPa) = 26.73532 31.11259 52.79320
#
# Poissons Ratio (x) = -0.46646 0.80647
# Poissons Ratio (y) = -0.40083 0.66424
# Poissons Ratio (z) = 0.40841 0.39146
#
# Static dielectric constant tensor:
#      x y z
#    x 1.883860 0.000020 -0.004710 
#    y 0.000020 1.688080 0.000000 
#    z -0.004710 0.000000 1.814640 
# 
# From -- ./inp_files/379764.got.cif
#   From: 2010.05.17/outbox.cif.g08.bks.cpg/sg12_190_cif.got.tgz:379764.got - 2010.06.03 13:09:07.
