data_PCOD9168822
_publ_section_title
;
Structure prediction by ZEFSAII (Michael W. Deem and Ramdas Pophale) SiO2 
 PCOD9168822
Probable space group: C 2/M
;
_chemical_formula_sum "Si O2"
_cell_formula_units_Z 44
_cell_length_a 8.930435
_cell_length_b 27.769424
_cell_length_c 12.877954
_cell_angle_alpha 90.000000
_cell_angle_beta 129.870531
_cell_angle_gamma 90.000000
_cell_volume 2451.104863
_symmetry_space_group_name_H-M "C 2/M"
_symmetry_group_IT_number 12
_symmetry_cell_setting 'monoclinic'
loop_
_space_group_symop_operation_xyz
x,y,z
-x,y,-z
-x,-y,-z
x,-y,z
1/2+x,1/2+y,z
1/2-x,1/2+y,-z
1/2-x,1/2-y,-z
1/2+x,1/2-y,z
loop_
_atom_site_type_symbol
_atom_site_label
_atom_site_fract_x
_atom_site_fract_y
_atom_site_fract_z
Si Si1 0.716506 0.500000 0.417707
Si Si2 0.645865 0.199076 0.467944
Si Si3 0.759977 0.396685 0.392367
Si Si4 0.570753 0.000000 0.714494
Si Si5 0.873323 0.310404 0.148561
Si Si6 0.000000 0.257146 0.000000
Si Si7 0.286679 0.592113 0.868850
O O1 0.646292 0.444163 0.383222
O O2 0.818275 0.500000 0.348113
O O3 0.849978 0.500000 0.579573
O O4 0.500000 0.204188 0.500000
O O5 0.750000 0.250000 0.500000
O O6 0.771271 0.151808 0.555441
O O7 0.525285 0.188321 0.310443
O O8 0.706146 0.389877 0.247859
O O9 0.000000 0.405593 0.500000
O O10 0.639364 0.047508 0.803303
O O11 0.690837 0.276190 0.096100
O O12 0.788010 0.363660 0.096432
O O13 0.969924 0.289124 0.088609
O O14 0.500000 0.576431 0.000000
#
# Coordination Sequence:
#
# PCOD9168822 Si02
#       7
#     4   8   8   4   8   4   8
#     4   9  12  26  48  66 103 130 165 212 255 312
#     4  11  21  33  53  76 104 134 174 217 259 307
#     4  10  16  29  47  73  97 135 164 209 259 303
#     4   9  15  26  44  75 100 131 165 208 264 303
#     4  11  20  37  51  75 101 141 176 214 257 315
#     4  10  24  34  54  70 104 142 178 208 262 312
#     4  11  19  29  49  75 107 133 167 214 262 311
#
# _framework density 17.951089
#
# number of rings (size 3 to 8) (size 9 to 14) (size 15 to 20)
#    0.000    1.636    8.182    1.364    0.000    0.000 
#    0.000    0.000    0.000    0.545    0.000    0.636 
#    0.000    1.455    0.000    8.364    0.000    0.091 
#
# Total GULP energy -122510.159871 kJ/mol
# GULP energy per Si atom -5568.643631 kJ/mol
# Density = 1.791023 g / cm^3
# Si number density = 17.951089 Si / 1000 Ang^3
#
#
#
# Elastic Constant Matrix: (Units=GPa)
#
#
# Indices 1 2 3 4 5 6 
#
# 1 39.3538 29.9158 8.8752 0.0000 -12.2588 0.0000
# 2 29.9158 148.9675 3.3531 0.0000 -16.6287 0.0000
# 3 8.8752 3.3531 61.7011 0.0000 -11.5332 0.0000
# 4 0.0000 0.0000 0.0000 19.5232 0.0000 4.9916
# 5 -12.2588 -16.6287 -11.5332 0.0000 11.9461 0.0000
# 6 0.0000 0.0000 0.0000 4.9916 0.0000 6.8189
#
#
#
# Elastic Compliance Matrix: (Units=1/GPa)
#
#
# Indices 1 2 3 4 5 6 
#
# 1 0.039362 -0.003887 0.001328 0.000000 0.036264 0.000000
# 2 -0.003887 0.008538 0.001917 0.000000 0.009748 0.000000
# 3 0.001328 0.001917 0.020335 0.000000 0.023664 0.000000
# 4 0.000000 0.000000 0.000000 0.063015 0.000000 -0.046129
# 5 0.036264 0.009748 0.023664 0.000000 0.157337 0.000000
# 6 0.000000 0.000000 0.000000 -0.046129 0.000000 0.180420
#
#
# Mechanical properties :
#
#
# Convention : Reuss Voigt Hill
#
# Bulk Modulus (GPa) = 14.93605 37.14562 26.04083
# Shear Modulus (GPa) = 10.15005 21.51617 15.83311
#
# Velocity S-wave (km/s) = 2.38045 3.46584 2.97309
# Velocity P-wave (km/s) = 3.98671 6.06248 5.13067
#
# Compressibility (1/GPa) = 0.06695212
#
# Stress axis : x y z
#
# Youngs Moduli (GPa) = 25.40536 117.11888 49.17575
#
# Poissons Ratio (x) = 0.45519 -0.06530
# Poissons Ratio (y) = 0.09874 -0.09428
# Poissons Ratio (z) = -0.03373 -0.22453
#
# Static dielectric constant tensor:
#      x y z
#    x 1.612010 0.000000 0.022450 
#    y 0.000000 1.690840 0.000000 
#    z 0.022450 0.000000 1.617470 
# 
# From -- ./inp_files/124500.got.cif
#   From: 2010.05.17/outbox.cif.g08.bks.cpg/sg12_63_cif.got.tgz:124500.got - 2010.06.03 13:09:07.
