data_PCOD9168528
_publ_section_title
;
Structure prediction by ZEFSAII (Michael W. Deem and Ramdas Pophale) SiO2 
 PCOD9168528
Probable space group: C 2/M
;
_chemical_formula_sum "Si O2"
_cell_formula_units_Z 64
_cell_length_a 20.065384
_cell_length_b 7.735775
_cell_length_c 28.059735
_cell_angle_alpha 90.000000
_cell_angle_beta 49.826668
_cell_angle_gamma 90.000000
_cell_volume 3327.997619
_symmetry_space_group_name_H-M "C 2/M"
_symmetry_group_IT_number 12
_symmetry_cell_setting 'monoclinic'
loop_
_space_group_symop_operation_xyz
x,y,z
-x,y,-z
-x,-y,-z
x,-y,z
1/2+x,1/2+y,z
1/2-x,1/2+y,-z
1/2-x,1/2-y,-z
1/2+x,1/2-y,z
loop_
_atom_site_type_symbol
_atom_site_label
_atom_site_fract_x
_atom_site_fract_y
_atom_site_fract_z
Si Si1 0.987312 0.794601 0.890465
Si Si2 0.479790 0.289518 0.227841
Si Si3 0.592978 0.208313 0.978977
Si Si4 0.326271 0.796159 0.150855
Si Si5 0.192490 0.207510 0.572047
Si Si6 0.719067 0.707719 0.664918
Si Si7 0.320975 0.707300 0.710054
Si Si8 0.495838 0.288438 0.676796
O O1 0.975070 0.732161 0.841909
O O2 0.078826 0.720953 0.868258
O O3 0.998937 0.000000 0.883679
O O4 0.911653 0.757021 0.963614
O O5 0.481636 0.500000 0.227561
O O6 0.377830 0.236008 0.273725
O O7 0.516396 0.235118 0.262257
O O8 0.663580 0.272541 0.907954
O O9 0.593718 0.000000 0.976971
O O10 0.500000 0.267683 0.000000
O O11 0.252397 0.722239 0.219478
O O12 0.307901 0.000000 0.154757
O O13 0.250000 0.250000 0.500000
O O14 0.230793 0.269668 0.605191
O O15 0.092022 0.268718 0.616031
O O16 0.188632 0.000000 0.576753
O O17 0.716858 0.500000 0.665023
O O18 0.790118 0.758281 0.670797
O O19 0.322526 0.500000 0.714539
O O20 0.416125 0.771677 0.681176
O O21 0.496591 0.500000 0.675877
#
# Coordination Sequence:
#
# PCOD9168528 Si02
#       8
#     8   8   8   8   8   8   8   8
#     4  10  16  23  41  65  84 111 155 197 230 269
#     4   8  14  26  44  65  89 118 152 190 232 273
#     4   8  15  26  36  52  86 122 147 183 234 279
#     4   9  17  27  39  60  90 120 147 183 236 280
#     4   9  18  34  56  75  96 126 156 186 222 266
#     4   9  17  31  49  70  96 125 151 184 233 275
#     4  10  18  29  49  73  93 118 157 197 227 267
#     4   8  16  31  49  70  95 122 153 189 228 270
#
# _framework density 19.230784
#
# number of rings (size 3 to 8) (size 9 to 14) (size 15 to 20)
#    0.000    3.125    1.250    2.625    0.000    2.750 
#    0.000    1.250    0.000    6.750    0.000    0.000 
#    0.000    0.000    0.000    0.000    0.000    1.250 
#
# Total GULP energy -178197.953339 kJ/mol
# GULP energy per Si atom -5568.686042 kJ/mol
# Density = 1.918701 g / cm^3
# Si number density = 19.230784 Si / 1000 Ang^3
#
#
#
# Elastic Constant Matrix: (Units=GPa)
#
#
# Indices 1 2 3 4 5 6 
#
# 1 128.8557 4.0849 74.6769 -0.0018 16.9406 0.0027
# 2 4.0849 23.9192 9.8654 -0.0037 1.1132 -0.0082
# 3 74.6769 9.8654 163.0333 -0.0013 28.0200 0.0009
# 4 -0.0018 -0.0037 -0.0013 18.9741 0.0000 5.5517
# 5 16.9406 1.1132 28.0200 0.0000 19.7866 -0.0004
# 6 0.0027 -0.0082 0.0009 5.5517 -0.0004 12.7876
#
#
#
# Elastic Compliance Matrix: (Units=1/GPa)
#
#
# Indices 1 2 3 4 5 6 
#
# 1 0.010693 0.000126 -0.004402 0.000001 -0.002928 -0.000003
# 2 0.000126 0.042921 -0.002936 0.000000 0.001635 0.000028
# 3 -0.004402 -0.002936 0.010113 0.000000 -0.010387 -0.000002
# 4 0.000001 0.000000 0.000000 0.060372 -0.000002 -0.026210
# 5 -0.002928 0.001635 -0.010387 -0.000002 0.067663 0.000005
# 6 -0.000003 0.000028 -0.000002 -0.026210 0.000005 0.089580
#
#
# Mechanical properties :
#
#
# Convention : Reuss Voigt Hill
#
# Bulk Modulus (GPa) = 20.28317 54.78472 37.53395
# Shear Modulus (GPa) = 16.01537 25.45506 20.73522
#
# Velocity S-wave (km/s) = 2.88896 3.64216 3.28720
# Velocity P-wave (km/s) = 4.65814 6.79978 5.82818
#
# Compressibility (1/GPa) = 0.04930195
#
# Stress axis : x y z
#
# Youngs Moduli (GPa) = 93.52074 23.29881 98.88315
#
# Poissons Ratio (x) = -0.00293 0.43531
# Poissons Ratio (y) = -0.01177 0.29031
# Poissons Ratio (z) = 0.41170 0.06840
#
# Static dielectric constant tensor:
#      x y z
#    x 1.659290 0.000000 0.027000 
#    y 0.000000 1.720640 0.000000 
#    z 0.027000 0.000000 1.707820 
# 
# From -- ./inp_files/365169.got.cif
#   From: 2010.05.17/outbox.cif.g08.bks.cpg/sg12_183_cif.got.tgz:365169.got - 2010.06.03 13:09:07.
