data_PCOD9168650
_publ_section_title
;
Structure prediction by ZEFSAII (Michael W. Deem and Ramdas Pophale) SiO2 
 PCOD9168650
Probable space group: C 2/M
;
_chemical_formula_sum "Si O2"
_cell_formula_units_Z 56
_cell_length_a 14.403946
_cell_length_b 20.709556
_cell_length_c 11.245374
_cell_angle_alpha 90.000000
_cell_angle_beta 66.628823
_cell_angle_gamma 90.000000
_cell_volume 3079.266205
_symmetry_space_group_name_H-M "C 2/M"
_symmetry_group_IT_number 12
_symmetry_cell_setting 'monoclinic'
loop_
_space_group_symop_operation_xyz
x,y,z
-x,y,-z
-x,-y,-z
x,-y,z
1/2+x,1/2+y,z
1/2-x,1/2+y,-z
1/2-x,1/2-y,-z
1/2+x,1/2-y,z
loop_
_atom_site_type_symbol
_atom_site_label
_atom_site_fract_x
_atom_site_fract_y
_atom_site_fract_z
Si Si1 0.669438 0.570385 0.183136
Si Si2 0.759054 0.897775 0.594464
Si Si3 0.089233 0.654004 0.544191
Si Si4 0.659131 0.290166 0.101019
Si Si5 0.040033 0.111573 0.608866
Si Si6 0.281217 0.255175 0.671624
Si Si7 0.445561 0.261358 0.241190
O O1 0.691214 0.500000 0.119814
O O2 0.734591 0.578793 0.272239
O O3 0.680376 0.632829 0.092907
O O4 0.552697 0.573104 0.286501
O O5 0.654478 0.901513 0.576530
O O6 0.854775 0.923765 0.472434
O O7 0.779156 0.820386 0.595154
O O8 0.166176 0.697803 0.426374
O O9 0.049205 0.700909 0.670208
O O10 0.000000 0.634094 0.500000
O O11 0.657461 0.271851 0.241686
O O12 0.548070 0.269225 0.113402
O O13 0.750000 0.250000 0.000000
O O14 0.058852 0.173036 0.680773
O O15 0.000000 0.133317 0.500000
O O16 0.163969 0.243119 0.764728
#
# Coordination Sequence:
#
# PCOD9168650 Si02
#       7
#     8   8   8   8   8   8   8
#     4   9  19  32  49  71 100 133 167 208 261 311
#     4   9  16  25  41  72 104 130 165 197 243 315
#     4  11  16  24  45  72 101 137 163 194 263 314
#     4  10  21  33  47  73 101 133 174 223 260 295
#     4   9  14  22  41  67 102 130 155 190 240 303
#     4  10  17  27  45  69 101 137 163 197 271 308
#     4  10  16  26  44  68 103 135 157 205 256 315
#
# _framework density 18.186150999999999
#
# number of rings (size 3 to 8) (size 9 to 14) (size 15 to 20)
#    0.000    2.286    4.286    2.143    0.000    3.143 
#    0.000    0.000    0.000    0.429    0.000   27.000 
#    0.000    0.000    0.000    0.000    0.000    0.000 
#
# Total GULP energy -155945.740144 kJ/mol
# GULP energy per Si atom -5569.490719 kJ/mol
# Density = 1.814476 g / cm^3
# Si number density = 18.186151 Si / 1000 Ang^3
#
#
#
# Elastic Constant Matrix: (Units=GPa)
#
#
# Indices 1 2 3 4 5 6 
#
# 1 119.8058 25.1534 7.4189 0.0000 -6.3239 0.0000
# 2 25.1534 71.5813 13.4420 0.0000 -12.0636 0.0000
# 3 7.4189 13.4420 28.3968 0.0000 -16.0329 0.0000
# 4 0.0000 0.0000 0.0000 0.6925 0.0000 1.1385
# 5 -6.3239 -12.0636 -16.0329 0.0000 28.6557 0.0000
# 6 0.0000 0.0000 0.0000 1.1385 0.0000 2.3759
#
#
#
# Elastic Compliance Matrix: (Units=1/GPa)
#
#
# Indices 1 2 3 4 5 6 
#
# 1 0.009036 -0.002978 -0.000779 0.000000 0.000305 0.000000
# 2 -0.002978 0.016558 -0.005110 0.000000 0.003455 0.000000
# 3 -0.000779 -0.005110 0.053392 0.000000 0.027550 0.000000
# 4 0.000000 0.000000 0.000000 6.804107 0.000000 -3.260362
# 5 0.000305 0.003455 0.027550 0.000000 0.051833 0.000000
# 6 0.000000 0.000000 0.000000 -3.260362 0.000000 1.983173
#
#
# Mechanical properties :
#
#
# Convention : Reuss Voigt Hill
#
# Bulk Modulus (GPa) = 16.32546 34.64585 25.48565
# Shear Modulus (GPa) = 0.55827 17.92946 9.24386
#
# Velocity S-wave (km/s) = 0.55465 3.14329 2.25698
# Velocity P-wave (km/s) = 3.06701 5.68029 4.56466
#
# Compressibility (1/GPa) = 0.06125402
#
# Stress axis : x y z
#
# Youngs Moduli (GPa) = 110.66428 60.39298 18.72925
#
# Poissons Ratio (x) = 0.17983 0.01460
# Poissons Ratio (y) = 0.32952 0.09570
# Poissons Ratio (z) = 0.08624 0.30858
#
# Static dielectric constant tensor:
#      x y z
#    x 1.704810 0.000000 -0.027890 
#    y 0.000000 1.629300 0.000000 
#    z -0.027890 0.000000 1.639800 
# 
# From -- ./inp_files/147057.got.cif
#   From: 2010.05.17/outbox.cif.g08.bks.cpg/sg12_74_cif.got.tgz:147057.got - 2010.06.03 13:09:07.
