data_PCOD9168711
_publ_section_title
;
Structure prediction by ZEFSAII (Michael W. Deem and Ramdas Pophale) SiO2 
 PCOD9168711
Probable space group: C 2/M
;
_chemical_formula_sum "Si O2"
_cell_formula_units_Z 64
_cell_length_a 24.462307
_cell_length_b 14.688630
_cell_length_c 10.757343
_cell_angle_alpha 90.000000
_cell_angle_beta 75.928681
_cell_angle_gamma 90.000000
_cell_volume 3749.321628
_symmetry_space_group_name_H-M "C 2/M"
_symmetry_group_IT_number 12
_symmetry_cell_setting 'monoclinic'
loop_
_space_group_symop_operation_xyz
x,y,z
-x,y,-z
-x,-y,-z
x,-y,z
1/2+x,1/2+y,z
1/2-x,1/2+y,-z
1/2-x,1/2-y,-z
1/2+x,1/2-y,z
loop_
_atom_site_type_symbol
_atom_site_label
_atom_site_fract_x
_atom_site_fract_y
_atom_site_fract_z
Si Si1 0.399203 0.603349 0.537213
Si Si2 0.131181 0.892492 0.957155
Si Si3 0.536636 0.273373 0.869209
Si Si4 0.552766 0.604818 0.222191
Si Si5 0.232407 0.898359 0.321386
Si Si6 0.197435 0.604857 0.459067
Si Si7 0.618893 0.237741 0.633223
Si Si8 0.779746 0.212516 0.240248
O O1 0.408175 0.500000 0.485849
O O2 0.436582 0.617710 0.638504
O O3 0.334065 0.610362 0.617487
O O4 0.407181 0.679321 0.429682
O O5 0.080362 0.845715 0.906696
O O6 0.187730 0.838977 0.887998
O O7 0.136261 0.000000 0.924949
O O8 0.110633 0.883672 0.110967
O O9 0.492707 0.328161 0.809428
O O10 0.574237 0.208563 0.762397
O O11 0.500000 0.230250 0.000000
O O12 0.535230 0.500000 0.210464
O O13 0.262367 0.892627 0.440435
O O14 0.256599 0.814230 0.229403
O O15 0.243579 0.000000 0.264722
O O16 0.186269 0.500000 0.436425
O O17 0.142169 0.660431 0.529847
O O18 0.229852 0.654335 0.329424
O O19 0.672989 0.276031 0.677920
#
# Coordination Sequence:
#
# PCOD9168711 Si02
#       8
#     8   8   8   8   8   8   8   8
#     4  10  18  28  44  64  93 124 148 178 219 269
#     4   9  17  28  45  66  92 123 150 182 220 259
#     4   9  18  31  47  64  88 119 149 185 223 262
#     4   9  18  31  43  63  92 122 154 182 217 266
#     4   9  16  27  42  63  95 125 143 176 224 260
#     4  10  17  27  45  69  94 116 145 186 224 260
#     4  10  18  29  45  68  93 116 149 181 222 271
#     4  10  16  27  45  70  92 115 153 183 217 267
#
# _framework density 17.069755000000001
#
# number of rings (size 3 to 8) (size 9 to 14) (size 15 to 20)
#    0.000    2.500    2.500    1.500    0.000    4.500 
#    0.000    1.875    0.000    0.375    0.000    4.375 
#    0.000    0.000    0.000    0.000    0.000    0.000 
#
# Total GULP energy -178334.395218 kJ/mol
# GULP energy per Si atom -5572.949851 kJ/mol
# Density = 1.703090 g / cm^3
# Si number density = 17.069755 Si / 1000 Ang^3
#
#
#
# Elastic Constant Matrix: (Units=GPa)
#
#
# Indices 1 2 3 4 5 6 
#
# 1 26.3896 13.8529 25.8351 0.0000 -14.7525 0.0000
# 2 13.8529 62.8313 33.9795 0.0000 -19.5326 0.0000
# 3 25.8351 33.9795 64.7551 0.0000 -32.3313 0.0000
# 4 0.0000 0.0000 0.0000 17.3370 0.0000 -3.0483
# 5 -14.7525 -19.5326 -32.3313 0.0000 30.3121 0.0000
# 6 0.0000 0.0000 0.0000 -3.0483 0.0000 7.7957
#
#
#
# Elastic Compliance Matrix: (Units=1/GPa)
#
#
# Indices 1 2 3 4 5 6 
#
# 1 0.063132 0.000056 -0.021089 0.000000 0.008268 0.000000
# 2 0.000056 0.022454 -0.009770 0.000000 0.004075 0.000000
# 3 -0.021089 -0.009770 0.044316 0.000000 0.030708 0.000000
# 4 0.000000 0.000000 0.000000 0.061939 0.000000 0.024219
# 5 0.008268 0.004075 0.030708 0.000000 0.072394 0.000000
# 6 0.000000 0.000000 0.000000 0.024219 0.000000 0.137746
#
#
# Mechanical properties :
#
#
# Convention : Reuss Voigt Hill
#
# Bulk Modulus (GPa) = 14.64221 33.47902 24.06061
# Shear Modulus (GPa) = 10.28063 16.44284 13.36174
#
# Velocity S-wave (km/s) = 2.45678 3.10703 2.80084
# Velocity P-wave (km/s) = 4.07973 5.70326 4.95840
#
# Compressibility (1/GPa) = 0.06829572
#
# Stress axis : x y z
#
# Youngs Moduli (GPa) = 15.83975 44.53579 22.56547
#
# Poissons Ratio (x) = -0.00250 0.47588
# Poissons Ratio (y) = -0.00089 0.22047
# Poissons Ratio (z) = 0.33404 0.43512
#
# Static dielectric constant tensor:
#      x y z
#    x 1.576600 0.000000 -0.021010 
#    y 0.000000 1.565560 0.000000 
#    z -0.021010 0.000000 1.609060 
# 
# From -- ./inp_files/176115.got.cif
#   From: 2010.05.17/outbox.cif.g08.bks.cpg/sg12_89_cif.got.tgz:176115.got - 2010.06.03 13:09:07.
