data_PCOD9168495
_publ_section_title
;
Structure prediction by ZEFSAII (Michael W. Deem and Ramdas Pophale) SiO2 
 PCOD9168495
Probable space group: C 2/M
;
_chemical_formula_sum "Si O2"
_cell_formula_units_Z 48
_cell_length_a 5.543853
_cell_length_b 24.989715
_cell_length_c 22.657378
_cell_angle_alpha 90.000000
_cell_angle_beta 123.581958
_cell_angle_gamma 90.000000
_cell_volume 2615.034520
_symmetry_space_group_name_H-M "C 2/M"
_symmetry_group_IT_number 12
_symmetry_cell_setting 'monoclinic'
loop_
_space_group_symop_operation_xyz
x,y,z
-x,y,-z
-x,-y,-z
x,-y,z
1/2+x,1/2+y,z
1/2-x,1/2+y,-z
1/2-x,1/2-y,-z
1/2+x,1/2-y,z
loop_
_atom_site_type_symbol
_atom_site_label
_atom_site_fract_x
_atom_site_fract_y
_atom_site_fract_z
Si Si1 0.799230 0.938281 0.913960
Si Si2 0.666906 0.194963 0.246038
Si Si3 0.795848 0.686398 0.303023
Si Si4 0.674656 0.739240 0.900674
Si Si5 0.796734 0.381872 0.913321
Si Si6 0.314892 0.812193 0.528715
O O1 0.511085 0.904792 0.891861
O O2 0.015079 0.916498 0.892751
O O3 0.720969 0.000000 0.892709
O O4 0.000000 0.936618 0.000000
O O5 0.767551 0.249380 0.292095
O O6 0.456312 0.166928 0.264879
O O7 0.491519 0.221318 0.167696
O O8 0.965747 0.166481 0.268210
O O9 0.993902 0.680725 0.387065
O O10 0.499553 0.742223 0.936831
O O11 0.682330 0.677235 0.884757
O O12 0.000000 0.378265 0.000000
O O13 0.500000 0.835618 0.500000
O O14 0.250000 0.750000 0.500000
O O15 0.000000 0.835609 0.500000
#
# Coordination Sequence:
#
# PCOD9168495 Si02
#       6
#     8   8   8   8   8   8
#     4   9  17  33  54  72  89 107 130 168 220 275
#     4  10  16  27  37  51  64 100 143 174 201 234
#     4  10  16  25  38  48  67  93 138 175 209 252
#     4  12  21  33  45  60  87 119 153 183 211 250
#     4  10  21  33  48  71  91 111 141 175 220 271
#     4  10  16  22  31  49  68  86 111 165 235 261
#
# _framework density 18.355397
#
# number of rings (size 3 to 8) (size 9 to 14) (size 15 to 20)
#    0.000    1.833    3.333    6.500    0.000    2.667 
#    0.000    0.000    0.000    0.000    0.000    0.000 
#    0.000    0.000    0.000    0.000    0.000    0.000 
#
# Total GULP energy -133702.127509 kJ/mol
# GULP energy per Si atom -5570.921980 kJ/mol
# Density = 1.831362 g / cm^3
# Si number density = 18.355397 Si / 1000 Ang^3
#
#
#
# Elastic Constant Matrix: (Units=GPa)
#
#
# Indices 1 2 3 4 5 6 
#
# 1 237.5613 37.9066 55.4748 0.0000 12.3060 0.0000
# 2 37.9066 52.2101 0.0046 0.0000 3.0800 0.0000
# 3 55.4748 0.0046 96.7661 0.0000 9.5569 0.0000
# 4 0.0000 0.0000 0.0000 0.7488 0.0000 2.3151
# 5 12.3060 3.0800 9.5569 0.0000 26.9493 0.0000
# 6 0.0000 0.0000 0.0000 2.3151 0.0000 22.5608
#
#
#
# Elastic Compliance Matrix: (Units=1/GPa)
#
#
# Indices 1 2 3 4 5 6 
#
# 1 0.005636 -0.004033 -0.003132 0.000000 -0.001002 0.000000
# 2 -0.004033 0.022174 0.002466 0.000000 -0.001567 0.000000
# 3 -0.003132 0.002466 0.012452 0.000000 -0.003268 0.000000
# 4 0.000000 0.000000 0.000000 1.956022 0.000000 -0.200716
# 5 -0.001002 -0.001567 -0.003268 0.000000 0.038902 0.000000
# 6 0.000000 0.000000 0.000000 -0.200716 0.000000 0.064921
#
#
# Mechanical properties :
#
#
# Convention : Reuss Voigt Hill
#
# Bulk Modulus (GPa) = 32.40037 63.70105 48.05071
# Shear Modulus (GPa) = 2.35872 29.59520 15.97696
#
# Velocity S-wave (km/s) = 1.13482 4.01976 2.95349
# Velocity P-wave (km/s) = 4.40535 7.50494 6.15351
#
# Compressibility (1/GPa) = 0.03086385
#
# Stress axis : x y z
#
# Youngs Moduli (GPa) = 177.42405 45.09879 80.30629
#
# Poissons Ratio (x) = 0.18187 0.25152
# Poissons Ratio (y) = 0.71550 -0.19800
# Poissons Ratio (z) = 0.55569 -0.11120
#
# Static dielectric constant tensor:
#      x y z
#    x 1.781170 0.000000 0.022290 
#    y 0.000000 1.599970 0.000000 
#    z 0.022290 0.000000 1.632490 
# 
# From -- ./inp_files/297748.got.cif
#   From: 2010.05.17/outbox.cif.g08.bks.cpg/sg12_149_cif.got.tgz:297748.got - 2010.06.03 13:09:07.
