data_PCOD9168026
_publ_section_title
;
Structure prediction by ZEFSAII (Michael W. Deem and Ramdas Pophale) SiO2 
 PCOD9168026
Probable space group: P 21/M
;
_chemical_formula_sum "Si O2"
_cell_formula_units_Z 32
_cell_length_a 15.000000
_cell_length_b 21.000000
_cell_length_c 15.000000
_cell_angle_alpha 90.000000
_cell_angle_beta 160.000000
_cell_angle_gamma 90.000000
_cell_volume 1616.045177
_symmetry_space_group_name_H-M "P 21/M"
_symmetry_group_IT_number 11
_symmetry_cell_setting 'monoclinic'
loop_
_space_group_symop_operation_xyz
x,y,z
-x,1/2+y,-z
-x,-y,-z
x,1/2-y,z
loop_
_atom_site_type_symbol
_atom_site_label
_atom_site_fract_x
_atom_site_fract_y
_atom_site_fract_z
Si Si1 0.737445 0.926947 0.276751
Si Si2 0.785601 0.327509 0.531487
Si Si3 0.122365 0.429405 0.171622
Si Si4 0.581108 0.019947 0.723144
Si Si5 0.261766 0.117975 0.103474
Si Si6 0.713360 0.424164 0.291428
Si Si7 0.068745 0.181194 0.265210
Si Si8 0.528584 0.135979 0.810511
O O1 0.600069 0.881096 0.217524
O O2 0.034631 0.909521 0.533526
O O3 0.739424 0.998040 0.324211
O O4 0.560503 0.921133 0.020450
O O5 0.825714 0.250000 0.551655
O O6 0.510899 0.335984 0.326013
O O7 0.744883 0.374876 0.405450
O O8 0.023569 0.356451 0.816961
O O9 0.341023 0.472498 0.428363
O O10 0.184178 0.397502 0.133742
O O11 0.092107 0.370516 0.210601
O O12 0.844137 0.464653 0.915065
O O13 0.550371 0.072371 0.770714
O O14 0.625321 0.952588 0.813503
O O15 0.029821 0.250000 0.187594
O O16 0.328371 0.178967 0.567506
O O17 0.816235 0.164371 0.086592
#
# Coordination Sequence:
#
# PCOD9168026 Si02
#       8
#     4   4   4   4   4   4   4   4
#     4  10  20  38  65  92 112 141 194 244 304 367
#     4  12  27  44  60  86 125 168 211 250 299 363
#     4  10  21  37  59  90 121 156 200 254 302 349
#     4  10  20  36  61  93 126 150 188 254 320 354
#     4  12  23  40  65  88 117 163 210 252 297 359
#     4  10  22  40  63  88 117 150 188 251 306 350
#     4  10  21  36  53  78 119 159 190 232 290 351
#     4  10  20  35  58  88 116 146 188 240 295 362
#
# _framework density 19.801427
#
# number of rings (size 3 to 8) (size 9 to 14) (size 15 to 20)
#    0.000    1.500    0.000    5.250    0.000    5.000 
#    0.000    3.750    0.000    0.000    0.000    0.000 
#    0.000    0.000    0.000    0.000    0.000    0.000 
#
# Total GULP energy -178417.437901 kJ/mol
# GULP energy per Si atom -5575.544934 kJ/mol
# Density = 1.975636 g / cm^3
# Si number density = 19.801427 Si / 1000 Ang^3
#
#
#
# Elastic Constant Matrix: (Units=GPa)
#
#
# Indices 1 2 3 4 5 6 
#
# 1 67.9960 23.5464 20.3581 0.0000 4.3581 0.0000
# 2 23.5464 119.3474 38.0907 0.0000 -6.0860 0.0000
# 3 20.3581 38.0907 114.9452 0.0000 5.0931 0.0000
# 4 0.0000 0.0000 0.0000 12.3760 0.0000 -11.1252
# 5 4.3581 -6.0860 5.0931 0.0000 34.3010 0.0000
# 6 0.0000 0.0000 0.0000 -11.1252 0.0000 14.5074
#
#
#
# Elastic Compliance Matrix: (Units=1/GPa)
#
#
# Indices 1 2 3 4 5 6 
#
# 1 0.016369 -0.002743 -0.001889 0.000000 -0.002286 0.000000
# 2 -0.002743 0.009988 -0.002937 0.000000 0.002557 0.000000
# 3 -0.001889 -0.002937 0.010086 0.000000 -0.001779 0.000000
# 4 0.000000 0.000000 0.000000 0.260106 0.000000 0.199465
# 5 -0.002286 0.002557 -0.001779 0.000000 0.030162 0.000000
# 6 0.000000 0.000000 0.000000 0.199465 0.000000 0.221892
#
#
# Mechanical properties :
#
#
# Convention : Reuss Voigt Hill
#
# Bulk Modulus (GPa) = 46.93791 51.80877 49.37334
# Shear Modulus (GPa) = 8.75898 26.92311 17.84105
#
# Velocity S-wave (km/s) = 2.10547 3.69135 3.00492
# Velocity P-wave (km/s) = 5.44669 6.66251 6.08504
#
# Compressibility (1/GPa) = 0.02130474
#
# Stress axis : x y z
#
# Youngs Moduli (GPa) = 61.09220 100.12073 99.14248
#
# Poissons Ratio (x) = 0.27465 0.18726
# Poissons Ratio (y) = 0.16759 0.29121
# Poissons Ratio (z) = 0.11539 0.29408
#
# Static dielectric constant tensor:
#      x y z
#    x 1.716040 0.000000 0.017800 
#    y 0.000000 8.024750 0.000000 
#    z 0.017800 0.000000 1.690920 
# 
# From -- ./inp_files/52721.got.cif
#   From: 2010.05.17/outbox.ucp.g08.bks.cvg/sg11_27_cif.got.tgz:52721.got - 2010.06.11 11:38:39.
