data_PCOD9168237
_publ_section_title
;
Structure prediction by ZEFSAII (Michael W. Deem and Ramdas Pophale) SiO2 
 PCOD9168237
Probable space group: P 21/M
;
_chemical_formula_sum "Si O2"
_cell_formula_units_Z 32
_cell_length_a 12.000000
_cell_length_b 9.000000
_cell_length_c 15.000000
_cell_angle_alpha 90.000000
_cell_angle_beta 90.000000
_cell_angle_gamma 90.000000
_cell_volume 1620.000000
_symmetry_space_group_name_H-M "P 21/M"
_symmetry_group_IT_number 11
_symmetry_cell_setting 'monoclinic'
loop_
_space_group_symop_operation_xyz
x,y,z
-x,1/2+y,-z
-x,-y,-z
x,1/2-y,z
loop_
_atom_site_type_symbol
_atom_site_label
_atom_site_fract_x
_atom_site_fract_y
_atom_site_fract_z
Si Si1 0.617518 0.928113 0.472790
Si Si2 0.283519 0.079847 0.171780
Si Si3 0.738420 0.917138 0.150721
Si Si4 0.766971 0.075522 0.328312
Si Si5 0.486838 0.916184 0.091825
Si Si6 0.794951 0.580261 0.629182
Si Si7 0.115831 0.425357 0.024817
Si Si8 0.986749 0.925197 0.404389
O O1 0.606455 0.750000 0.465247
O O2 0.710615 0.958475 0.549363
O O3 0.500000 0.000000 0.500000
O O4 0.666676 0.997125 0.382146
O O5 0.299524 0.250000 0.140405
O O6 0.265428 0.081061 0.276494
O O7 0.393444 0.991558 0.150135
O O8 0.177866 0.022082 0.114806
O O9 0.773609 0.750000 0.180620
O O10 0.606622 0.914971 0.137307
O O11 0.798564 0.946245 0.057028
O O12 0.762863 0.038854 0.224295
O O13 0.765122 0.250000 0.346532
O O14 0.881086 0.002047 0.360830
O O15 0.451114 0.750000 0.072006
O O16 0.500000 0.000000 0.000000
O O17 0.835988 0.750000 0.612171
O O18 0.897036 0.468657 0.640324
O O19 0.094351 0.250000 0.034800
O O20 0.000000 0.500000 0.000000
O O21 0.970506 0.750000 0.409263
O O22 0.000000 0.000000 0.500000
#
# Coordination Sequence:
#
# PCOD9168237 Si02
#       8
#     4   4   4   4   4   4   4   4
#     4  11  24  43  65  93 132 170 209 261 316 377
#     4  10  22  42  64  92 127 163 206 258 310 369
#     4  10  23  43  63  91 128 166 208 262 317 371
#     4  12  26  43  66  95 126 168 216 263 320 377
#     4  11  22  40  66  93 124 164 210 259 315 372
#     4  10  23  42  66  94 127 168 211 257 315 374
#     4  10  22  41  62  88 127 166 204 255 313 369
#     4  12  24  42  68  95 127 165 212 265 317 375
#
# _framework density 19.753086
#
# number of rings (size 3 to 8) (size 9 to 14) (size 15 to 20)
#    0.000    1.250    2.500    3.000    3.500    3.000 
#    0.000    0.000    0.000    0.000    0.000    0.000 
#    0.000    0.000    0.000    0.000    0.000    0.000 
#
# Total GULP energy -178720.771300 kJ/mol
# GULP energy per Si atom -5585.024103 kJ/mol
# Density = 1.970813 g / cm^3
# Si number density = 19.753086 Si / 1000 Ang^3
#
#
#
# Elastic Constant Matrix: (Units=GPa)
#
#
# Indices 1 2 3 4 5 6 
#
# 1 50.3130 26.9757 -11.8879 0.0000 -6.2409 0.0000
# 2 26.9757 92.6125 15.7352 0.0000 -8.1574 0.0000
# 3 -11.8879 15.7352 41.4039 0.0000 -2.5466 0.0000
# 4 0.0000 0.0000 0.0000 25.0384 0.0000 -0.5400
# 5 -6.2409 -8.1574 -2.5466 0.0000 19.6288 0.0000
# 6 0.0000 0.0000 0.0000 -0.5400 0.0000 34.2209
#
#
#
# Elastic Compliance Matrix: (Units=1/GPa)
#
#
# Indices 1 2 3 4 5 6 
#
# 1 0.029032 -0.009998 0.012548 0.000000 0.006704 0.000000
# 2 -0.009998 0.015351 -0.008576 0.000000 0.002088 0.000000
# 3 0.012548 -0.008576 0.031290 0.000000 0.004485 0.000000
# 4 0.000000 0.000000 0.000000 0.039952 0.000000 0.000630
# 5 0.006704 0.002088 0.004485 0.000000 0.054527 0.000000
# 6 0.000000 0.000000 0.000000 0.000630 0.000000 0.029232
#
#
# Mechanical properties :
#
#
# Convention : Reuss Voigt Hill
#
# Bulk Modulus (GPa) = 15.71816 27.33061 21.52438
# Shear Modulus (GPa) = 21.49216 26.01140 23.75178
#
# Velocity S-wave (km/s) = 3.30212 3.63275 3.47137
# Velocity P-wave (km/s) = 4.74482 5.60910 5.19496
#
# Compressibility (1/GPa) = 0.06362068
#
# Stress axis : x y z
#
# Youngs Moduli (GPa) = 34.44450 65.14318 31.95897
#
# Poissons Ratio (x) = 0.65129 -0.40101
# Poissons Ratio (y) = 0.34437 0.27408
# Poissons Ratio (z) = -0.43220 0.55867
#
# Static dielectric constant tensor:
#      x y z
#    x 1.648250 0.000000 -0.005060 
#    y 0.000000 1.718650 0.000000 
#    z -0.005060 0.000000 1.861860 
# 
# From -- ./inp_files/49322.got.cif
#   From: 2010.05.17/outbox.ucp.g08.bks.cvg/sg11_25_cif.got.tgz:49322.got - 2010.06.11 11:38:39.
