data_PCOD9168835
_publ_section_title
;
Structure prediction by ZEFSAII (Michael W. Deem and Ramdas Pophale) SiO2 
 PCOD9168835
Probable space group: C 2/M
;
_chemical_formula_sum "Si O2"
_cell_formula_units_Z 64
_cell_length_a 20.311396
_cell_length_b 18.164025
_cell_length_c 12.335093
_cell_angle_alpha 90.000000
_cell_angle_beta 124.506805
_cell_angle_gamma 90.000000
_cell_volume 3750.183793
_symmetry_space_group_name_H-M "C 2/M"
_symmetry_group_IT_number 12
_symmetry_cell_setting 'monoclinic'
loop_
_space_group_symop_operation_xyz
x,y,z
-x,y,-z
-x,-y,-z
x,-y,z
1/2+x,1/2+y,z
1/2-x,1/2+y,-z
1/2-x,1/2-y,-z
1/2+x,1/2-y,z
loop_
_atom_site_type_symbol
_atom_site_label
_atom_site_fract_x
_atom_site_fract_y
_atom_site_fract_z
Si Si1 0.968980 0.347097 0.351867
Si Si2 0.729676 0.912373 0.283313
Si Si3 0.788565 0.665685 0.158725
Si Si4 0.890107 0.587406 0.648052
Si Si5 0.478871 0.669852 0.358691
Si Si6 0.275226 0.175418 0.391423
Si Si7 0.848181 0.823774 0.538699
Si Si8 0.199039 0.157792 0.861650
O O1 0.877523 0.368216 0.244314
O O2 0.970198 0.258441 0.354477
O O3 0.000000 0.371999 0.500000
O O4 0.028107 0.375505 0.313945
O O5 0.649485 0.888849 0.274139
O O6 0.801569 0.886184 0.428624
O O7 0.747282 0.875837 0.184409
O O8 0.728359 0.000000 0.271833
O O9 0.756419 0.658187 0.250495
O O10 0.796338 0.753599 0.145536
O O11 0.734076 0.636228 0.011016
O O12 0.899286 0.500000 0.658332
O O13 0.825722 0.611978 0.497378
O O14 0.500000 0.644480 0.500000
O O15 0.559140 0.657750 0.364874
O O16 0.394295 0.638016 0.241570
O O17 0.196718 0.188845 0.389929
O O18 0.331308 0.248547 0.454296
#
# Coordination Sequence:
#
# PCOD9168835 Si02
#       8
#     8   8   8   8   8   8   8   8
#     4  10  17  30  50  75 104 133 172 216 262 305
#     4  10  20  35  52  76 109 140 174 217 266 315
#     4  10  19  33  51  76 102 138 174 218 265 307
#     4  10  20  32  51  80 109 136 174 221 260 308
#     4  10  16  29  51  79 100 128 175 225 259 296
#     4  10  17  31  52  77 103 135 176 216 261 310
#     4  10  17  29  55  78 100 134 176 220 263 306
#     4  10  20  33  51  72 107 138 172 218 265 309
#
# _framework density 17.065830999999999
#
# number of rings (size 3 to 8) (size 9 to 14) (size 15 to 20)
#    0.000    2.000    5.000    0.750    0.000    0.250 
#    0.000    3.750    0.000    6.000    0.000    0.000 
#    0.000    5.000    0.000    0.000    0.000    0.000 
#
# Total GULP energy -178311.164623 kJ/mol
# GULP energy per Si atom -5572.223894 kJ/mol
# Density = 1.702699 g / cm^3
# Si number density = 17.065831 Si / 1000 Ang^3
#
#
#
# Elastic Constant Matrix: (Units=GPa)
#
#
# Indices 1 2 3 4 5 6 
#
# 1 134.1432 19.5057 74.5699 0.0000 -6.7915 0.0000
# 2 19.5057 18.8186 16.4726 0.0000 -0.2380 0.0000
# 3 74.5699 16.4726 125.9485 0.0000 -6.8199 0.0000
# 4 0.0000 0.0000 0.0000 7.6132 0.0000 -1.2166
# 5 -6.7915 -0.2380 -6.8199 0.0000 21.2427 0.0000
# 6 0.0000 0.0000 0.0000 -1.2166 0.0000 15.9737
#
#
#
# Elastic Compliance Matrix: (Units=1/GPa)
#
#
# Indices 1 2 3 4 5 6 
#
# 1 0.011931 -0.007053 -0.006044 0.000000 0.001795 0.000000
# 2 -0.007053 0.064252 -0.004387 0.000000 -0.002944 0.000000
# 3 -0.006044 -0.004387 0.012197 0.000000 0.001934 0.000000
# 4 0.000000 0.000000 0.000000 0.132969 0.000000 0.010127
# 5 0.001795 -0.002944 0.001934 0.000000 0.048237 0.000000
# 6 0.000000 0.000000 0.000000 0.010127 0.000000 0.063374
#
#
# Mechanical properties :
#
#
# Convention : Reuss Voigt Hill
#
# Bulk Modulus (GPa) = 18.72256 55.55632 37.13944
# Shear Modulus (GPa) = 12.96229 20.19004 16.57616
#
# Velocity S-wave (km/s) = 2.75898 3.44331 3.11996
# Velocity P-wave (km/s) = 4.59825 6.95940 5.89818
#
# Compressibility (1/GPa) = 0.05341149
#
# Stress axis : x y z
#
# Youngs Moduli (GPa) = 83.81298 15.56362 81.98773
#
# Poissons Ratio (x) = 0.10978 0.49557
# Poissons Ratio (y) = 0.59116 0.35966
# Poissons Ratio (z) = 0.50660 0.06827
#
# Static dielectric constant tensor:
#      x y z
#    x 1.617030 0.000000 0.000040 
#    y 0.000000 1.580820 0.000000 
#    z 0.000040 0.000000 1.570880 
# 
# From -- ./inp_files/169468.got.cif
#   From: 2010.05.17/outbox.cif.g08.bks.cpg/sg12_85_cif.got.tgz:169468.got - 2010.06.03 13:09:07.
