data_PCOD9168353
_publ_section_title
;
Structure prediction by ZEFSAII (Michael W. Deem and Ramdas Pophale) SiO2 
 PCOD9168353
Probable space group: C 2/M
;
_chemical_formula_sum "Si O2"
_cell_formula_units_Z 44
_cell_length_a 20.566905
_cell_length_b 11.891951
_cell_length_c 7.799452
_cell_angle_alpha 90.000000
_cell_angle_beta 69.094153
_cell_angle_gamma 90.000000
_cell_volume 1782.014195
_symmetry_space_group_name_H-M "C 2/M"
_symmetry_group_IT_number 12
_symmetry_cell_setting 'monoclinic'
loop_
_space_group_symop_operation_xyz
x,y,z
-x,y,-z
-x,-y,-z
x,-y,z
1/2+x,1/2+y,z
1/2-x,1/2+y,-z
1/2-x,1/2-y,-z
1/2+x,1/2-y,z
loop_
_atom_site_type_symbol
_atom_site_label
_atom_site_fract_x
_atom_site_fract_y
_atom_site_fract_z
Si Si1 0.917505 0.247866 0.207470
Si Si2 0.101077 0.000000 0.661265
Si Si3 0.451901 0.752812 0.718323
Si Si4 0.785265 0.734116 0.151081
Si Si5 0.416431 0.500000 0.713059
Si Si6 0.225430 0.000000 0.308614
Si Si7 0.837705 0.634015 0.597561
O O1 0.919132 0.113420 0.227575
O O2 0.868711 0.261706 0.086946
O O3 0.869920 0.300509 0.404770
O O4 0.994654 0.292051 0.182873
O O5 0.181373 0.000000 0.525102
O O6 0.065607 0.000000 0.507289
O O7 0.500000 0.754294 0.500000
O O8 0.436064 0.621099 0.765516
O O9 0.385362 0.823649 0.713954
O O10 0.766922 0.612695 0.244083
O O11 0.741528 0.825464 0.301068
O O12 0.750000 0.750000 0.000000
O O13 0.332439 0.500000 0.786848
O O14 0.842971 0.500000 0.574056
#
# Coordination Sequence:
#
# PCOD9168353 Si02
#       7
#     8   4   8   8   4   4   8
#     4  11  23  36  64  95 118 154 197 248 294 351
#     4  10  17  35  65  94 118 145 197 246 301 343
#     4  10  17  34  59  93 121 148 188 245 300 351
#     4  12  27  43  59  85 122 162 202 242 291 350
#     4  10  14  33  61  94 119 142 189 244 309 341
#     4  10  20  41  65  84 113 163 191 246 300 340
#     4  11  23  39  63  89 122 154 196 247 296 353
#
# _framework density 24.691161000000001
#
# number of rings (size 3 to 8) (size 9 to 14) (size 15 to 20)
#    0.545    0.727    7.273    1.364    3.818    3.273 
#    0.000    0.909    0.000    2.182    0.000    0.000 
#    0.000    0.000    0.000    0.000    0.000    0.000 
#
# Total GULP energy -122944.939824 kJ/mol
# GULP energy per Si atom -5588.406356 kJ/mol
# Density = 2.463496 g / cm^3
# Si number density = 24.691161 Si / 1000 Ang^3
#
#
#
# Elastic Constant Matrix: (Units=GPa)
#
#
# Indices 1 2 3 4 5 6 
#
# 1 197.6218 22.0907 22.9556 0.0000 20.7377 0.0000
# 2 22.0907 119.2335 -2.0809 0.0000 4.7359 0.0000
# 3 22.9556 -2.0809 48.3685 0.0000 32.1285 0.0000
# 4 0.0000 0.0000 0.0000 8.5203 0.0000 7.3517
# 5 20.7377 4.7359 32.1285 0.0000 45.7719 0.0000
# 6 0.0000 0.0000 0.0000 7.3517 0.0000 43.8111
#
#
#
# Elastic Compliance Matrix: (Units=1/GPa)
#
#
# Indices 1 2 3 4 5 6 
#
# 1 0.005510 -0.001017 -0.002006 0.000000 -0.000983 0.000000
# 2 -0.001017 0.008690 0.002150 0.000000 -0.001948 0.000000
# 3 -0.002006 0.002150 0.039837 0.000000 -0.027277 0.000000
# 4 0.000000 0.000000 0.000000 0.137237 0.000000 -0.023029
# 5 -0.000983 -0.001948 -0.027277 0.000000 0.041641 0.000000
# 6 0.000000 0.000000 0.000000 -0.023029 0.000000 0.026690
#
#
# Mechanical properties :
#
#
# Convention : Reuss Voigt Hill
#
# Bulk Modulus (GPa) = 19.12286 50.12831 34.62559
# Shear Modulus (GPa) = 17.93524 41.10454 29.51989
#
# Velocity S-wave (km/s) = 2.69807 4.08456 3.46145
# Velocity P-wave (km/s) = 4.17945 6.52618 5.47991
#
# Compressibility (1/GPa) = 0.05229342
#
# Stress axis : x y z
#
# Youngs Moduli (GPa) = 181.48859 115.07245 25.10203
#
# Poissons Ratio (x) = 0.11700 0.05034
# Poissons Ratio (y) = 0.18454 -0.05398
# Poissons Ratio (z) = 0.36398 -0.24743
#
# Static dielectric constant tensor:
#      x y z
#    x 2.060100 0.000000 0.028230 
#    y 0.000000 1.837030 0.000000 
#    z 0.028230 0.000000 2.091780 
# 
# From -- ./inp_files/84115.got.cif
#   From: 2010.05.17/outbox.cif.g08.bks.cpg/sg12_43_cif.got.tgz:84115.got - 2010.06.03 13:09:07.
