data_PCOD9168018
_publ_section_title
;
Structure prediction by ZEFSAII (Michael W. Deem and Ramdas Pophale) SiO2 
 PCOD9168018
Probable space group: P 21/M
;
_chemical_formula_sum "Si O2"
_cell_formula_units_Z 32
_cell_length_a 12.000000
_cell_length_b 15.000000
_cell_length_c 18.000000
_cell_angle_alpha 90.000000
_cell_angle_beta 150.000000
_cell_angle_gamma 90.000000
_cell_volume 1620.000000
_symmetry_space_group_name_H-M "P 21/M"
_symmetry_group_IT_number 11
_symmetry_cell_setting 'monoclinic'
loop_
_space_group_symop_operation_xyz
x,y,z
-x,1/2+y,-z
-x,-y,-z
x,1/2-y,z
loop_
_atom_site_type_symbol
_atom_site_label
_atom_site_fract_x
_atom_site_fract_y
_atom_site_fract_z
Si Si1 0.802399 0.149845 0.800229
Si Si2 0.223884 0.441013 0.963818
Si Si3 0.195862 0.855327 0.512630
Si Si4 0.686705 0.352785 0.246708
Si Si5 0.068822 0.506232 0.717415
Si Si6 0.920524 0.426650 0.012808
Si Si7 0.365422 0.152230 0.324260
Si Si8 0.396883 0.077618 0.491112
O O1 0.786559 0.250000 0.763843
O O2 0.848258 0.149247 0.914676
O O3 0.571053 0.099272 0.655326
O O4 0.995198 0.102522 0.862791
O O5 0.199950 0.471512 0.865386
O O6 0.423887 0.373240 0.091826
O O7 0.255025 0.528682 0.033468
O O8 0.155350 0.750000 0.473594
O O9 0.235062 0.865523 0.623004
O O10 0.420330 0.882093 0.596870
O O11 0.005454 0.920442 0.373216
O O12 0.731641 0.250000 0.251932
O O13 0.801941 0.422912 0.258311
O O14 0.844396 0.552982 0.618686
O O15 0.000000 0.500000 0.000000
O O16 0.140291 0.401704 0.184237
O O17 0.326217 0.250000 0.269656
O O18 0.401654 0.155238 0.432879
O O19 0.500000 0.000000 0.500000
#
# Coordination Sequence:
#
# PCOD9168018 Si02
#       8
#     4   4   4   4   4   4   4   4
#     4  11  22  36  60  94 128 163 207 260 317 377
#     4  11  22  41  65  89 123 168 217 261 317 375
#     4  10  22  40  66  97 125 166 218 263 312 377
#     4  11  26  45  65  92 124 168 226 270 315 376
#     4  12  24  42  68  92 129 172 209 262 326 374
#     4  10  20  35  57  88 125 163 203 255 314 378
#     4  11  20  35  60  91 126 162 203 256 314 379
#     4  12  21  38  60  92 129 161 199 251 320 389
#
# _framework density 19.753086
#
# number of rings (size 3 to 8) (size 9 to 14) (size 15 to 20)
#    0.000    1.000    3.750    4.125    1.750    4.000 
#    0.000    0.000    0.000    0.750    0.000    0.000 
#    0.000    0.000    0.000    0.000    0.000    0.000 
#
# Total GULP energy -178508.593106 kJ/mol
# GULP energy per Si atom -5578.393535 kJ/mol
# Density = 1.970813 g / cm^3
# Si number density = 19.753086 Si / 1000 Ang^3
#
#
#
# Elastic Constant Matrix: (Units=GPa)
#
#
# Indices 1 2 3 4 5 6 
#
# 1 51.7236 32.8630 30.2199 0.0000 -21.5812 0.0000
# 2 32.8630 96.8695 30.5881 0.0000 -14.8569 0.0000
# 3 30.2199 30.5881 66.5133 0.0000 -20.9660 0.0000
# 4 0.0000 0.0000 0.0000 25.9250 0.0000 -1.6256
# 5 -21.5812 -14.8569 -20.9660 0.0000 24.5092 0.0000
# 6 0.0000 0.0000 0.0000 -1.6256 0.0000 21.4897
#
#
#
# Elastic Compliance Matrix: (Units=1/GPa)
#
#
# Indices 1 2 3 4 5 6 
#
# 1 0.037124 -0.007058 -0.006388 0.000000 0.022946 0.000000
# 2 -0.007058 0.013644 -0.003313 0.000000 -0.000778 0.000000
# 3 -0.006388 -0.003313 0.023351 0.000000 0.012342 0.000000
# 4 0.000000 0.000000 0.000000 0.038757 0.000000 0.002932
# 5 0.022946 -0.000778 0.012342 0.000000 0.071091 0.000000
# 6 0.000000 0.000000 0.000000 0.002932 0.000000 0.046756
#
#
# Mechanical properties :
#
#
# Convention : Reuss Voigt Hill
#
# Bulk Modulus (GPa) = 24.63034 44.71648 34.67341
# Shear Modulus (GPa) = 18.00008 22.48049 20.24029
#
# Velocity S-wave (km/s) = 3.02197 3.37720 3.20451
# Velocity P-wave (km/s) = 4.96715 6.15582 5.59315
#
# Compressibility (1/GPa) = 0.04060033
#
# Stress axis : x y z
#
# Youngs Moduli (GPa) = 26.93658 73.28980 42.82440
#
# Poissons Ratio (x) = 0.51727 0.27358
# Poissons Ratio (y) = 0.19012 0.14189
# Poissons Ratio (z) = 0.17208 0.24284
#
# Static dielectric constant tensor:
#      x y z
#    x 1.633710 0.000000 0.017420 
#    y 0.000000 1.768290 0.000000 
#    z 0.017420 0.000000 1.588260 
# 
# From -- ./inp_files/59480.got.cif
#   From: 2010.05.17/outbox.ucp.g08.bks.cvg/sg11_30_cif.got.tgz:59480.got - 2010.06.11 11:38:39.
