data_PCOD9168913
_publ_section_title
;
Structure prediction by ZEFSAII (Michael W. Deem and Ramdas Pophale) SiO2 
 PCOD9168913
Probable space group: C 2/M
;
_chemical_formula_sum "Si O2"
_cell_formula_units_Z 48
_cell_length_a 21.515990
_cell_length_b 19.559947
_cell_length_c 19.304515
_cell_angle_alpha 90.000000
_cell_angle_beta 20.012459
_cell_angle_gamma 90.000000
_cell_volume 2780.346765
_symmetry_space_group_name_H-M "C 2/M"
_symmetry_group_IT_number 12
_symmetry_cell_setting 'monoclinic'
loop_
_space_group_symop_operation_xyz
x,y,z
-x,y,-z
-x,-y,-z
x,-y,z
1/2+x,1/2+y,z
1/2-x,1/2+y,-z
1/2-x,1/2-y,-z
1/2+x,1/2-y,z
loop_
_atom_site_type_symbol
_atom_site_label
_atom_site_fract_x
_atom_site_fract_y
_atom_site_fract_z
Si Si1 0.994165 0.578487 0.158321
Si Si2 0.389540 0.758640 0.751456
Si Si3 0.918750 0.713265 0.010077
Si Si4 0.840286 0.921972 0.397207
Si Si5 0.271105 0.635279 0.977679
Si Si6 0.224639 0.783474 0.602630
O O1 0.015214 0.500000 0.114370
O O2 0.053934 0.633866 0.039091
O O3 0.787957 0.589519 0.401082
O O4 0.119774 0.593834 0.093823
O O5 0.335605 0.697130 0.860201
O O6 0.605932 0.763880 0.526813
O O7 0.285262 0.739242 0.790417
O O8 0.313214 0.827935 0.866750
O O9 0.040646 0.754250 0.826779
O O10 0.000000 0.726194 0.000000
O O11 0.785569 0.864286 0.399488
O O12 0.051023 0.908782 0.192956
O O13 0.809734 0.000000 0.407170
O O14 0.250000 0.750000 0.500000
#
# Coordination Sequence:
#
# PCOD9168913 Si02
#       6
#     8   8   8   8   8   8
#     4  10  20  33  51  81 116 145 179 221 268 322
#     4  10  18  30  55  77 104 141 181 229 270 311
#     4  11  23  36  54  80 110 152 191 219 264 321
#     4  11  20  30  52  84 110 135 170 219 280 328
#     4  10  16  30  51  81 107 135 175 227 278 313
#     4  12  18  36  58  79 108 140 178 237 277 315
#
# _framework density 17.264033000000001
#
# number of rings (size 3 to 8) (size 9 to 14) (size 15 to 20)
#    0.000    1.333    6.667    1.500    0.000    1.000 
#    0.000    0.000    0.000    0.500    0.000   10.500 
#    0.000    0.000    0.000    0.000    0.000    0.000 
#
# Total GULP energy -133894.197410 kJ/mol
# GULP energy per Si atom -5578.924892 kJ/mol
# Density = 1.722474 g / cm^3
# Si number density = 17.264033 Si / 1000 Ang^3
#
#
#
# Elastic Constant Matrix: (Units=GPa)
#
#
# Indices 1 2 3 4 5 6 
#
# 1 71.5082 19.1763 4.8019 -0.0167 -13.0902 0.0133
# 2 19.1763 78.8210 4.0255 -0.0695 -2.1940 0.0150
# 3 4.8019 4.0255 43.0311 -0.0326 -22.6106 0.0195
# 4 -0.0167 -0.0695 -0.0326 21.9585 0.0212 -8.0531
# 5 -13.0902 -2.1940 -22.6106 0.0212 26.6201 -0.0105
# 6 0.0133 0.0150 0.0195 -8.0531 -0.0105 12.8594
#
#
#
# Elastic Compliance Matrix: (Units=1/GPa)
#
#
# Indices 1 2 3 4 5 6 
#
# 1 0.016963 -0.004037 0.004863 -0.000011 0.012139 -0.000017
# 2 -0.004037 0.013709 -0.002314 0.000046 -0.002821 0.000018
# 3 0.004863 -0.002314 0.043470 0.000013 0.039124 -0.000028
# 4 -0.000011 0.000046 0.000013 0.059118 -0.000023 0.037022
# 5 0.012139 -0.002821 0.039124 -0.000023 0.076533 -0.000021
# 6 -0.000017 0.000018 -0.000028 0.037022 -0.000021 0.100949
#
#
# Mechanical properties :
#
#
# Convention : Reuss Voigt Hill
#
# Bulk Modulus (GPa) = 14.05172 27.70752 20.87962
# Shear Modulus (GPa) = 14.81742 23.31137 19.06439
#
# Velocity S-wave (km/s) = 2.93282 3.67861 3.32668
# Velocity P-wave (km/s) = 4.43008 5.84183 5.18424
#
# Compressibility (1/GPa) = 0.07116564
#
# Stress axis : x y z
#
# Youngs Moduli (GPa) = 58.95269 72.94518 23.00422
#
# Poissons Ratio (x) = 0.29451 -0.11188
# Poissons Ratio (y) = 0.23801 0.05324
# Poissons Ratio (z) = -0.28671 0.16881
#
# Static dielectric constant tensor:
#      x y z
#    x 1.586980 -0.000010 -0.027450 
#    y -0.000010 1.589800 0.000020 
#    z -0.027450 0.000020 1.596120 
# 
# From -- ./inp_files/285325.got.cif
#   From: 2010.05.17/outbox.cif.g08.bks.cpg/sg12_143_cif.got.tgz:285325.got - 2010.06.03 13:09:07.
