data_PCOD9168910
_publ_section_title
;
Structure prediction by ZEFSAII (Michael W. Deem and Ramdas Pophale) SiO2 
 PCOD9168910
Probable space group: C 2/M
;
_chemical_formula_sum "Si O2"
_cell_formula_units_Z 40
_cell_length_a 14.934976
_cell_length_b 15.998538
_cell_length_c 14.677698
_cell_angle_alpha 90.000000
_cell_angle_beta 152.235700
_cell_angle_gamma 90.000000
_cell_volume 1633.711050
_symmetry_space_group_name_H-M "C 2/M"
_symmetry_group_IT_number 12
_symmetry_cell_setting 'monoclinic'
loop_
_space_group_symop_operation_xyz
x,y,z
-x,y,-z
-x,-y,-z
x,-y,z
1/2+x,1/2+y,z
1/2-x,1/2+y,-z
1/2-x,1/2-y,-z
1/2+x,1/2-y,z
loop_
_atom_site_type_symbol
_atom_site_label
_atom_site_fract_x
_atom_site_fract_y
_atom_site_fract_z
Si Si1 0.385132 0.343777 0.022154
Si Si2 0.791688 0.904088 0.224791
Si Si3 0.292257 0.141609 0.336766
Si Si4 0.339420 0.679675 0.464506
Si Si5 0.942907 0.347160 0.139847
O O1 0.591818 0.390937 0.202516
O O2 0.421897 0.250693 0.094302
O O3 0.295374 0.333544 0.840676
O O4 0.211754 0.378741 0.927054
O O5 0.795606 0.863012 0.327226
O O6 0.956845 0.853223 0.319233
O O7 0.845274 0.000000 0.280499
O O8 0.602289 0.894924 0.994564
O O9 0.500000 0.099752 0.500000
O O10 0.346305 0.223108 0.445325
O O11 0.164034 0.649455 0.368440
#
# Coordination Sequence:
#
# PCOD9168910 Si02
#       5
#     8   8   8   8   8
#     4   9  19  30  47  74  96 127 165 199 242 302
#     4  11  21  32  48  71  99 136 174 196 226 282
#     4  10  16  30  51  69  97 127 157 197 248 291
#     4  10  18  31  48  67  98 132 167 195 233 285
#     4  10  19  32  47  68 101 130 163 204 244 279
#
# _framework density 24.484134000000001
#
# number of rings (size 3 to 8) (size 9 to 14) (size 15 to 20)
#    0.000    2.000    4.000    1.800    0.000    4.000 
#    0.000    6.000    0.000    0.000    0.000    2.800 
#    0.000    8.000    0.000    0.000    0.000    0.000 
#
# Total GULP energy -111604.829019 kJ/mol
# GULP energy per Si atom -5580.241451 kJ/mol
# Density = 2.442841 g / cm^3
# Si number density = 24.484134 Si / 1000 Ang^3
#
#
#
# Elastic Constant Matrix: (Units=GPa)
#
#
# Indices 1 2 3 4 5 6 
#
# 1 123.8955 2.5430 43.8298 0.0007 31.7393 0.0002
# 2 2.5430 47.3951 3.8716 0.0018 -6.2072 0.0007
# 3 43.8298 3.8716 116.0053 0.0014 39.7182 0.0009
# 4 0.0007 0.0018 0.0014 -10.4168 0.0011 -3.5433
# 5 31.7393 -6.2072 39.7182 0.0011 56.5999 0.0005
# 6 0.0002 0.0007 0.0009 -3.5433 0.0005 -9.9650
#
#
#
# Elastic Compliance Matrix: (Units=1/GPa)
#
#
# Indices 1 2 3 4 5 6 
#
# 1 0.009953 -0.000869 -0.002353 0.000000 -0.004025 0.000000
# 2 -0.000869 0.021840 -0.001826 0.000004 0.004164 0.000000
# 3 -0.002353 -0.001826 0.012093 0.000000 -0.007366 0.000000
# 4 0.000000 0.000004 0.000000 -0.109207 0.000002 0.038831
# 5 -0.004025 0.004164 -0.007366 0.000002 0.025551 0.000000
# 6 0.000000 0.000000 0.000000 0.038831 0.000000 -0.114159
#
#
# Mechanical properties :
#
#
# Convention : Reuss Voigt Hill
#
# Bulk Modulus (GPa) = 29.59579 43.08720 36.34149
# Shear Modulus (GPa) = -37.71617 23.04705 -7.33456
#
# Velocity S-wave (km/s) = -3.92909 3.07140 -1.73267
# Velocity P-wave (km/s) = 2.91028 5.49674 3.29731
#
# Compressibility (1/GPa) = 0.03378859
#
# Stress axis : x y z
#
# Youngs Moduli (GPa) = 100.47410 45.78673 82.69587
#
# Poissons Ratio (x) = 0.03979 0.19461
# Poissons Ratio (y) = 0.08731 0.15103
# Poissons Ratio (z) = 0.23645 0.08362
#
# Static dielectric constant tensor:
#      x y z
#    x 2.092130 0.000000 0.096560 
#    y 0.000000 1.888430 0.000000 
#    z 0.096560 0.000000 1.960100 
# 
# From -- ./inp_files/60305.got.cif
#   From: 2010.05.17/outbox.cif.g08.bks.cpg/sg12_31_cif.got.tgz:60305.got - 2010.06.03 13:09:07.
