data_PCOD9168006
_publ_section_title
;
Structure prediction by ZEFSAII (Michael W. Deem and Ramdas Pophale) SiO2 
 PCOD9168006
Probable space group: P 21/M
;
_chemical_formula_sum "Si O2"
_cell_formula_units_Z 32
_cell_length_a 27.000000
_cell_length_b 9.000000
_cell_length_c 21.000000
_cell_angle_alpha 90.000000
_cell_angle_beta 20.000000
_cell_angle_gamma 90.000000
_cell_volume 1745.328791
_symmetry_space_group_name_H-M "P 21/M"
_symmetry_group_IT_number 11
_symmetry_cell_setting 'monoclinic'
loop_
_space_group_symop_operation_xyz
x,y,z
-x,1/2+y,-z
-x,-y,-z
x,1/2-y,z
loop_
_atom_site_type_symbol
_atom_site_label
_atom_site_fract_x
_atom_site_fract_y
_atom_site_fract_z
Si Si1 0.227397 0.426007 0.447295
Si Si2 0.503421 0.576181 0.163057
Si Si3 0.584154 0.072538 0.590155
Si Si4 0.883508 0.427232 0.292978
Si Si5 0.566190 0.927311 0.482548
Si Si6 0.899896 0.927331 0.068677
Si Si7 0.917174 0.923484 0.511303
Si Si8 0.213953 0.918915 0.211311
O O1 0.235127 0.250000 0.443518
O O2 0.387265 0.492630 0.260179
O O3 0.144169 0.491982 0.608068
O O4 0.148200 0.462481 0.477555
O O5 0.471111 0.750000 0.199281
O O6 0.488412 0.530701 0.255112
O O7 0.661380 0.535649 0.950376
O O8 0.573143 0.250000 0.593939
O O9 0.753141 0.036683 0.401065
O O10 0.519208 0.990879 0.607712
O O11 0.875821 0.250000 0.312385
O O12 0.034227 0.468491 0.079068
O O13 0.549264 0.750000 0.501208
O O14 0.735199 0.968409 0.275381
O O15 0.500000 0.000000 0.500000
O O16 0.912321 0.750000 0.059650
O O17 0.000000 0.000000 0.000000
O O18 0.878380 0.750000 0.573106
O O19 0.090309 0.929821 0.307159
O O20 0.859133 0.036719 0.633952
O O21 0.269216 0.750000 0.145902
#
# Coordination Sequence:
#
# PCOD9168006 Si02
#       8
#     4   4   4   4   4   4   4   4
#     4  10  20  35  56  82 112 143 178 224 271 319
#     4  10  21  37  57  82 112 145 181 222 270 324
#     4   9  18  35  57  77 106 143 179 221 272 322
#     4   9  18  34  55  80 110 140 176 224 273 325
#     4  11  23  37  55  79 110 145 182 225 273 323
#     4  10  20  35  57  82 106 139 183 226 270 323
#     4   9  20  38  57  80 113 145 178 224 273 320
#     4  10  20  36  59  83 109 144 187 225 264 322
#
# _framework density 18.334654
#
# number of rings (size 3 to 8) (size 9 to 14) (size 15 to 20)
#    0.000    2.250    1.250    2.250    0.000    5.500 
#    2.250    0.000    0.000    0.000    0.000    0.000 
#    0.000    0.000    0.000    0.000    0.000    0.000 
#
# Total GULP energy -178335.979235 kJ/mol
# GULP energy per Si atom -5572.999351 kJ/mol
# Density = 1.829292 g / cm^3
# Si number density = 18.334654 Si / 1000 Ang^3
#
#
#
# Elastic Constant Matrix: (Units=GPa)
#
#
# Indices 1 2 3 4 5 6 
#
# 1 134.3231 48.0522 20.9628 0.0000 -18.9412 0.0000
# 2 48.0522 4.1566 9.4782 0.0000 -8.8770 0.0000
# 3 20.9628 9.4782 39.3151 0.0000 -2.8183 0.0000
# 4 0.0000 0.0000 0.0000 20.6751 0.0000 4.3442
# 5 -18.9412 -8.8770 -2.8183 0.0000 4.8021 0.0000
# 6 0.0000 0.0000 0.0000 4.3442 0.0000 25.5634
#
#
#
# Elastic Compliance Matrix: (Units=1/GPa)
#
#
# Indices 1 2 3 4 5 6 
#
# 1 0.014664 0.013725 -0.005389 0.000000 0.080048 0.000000
# 2 0.013725 -0.065664 0.003854 0.000000 -0.064987 0.000000
# 3 -0.005389 0.003854 0.027525 0.000000 0.002021 0.000000
# 4 0.000000 0.000000 0.000000 0.050158 0.000000 -0.008524
# 5 0.080048 -0.064987 0.002021 0.000000 0.405033 0.000000
# 6 0.000000 0.000000 0.000000 -0.008524 0.000000 0.040567
#
#
# Mechanical properties :
#
#
# Convention : Reuss Voigt Hill
#
# Bulk Modulus (GPa) = 1107.17116 37.19792 572.18454
# Shear Modulus (GPa) = 11.15563 16.82822 13.99193
#
# Velocity S-wave (km/s) = 2.46934 3.03287 2.76550
# Velocity P-wave (km/s) = 24.76508 5.70936 17.97089
#
# Compressibility (1/GPa) = 0.00090320
#
# Stress axis : x y z
#
# Youngs Moduli (GPa) = 68.19647 -15.22898 36.33080
#
# Poissons Ratio (x) = 0.20902 0.19579
# Poissons Ratio (y) = -0.93600 -0.14001
# Poissons Ratio (z) = 0.36752 0.05869
#
# Static dielectric constant tensor:
#      x y z
#    x 1.606220 0.000000 0.015410 
#    y 0.000000 1.614670 0.000000 
#    z 0.015410 0.000000 1.666060 
# 
# From -- ./inp_files/67054.got.cif
#   From: 2010.05.17/outbox.ucp.g08.bks.cvg/sg11_34_cif.got.tgz:67054.got - 2010.06.11 11:38:39.
