data_PCOD9168509
_publ_section_title
;
Structure prediction by ZEFSAII (Michael W. Deem and Ramdas Pophale) SiO2 
 PCOD9168509
Probable space group: C 2/M
;
_chemical_formula_sum "Si O2"
_cell_formula_units_Z 56
_cell_length_a 8.776859
_cell_length_b 19.394048
_cell_length_c 19.015255
_cell_angle_alpha 90.000000
_cell_angle_beta 90.000000
_cell_angle_gamma 90.000000
_cell_volume 3236.754358
_symmetry_space_group_name_H-M "C 2/M"
_symmetry_group_IT_number 12
_symmetry_cell_setting 'monoclinic'
loop_
_space_group_symop_operation_xyz
x,y,z
-x,y,-z
-x,-y,-z
x,-y,z
1/2+x,1/2+y,z
1/2-x,1/2+y,-z
1/2-x,1/2-y,-z
1/2+x,1/2-y,z
loop_
_atom_site_type_symbol
_atom_site_label
_atom_site_fract_x
_atom_site_fract_y
_atom_site_fract_z
Si Si1 0.318154 0.173207 0.702109
Si Si2 0.682651 0.172456 0.857773
Si Si3 0.681846 0.826793 0.702109
Si Si4 0.316584 0.419301 0.420600
Si Si5 0.317985 0.671775 1.000000
Si Si6 0.817349 0.672456 0.857773
Si Si7 0.816584 0.919301 0.579400
O O1 0.500000 0.178506 0.698016
O O2 0.250000 0.250000 0.696579
O O3 0.256122 0.126356 0.639816
O O4 0.281304 0.143556 0.780245
O O5 0.718696 0.143556 0.780245
O O6 0.756570 0.139536 0.927306
O O7 0.750000 0.250000 0.854757
O O8 0.500000 0.175373 0.866461
O O9 0.743878 0.873644 0.639816
O O10 0.277402 0.500000 0.411897
O O11 0.270531 0.398404 0.500000
O O12 0.500000 0.413802 0.416809
O O13 0.500000 0.675046 0.000000
O O14 0.250000 0.750000 0.000000
O O15 0.256570 0.639536 0.072694
O O16 0.777402 0.000000 0.588103
#
# Coordination Sequence:
#
# PCOD9168509 Si02
#       7
#     8   8   8   8   8   8   8
#     4  10  20  32  49  73 100 130 162 199 242 286
#     4   9  16  26  39  59  89 122 155 191 232 276
#     4  10  20  32  49  73 100 130 162 199 242 286
#     4   9  19  36  55  73  95 125 160 198 241 289
#     4  10  16  22  36  58  85 120 157 190 229 275
#     4   9  16  26  39  59  89 122 155 191 232 276
#     4   9  19  36  55  73  95 125 160 198 241 289
#
# _framework density 17.301282
#
# number of rings (size 3 to 8) (size 9 to 14) (size 15 to 20)
#    0.000    2.571    0.000    5.571    0.000    5.143 
#    0.000    1.429    0.000    0.000    0.000    1.000 
#    0.000    8.000    0.000    0.000    0.000    0.000 
#
# Total GULP energy -155963.429075 kJ/mol
# GULP energy per Si atom -5570.122467 kJ/mol
# Density = 1.726190 g / cm^3
# Si number density = 17.301282 Si / 1000 Ang^3
#
#
#
# Elastic Constant Matrix: (Units=GPa)
#
#
# Indices 1 2 3 4 5 6 
#
# 1 78.7131 25.2190 77.5024 0.0000 0.0000 0.0000
# 2 25.2190 29.3249 64.1243 0.0000 0.0000 0.0000
# 3 77.5024 64.1243 227.2168 0.0000 0.0000 0.0000
# 4 0.0000 0.0000 0.0000 -9.1523 0.0000 0.0000
# 5 0.0000 0.0000 0.0000 0.0000 31.8049 0.0000
# 6 0.0000 0.0000 0.0000 0.0000 0.0000 19.1359
#
#
#
# Elastic Compliance Matrix: (Units=1/GPa)
#
#
# Indices 1 2 3 4 5 6 
#
# 1 0.019501 -0.005812 -0.005011 0.000000 0.000000 0.000000
# 2 -0.005812 0.090796 -0.023641 0.000000 0.000000 0.000000
# 3 -0.005011 -0.023641 0.012782 0.000000 0.000000 0.000000
# 4 0.000000 0.000000 0.000000 -0.109263 0.000000 0.000000
# 5 0.000000 0.000000 0.000000 0.000000 0.031442 0.000000
# 6 0.000000 0.000000 0.000000 0.000000 0.000000 0.052258
#
#
# Mechanical properties :
#
#
# Convention : Reuss Voigt Hill
#
# Bulk Modulus (GPa) = 18.46764 74.32735 46.39750
# Shear Modulus (GPa) = 27.10092 19.58497 23.34295
#
# Velocity S-wave (km/s) = 3.96208 3.36816 3.67714
# Velocity P-wave (km/s) = 5.62389 7.62757 6.70105
#
# Compressibility (1/GPa) = 0.05414876
#
# Stress axis : x y z
#
# Youngs Moduli (GPa) = 51.27994 11.01374 78.23250
#
# Poissons Ratio (x) = 0.06402 0.39205
# Poissons Ratio (y) = 0.29806 1.84953
# Poissons Ratio (z) = 0.25698 0.26038
#
# Static dielectric constant tensor:
#      x y z
#    x 1.572300 0.000000 0.000000 
#    y 0.000000 1.547050 0.000000 
#    z 0.000000 0.000000 1.659120 
# 
# From -- ./inp_files/257641.got.cif
#   From: 2010.05.17/outbox.cif.g08.bks.cpg/sg12_129_cif.got.tgz:257641.got - 2010.06.03 13:09:07.
