data_PCOD9168802
_publ_section_title
;
Structure prediction by ZEFSAII (Michael W. Deem and Ramdas Pophale) SiO2 
 PCOD9168802
Probable space group: C 2/M
;
_chemical_formula_sum "Si O2"
_cell_formula_units_Z 60
_cell_length_a 18.294696
_cell_length_b 13.947405
_cell_length_c 14.287065
_cell_angle_alpha 90.000000
_cell_angle_beta 104.142859
_cell_angle_gamma 90.000000
_cell_volume 3535.039968
_symmetry_space_group_name_H-M "C 2/M"
_symmetry_group_IT_number 12
_symmetry_cell_setting 'monoclinic'
loop_
_space_group_symop_operation_xyz
x,y,z
-x,y,-z
-x,-y,-z
x,-y,z
1/2+x,1/2+y,z
1/2-x,1/2+y,-z
1/2-x,1/2-y,-z
1/2+x,1/2-y,z
loop_
_atom_site_type_symbol
_atom_site_label
_atom_site_fract_x
_atom_site_fract_y
_atom_site_fract_z
Si Si1 0.094657 0.271265 0.438361
Si Si2 0.587060 0.887653 0.138547
Si Si3 0.021236 0.611483 0.720365
Si Si4 0.522615 0.390023 0.638862
Si Si5 0.954180 0.889232 0.824028
Si Si6 0.000000 0.751827 0.000000
Si Si7 0.681626 0.744779 0.279369
Si Si8 0.141799 0.266425 0.661091
O O1 0.159768 0.254085 0.382186
O O2 0.123136 0.300058 0.549144
O O3 0.039685 0.348966 0.373419
O O4 0.042915 0.175446 0.427895
O O5 0.516784 0.875485 0.189600
O O6 0.568256 0.821746 0.043393
O O7 0.655828 0.840968 0.216963
O O8 0.595630 0.000000 0.120907
O O9 0.034742 0.500000 0.710767
O O10 0.095784 0.671185 0.721853
O O11 0.522946 0.500000 0.608896
O O12 0.498906 0.387233 0.740535
O O13 0.602938 0.338316 0.653532
O O14 0.998500 0.823712 0.911804
O O15 0.873491 0.838136 0.778778
O O16 0.945605 0.000000 0.850827
O O17 0.769707 0.729450 0.295347
#
# Coordination Sequence:
#
# PCOD9168802 Si02
#       8
#     8   8   8   8   8   4   8   8
#     4   9  18  31  46  66  93 127 165 200 228 261
#     4   9  18  33  51  71  95 121 151 189 233 280
#     4   9  18  32  48  67  94 126 159 195 232 270
#     4   9  18  32  48  67  94 126 159 195 232 270
#     4   9  18  33  51  71  95 121 151 189 233 280
#     4  10  16  28  56  82  90 106 152 198 232 274
#     4   9  19  32  45  67 100 129 152 189 236 276
#     4  11  19  28  47  71  94 125 164 196 228 270
#
# _framework density 16.972933999999999
#
# number of rings (size 3 to 8) (size 9 to 14) (size 15 to 20)
#    0.000    2.667    0.000    4.800    0.000    3.200 
#    0.000    0.000    0.000   20.800    0.000   22.400 
#    0.000    0.000    0.000    0.000    0.000    0.000 
#
# Total GULP energy -167106.826364 kJ/mol
# GULP energy per Si atom -5570.227545 kJ/mol
# Density = 1.693430 g / cm^3
# Si number density = 16.972934 Si / 1000 Ang^3
#
#
#
# Elastic Constant Matrix: (Units=GPa)
#
#
# Indices 1 2 3 4 5 6 
#
# 1 96.8559 18.0363 25.4167 0.0000 9.9576 0.0000
# 2 18.0363 96.7852 29.7981 0.0000 -0.9804 0.0000
# 3 25.4167 29.7981 64.0278 0.0000 5.5827 0.0000
# 4 0.0000 0.0000 0.0000 2.5312 0.0000 -11.7280
# 5 9.9576 -0.9804 5.5827 0.0000 7.0279 0.0000
# 6 0.0000 0.0000 0.0000 -11.7280 0.0000 13.5836
#
#
#
# Elastic Compliance Matrix: (Units=1/GPa)
#
#
# Indices 1 2 3 4 5 6 
#
# 1 0.013113 -0.001691 -0.002984 0.000000 -0.016445 0.000000
# 2 -0.001691 0.012570 -0.005953 0.000000 0.008879 0.000000
# 3 -0.002984 -0.005953 0.020712 0.000000 -0.013054 0.000000
# 4 0.000000 0.000000 0.000000 -0.131672 0.000000 -0.113685
# 5 -0.016445 0.008879 -0.013054 0.000000 0.177199 0.000000
# 6 0.000000 0.000000 0.000000 -0.113685 0.000000 -0.024537
#
#
# Mechanical properties :
#
#
# Convention : Reuss Voigt Hill
#
# Bulk Modulus (GPa) = 39.78086 44.90789 42.34438
# Shear Modulus (GPa) = 51.53464 16.92306 34.22885
#
# Velocity S-wave (km/s) = 5.51623 3.16105 4.49561
# Velocity P-wave (km/s) = 8.00377 6.31181 7.20761
#
# Compressibility (1/GPa) = 0.02513772
#
# Stress axis : x y z
#
# Youngs Moduli (GPa) = 76.25744 79.55433 48.28230
#
# Poissons Ratio (x) = 0.13456 0.14410
# Poissons Ratio (y) = 0.12899 0.28741
# Poissons Ratio (z) = 0.22759 0.47356
#
# Static dielectric constant tensor:
#      x y z
#    x 1.553820 0.000000 -0.025650 
#    y 0.000000 1.593440 0.000000 
#    z -0.025650 0.000000 1.605670 
# 
# From -- ./inp_files/224861.got.cif
#   From: 2010.05.17/outbox.cif.g08.bks.cpg/sg12_113_cif.got.tgz:224861.got - 2010.06.03 13:09:07.
