data_PCOD9168117
_publ_section_title
;
Structure prediction by ZEFSAII (Michael W. Deem and Ramdas Pophale) SiO2 
 PCOD9168117
Probable space group: P 21/M
;
_chemical_formula_sum "Si O2"
_cell_formula_units_Z 28
_cell_length_a 27.000000
_cell_length_b 9.000000
_cell_length_c 9.000000
_cell_angle_alpha 90.000000
_cell_angle_beta 140.000000
_cell_angle_gamma 90.000000
_cell_volume 1405.776502
_symmetry_space_group_name_H-M "P 21/M"
_symmetry_group_IT_number 11
_symmetry_cell_setting 'monoclinic'
loop_
_space_group_symop_operation_xyz
x,y,z
-x,1/2+y,-z
-x,-y,-z
x,1/2-y,z
loop_
_atom_site_type_symbol
_atom_site_label
_atom_site_fract_x
_atom_site_fract_y
_atom_site_fract_z
Si Si1 0.682310 0.073419 0.513502
Si Si2 0.876596 0.427761 0.495736
Si Si3 0.611100 0.928421 0.847897
Si Si4 0.823128 0.073988 0.041647
Si Si5 0.032664 0.427204 0.726032
Si Si6 0.448880 0.928458 0.591302
Si Si7 0.251575 0.072774 0.627183
O O1 0.682826 0.250000 0.482710
O O2 0.597577 0.024591 0.369906
O O3 0.715751 0.987836 0.451215
O O4 0.738156 0.049444 0.783977
O O5 0.867576 0.250000 0.487455
O O6 0.840134 0.473117 0.250642
O O7 0.830931 0.507855 0.519941
O O8 0.967454 0.462611 0.696970
O O9 0.612944 0.750000 0.832867
O O10 0.538795 0.965703 0.788703
O O11 0.591201 0.002488 0.645987
O O12 0.689342 0.976159 0.106644
O O13 0.839359 0.250000 0.073950
O O14 0.882449 0.992585 0.067697
O O15 0.035554 0.250000 0.716472
O O16 0.000000 0.500000 0.500000
O O17 0.441686 0.750000 0.564207
O O18 0.249511 0.250000 0.619865
#
# Coordination Sequence:
#
# PCOD9168117 Si02
#       7
#     4   4   4   4   4   4   4
#     4  10  21  36  53  74 103 139 175 209 249 302
#     4   9  18  34  55  77 101 131 170 211 251 302
#     4   9  19  35  54  79 107 131 164 213 258 297
#     4   9  18  33  54  79 103 129 168 216 258 299
#     4   9  17  30  51  78 104 131 166 209 256 304
#     4   9  18  35  58  79 100 132 172 209 251 304
#     4  11  23  35  49  74 107 139 171 209 254 301
#
# _framework density 19.917818
#
# number of rings (size 3 to 8) (size 9 to 14) (size 15 to 20)
#    0.000    2.571    0.000    2.571    0.000    6.857 
#    0.000    0.714    0.000    0.000    0.000    0.000 
#    0.000    0.000    0.000    0.000    0.000    0.000 
#
# Total GULP energy -156172.302645 kJ/mol
# GULP energy per Si atom -5577.582237 kJ/mol
# Density = 1.987248 g / cm^3
# Si number density = 19.917818 Si / 1000 Ang^3
#
#
#
# Elastic Constant Matrix: (Units=GPa)
#
#
# Indices 1 2 3 4 5 6 
#
# 1 149.0559 35.1727 5.0978 0.0000 26.1788 0.0000
# 2 35.1727 6.1504 2.9598 0.0000 14.5289 0.0000
# 3 5.0978 2.9598 2.6248 0.0000 13.0130 0.0000
# 4 0.0000 0.0000 0.0000 20.4779 0.0000 -1.3551
# 5 26.1788 14.5289 13.0130 0.0000 23.2344 0.0000
# 6 0.0000 0.0000 0.0000 -1.3551 0.0000 26.0341
#
#
#
# Elastic Compliance Matrix: (Units=1/GPa)
#
#
# Indices 1 2 3 4 5 6 
#
# 1 -0.005935 0.062063 -0.056732 0.000000 -0.000348 0.000000
# 2 0.062063 -0.293584 0.198660 0.000000 0.002392 0.000000
# 3 -0.056732 0.198660 -0.318638 0.000000 0.118157 0.000000
# 4 0.000000 0.000000 0.000000 0.049002 0.000000 0.002551
# 5 -0.000348 0.002392 0.118157 0.000000 -0.024241 0.000000
# 6 0.000000 0.000000 0.000000 0.002551 0.000000 0.038544
#
#
# Mechanical properties :
#
#
# Convention : Reuss Voigt Hill
#
# Bulk Modulus (GPa) = -4.75793 27.14350 11.19278
# Shear Modulus (GPa) = -4.84078 21.58932 8.37427
#
# Velocity S-wave (km/s) = -1.56066 3.29587 2.05269
# Velocity P-wave (km/s) = 2.37519 5.30481 3.35406
#
# Compressibility (1/GPa) = -0.21017526
#
# Stress axis : x y z
#
# Youngs Moduli (GPa) = -168.50297 -3.40618 -3.13836
#
# Poissons Ratio (x) = 0.21140 -0.17805
# Poissons Ratio (y) = 10.45773 0.62347
# Poissons Ratio (z) = -9.55955 0.67667
#
# Static dielectric constant tensor:
#      x y z
#    x 1.733330 0.000000 0.032030 
#    y 0.000000 1.657430 0.000000 
#    z 0.032030 0.000000 1.697490 
# 
# From -- ./inp_files/28418.got.cif
#   From: 2010.05.17/outbox.ucp.g08.bks.cvg/sg11_15_cif.got.tgz:28418.got - 2010.06.11 11:38:39.
