data_PCOD9168108
_publ_section_title
;
Structure prediction by ZEFSAII (Michael W. Deem and Ramdas Pophale) SiO2 
 PCOD9168108
Probable space group: P 21/M
;
_chemical_formula_sum "Si O2"
_cell_formula_units_Z 26
_cell_length_a 9.000000
_cell_length_b 15.000000
_cell_length_c 15.000000
_cell_angle_alpha 90.000000
_cell_angle_beta 140.000000
_cell_angle_gamma 90.000000
_cell_volume 1301.644910
_symmetry_space_group_name_H-M "P 21/M"
_symmetry_group_IT_number 11
_symmetry_cell_setting 'monoclinic'
loop_
_space_group_symop_operation_xyz
x,y,z
-x,1/2+y,-z
-x,-y,-z
x,1/2-y,z
loop_
_atom_site_type_symbol
_atom_site_label
_atom_site_fract_x
_atom_site_fract_y
_atom_site_fract_z
Si Si1 0.826919 0.457836 0.809478
Si Si2 0.414947 0.147648 0.914112
Si Si3 0.031257 0.973034 0.322310
Si Si4 0.602647 0.414103 0.363127
Si Si5 0.134955 0.882801 0.995858
Si Si6 0.277745 0.250000 0.249977
Si Si7 0.248492 0.643362 0.767874
O O1 0.592092 0.508691 0.729497
O O2 0.848993 0.376681 0.889343
O O3 0.830985 0.448325 0.704937
O O4 0.055766 0.517053 0.934763
O O5 0.331157 0.250000 0.876376
O O6 0.208821 0.081520 0.794680
O O7 0.624881 0.139399 0.940539
O O8 0.535631 0.129479 0.065437
O O9 0.184129 0.946024 0.477784
O O10 0.956665 0.077500 0.293998
O O11 0.474583 0.328837 0.346137
O O12 0.682414 0.385831 0.300281
O O13 0.926142 0.825283 0.861372
O O14 0.192452 0.750000 0.745440
#
# Coordination Sequence:
#
# PCOD9168108 Si02
#       7
#     4   4   4   4   4   2   4
#     4  10  23  39  68  94 129 174 225 270 337 385
#     4  11  24  40  67 100 136 172 226 275 334 390
#     4  12  25  42  68  98 141 173 221 279 337 405
#     4  11  24  43  65  92 136 177 217 268 339 401
#     4  10  20  40  67  96 126 171 224 283 317 388
#     4  10  22  40  70  90 134 172 230 266 336 394
#     4  11  24  42  67  97 128 177 228 277 335 398
#
# _framework density 19.974726
#
# number of rings (size 3 to 8) (size 9 to 14) (size 15 to 20)
#    0.000    1.231    3.077    2.308    7.538    0.000 
#    0.000    0.000    1.692    0.000    0.000    0.000 
#    0.000    0.000    0.000    0.000    0.000    0.000 
#
# Total GULP energy -144735.178529 kJ/mol
# GULP energy per Si atom -5566.737636 kJ/mol
# Density = 1.992926 g / cm^3
# Si number density = 19.974726 Si / 1000 Ang^3
#
#
#
# Elastic Constant Matrix: (Units=GPa)
#
#
# Indices 1 2 3 4 5 6 
#
# 1 82.0823 31.4230 47.5696 0.0000 -12.8477 0.0000
# 2 31.4230 82.1997 47.6110 0.0000 8.2610 0.0000
# 3 47.5696 47.6110 109.8029 0.0000 1.2048 0.0000
# 4 0.0000 0.0000 0.0000 26.4541 0.0000 3.7101
# 5 -12.8477 8.2610 1.2048 0.0000 25.7824 0.0000
# 6 0.0000 0.0000 0.0000 3.7101 0.0000 14.2259
#
#
#
# Elastic Compliance Matrix: (Units=1/GPa)
#
#
# Indices 1 2 3 4 5 6 
#
# 1 0.019672 -0.004919 -0.006518 0.000000 0.011684 0.000000
# 2 -0.004919 0.018113 -0.005635 0.000000 -0.007992 0.000000
# 3 -0.006518 -0.005635 0.014397 0.000000 -0.002115 0.000000
# 4 0.000000 0.000000 0.000000 0.039236 0.000000 -0.010233
# 5 0.011684 -0.007992 -0.002115 0.000000 0.047268 0.000000
# 6 0.000000 0.000000 0.000000 -0.010233 0.000000 0.072963
#
#
# Mechanical properties :
#
#
# Convention : Reuss Voigt Hill
#
# Bulk Modulus (GPa) = 55.43657 58.58798 57.01228
# Shear Modulus (GPa) = 19.85650 23.12457 21.49054
#
# Velocity S-wave (km/s) = 3.15633 3.40618 3.28363
# Velocity P-wave (km/s) = 6.41068 6.69807 6.55595
#
# Compressibility (1/GPa) = 0.01803863
#
# Stress axis : x y z
#
# Youngs Moduli (GPa) = 50.83353 55.20881 69.45677
#
# Poissons Ratio (x) = 0.27159 0.45270
# Poissons Ratio (y) = 0.25006 0.39139
# Poissons Ratio (z) = 0.33132 0.31110
#
# Static dielectric constant tensor:
#      x y z
#    x 1.742360 0.000000 -0.047790 
#    y 0.000000 1.747780 0.000000 
#    z -0.047790 0.000000 1.677760 
# 
# From -- ./inp_files/22385.got.cif
#   From: 2010.05.17/outbox.ucp.g08.bks.cvg/sg11_12_cif.got.tgz:22385.got - 2010.06.11 11:38:39.
