data_PCOD9168464
_publ_section_title
;
Structure prediction by ZEFSAII (Michael W. Deem and Ramdas Pophale) SiO2 
 PCOD9168464
Probable space group: C 2/M
;
_chemical_formula_sum "Si O2"
_cell_formula_units_Z 52
_cell_length_a 30.894013
_cell_length_b 11.889575
_cell_length_c 12.282312
_cell_angle_alpha 90.000000
_cell_angle_beta 140.275822
_cell_angle_gamma 90.000000
_cell_volume 2883.264327
_symmetry_space_group_name_H-M "C 2/M"
_symmetry_group_IT_number 12
_symmetry_cell_setting 'monoclinic'
loop_
_space_group_symop_operation_xyz
x,y,z
-x,y,-z
-x,-y,-z
x,-y,z
1/2+x,1/2+y,z
1/2-x,1/2+y,-z
1/2-x,1/2-y,-z
1/2+x,1/2-y,z
loop_
_atom_site_type_symbol
_atom_site_label
_atom_site_fract_x
_atom_site_fract_y
_atom_site_fract_z
Si Si1 0.326334 0.736658 0.246734
Si Si2 0.076776 0.246810 0.369050
Si Si3 0.885249 0.000000 0.295693
Si Si4 0.932126 0.000000 0.633495
Si Si5 0.082041 0.372965 0.161967
Si Si6 0.415681 0.500000 0.107552
Si Si7 0.809003 0.632656 0.995585
Si Si8 0.087455 0.753143 0.953263
O O1 0.384612 0.769919 0.443932
O O2 0.345182 0.617947 0.224252
O O3 0.316852 0.830333 0.136559
O O4 0.256024 0.704783 0.169497
O O5 0.098760 0.326335 0.313438
O O6 0.994635 0.250433 0.222893
O O7 0.095987 0.117264 0.378612
O O8 0.924240 0.000000 0.486635
O O9 0.922624 0.000000 0.252379
O O10 0.011523 0.000000 0.809551
O O11 0.106896 0.500000 0.192569
O O12 0.102288 0.291145 0.103066
O O13 0.000000 0.376002 0.000000
O O14 0.385965 0.379761 0.016302
O O15 0.797462 0.500000 0.961702
O O16 0.875075 0.671572 0.058356
#
# Coordination Sequence:
#
# PCOD9168464 Si02
#       8
#     8   8   4   4   8   4   8   8
#     4  10  21  36  55  80 107 145 184 221 270 324
#     4   9  19  35  56  81 108 139 184 228 267 321
#     4  10  15  32  52  74 108 140 175 215 266 324
#     4   8  17  27  50  81 107 134 171 225 272 308
#     4   9  18  34  55  77 109 147 179 219 272 325
#     4  10  17  29  50  79 107 139 174 219 267 315
#     4  11  22  36  54  79 112 147 179 221 273 327
#     4  10  20  34  55  83 108 141 182 225 272 320
#
# _framework density 18.035112999999999
#
# number of rings (size 3 to 8) (size 9 to 14) (size 15 to 20)
#    0.000    2.308    2.308    0.692    0.000    2.462 
#    0.000    4.615    0.000    0.000    0.000    0.000 
#    0.000    0.000    0.000    0.000    0.000    0.000 
#
# Total GULP energy -144775.635657 kJ/mol
# GULP energy per Si atom -5568.293679 kJ/mol
# Density = 1.799406 g / cm^3
# Si number density = 18.035113 Si / 1000 Ang^3
#
#
#
# Elastic Constant Matrix: (Units=GPa)
#
#
# Indices 1 2 3 4 5 6 
#
# 1 46.9507 36.3556 33.3220 0.0000 -4.2052 0.0000
# 2 36.3556 79.1819 17.6981 0.0000 -16.4746 0.0000
# 3 33.3220 17.6981 49.6050 0.0000 -6.7112 0.0000
# 4 0.0000 0.0000 0.0000 21.0743 0.0000 -3.1684
# 5 -4.2052 -16.4746 -6.7112 0.0000 17.8255 0.0000
# 6 0.0000 0.0000 0.0000 -3.1684 0.0000 22.7170
#
#
#
# Elastic Compliance Matrix: (Units=1/GPa)
#
#
# Indices 1 2 3 4 5 6 
#
# 1 0.068640 -0.027747 -0.039500 0.000000 -0.024323 0.000000
# 2 -0.027747 0.027570 0.011974 0.000000 0.023443 0.000000
# 3 -0.039500 0.011974 0.044947 0.000000 0.018671 0.000000
# 4 0.000000 0.000000 0.000000 0.048467 0.000000 0.006760
# 5 -0.024323 0.023443 0.018671 0.000000 0.079058 0.000000
# 6 0.000000 0.000000 0.000000 0.006760 0.000000 0.044963
#
#
# Mechanical properties :
#
#
# Convention : Reuss Voigt Hill
#
# Bulk Modulus (GPa) = 32.66726 38.94323 35.80524
# Shear Modulus (GPa) = 11.51028 18.21415 14.86222
#
# Velocity S-wave (km/s) = 2.52903 3.18138 2.87378
# Velocity P-wave (km/s) = 5.16531 5.92746 5.55946
#
# Compressibility (1/GPa) = 0.03061169
#
# Stress axis : x y z
#
# Youngs Moduli (GPa) = 14.56877 36.27087 22.24853
#
# Poissons Ratio (x) = 1.00642 0.87881
# Poissons Ratio (y) = 0.40425 -0.26641
# Poissons Ratio (z) = 0.57546 -0.43432
#
# Static dielectric constant tensor:
#      x y z
#    x 1.621010 0.000000 0.024110 
#    y 0.000000 1.641480 0.000000 
#    z 0.024110 0.000000 1.618960 
# 
# From -- ./inp_files/188459.got.cif
#   From: 2010.05.17/outbox.cif.g08.bks.cpg/sg12_95_cif.got.tgz:188459.got - 2010.06.03 13:09:07.
