data_PCOD9168472
_publ_section_title
;
Structure prediction by ZEFSAII (Michael W. Deem and Ramdas Pophale) SiO2 
 PCOD9168472
Probable space group: C 2/M
;
_chemical_formula_sum "Si O2"
_cell_formula_units_Z 44
_cell_length_a 14.690719
_cell_length_b 18.043324
_cell_length_c 10.283311
_cell_angle_alpha 90.000000
_cell_angle_beta 64.046494
_cell_angle_gamma 90.000000
_cell_volume 2450.893646
_symmetry_space_group_name_H-M "C 2/M"
_symmetry_group_IT_number 12
_symmetry_cell_setting 'monoclinic'
loop_
_space_group_symop_operation_xyz
x,y,z
-x,y,-z
-x,-y,-z
x,-y,z
1/2+x,1/2+y,z
1/2-x,1/2+y,-z
1/2-x,1/2-y,-z
1/2+x,1/2-y,z
loop_
_atom_site_type_symbol
_atom_site_label
_atom_site_fract_x
_atom_site_fract_y
_atom_site_fract_z
Si Si1 0.716360 0.580394 0.309276
Si Si2 0.159460 0.915154 0.040961
Si Si3 0.286335 0.236287 0.330666
Si Si4 0.500000 0.638200 0.500000
Si Si5 0.007806 0.788984 0.212874
Si Si6 0.690739 0.801729 0.140881
O O1 0.756322 0.500000 0.320777
O O2 0.698401 0.583660 0.165739
O O3 0.785083 0.648398 0.308719
O O4 0.603629 0.591828 0.437547
O O5 0.066843 0.855772 0.101586
O O6 0.132850 0.000000 0.021573
O O7 0.253501 0.880424 0.903034
O O8 0.250000 0.250000 0.500000
O O9 0.395396 0.272158 0.236040
O O10 0.209342 0.269428 0.272729
O O11 0.498788 0.685112 0.632868
O O12 0.075736 0.714397 0.171521
O O13 0.750000 0.750000 0.000000
#
# Coordination Sequence:
#
# PCOD9168472 Si02
#       6
#     8   8   8   4   8   8
#     4  10  19  33  55  82 112 143 185 237 279 320
#     4   9  19  37  58  82 110 144 187 235 282 322
#     4  12  21  35  56  84 115 148 187 226 272 338
#     4  10  15  34  54  82 109 144 182 228 283 320
#     4  10  19  32  56  83 112 147 186 224 275 334
#     4  10  19  37  54  79 111 148 186 221 275 330
#
# _framework density 17.952634
#
# number of rings (size 3 to 8) (size 9 to 14) (size 15 to 20)
#    0.000    1.818    7.273    0.273    0.000    3.636 
#    0.000    3.636    0.000    2.182    0.000    3.818 
#    0.000    0.000    0.000    0.000    0.000    0.000 
#
# Total GULP energy -122592.248358 kJ/mol
# GULP energy per Si atom -5572.374925 kJ/mol
# Density = 1.791177 g / cm^3
# Si number density = 17.952634 Si / 1000 Ang^3
#
#
#
# Elastic Constant Matrix: (Units=GPa)
#
#
# Indices 1 2 3 4 5 6 
#
# 1 57.9897 27.5345 -2.3715 0.0000 -9.0288 0.0000
# 2 27.5345 129.7652 16.3376 0.0000 -14.5991 0.0000
# 3 -2.3715 16.3376 50.9906 0.0000 5.5715 0.0000
# 4 0.0000 0.0000 0.0000 9.7084 0.0000 0.6735
# 5 -9.0288 -14.5991 5.5715 0.0000 20.2428 0.0000
# 6 0.0000 0.0000 0.0000 0.6735 0.0000 26.1102
#
#
#
# Elastic Compliance Matrix: (Units=1/GPa)
#
#
# Indices 1 2 3 4 5 6 
#
# 1 0.020003 -0.003785 0.001512 0.000000 0.005776 0.000000
# 2 -0.003785 0.009737 -0.003999 0.000000 0.006435 0.000000
# 3 0.001512 -0.003999 0.021862 0.000000 -0.008227 0.000000
# 4 0.000000 0.000000 0.000000 0.103188 0.000000 -0.002662
# 5 0.005776 0.006435 -0.008227 0.000000 0.058881 0.000000
# 6 0.000000 0.000000 0.000000 -0.002662 0.000000 0.038368
#
#
# Mechanical properties :
#
#
# Convention : Reuss Voigt Hill
#
# Bulk Modulus (GPa) = 25.60312 35.74965 30.67638
# Shear Modulus (GPa) = 18.01143 24.36195 21.18669
#
# Velocity S-wave (km/s) = 3.17089 3.68776 3.43905
# Velocity P-wave (km/s) = 5.26294 6.17166 5.73532
#
# Compressibility (1/GPa) = 0.03905774
#
# Stress axis : x y z
#
# Youngs Moduli (GPa) = 49.99333 102.70436 45.74166
#
# Poissons Ratio (x) = 0.38872 -0.06916
# Poissons Ratio (y) = 0.18922 0.18291
# Poissons Ratio (z) = -0.07558 0.41069
#
# Static dielectric constant tensor:
#      x y z
#    x 1.615140 0.000000 -0.015490 
#    y 0.000000 1.647360 0.000000 
#    z -0.015490 0.000000 1.638130 
# 
# From -- ./inp_files/144732.got.cif
#   From: 2010.05.17/outbox.cif.g08.bks.cpg/sg12_73_cif.got.tgz:144732.got - 2010.06.03 13:09:07.
