data_PCOD9168855
_publ_section_title
;
Structure prediction by ZEFSAII (Michael W. Deem and Ramdas Pophale) SiO2 
 PCOD9168855
Probable space group: C 2/M
;
_chemical_formula_sum "Si O2"
_cell_formula_units_Z 48
_cell_length_a 5.269118
_cell_length_b 25.427029
_cell_length_c 19.116107
_cell_angle_alpha 90.000000
_cell_angle_beta 75.858959
_cell_angle_gamma 90.000000
_cell_volume 2483.528604
_symmetry_space_group_name_H-M "C 2/M"
_symmetry_group_IT_number 12
_symmetry_cell_setting 'monoclinic'
loop_
_space_group_symop_operation_xyz
x,y,z
-x,y,-z
-x,-y,-z
x,-y,z
1/2+x,1/2+y,z
1/2-x,1/2+y,-z
1/2-x,1/2-y,-z
1/2+x,1/2-y,z
loop_
_atom_site_type_symbol
_atom_site_label
_atom_site_fract_x
_atom_site_fract_y
_atom_site_fract_z
Si Si1 0.927743 0.714592 0.798787
Si Si2 0.522393 0.111414 0.298160
Si Si3 0.593088 0.000000 0.698632
Si Si4 0.060726 0.109992 0.607853
Si Si5 0.830598 0.772755 0.419831
Si Si6 0.179996 0.000000 0.601889
Si Si7 0.221480 0.690398 0.032186
O O1 0.686135 0.749640 0.787747
O O2 0.971645 0.662788 0.749575
O O3 0.854096 0.695927 0.882279
O O4 0.494434 0.054941 0.261670
O O5 0.252700 0.112270 0.361848
O O6 0.782099 0.109450 0.328685
O O7 0.906728 0.000000 0.665319
O O8 0.436303 0.000000 0.634141
O O9 0.146746 0.165396 0.571233
O O10 0.157479 0.056095 0.564932
O O11 0.750000 0.750000 0.500000
O O12 0.604632 0.754277 0.382878
O O13 0.500000 0.664444 0.000000
O O14 0.250000 0.750000 0.000000
O O15 0.000000 0.664461 0.000000
#
# Coordination Sequence:
#
# PCOD9168855 Si02
#       7
#     8   8   4   8   8   4   8
#     4  12  21  30  45  73 105 124 164 203 246 297
#     4  10  21  32  50  75 101 133 157 207 247 291
#     4   8  16  34  48  66  97 129 170 188 242 298
#     4  10  19  35  52  73 100 128 167 198 251 288
#     4  10  21  35  53  72  98 136 170 194 230 299
#     4   8  16  30  54  72  89 125 164 210 232 284
#     4  10  16  30  46  60  88 131 168 195 233 285
#
# _framework density 19.327338999999998
#
# number of rings (size 3 to 8) (size 9 to 14) (size 15 to 20)
#    0.000    2.000    3.333    2.000    0.000    4.000 
#    0.000    0.000    0.000    4.000    0.000    1.167 
#    0.000    0.000    0.000    0.000    0.000    0.000 
#
# Total GULP energy -133839.670401 kJ/mol
# GULP energy per Si atom -5576.652933 kJ/mol
# Density = 1.928335 g / cm^3
# Si number density = 19.327339 Si / 1000 Ang^3
#
#
#
# Elastic Constant Matrix: (Units=GPa)
#
#
# Indices 1 2 3 4 5 6 
#
# 1 163.5913 21.5651 9.0899 0.0000 -3.0754 0.0000
# 2 21.5651 164.5741 26.1003 0.0000 -3.3242 0.0000
# 3 9.0899 26.1003 38.2977 0.0000 -1.8354 0.0000
# 4 0.0000 0.0000 0.0000 48.5258 0.0000 -13.5831
# 5 -3.0754 -3.3242 -1.8354 0.0000 5.8459 0.0000
# 6 0.0000 0.0000 0.0000 -13.5831 0.0000 26.2049
#
#
#
# Elastic Compliance Matrix: (Units=1/GPa)
#
#
# Indices 1 2 3 4 5 6 
#
# 1 0.006297 -0.000622 -0.000943 0.000000 0.002663 0.000000
# 2 -0.000622 0.006909 -0.004455 0.000000 0.002203 0.000000
# 3 -0.000943 -0.004455 0.029673 0.000000 0.006287 0.000000
# 4 0.000000 0.000000 0.000000 0.024105 0.000000 0.012495
# 5 0.002663 0.002203 0.006287 0.000000 0.175687 0.000000
# 6 0.000000 0.000000 0.000000 0.012495 0.000000 0.044637
#
#
# Mechanical properties :
#
#
# Convention : Reuss Voigt Hill
#
# Bulk Modulus (GPa) = 32.42737 53.33040 42.87889
# Shear Modulus (GPa) = 16.14839 36.76251 26.45545
#
# Velocity S-wave (km/s) = 2.89367 4.36604 3.70376
# Velocity P-wave (km/s) = 5.28951 7.28488 6.36586
#
# Compressibility (1/GPa) = 0.03083814
#
# Stress axis : x y z
#
# Youngs Moduli (GPa) = 158.79989 144.74218 33.70094
#
# Poissons Ratio (x) = 0.09000 0.03179
# Poissons Ratio (y) = 0.09874 0.15015
# Poissons Ratio (z) = 0.14979 0.64487
#
# Static dielectric constant tensor:
#      x y z
#    x 1.691240 0.000000 -0.140030 
#    y 0.000000 1.716050 0.000000 
#    z -0.140030 0.000000 1.153850 
# 
# From -- ./inp_files/253239.got.cif
#   From: 2010.05.17/outbox.cif.g08.bks.cpg/sg12_127_cif.got.tgz:253239.got - 2010.06.03 13:09:07.
