data_PCOD9168640
_publ_section_title
;
Structure prediction by ZEFSAII (Michael W. Deem and Ramdas Pophale) SiO2 
 PCOD9168640
Probable space group: C 2/M
;
_chemical_formula_sum "Si O2"
_cell_formula_units_Z 64
_cell_length_a 5.685162
_cell_length_b 23.575421
_cell_length_c 24.548652
_cell_angle_alpha 90.000000
_cell_angle_beta 89.403985
_cell_angle_gamma 90.000000
_cell_volume 3290.079960
_symmetry_space_group_name_H-M "C 2/M"
_symmetry_group_IT_number 12
_symmetry_cell_setting 'monoclinic'
loop_
_space_group_symop_operation_xyz
x,y,z
-x,y,-z
-x,-y,-z
x,-y,z
1/2+x,1/2+y,z
1/2-x,1/2+y,-z
1/2-x,1/2-y,-z
1/2+x,1/2-y,z
loop_
_atom_site_type_symbol
_atom_site_label
_atom_site_fract_x
_atom_site_fract_y
_atom_site_fract_z
Si Si1 0.750959 0.184337 0.978943
Si Si2 0.244057 0.683135 0.848813
Si Si3 0.166783 0.763633 0.416264
Si Si4 0.822921 0.323557 0.681591
Si Si5 0.304555 0.935779 0.540955
Si Si6 0.551451 0.938956 0.658502
Si Si7 0.938214 0.880812 0.607984
Si Si8 0.754256 0.812150 0.193060
O O1 0.752861 0.180572 0.913871
O O2 0.500000 0.160038 0.000000
O O3 0.750000 0.250000 0.000000
O O4 0.000000 0.160057 0.000000
O O5 0.239220 0.749746 0.833334
O O6 0.492278 0.660563 0.823273
O O7 0.991704 0.660222 0.827326
O O8 0.902108 0.762705 0.441857
O O9 0.120277 0.728696 0.359405
O O10 0.230832 0.829521 0.408238
O O11 0.995428 0.378502 0.686517
O O12 0.602619 0.351700 0.652066
O O13 0.765741 0.303783 0.742137
O O14 0.500000 0.911265 0.500000
O O15 0.413105 0.938799 0.601482
O O16 0.074133 0.900877 0.554619
O O17 0.256617 0.000000 0.522191
O O18 0.817530 0.933341 0.637358
O O19 0.506938 0.000000 0.685944
#
# Coordination Sequence:
#
# PCOD9168640 Si02
#       8
#     8   8   8   8   8   8   8   8
#     4  10  16  26  43  56  88 132 184 224 257 309
#     4  10  20  29  41  71  96 136 184 227 260 307
#     4  10  20  32  53  76 106 134 180 208 251 311
#     4  10  22  33  51  75 103 142 177 219 273 311
#     4   9  19  36  56  81 107 132 168 223 281 325
#     4  10  20  36  57  80 104 131 177 223 261 328
#     4  10  20  32  53  78 106 133 177 211 269 320
#     4  10  20  28  44  62 103 127 173 226 261 299
#
# _framework density 19.452413
#
# number of rings (size 3 to 8) (size 9 to 14) (size 15 to 20)
#    0.000    2.125    1.250    4.125    8.750    1.000 
#    0.000    1.875    0.000    6.750    0.000    0.000 
#    0.000    0.000    0.000    0.000    0.000   46.250 
#
# Total GULP energy -178162.160096 kJ/mol
# GULP energy per Si atom -5567.567503 kJ/mol
# Density = 1.940814 g / cm^3
# Si number density = 19.452413 Si / 1000 Ang^3
#
#
#
# Elastic Constant Matrix: (Units=GPa)
#
#
# Indices 1 2 3 4 5 6 
#
# 1 126.2105 8.6353 35.4606 0.0000 -12.8766 0.0000
# 2 8.6353 67.1145 9.0811 0.0000 -11.9841 0.0000
# 3 35.4606 9.0811 96.7573 0.0000 -1.0413 0.0000
# 4 0.0000 0.0000 0.0000 -12.6432 0.0000 11.0730
# 5 -12.8766 -11.9841 -1.0413 0.0000 26.9871 0.0000
# 6 0.0000 0.0000 0.0000 11.0730 0.0000 -3.7784
#
#
#
# Elastic Compliance Matrix: (Units=1/GPa)
#
#
# Indices 1 2 3 4 5 6 
#
# 1 0.009309 0.000030 -0.003368 0.000000 0.004325 0.000000
# 2 0.000030 0.016387 -0.001471 0.000000 0.007235 0.000000
# 3 -0.003368 -0.001471 0.011688 0.000000 -0.001809 0.000000
# 4 0.000000 0.000000 0.000000 0.050487 0.000000 0.147956
# 5 0.004325 0.007235 -0.001809 0.000000 0.042261 0.000000
# 6 0.000000 0.000000 0.000000 0.147956 0.000000 0.168937
#
#
# Mechanical properties :
#
#
# Convention : Reuss Voigt Hill
#
# Bulk Modulus (GPa) = 36.01516 44.04847 40.03181
# Shear Modulus (GPa) = 15.72616 17.90677 16.81646
#
# Velocity S-wave (km/s) = 2.84640 3.03734 2.94341
# Velocity P-wave (km/s) = 5.41824 5.91557 5.67236
#
# Compressibility (1/GPa) = 0.02776608
#
# Stress axis : x y z
#
# Youngs Moduli (GPa) = 107.42634 61.02427 85.55767
#
# Poissons Ratio (x) = -0.00185 0.28814
# Poissons Ratio (y) = -0.00325 0.12588
# Poissons Ratio (z) = 0.36179 0.08978
#
# Static dielectric constant tensor:
#      x y z
#    x 1.876370 0.000000 -0.021190 
#    y 0.000000 1.697130 0.000000 
#    z -0.021190 0.000000 1.672740 
# 
# From -- ./inp_files/331535.got.cif
#   From: 2010.05.17/outbox.cif.g08.bks.cpg/sg12_166_cif.got.tgz:331535.got - 2010.06.03 13:09:07.
