data_PCOD9168570
_publ_section_title
;
Structure prediction by ZEFSAII (Michael W. Deem and Ramdas Pophale) SiO2 
 PCOD9168570
Probable space group: C 2/M
;
_chemical_formula_sum "Si O2"
_cell_formula_units_Z 52
_cell_length_a 5.581413
_cell_length_b 18.583285
_cell_length_c 23.816218
_cell_angle_alpha 90.000000
_cell_angle_beta 90.677589
_cell_angle_gamma 90.000000
_cell_volume 2470.068933
_symmetry_space_group_name_H-M "C 2/M"
_symmetry_group_IT_number 12
_symmetry_cell_setting 'monoclinic'
loop_
_space_group_symop_operation_xyz
x,y,z
-x,y,-z
-x,-y,-z
x,-y,z
1/2+x,1/2+y,z
1/2-x,1/2+y,-z
1/2-x,1/2-y,-z
1/2+x,1/2-y,z
loop_
_atom_site_type_symbol
_atom_site_label
_atom_site_fract_x
_atom_site_fract_y
_atom_site_fract_z
Si Si1 0.251122 0.167387 0.522404
Si Si2 0.801402 0.602183 0.861456
Si Si3 0.240311 0.833006 0.656600
Si Si4 0.696817 0.620776 0.174804
Si Si5 0.257388 0.831848 0.299115
Si Si6 0.160086 0.754610 0.085479
Si Si7 0.750199 0.000000 0.034961
O O1 0.500000 0.134960 0.500000
O O2 0.250000 0.250000 0.500000
O O3 0.253029 0.168520 0.589540
O O4 0.000000 0.134904 0.500000
O O5 0.565125 0.584454 0.824821
O O6 0.827983 0.688332 0.870085
O O7 0.760965 0.567600 0.922581
O O8 0.056333 0.579119 0.836458
O O9 0.488056 0.865052 0.681351
O O10 0.234863 0.750600 0.679358
O O11 0.985755 0.865032 0.675582
O O12 0.733691 0.664065 0.232233
O O13 0.667646 0.672443 0.120893
O O14 0.408595 0.750608 0.054495
O O15 0.500000 0.000000 0.000000
O O16 0.000000 0.000000 0.000000
#
# Coordination Sequence:
#
# PCOD9168570 Si02
#       7
#     8   8   8   8   8   8   4
#     4  10  16  25  35  43  70 121 181 232 249 263
#     4  10  21  36  56  82 100 129 170 192 241 303
#     4  10  19  24  35  60  90 124 170 218 252 292
#     4  10  19  31  54  79 109 135 154 197 254 308
#     4  10  18  25  39  62  98 123 151 199 264 289
#     4   8  16  27  49  74 106 125 156 182 234 287
#     4  12  26  46  68  80 102 132 168 220 244 264
#
# _framework density 21.052043000000001
#
# number of rings (size 3 to 8) (size 9 to 14) (size 15 to 20)
#    0.000    2.154    0.000    6.462   12.923    0.000 
#    0.000    0.000    0.000   24.923    0.000    0.000 
#    0.000    0.000    0.000    0.000    0.000    0.000 
#
# Total GULP energy -144840.035616 kJ/mol
# GULP energy per Si atom -5570.770601 kJ/mol
# Density = 2.100413 g / cm^3
# Si number density = 21.052043 Si / 1000 Ang^3
#
#
#
# Elastic Constant Matrix: (Units=GPa)
#
#
# Indices 1 2 3 4 5 6 
#
# 1 271.4833 4.5144 47.2928 0.0000 5.4639 0.0000
# 2 4.5144 33.0217 -1.5338 0.0000 -1.0905 0.0000
# 3 47.2928 -1.5338 104.6612 0.0000 2.2639 0.0000
# 4 0.0000 0.0000 0.0000 10.1031 0.0000 0.5907
# 5 5.4639 -1.0905 2.2639 0.0000 42.9041 0.0000
# 6 0.0000 0.0000 0.0000 0.5907 0.0000 -3.1705
#
#
#
# Elastic Compliance Matrix: (Units=1/GPa)
#
#
# Indices 1 2 3 4 5 6 
#
# 1 0.004019 -0.000648 -0.001816 0.000000 -0.000433 0.000000
# 2 -0.000648 0.030432 0.000721 0.000000 0.000818 0.000000
# 3 -0.001816 0.000721 0.010392 0.000000 -0.000299 0.000000
# 4 0.000000 0.000000 0.000000 0.097913 0.000000 0.018241
# 5 -0.000433 0.000818 -0.000299 0.000000 0.023399 0.000000
# 6 0.000000 0.000000 0.000000 0.018241 0.000000 -0.312010
#
#
# Mechanical properties :
#
#
# Convention : Reuss Voigt Hill
#
# Bulk Modulus (GPa) = 24.17951 56.63478 40.40714
# Shear Modulus (GPa) = -38.88609 33.89352 -2.49629
#
# Velocity S-wave (km/s) = -4.30250 4.01682 -1.09011
# Velocity P-wave (km/s) = 3.62925 6.96231 4.20133
#
# Compressibility (1/GPa) = 0.04135733
#
# Stress axis : x y z
#
# Youngs Moduli (GPa) = 248.79579 32.85990 96.22406
#
# Poissons Ratio (x) = 0.02130 0.17478
# Poissons Ratio (y) = 0.16125 -0.06939
# Poissons Ratio (z) = 0.45190 -0.02370
#
# Static dielectric constant tensor:
#      x y z
#    x 1.918690 0.000000 -0.008850 
#    y 0.000000 1.731980 0.000000 
#    z -0.008850 0.000000 1.692740 
# 
# From -- ./inp_files/297835.got.cif
#   From: 2010.05.17/outbox.cif.g08.bks.cpg/sg12_149_cif.got.tgz:297835.got - 2010.06.03 13:09:07.
