data_PCOD9168961
_publ_section_title
;
Structure prediction by ZEFSAII (Michael W. Deem and Ramdas Pophale) SiO2 
 PCOD9168961
Probable space group: C 2/M
;
_chemical_formula_sum "Si O2"
_cell_formula_units_Z 56
_cell_length_a 18.069255
_cell_length_b 19.658321
_cell_length_c 26.317268
_cell_angle_alpha 90.000000
_cell_angle_beta 158.096017
_cell_angle_gamma 90.000000
_cell_volume 3487.363139
_symmetry_space_group_name_H-M "C 2/M"
_symmetry_group_IT_number 12
_symmetry_cell_setting 'monoclinic'
loop_
_space_group_symop_operation_xyz
x,y,z
-x,y,-z
-x,-y,-z
x,-y,z
1/2+x,1/2+y,z
1/2-x,1/2+y,-z
1/2-x,1/2-y,-z
1/2+x,1/2-y,z
loop_
_atom_site_type_symbol
_atom_site_label
_atom_site_fract_x
_atom_site_fract_y
_atom_site_fract_z
Si Si1 0.528441 0.776183 0.863721
Si Si2 0.772612 0.881543 0.446627
Si Si3 0.161127 0.277302 0.145378
Si Si4 0.830470 0.736286 0.433302
Si Si5 0.908821 0.426650 0.771799
Si Si6 0.924177 0.697166 0.596091
Si Si7 0.308966 0.425125 0.260782
O O1 0.431823 0.765783 0.857829
O O2 0.382336 0.740843 0.729550
O O3 0.530574 0.857253 0.854521
O O4 0.750000 0.750000 0.000000
O O5 0.855564 0.811027 0.474855
O O6 0.694108 0.922611 0.348515
O O7 0.604355 0.861343 0.380261
O O8 0.954982 0.916911 0.590597
O O9 0.361944 0.233398 0.266463
O O10 0.215016 0.357830 0.176273
O O11 0.000000 0.260361 0.000000
O O12 0.866731 0.682160 0.501133
O O13 0.000000 0.728144 0.500000
O O14 0.012217 0.500000 0.842816
O O15 0.752305 0.422885 0.718529
O O16 0.750000 0.750000 0.500000
O O17 0.248074 0.500000 0.202589
#
# Coordination Sequence:
#
# PCOD9168961 Si02
#       7
#     8   8   8   8   8   8   8
#     4  10  21  32  51  77 103 137 178 219 256 310
#     4  10  17  26  49  75 100 128 168 211 258 305
#     4  11  22  33  47  72 109 141 170 215 264 311
#     4  10  16  31  49  67 101 129 170 211 259 302
#     4   9  18  31  49  74 107 138 170 214 263 313
#     4  10  19  31  49  72 101 140 167 210 264 303
#     4  10  18  31  48  72 102 142 175 202 254 322
#
# _framework density 16.057977999999999
#
# number of rings (size 3 to 8) (size 9 to 14) (size 15 to 20)
#    0.000    2.000    4.286    2.571    6.000    1.429 
#    0.000    0.000    0.000    0.000    0.000    3.000 
#    0.000    2.857    0.000    0.000    0.000    0.000 
#
# Total GULP energy -155888.858062 kJ/mol
# GULP energy per Si atom -5567.459216 kJ/mol
# Density = 1.602143 g / cm^3
# Si number density = 16.057978 Si / 1000 Ang^3
#
#
#
# Elastic Constant Matrix: (Units=GPa)
#
#
# Indices 1 2 3 4 5 6 
#
# 1 56.1595 9.4777 23.7175 -0.0005 3.1939 -0.0071
# 2 9.4777 39.4714 25.7741 0.0030 8.6321 -0.0049
# 3 23.7175 25.7741 106.9572 0.0060 6.9184 -0.0133
# 4 -0.0005 0.0030 0.0060 6.7776 0.0008 -1.1937
# 5 3.1939 8.6321 6.9184 0.0008 27.5096 0.0009
# 6 -0.0071 -0.0049 -0.0133 -1.1937 0.0009 13.2717
#
#
#
# Elastic Compliance Matrix: (Units=1/GPa)
#
#
# Indices 1 2 3 4 5 6 
#
# 1 0.019824 -0.002101 -0.003846 0.000007 -0.000675 0.000007
# 2 -0.002101 0.032001 -0.006721 -0.000007 -0.008107 0.000004
# 3 -0.003846 -0.006721 0.011849 -0.000007 -0.000424 0.000007
# 4 0.000007 -0.000007 -0.000007 0.149920 -0.000002 0.013484
# 5 -0.000675 -0.008107 -0.000424 -0.000002 0.039080 -0.000007
# 6 0.000007 0.000004 0.000007 0.013484 -0.000007 0.076561
#
#
# Mechanical properties :
#
#
# Convention : Reuss Voigt Hill
#
# Bulk Modulus (GPa) = 26.08381 35.61407 30.84894
# Shear Modulus (GPa) = 13.61098 19.08638 16.34868
#
# Velocity S-wave (km/s) = 2.91454 3.45134 3.19423
# Velocity P-wave (km/s) = 5.25403 6.17324 5.73209
#
# Compressibility (1/GPa) = 0.03833796
#
# Stress axis : x y z
#
# Youngs Moduli (GPa) = 50.44494 31.24899 84.39217
#
# Poissons Ratio (x) = 0.06565 0.32456
# Poissons Ratio (y) = 0.10599 0.56721
# Poissons Ratio (z) = 0.19400 0.21003
#
# Static dielectric constant tensor:
#      x y z
#    x 1.578290 0.000000 -0.025330 
#    y 0.000000 1.573710 -0.000010 
#    z -0.025330 -0.000010 1.535790 
# 
# From -- ./inp_files/158237.got.cif
#   From: 2010.05.17/outbox.cif.g08.bks.cpg/sg12_80_cif.got.tgz:158237.got - 2010.06.03 13:09:07.
