data_PCOD9168422
_publ_section_title
;
Structure prediction by ZEFSAII (Michael W. Deem and Ramdas Pophale) SiO2 
 PCOD9168422
Probable space group: C 2/M
;
_chemical_formula_sum "Si O2"
_cell_formula_units_Z 48
_cell_length_a 27.950872
_cell_length_b 23.594232
_cell_length_c 19.796468
_cell_angle_alpha 90.000000
_cell_angle_beta 168.260866
_cell_angle_gamma 90.000000
_cell_volume 2656.192701
_symmetry_space_group_name_H-M "C 2/M"
_symmetry_group_IT_number 12
_symmetry_cell_setting 'monoclinic'
loop_
_space_group_symop_operation_xyz
x,y,z
-x,y,-z
-x,-y,-z
x,-y,z
1/2+x,1/2+y,z
1/2-x,1/2+y,-z
1/2-x,1/2-y,-z
1/2+x,1/2-y,z
loop_
_atom_site_type_symbol
_atom_site_label
_atom_site_fract_x
_atom_site_fract_y
_atom_site_fract_z
Si Si1 0.520799 0.735778 0.384102
Si Si2 0.485850 0.354870 0.124345
Si Si3 0.744115 0.564624 0.293627
Si Si4 0.359487 0.226195 0.961931
Si Si5 0.808122 0.341832 0.682761
Si Si6 0.610768 0.837533 0.425572
O O1 0.609039 0.719244 0.579856
O O2 0.619974 0.689498 0.469913
O O3 0.649735 0.793662 0.540096
O O4 0.250000 0.750000 0.000000
O O5 0.656138 0.377847 0.419463
O O6 0.658882 0.340574 0.301633
O O7 0.308009 0.400570 0.847324
O O8 0.391445 0.293482 0.018122
O O9 0.815631 0.500000 0.380777
O O10 0.922659 0.601598 0.586173
O O11 0.500000 0.563041 0.000000
O O12 0.547687 0.203316 0.165193
O O13 0.417581 0.189187 0.108211
O O14 0.000000 0.367424 0.000000
#
# Coordination Sequence:
#
# PCOD9168422 Si02
#       6
#     8   8   8   8   8   8
#     4  11  20  27  40  69 102 123 149 196 244 286
#     4  10  15  27  50  65  90 127 161 191 230 289
#     4   9  18  28  46  74  99 124 159 206 242 270
#     4  10  17  28  46  67  88 132 157 183 239 296
#     4   9  17  28  44  65  91 124 162 184 232 300
#     4  10  17  29  45  66  99 124 151 194 236 291
#
# _framework density 18.070979000000001
#
# number of rings (size 3 to 8) (size 9 to 14) (size 15 to 20)
#    0.000    2.167    5.000    1.000    0.000    0.667 
#    0.000    0.000    0.000    0.500    0.000    8.167 
#    0.000    0.000    0.000    0.000    0.000    0.000 
#
# Total GULP energy -133609.445033 kJ/mol
# GULP energy per Si atom -5567.060210 kJ/mol
# Density = 1.802985 g / cm^3
# Si number density = 18.070979 Si / 1000 Ang^3
#
#
#
# Elastic Constant Matrix: (Units=GPa)
#
#
# Indices 1 2 3 4 5 6 
#
# 1 76.4060 36.8676 44.4236 0.0001 -34.1443 0.0000
# 2 36.8676 96.2005 34.8865 0.0002 -33.8173 0.0001
# 3 44.4236 34.8865 100.7314 -0.0010 -32.5236 -0.0001
# 4 0.0001 0.0002 -0.0010 11.5959 -0.0001 -10.1269
# 5 -34.1443 -33.8173 -32.5236 -0.0001 38.3027 -0.0001
# 6 0.0000 0.0001 -0.0001 -10.1269 -0.0001 11.7936
#
#
#
# Elastic Compliance Matrix: (Units=1/GPa)
#
#
# Indices 1 2 3 4 5 6 
#
# 1 0.023660 -0.001948 -0.004829 -0.000001 0.015271 -0.000001
# 2 -0.001948 0.015353 -0.000885 -0.000001 0.011067 -0.000001
# 3 -0.004829 -0.000885 0.014771 0.000006 0.007456 0.000005
# 4 -0.000001 -0.000001 0.000006 0.344804 0.000004 0.296073
# 5 0.015271 0.011067 0.007456 0.000004 0.055823 0.000004
# 6 -0.000001 -0.000001 0.000005 0.296073 0.000004 0.339021
#
#
# Mechanical properties :
#
#
# Convention : Reuss Voigt Hill
#
# Bulk Modulus (GPa) = 26.00095 56.18813 41.09454
# Shear Modulus (GPa) = 6.08587 22.81578 14.45083
#
# Velocity S-wave (km/s) = 1.83714 3.55711 2.83091
# Velocity P-wave (km/s) = 4.34966 6.93046 5.78579
#
# Compressibility (1/GPa) = 0.03846014
#
# Stress axis : x y z
#
# Youngs Moduli (GPa) = 42.26571 65.13484 67.70052
#
# Poissons Ratio (x) = 0.12688 0.32692
# Poissons Ratio (y) = 0.08233 0.05990
# Poissons Ratio (z) = 0.20410 0.05763
#
# Static dielectric constant tensor:
#      x y z
#    x 1.682610 0.000000 -0.032360 
#    y 0.000000 1.614200 0.000000 
#    z -0.032360 0.000000 1.688780 
# 
# From -- ./inp_files/146948.got.cif
#   From: 2010.05.17/outbox.cif.g08.bks.cpg/sg12_74_cif.got.tgz:146948.got - 2010.06.03 13:09:07.
