data_PCOD9168534
_publ_section_title
;
Structure prediction by ZEFSAII (Michael W. Deem and Ramdas Pophale) SiO2 
 PCOD9168534
Probable space group: C 2/M
;
_chemical_formula_sum "Si O2"
_cell_formula_units_Z 64
_cell_length_a 22.869255
_cell_length_b 8.637091
_cell_length_c 23.702322
_cell_angle_alpha 90.000000
_cell_angle_beta 124.846261
_cell_angle_gamma 90.000000
_cell_volume 3842.276065
_symmetry_space_group_name_H-M "C 2/M"
_symmetry_group_IT_number 12
_symmetry_cell_setting 'monoclinic'
loop_
_space_group_symop_operation_xyz
x,y,z
-x,y,-z
-x,-y,-z
x,-y,z
1/2+x,1/2+y,z
1/2-x,1/2+y,-z
1/2-x,1/2-y,-z
1/2+x,1/2-y,z
loop_
_atom_site_type_symbol
_atom_site_label
_atom_site_fract_x
_atom_site_fract_y
_atom_site_fract_z
Si Si1 0.089270 0.684817 0.374953
Si Si2 0.075157 0.814239 0.071194
Si Si3 0.844952 0.315818 0.106111
Si Si4 0.403582 0.183830 0.793574
Si Si5 0.015891 0.183766 0.765201
Si Si6 0.180049 0.814061 0.028709
Si Si7 0.796833 0.815046 0.653460
Si Si8 0.807357 0.185037 0.485998
O O1 0.094303 0.500000 0.377940
O O2 0.144580 0.753628 0.359274
O O3 0.117339 0.751658 0.449748
O O4 0.013947 0.739844 0.308702
O O5 0.083262 0.729191 0.134829
O O6 0.136931 0.772877 0.060888
O O7 0.077754 0.000000 0.082692
O O8 0.000000 0.779712 0.000000
O O9 0.854479 0.500000 0.116390
O O10 0.904077 0.230912 0.175603
O O11 0.763788 0.275621 0.078270
O O12 0.851553 0.266242 0.044317
O O13 0.466316 0.254169 0.789126
O O14 0.329008 0.254113 0.729709
O O15 0.402966 0.000000 0.785160
O O16 0.007563 0.000000 0.757063
O O17 0.174101 0.000000 0.017415
O O18 0.722290 0.747001 0.589863
O O19 0.794963 0.000000 0.651126
O O20 0.750000 0.250000 0.500000
O O21 0.806048 0.000000 0.486667
#
# Coordination Sequence:
#
# PCOD9168534 Si02
#       8
#     8   8   8   8   8   8   8   8
#     4  10  17  26  39  59  86 116 151 189 228 272
#     4  10  20  34  51  70  94 124 155 187 227 276
#     4  10  19  32  50  71  94 120 153 192 231 273
#     4  11  21  32  46  67  93 121 155 195 235 276
#     4  11  20  31  46  65  91 124 158 192 234 279
#     4   9  19  34  51  71  95 123 153 187 230 277
#     4  10  17  27  41  58  83 118 155 188 225 270
#     4  10  16  24  37  56  83 116 152 187 224 267
#
# _framework density 16.656794000000001
#
# number of rings (size 3 to 8) (size 9 to 14) (size 15 to 20)
#    0.000    1.875    0.000    9.750    0.000    2.250 
#    0.000    0.000    0.000    0.000    0.000    0.000 
#    0.000    1.000    0.000   10.750    0.000    6.000 
#
# Total GULP energy -178504.962465 kJ/mol
# GULP energy per Si atom -5578.280077 kJ/mol
# Density = 1.661888 g / cm^3
# Si number density = 16.656794 Si / 1000 Ang^3
#
#
#
# Elastic Constant Matrix: (Units=GPa)
#
#
# Indices 1 2 3 4 5 6 
#
# 1 29.6593 15.4244 20.7298 0.0000 3.5095 0.0000
# 2 15.4244 130.2229 59.4276 0.0003 7.6703 0.0000
# 3 20.7298 59.4276 134.3802 0.0000 17.4368 0.0000
# 4 0.0000 0.0003 0.0000 528.7857 0.0000 36.3483
# 5 3.5095 7.6703 17.4368 0.0000 14.7785 0.0000
# 6 0.0000 0.0000 0.0000 36.3483 0.0000 15.9133
#
#
#
# Elastic Compliance Matrix: (Units=1/GPa)
#
#
# Indices 1 2 3 4 5 6 
#
# 1 0.038416 -0.002314 -0.004576 0.000000 -0.002523 0.000000
# 2 -0.002314 0.009760 -0.003983 0.000000 0.000183 0.000000
# 3 -0.004576 -0.003983 0.011217 0.000000 -0.010081 0.000000
# 4 0.000000 0.000000 0.000000 0.002243 0.000000 -0.005124
# 5 -0.002523 0.000183 -0.010081 0.000000 0.080064 0.000000
# 6 0.000000 0.000000 0.000000 -0.005124 0.000000 0.074545
#
#
# Mechanical properties :
#
#
# Convention : Reuss Voigt Hill
#
# Bulk Modulus (GPa) = 26.56149 53.93623 40.24886
# Shear Modulus (GPa) = 19.95698 125.14089 72.54893
#
# Velocity S-wave (km/s) = 3.46515 8.67710 6.60679
# Velocity P-wave (km/s) = 5.65603 11.52566 9.07831
#
# Compressibility (1/GPa) = 0.03764850
#
# Stress axis : x y z
#
# Youngs Moduli (GPa) = 26.03086 102.45806 89.15091
#
# Poissons Ratio (x) = 0.23704 0.40792
# Poissons Ratio (y) = 0.06022 0.35510
# Poissons Ratio (z) = 0.11911 0.40811
#
# Static dielectric constant tensor:
#      x y z
#    x 1.545630 0.000000 0.021520 
#    y 0.000000 1.557630 0.000000 
#    z 0.021520 0.000000 1.617350 
# 
# From -- ./inp_files/348580.got.cif
#   From: 2010.05.17/outbox.cif.g08.bks.cpg/sg12_175_cif.got.tgz:348580.got - 2010.06.03 13:09:07.
