data_PCOD9168811
_publ_section_title
;
Structure prediction by ZEFSAII (Michael W. Deem and Ramdas Pophale) SiO2 
 PCOD9168811
Probable space group: C 2/M
;
_chemical_formula_sum "Si O2"
_cell_formula_units_Z 56
_cell_length_a 5.204699
_cell_length_b 33.676990
_cell_length_c 18.586657
_cell_angle_alpha 90.000000
_cell_angle_beta 69.497260
_cell_angle_gamma 90.000000
_cell_volume 3051.476508
_symmetry_space_group_name_H-M "C 2/M"
_symmetry_group_IT_number 12
_symmetry_cell_setting 'monoclinic'
loop_
_space_group_symop_operation_xyz
x,y,z
-x,y,-z
-x,-y,-z
x,-y,z
1/2+x,1/2+y,z
1/2-x,1/2+y,-z
1/2-x,1/2-y,-z
1/2+x,1/2-y,z
loop_
_atom_site_type_symbol
_atom_site_label
_atom_site_fract_x
_atom_site_fract_y
_atom_site_fract_z
Si Si1 0.689548 0.546732 0.551482
Si Si2 0.990501 0.724288 0.784471
Si Si3 0.584882 0.407884 0.290552
Si Si4 0.793688 0.294397 0.964897
Si Si5 0.249209 0.546401 0.865636
Si Si6 0.856113 0.637473 0.758207
Si Si7 0.687600 0.408543 0.914720
O O1 0.500000 0.551308 0.500000
O O2 0.686885 0.500000 0.572368
O O3 0.572623 0.572756 0.627697
O O4 0.000000 0.557337 0.500000
O O5 0.790032 0.757057 0.768513
O O6 0.893070 0.712726 0.874817
O O7 0.947405 0.683218 0.746489
O O8 0.659063 0.441085 0.223746
O O9 0.391500 0.375520 0.269560
O O10 0.873909 0.388522 0.284194
O O11 0.500000 0.313738 0.000000
O O12 0.750000 0.250000 0.000000
O O13 0.000000 0.314974 0.000000
O O14 0.191142 0.500000 0.877232
O O15 0.502473 0.559186 0.890672
O O16 0.976711 0.571964 0.908985
O O17 0.758602 0.625329 0.848785
O O18 0.500000 0.397007 0.000000
#
# Coordination Sequence:
#
# PCOD9168811 Si02
#       7
#     8   8   8   8   8   8   8
#     4  10  20  34  59  95 125 150 178 213 256 306
#     4  12  21  34  53  73 101 127 182 240 271 329
#     4  10  20  39  55  76 119 147 178 209 259 336
#     4  10  16  29  43  66  94 121 159 215 281 347
#     4  10  20  33  54  74  95 139 185 220 268 311
#     4  10  23  37  53  75 103 154 182 220 282 333
#     4  10  21  36  48  69 102 132 182 237 279 315
#
# _framework density 18.351773000000001
#
# number of rings (size 3 to 8) (size 9 to 14) (size 15 to 20)
#    0.000    1.714    2.857    3.000    0.000    2.286 
#    0.000    7.143    0.000    0.000    0.000    0.000 
#    0.000   40.000    0.000    0.000    0.000    0.000 
#
# Total GULP energy -156307.630392 kJ/mol
# GULP energy per Si atom -5582.415371 kJ/mol
# Density = 1.831000 g / cm^3
# Si number density = 18.351773 Si / 1000 Ang^3
#
#
#
# Elastic Constant Matrix: (Units=GPa)
#
#
# Indices 1 2 3 4 5 6 
#
# 1 103.1380 -4.0390 8.2192 0.0000 -12.8330 0.0000
# 2 -4.0390 66.0253 21.6987 0.0000 0.0943 0.0000
# 3 8.2192 21.6987 85.4204 0.0000 -18.8757 0.0000
# 4 0.0000 0.0000 0.0000 1.3424 0.0000 5.3024
# 5 -12.8330 0.0943 -18.8757 0.0000 19.2826 0.0000
# 6 0.0000 0.0000 0.0000 5.3024 0.0000 -5.9851
#
#
#
# Elastic Compliance Matrix: (Units=1/GPa)
#
#
# Indices 1 2 3 4 5 6 
#
# 1 0.010615 0.000462 0.000538 0.000000 0.007590 0.000000
# 2 0.000462 0.016989 -0.005500 0.000000 -0.005160 0.000000
# 3 0.000538 -0.005500 0.016763 0.000000 0.016795 0.000000
# 4 0.000000 0.000000 0.000000 0.165563 0.000000 0.146678
# 5 0.007590 -0.005160 0.016795 0.000000 0.073377 0.000000
# 6 0.000000 0.000000 0.000000 0.146678 0.000000 -0.037134
#
#
# Mechanical properties :
#
#
# Convention : Reuss Voigt Hill
#
# Bulk Modulus (GPa) = 28.27477 34.03795 31.15636
# Shear Modulus (GPa) = 18.72916 18.17496 18.45206
#
# Velocity S-wave (km/s) = 3.19809 3.15042 3.17435
# Velocity P-wave (km/s) = 5.39237 5.64104 5.51810
#
# Compressibility (1/GPa) = 0.03536722
#
# Stress axis : x y z
#
# Youngs Moduli (GPa) = 94.20407 58.86186 59.65360
#
# Poissons Ratio (x) = -0.02717 -0.03212
# Poissons Ratio (y) = -0.04348 0.32811
# Poissons Ratio (z) = -0.05072 0.32375
#
# Static dielectric constant tensor:
#      x y z
#    x 1.704460 0.000000 0.012550 
#    y 0.000000 1.630130 0.000000 
#    z 0.012550 0.000000 1.602510 
# 
# From -- ./inp_files/253961.got.cif
#   From: 2010.05.17/outbox.cif.g08.bks.cpg/sg12_127_cif.got.tgz:253961.got - 2010.06.03 13:09:07.
