data_PCOD9168783
_publ_section_title
;
Structure prediction by ZEFSAII (Michael W. Deem and Ramdas Pophale) SiO2 
 PCOD9168783
Probable space group: C 2/M
;
_chemical_formula_sum "Si O2"
_cell_formula_units_Z 28
_cell_length_a 13.829553
_cell_length_b 11.566712
_cell_length_c 10.395757
_cell_angle_alpha 90.000000
_cell_angle_beta 39.554555
_cell_angle_gamma 90.000000
_cell_volume 1058.975380
_symmetry_space_group_name_H-M "C 2/M"
_symmetry_group_IT_number 12
_symmetry_cell_setting 'monoclinic'
loop_
_space_group_symop_operation_xyz
x,y,z
-x,y,-z
-x,-y,-z
x,-y,z
1/2+x,1/2+y,z
1/2-x,1/2+y,-z
1/2-x,1/2-y,-z
1/2+x,1/2-y,z
loop_
_atom_site_type_symbol
_atom_site_label
_atom_site_fract_x
_atom_site_fract_y
_atom_site_fract_z
Si Si1 0.204530 0.374539 0.918517
Si Si2 0.043802 0.372987 0.603628
Si Si3 0.450371 0.374653 0.336298
Si Si4 0.500000 0.692256 0.000000
O O1 0.174411 0.500000 0.890336
O O2 0.380128 0.367787 0.776011
O O3 0.139722 0.274667 0.896135
O O4 0.103902 0.370863 0.152119
O O5 0.117544 0.500000 0.552471
O O6 0.119916 0.248995 0.553137
O O7 0.000000 0.372915 0.500000
O O8 0.389680 0.500000 0.441576
O O9 0.464215 0.374470 0.167391
#
# Coordination Sequence:
#
# PCOD9168783 Si02
#       4
#     8   8   8   4
#     4   9  18  32  51  75 100 128 163 203 245 288
#     4   9  17  30  49  72  98 130 165 198 238 291
#     4  10  20  33  51  76 102 127 160 205 250 287
#     4  10  16  28  50  76  99 126 163 202 241 290
#
# _framework density 26.440652
#
# number of rings (size 3 to 8) (size 9 to 14) (size 15 to 20)
#    0.000    2.571    0.000    4.286    0.000    1.714 
#    0.000    1.429    0.000   27.429    0.000   48.000 
#    0.000    0.000    0.000    0.000    0.000    0.000 
#
# Total GULP energy -78311.520713 kJ/mol
# GULP energy per Si atom -5593.680051 kJ/mol
# Density = 2.638047 g / cm^3
# Si number density = 26.440652 Si / 1000 Ang^3
#
#
#
# Elastic Constant Matrix: (Units=GPa)
#
#
# Indices 1 2 3 4 5 6 
#
# 1 155.5006 40.8671 41.8104 0.0000 -10.0843 0.0000
# 2 40.8671 307.0372 29.3545 0.0000 13.5955 0.0000
# 3 41.8104 29.3545 124.7360 0.0000 12.6472 0.0000
# 4 0.0000 0.0000 0.0000 -70.6613 0.0000 -72.9445
# 5 -10.0843 13.5955 12.6472 0.0000 33.1349 0.0000
# 6 0.0000 0.0000 0.0000 -72.9445 0.0000 -216.2010
#
#
#
# Elastic Compliance Matrix: (Units=1/GPa)
#
#
# Indices 1 2 3 4 5 6 
#
# 1 0.007650 -0.000923 -0.002727 0.000000 0.003748 0.000000
# 2 -0.000923 0.003483 -0.000350 0.000000 -0.001576 0.000000
# 3 -0.002727 -0.000350 0.009449 0.000000 -0.004293 0.000000
# 4 0.000000 0.000000 0.000000 -0.021715 0.000000 0.007327
# 5 0.003748 -0.001576 -0.004293 0.000000 0.033606 0.000000
# 6 0.000000 0.000000 0.000000 0.007327 0.000000 -0.007097
#
#
# Mechanical properties :
#
#
# Convention : Reuss Voigt Hill
#
# Bulk Modulus (GPa) = 79.48910 90.14865 84.81888
# Shear Modulus (GPa) = 133.08796 -19.06271 57.01263
#
# Velocity S-wave (km/s) = 7.10238 -2.68799 4.64858
# Velocity P-wave (km/s) = 9.86848 4.95329 7.80775
#
# Compressibility (1/GPa) = 0.01258034
#
# Stress axis : x y z
#
# Youngs Moduli (GPa) = 130.72307 287.09681 105.83575
#
# Poissons Ratio (x) = 0.26512 0.28859
# Poissons Ratio (y) = 0.12072 0.03708
# Poissons Ratio (z) = 0.35646 0.10058
#
# Static dielectric constant tensor:
#      x y z
#    x 1.974070 0.000000 -0.002420 
#    y 0.000000 2.129240 0.000000 
#    z -0.002420 0.000000 2.013230 
# 
# From -- ./inp_files/139367.got.cif
#   From: 2010.05.17/outbox.cif.g08.bks.cpg/sg12_70_cif.got.tgz:139367.got - 2010.06.03 13:09:07.
