data_PCOD9168261
_publ_section_title
;
Structure prediction by ZEFSAII (Michael W. Deem and Ramdas Pophale) SiO2 
 PCOD9168261
Probable space group: P 21/M
;
_chemical_formula_sum "Si O2"
_cell_formula_units_Z 24
_cell_length_a 15.000000
_cell_length_b 18.000000
_cell_length_c 9.000000
_cell_angle_alpha 90.000000
_cell_angle_beta 30.000000
_cell_angle_gamma 90.000000
_cell_volume 1215.000000
_symmetry_space_group_name_H-M "P 21/M"
_symmetry_group_IT_number 11
_symmetry_cell_setting 'monoclinic'
loop_
_space_group_symop_operation_xyz
x,y,z
-x,1/2+y,-z
-x,-y,-z
x,1/2-y,z
loop_
_atom_site_type_symbol
_atom_site_label
_atom_site_fract_x
_atom_site_fract_y
_atom_site_fract_z
Si Si1 0.952867 0.165392 0.419410
Si Si2 0.069199 0.429545 0.990284
Si Si3 0.175346 0.076069 0.328655
Si Si4 0.361715 0.668380 0.887245
Si Si5 0.269736 0.165164 0.470791
Si Si6 0.219435 0.977352 0.008549
O O1 0.984960 0.250000 0.325599
O O2 0.944059 0.110784 0.291797
O O3 0.108688 0.136079 0.303416
O O4 0.780507 0.163110 0.772991
O O5 0.227930 0.464251 0.862818
O O6 0.123979 0.368996 0.790919
O O7 0.000000 0.500000 0.000000
O O8 0.279919 0.114523 0.310011
O O9 0.991942 0.041801 0.662025
O O10 0.273229 0.014264 0.088137
O O11 0.340476 0.750000 0.847710
O O12 0.551596 0.663724 0.690664
O O13 0.320053 0.599592 0.841129
O O14 0.229241 0.250000 0.486579
#
# Coordination Sequence:
#
# PCOD9168261 Si02
#       6
#     4   4   4   4   4   4
#     4   9  18  36  58  75 103 144 179 215 267 323
#     4  11  21  35  53  82 111 137 179 228 266 318
#     4   9  17  32  57  81 103 134 183 222 256 315
#     4   9  20  36  56  80 109 142 182 222 265 320
#     4  11  22  35  55  84 111 137 177 229 272 311
#     4   9  18  35  54  78 107 142 178 215 266 320
#
# _framework density 19.753086
#
# number of rings (size 3 to 8) (size 9 to 14) (size 15 to 20)
#    0.000    2.333    1.667    2.000    0.000    2.000 
#    0.000    0.000    0.000    0.000    0.000    0.000 
#    0.000    0.000    0.000    0.000    0.000    0.000 
#
# Total GULP energy -133756.115711 kJ/mol
# GULP energy per Si atom -5573.171488 kJ/mol
# Density = 1.970813 g / cm^3
# Si number density = 19.753086 Si / 1000 Ang^3
#
#
#
# Elastic Constant Matrix: (Units=GPa)
#
#
# Indices 1 2 3 4 5 6 
#
# 1 27.9430 7.0737 -8.5287 0.0000 17.5465 0.0000
# 2 7.0737 96.3358 -3.2520 0.0000 3.7136 0.0000
# 3 -8.5287 -3.2520 -0.2243 0.0000 -1.7655 0.0000
# 4 0.0000 0.0000 0.0000 12.5094 0.0000 -0.6034
# 5 17.5465 3.7136 -1.7655 0.0000 15.7104 0.0000
# 6 0.0000 0.0000 0.0000 -0.6034 0.0000 36.1101
#
#
#
# Elastic Compliance Matrix: (Units=1/GPa)
#
#
# Indices 1 2 3 4 5 6 
#
# 1 0.011008 -0.004510 -0.140515 0.000000 -0.027020 0.000000
# 2 -0.004510 0.010584 -0.001017 0.000000 0.002421 0.000000
# 3 -0.140515 -0.001017 -0.179306 0.000000 0.137027 0.000000
# 4 0.000000 0.000000 0.000000 0.080004 0.000000 0.001337
# 5 -0.027020 0.002421 0.137027 0.000000 0.108657 0.000000
# 6 0.000000 0.000000 0.000000 0.001337 0.000000 0.027715
#
#
# Mechanical properties :
#
#
# Convention : Reuss Voigt Hill
#
# Bulk Modulus (GPa) = -2.22322 12.73783 5.25730
# Shear Modulus (GPa) = 24.89858 21.45008 23.17433
#
# Velocity S-wave (km/s) = 3.55419 3.29889 3.42892
# Velocity P-wave (km/s) = 3.96423 4.57960 4.28298
#
# Compressibility (1/GPa) = -0.44979789
#
# Stress axis : x y z
#
# Youngs Moduli (GPa) = 90.84161 94.48360 -5.57707
#
# Poissons Ratio (x) = 0.42613 -0.78366
# Poissons Ratio (y) = 0.40971 -0.00567
# Poissons Ratio (z) = 12.76456 0.09613
#
# Static dielectric constant tensor:
#      x y z
#    x 1.684430 0.000000 -0.006900 
#    y 0.000000 1.758280 0.000000 
#    z -0.006900 0.000000 1.698170 
# 
# From -- ./inp_files/13115.got.cif
#   From: 2010.05.17/outbox.ucp.g08.bks.cvg/sg11_7_cif.got.tgz:13115.got - 2010.06.11 11:38:39.
