data_PCOD9168969
_publ_section_title
;
Structure prediction by ZEFSAII (Michael W. Deem and Ramdas Pophale) SiO2 
 PCOD9168969
Probable space group: C 2/M
;
_chemical_formula_sum "Si O2"
_cell_formula_units_Z 40
_cell_length_a 16.524573
_cell_length_b 20.489258
_cell_length_c 8.320864
_cell_angle_alpha 90.000000
_cell_angle_beta 44.337260
_cell_angle_gamma 90.000000
_cell_volume 1968.919050
_symmetry_space_group_name_H-M "C 2/M"
_symmetry_group_IT_number 12
_symmetry_cell_setting 'monoclinic'
loop_
_space_group_symop_operation_xyz
x,y,z
-x,y,-z
-x,-y,-z
x,-y,z
1/2+x,1/2+y,z
1/2-x,1/2+y,-z
1/2-x,1/2-y,-z
1/2+x,1/2-y,z
loop_
_atom_site_type_symbol
_atom_site_label
_atom_site_fract_x
_atom_site_fract_y
_atom_site_fract_z
Si Si1 0.879805 0.689211 0.594921
Si Si2 0.839942 0.359004 0.145898
Si Si3 0.134782 0.206793 0.954981
Si Si4 0.038822 0.577045 0.713758
Si Si5 0.386397 0.314253 0.385345
O O1 0.759092 0.695279 0.859011
O O2 0.901717 0.615189 0.515077
O O3 0.863394 0.738803 0.468013
O O4 0.000000 0.712502 0.500000
O O5 0.880431 0.284506 0.053426
O O6 0.895334 0.391338 0.226663
O O7 0.702852 0.354291 0.377054
O O8 0.904104 0.401183 0.918237
O O9 0.138042 0.176772 0.769671
O O10 0.024610 0.177759 0.203196
O O11 0.049717 0.500000 0.696855
#
# Coordination Sequence:
#
# PCOD9168969 Si02
#       5
#     8   8   8   8   8
#     4  11  21  33  49  79 111 137 170 208 260 316
#     4  10  16  31  52  77  99 124 176 219 254 292
#     4  10  17  32  57  75 106 134 164 217 267 307
#     4  11  20  33  51  76 105 138 178 211 246 299
#     4  10  17  32  55  76 104 133 164 215 269 304
#
# _framework density 20.315714
#
# number of rings (size 3 to 8) (size 9 to 14) (size 15 to 20)
#    0.000    1.600    6.000    3.600    0.000    1.200 
#    0.000    0.000    0.000    3.600    0.000    1.400 
#    0.000    0.000    0.000    0.000    0.000    0.000 
#
# Total GULP energy -111470.428697 kJ/mol
# GULP energy per Si atom -5573.521435 kJ/mol
# Density = 2.026947 g / cm^3
# Si number density = 20.315714 Si / 1000 Ang^3
#
#
#
# Elastic Constant Matrix: (Units=GPa)
#
#
# Indices 1 2 3 4 5 6 
#
# 1 65.3081 26.0927 45.4289 0.0000 -32.5459 0.0000
# 2 26.0927 104.9776 42.6001 0.0000 -10.2304 0.0000
# 3 45.4289 42.6001 153.1742 0.0000 -56.3656 0.0000
# 4 0.0000 0.0000 0.0000 19.1929 0.0000 -2.7303
# 5 -32.5459 -10.2304 -56.3656 0.0000 45.0601 0.0000
# 6 0.0000 0.0000 0.0000 -2.7303 0.0000 10.0551
#
#
#
# Elastic Compliance Matrix: (Units=1/GPa)
#
#
# Indices 1 2 3 4 5 6 
#
# 1 0.026051 -0.004819 0.000251 0.000000 0.018036 0.000000
# 2 -0.004819 0.011772 -0.003969 0.000000 -0.005773 0.000000
# 3 0.000251 -0.003969 0.013513 0.000000 0.016184 0.000000
# 4 0.000000 0.000000 0.000000 0.054196 0.000000 0.014716
# 5 0.018036 -0.005773 0.016184 0.000000 0.054153 0.000000
# 6 0.000000 0.000000 0.000000 0.014716 0.000000 0.103448
#
#
# Mechanical properties :
#
#
# Convention : Reuss Voigt Hill
#
# Bulk Modulus (GPa) = 29.18739 61.30036 45.24388
# Shear Modulus (GPa) = 17.14511 28.81751 22.98131
#
# Velocity S-wave (km/s) = 2.90821 3.77036 3.36699
# Velocity P-wave (km/s) = 5.06705 7.01381 6.11835
#
# Compressibility (1/GPa) = 0.03426137
#
# Stress axis : x y z
#
# Youngs Moduli (GPa) = 38.38631 84.94957 74.00098
#
# Poissons Ratio (x) = 0.40939 -0.01856
# Poissons Ratio (y) = 0.18499 0.29370
# Poissons Ratio (z) = -0.00963 0.33716
#
# Static dielectric constant tensor:
#      x y z
#    x 1.844360 0.000000 0.026530 
#    y 0.000000 1.656190 0.000000 
#    z 0.026530 0.000000 1.836610 
# 
# From -- ./inp_files/77184.got.cif
#   From: 2010.05.17/outbox.cif.g08.bks.cpg/sg12_39_cif.got.tgz:77184.got - 2010.06.03 13:09:07.
