data_PCOD9168763
_publ_section_title
;
Structure prediction by ZEFSAII (Michael W. Deem and Ramdas Pophale) SiO2 
 PCOD9168763
Probable space group: C 2/M
;
_chemical_formula_sum "Si O2"
_cell_formula_units_Z 48
_cell_length_a 10.860187
_cell_length_b 29.909243
_cell_length_c 13.897477
_cell_angle_alpha 90.000000
_cell_angle_beta 33.375420
_cell_angle_gamma 90.000000
_cell_volume 2483.351108
_symmetry_space_group_name_H-M "C 2/M"
_symmetry_group_IT_number 12
_symmetry_cell_setting 'monoclinic'
loop_
_space_group_symop_operation_xyz
x,y,z
-x,y,-z
-x,-y,-z
x,-y,z
1/2+x,1/2+y,z
1/2-x,1/2+y,-z
1/2-x,1/2-y,-z
1/2+x,1/2-y,z
loop_
_atom_site_type_symbol
_atom_site_label
_atom_site_fract_x
_atom_site_fract_y
_atom_site_fract_z
Si Si1 0.256642 0.748671 0.612246
Si Si2 0.406955 0.721131 0.966199
Si Si3 0.517699 0.160657 0.218928
Si Si4 0.882599 0.900466 0.469674
Si Si5 0.708243 0.500000 0.437209
Si Si6 0.375395 0.000000 0.977716
Si Si7 0.214594 0.403074 0.928926
O O1 0.500000 0.749447 0.500000
O O2 0.250000 0.750000 0.500000
O O3 0.112041 0.787374 0.759405
O O4 0.138376 0.701455 0.715254
O O5 0.500000 0.745490 0.000000
O O6 0.250000 0.750000 0.000000
O O7 0.239604 0.683696 0.119028
O O8 0.340538 0.129314 0.389234
O O9 0.630917 0.130810 0.063354
O O10 0.816470 0.952360 0.495207
O O11 0.000000 0.897394 0.500000
O O12 0.072547 0.887154 0.270123
O O13 0.500000 0.500000 0.500000
O O14 0.933844 0.500000 0.227738
O O15 0.500000 0.000000 0.000000
O O16 0.244339 0.046690 0.058461
O O17 0.000000 0.407164 0.000000
#
# Coordination Sequence:
#
# PCOD9168763 Si02
#       7
#     8   8   8   8   4   4   8
#     4  11  24  41  64  88 116 158 203 250 312 379
#     4  10  23  45  65  88 122 158 201 255 314 376
#     4  11  23  36  57  86 115 152 196 254 302 367
#     4  11  19  33  49  83 119 165 205 251 301 364
#     4  10  16  28  48  69 119 163 207 244 294 362
#     4  10  16  30  44  75 117 171 201 242 302 360
#     4  11  20  31  52  80 126 163 205 250 306 362
#
# _framework density 19.328721999999999
#
# number of rings (size 3 to 8) (size 9 to 14) (size 15 to 20)
#    0.000    1.333    3.333    6.000    2.333    2.667 
#    0.000    0.000    0.000    0.000    0.000    2.333 
#    0.000    2.667    0.000    0.000    0.000    0.000 
#
# Total GULP energy -133650.411308 kJ/mol
# GULP energy per Si atom -5568.767138 kJ/mol
# Density = 1.928473 g / cm^3
# Si number density = 19.328722 Si / 1000 Ang^3
#
#
#
# Elastic Constant Matrix: (Units=GPa)
#
#
# Indices 1 2 3 4 5 6 
#
# 1 79.2125 18.0549 39.4884 0.0000 2.6150 0.0000
# 2 18.0549 80.5265 46.3059 0.0000 -6.4115 0.0000
# 3 39.4884 46.3059 196.7426 0.0000 -4.7856 0.0000
# 4 0.0000 0.0000 0.0000 29.4332 0.0000 -5.8777
# 5 2.6150 -6.4115 -4.7856 0.0000 26.5397 0.0000
# 6 0.0000 0.0000 0.0000 -5.8777 0.0000 14.6508
#
#
#
# Elastic Compliance Matrix: (Units=1/GPa)
#
#
# Indices 1 2 3 4 5 6 
#
# 1 0.014390 -0.001989 -0.002477 0.000000 -0.002345 0.000000
# 2 -0.001989 0.014858 -0.003019 0.000000 0.003241 0.000000
# 3 -0.002477 -0.003019 0.006306 0.000000 0.000652 0.000000
# 4 0.000000 0.000000 0.000000 0.036934 0.000000 0.014818
# 5 -0.002345 0.003241 0.000652 0.000000 0.038811 0.000000
# 6 0.000000 0.000000 0.000000 0.014818 0.000000 0.074200
#
#
# Mechanical properties :
#
#
# Convention : Reuss Voigt Hill
#
# Bulk Modulus (GPa) = 48.57958 62.68665 55.63312
# Shear Modulus (GPa) = 24.11596 30.96689 27.54142
#
# Velocity S-wave (km/s) = 3.53608 4.00699 3.77887
# Velocity P-wave (km/s) = 6.46991 7.34236 6.91990
#
# Compressibility (1/GPa) = 0.02058478
#
# Stress axis : x y z
#
# Youngs Moduli (GPa) = 69.49338 67.30242 158.56827
#
# Poissons Ratio (x) = 0.13384 0.39281
# Poissons Ratio (y) = 0.13819 0.47874
# Poissons Ratio (z) = 0.17215 0.20319
#
# Static dielectric constant tensor:
#      x y z
#    x 1.642130 0.000000 -0.003960 
#    y 0.000000 1.770230 0.000000 
#    z -0.003960 0.000000 1.744930 
# 
# From -- ./inp_files/209805.got.cif
#   From: 2010.05.17/outbox.cif.g08.bks.cpg/sg12_105_cif.got.tgz:209805.got - 2010.06.03 13:09:07.
