data_PCOD9168293
_publ_section_title
;
Structure prediction by ZEFSAII (Michael W. Deem and Ramdas Pophale) SiO2 
 PCOD9168293
Probable space group: C 2/M
;
_chemical_formula_sum "Si O2"
_cell_formula_units_Z 44
_cell_length_a 5.359784
_cell_length_b 14.571169
_cell_length_c 28.138898
_cell_angle_alpha 90.000000
_cell_angle_beta 73.468805
_cell_angle_gamma 90.000000
_cell_volume 2106.762706
_symmetry_space_group_name_H-M "C 2/M"
_symmetry_group_IT_number 12
_symmetry_cell_setting 'monoclinic'
loop_
_space_group_symop_operation_xyz
x,y,z
-x,y,-z
-x,-y,-z
x,-y,z
1/2+x,1/2+y,z
1/2-x,1/2+y,-z
1/2-x,1/2-y,-z
1/2+x,1/2-y,z
loop_
_atom_site_type_symbol
_atom_site_label
_atom_site_fract_x
_atom_site_fract_y
_atom_site_fract_z
Si Si1 0.208746 0.610081 0.527445
Si Si2 0.600164 0.806790 0.634617
Si Si3 0.000000 0.687322 0.000000
Si Si4 0.253697 0.642456 0.784577
Si Si5 0.313793 0.145162 0.744381
Si Si6 0.203260 0.310877 0.893130
O O1 0.500000 0.643045 0.500000
O O2 0.212677 0.500000 0.524157
O O3 0.128944 0.637103 0.584759
O O4 0.000000 0.643568 0.500000
O O5 0.385245 0.728725 0.634261
O O6 0.473459 0.855459 0.687001
O O7 0.909421 0.639148 0.053721
O O8 0.750000 0.750000 0.000000
O O9 0.257967 0.749459 0.765647
O O10 0.529456 0.604391 0.753118
O O11 0.241333 0.636428 0.841968
O O12 0.996663 0.603498 0.774648
O O13 0.479211 0.264216 0.891841
#
# Coordination Sequence:
#
# PCOD9168293 Si02
#       6
#     8   8   4   8   8   8
#     4  10  23  42  57  71  96 129 156 180 221 280
#     4  12  21  32  53  78 100 117 147 196 234 256
#     4   8  16  20  24  38  56  78 132 182 196 224
#     4  10  14  23  36  49  78 110 130 162 220 268
#     4  10  16  25  36  59  84 104 128 167 217 255
#     4  10  14  20  29  40  58  94 130 168 206 242
#
# _framework density 20.885123
#
# number of rings (size 3 to 8) (size 9 to 14) (size 15 to 20)
#    0.000    1.818    7.273    1.091    0.000    2.182 
#    0.000    0.000    0.000    0.000    0.000    0.000 
#    0.000    0.000    0.000    0.000    0.000    0.000 
#
# Total GULP energy -122621.016707 kJ/mol
# GULP energy per Si atom -5573.682578 kJ/mol
# Density = 2.083759 g / cm^3
# Si number density = 20.885123 Si / 1000 Ang^3
#
#
#
# Elastic Constant Matrix: (Units=GPa)
#
#
# Indices 1 2 3 4 5 6 
#
# 1 97.9303 -3.8161 -20.8905 0.0000 -5.6761 0.0000
# 2 -3.8161 40.1723 -0.3245 0.0000 -4.6107 0.0000
# 3 -20.8905 -0.3245 138.7700 0.0000 -1.9634 0.0000
# 4 0.0000 0.0000 0.0000 -21.6852 0.0000 3.6986
# 5 -5.6761 -4.6107 -1.9634 0.0000 35.7716 0.0000
# 6 0.0000 0.0000 0.0000 3.6986 0.0000 -11.4408
#
#
#
# Elastic Compliance Matrix: (Units=1/GPa)
#
#
# Indices 1 2 3 4 5 6 
#
# 1 0.010724 0.001256 0.001645 0.000000 0.001954 0.000000
# 2 0.001256 0.025415 0.000298 0.000000 0.003492 0.000000
# 3 0.001645 0.000298 0.007465 0.000000 0.000709 0.000000
# 4 0.000000 0.000000 0.000000 -0.048805 0.000000 -0.015778
# 5 0.001954 0.003492 0.000709 0.000000 0.028754 0.000000
# 6 0.000000 0.000000 0.000000 -0.015778 0.000000 -0.092507
#
#
# Mechanical properties :
#
#
# Convention : Reuss Voigt Hill
#
# Bulk Modulus (GPa) = 19.99886 25.20116 22.60001
# Shear Modulus (GPa) = -85.20055 20.65602 -32.27227
#
# Velocity S-wave (km/s) = -6.39401 3.14830 -3.93520
# Velocity P-wave (km/s) = 6.70185 5.03075 3.13100
#
# Compressibility (1/GPa) = 0.05000284
#
# Stress axis : x y z
#
# Youngs Moduli (GPa) = 93.24466 39.34648 133.96659
#
# Poissons Ratio (x) = -0.04943 -0.22038
# Poissons Ratio (y) = -0.11714 -0.03992
# Poissons Ratio (z) = -0.15339 -0.01172
#
# Static dielectric constant tensor:
#      x y z
#    x 1.801720 0.000000 0.020680 
#    y 0.000000 3.162530 0.000000 
#    z 0.020680 0.000000 1.776920 
# 
# From -- ./inp_files/330976.got.cif
#   From: 2010.05.17/outbox.cif.g08.bks.cpg/sg12_166_cif.got.tgz:330976.got - 2010.06.03 13:09:07.
