data_PCOD9168292
_publ_section_title
;
Structure prediction by ZEFSAII (Michael W. Deem and Ramdas Pophale) SiO2 
 PCOD9168292
Probable space group: C 2/M
;
_chemical_formula_sum "Si O2"
_cell_formula_units_Z 48
_cell_length_a 5.344210
_cell_length_b 14.554627
_cell_length_c 31.025872
_cell_angle_alpha 90.000000
_cell_angle_beta 74.968087
_cell_angle_gamma 90.000000
_cell_volume 2330.705933
_symmetry_space_group_name_H-M "C 2/M"
_symmetry_group_IT_number 12
_symmetry_cell_setting 'monoclinic'
loop_
_space_group_symop_operation_xyz
x,y,z
-x,y,-z
-x,-y,-z
x,-y,z
1/2+x,1/2+y,z
1/2-x,1/2+y,-z
1/2-x,1/2-y,-z
1/2+x,1/2-y,z
loop_
_atom_site_type_symbol
_atom_site_label
_atom_site_fract_x
_atom_site_fract_y
_atom_site_fract_z
Si Si1 0.521202 0.808993 0.621948
Si Si2 0.756249 0.687982 0.812546
Si Si3 0.712855 0.889818 0.524821
Si Si4 0.074827 0.345787 0.947452
Si Si5 0.631615 0.637745 0.909761
Si Si6 0.017854 0.310480 0.283583
O O1 0.238834 0.769323 0.621890
O O2 0.629754 0.863433 0.576526
O O3 0.501412 0.859487 0.669233
O O4 0.483174 0.738601 0.814653
O O5 0.713078 0.627379 0.856722
O O6 0.862993 0.641762 0.763990
O O7 0.500000 0.856644 0.500000
O O8 0.000000 0.856189 0.500000
O O9 0.718377 0.000000 0.521713
O O10 0.346081 0.396255 0.931989
O O11 0.111570 0.247763 0.921502
O O12 0.846386 0.395899 0.932920
O O13 0.000000 0.327067 0.000000
O O14 0.235196 0.230601 0.283693
#
# Coordination Sequence:
#
# PCOD9168292 Si02
#       6
#     8   8   8   8   8   8
#     4  10  19  32  48  70  93 117 150 183 222 263
#     4  10  14  22  31  42  58  78 108 141 185 237
#     4  10  21  35  50  70  96 124 151 181 217 259
#     4  10  16  20  24  33  49  69 100 139 179 219
#     4  10  14  20  26  35  46  69  98 132 178 227
#     4   8  16  25  38  54  74  97 121 161 203 243
#
# _framework density 20.594619000000002
#
# number of rings (size 3 to 8) (size 9 to 14) (size 15 to 20)
#    0.000    2.333    3.333    3.500    0.000    2.000 
#    0.000    0.000    0.000    0.000    0.000    0.000 
#    0.000    0.000    0.000    0.000    0.000    0.000 
#
# Total GULP energy -133720.567747 kJ/mol
# GULP energy per Si atom -5571.690323 kJ/mol
# Density = 2.054774 g / cm^3
# Si number density = 20.594619 Si / 1000 Ang^3
#
#
#
# Elastic Constant Matrix: (Units=GPa)
#
#
# Indices 1 2 3 4 5 6 
#
# 1 171.0212 7.0698 35.2553 0.0000 -2.8640 0.0000
# 2 7.0698 42.8998 7.5690 0.0000 1.6347 0.0000
# 3 35.2553 7.5690 209.5346 0.0000 0.8156 0.0000
# 4 0.0000 0.0000 0.0000 -24.1739 0.0000 1.1536
# 5 -2.8640 1.6347 0.8156 0.0000 35.5712 0.0000
# 6 0.0000 0.0000 0.0000 1.1536 0.0000 -14.1212
#
#
#
# Elastic Compliance Matrix: (Units=1/GPa)
#
#
# Indices 1 2 3 4 5 6 
#
# 1 0.006097 -0.000850 -0.000997 0.000000 0.000553 0.000000
# 2 -0.000850 0.023618 -0.000706 0.000000 -0.001138 0.000000
# 3 -0.000997 -0.000706 0.004966 0.000000 -0.000162 0.000000
# 4 0.000000 0.000000 0.000000 -0.041529 0.000000 -0.003393
# 5 0.000553 -0.001138 -0.000162 0.000000 0.028213 0.000000
# 6 0.000000 0.000000 0.000000 -0.003393 0.000000 -0.071093
#
#
# Mechanical properties :
#
#
# Convention : Reuss Voigt Hill
#
# Bulk Modulus (GPa) = 33.81150 58.13819 45.97485
# Shear Modulus (GPa) = -143.83410 24.35933 -59.73739
#
# Velocity S-wave (km/s) = -8.36614 3.44292 -5.39159
# Velocity P-wave (km/s) = 8.76754 6.64048 4.04807
#
# Compressibility (1/GPa) = 0.02957573
#
# Stress axis : x y z
#
# Youngs Moduli (GPa) = 164.00923 42.34051 201.35262
#
# Poissons Ratio (x) = 0.03599 0.20082
# Poissons Ratio (y) = 0.13939 0.14210
# Poissons Ratio (z) = 0.16357 0.02988
#
# Static dielectric constant tensor:
#      x y z
#    x 2.287160 0.000000 -0.437640 
#    y 0.000000 1.692180 0.000000 
#    z -0.437640 0.000000 2.037490 
# 
# From -- ./inp_files/354854.got.cif
#   From: 2010.05.17/outbox.cif.g08.bks.cpg/sg12_178_cif.got.tgz:354854.got - 2010.06.03 13:09:07.
