data_PCOD9168214
_publ_section_title
;
Structure prediction by ZEFSAII (Michael W. Deem and Ramdas Pophale) SiO2 
 PCOD9168214
Probable space group: P 21/M
;
_chemical_formula_sum "Si O2"
_cell_formula_units_Z 28
_cell_length_a 15.000000
_cell_length_b 9.000000
_cell_length_c 12.000000
_cell_angle_alpha 90.000000
_cell_angle_beta 120.000000
_cell_angle_gamma 90.000000
_cell_volume 1402.961154
_symmetry_space_group_name_H-M "P 21/M"
_symmetry_group_IT_number 11
_symmetry_cell_setting 'monoclinic'
loop_
_space_group_symop_operation_xyz
x,y,z
-x,1/2+y,-z
-x,-y,-z
x,1/2-y,z
loop_
_atom_site_type_symbol
_atom_site_label
_atom_site_fract_x
_atom_site_fract_y
_atom_site_fract_z
Si Si1 0.838567 0.078588 0.138198
Si Si2 0.505373 0.078028 0.184959
Si Si3 0.960070 0.575924 0.588145
Si Si4 0.215853 0.571354 0.380616
Si Si5 0.436368 0.073739 0.558327
Si Si6 0.887743 0.072020 0.919372
Si Si7 0.347341 0.078750 0.887819
O O1 0.802505 0.250000 0.128051
O O2 0.951968 0.071444 0.261272
O O3 0.768531 0.967229 0.163389
O O4 0.834815 0.039762 0.005103
O O5 0.512232 0.250000 0.223175
O O6 0.508354 0.973298 0.292880
O O7 0.601408 0.030043 0.168813
O O8 0.408142 0.059502 0.042531
O O9 0.935151 0.750000 0.553110
O O10 0.865436 0.485386 0.579478
O O11 0.000000 0.500000 0.500000
O O12 0.225195 0.750000 0.388354
O O13 0.323151 0.495918 0.478511
O O14 0.174321 0.526913 0.230676
O O15 0.431822 0.250000 0.545286
O O16 0.500000 0.000000 0.500000
O O17 0.900497 0.250000 0.921094
O O18 0.000000 0.000000 0.000000
O O19 0.359718 0.250000 0.860633
#
# Coordination Sequence:
#
# PCOD9168214 Si02
#       7
#     4   4   4   4   4   4   4
#     4  10  22  39  61  91 126 166 207 256 314 372
#     4  10  22  43  66  92 126 164 210 262 316 377
#     4  11  24  42  64  92 130 173 216 263 314 378
#     4  11  24  43  67  96 128 167 211 263 321 382
#     4  12  27  46  68  94 127 168 214 265 320 384
#     4  10  21  39  63  91 123 160 203 251 306 365
#     4  10  22  39  64  96 125 163 209 260 317 373
#
# _framework density 19.957787
#
# number of rings (size 3 to 8) (size 9 to 14) (size 15 to 20)
#    0.000    1.429    1.429    3.000    4.000    4.000 
#    0.000    0.000    0.000    0.000    0.000    0.000 
#    0.000    0.000    0.000    0.000    0.000    0.000 
#
# Total GULP energy -156485.551292 kJ/mol
# GULP energy per Si atom -5588.769689 kJ/mol
# Density = 1.991236 g / cm^3
# Si number density = 19.957787 Si / 1000 Ang^3
#
#
#
# Elastic Constant Matrix: (Units=GPa)
#
#
# Indices 1 2 3 4 5 6 
#
# 1 72.4775 32.4959 7.4801 0.0000 -5.4277 0.0000
# 2 32.4959 93.7101 24.6416 0.0000 -5.0272 0.0000
# 3 7.4801 24.6416 19.8533 0.0000 -32.0940 0.0000
# 4 0.0000 0.0000 0.0000 30.7091 0.0000 -3.5294
# 5 -5.4277 -5.0272 -32.0940 0.0000 19.2038 0.0000
# 6 0.0000 0.0000 0.0000 -3.5294 0.0000 28.3948
#
#
#
# Elastic Compliance Matrix: (Units=1/GPa)
#
#
# Indices 1 2 3 4 5 6 
#
# 1 0.016168 -0.004891 -0.003112 0.000000 -0.001912 0.000000
# 2 -0.004891 0.011459 0.005739 0.000000 0.011209 0.000000
# 3 -0.003112 0.005739 -0.026695 0.000000 -0.043991 0.000000
# 4 0.000000 0.000000 0.000000 0.033036 0.000000 0.004106
# 5 -0.001912 0.011209 -0.043991 0.000000 -0.019052 0.000000
# 6 0.000000 0.000000 0.000000 0.004106 0.000000 0.035728
#
#
# Mechanical properties :
#
#
# Convention : Reuss Voigt Hill
#
# Bulk Modulus (GPa) = -278.08382 35.03068 -121.52657
# Shear Modulus (GPa) = 92.63789 23.75643 58.19716
#
# Velocity S-wave (km/s) = 6.82039 3.45386 5.40587
# Velocity P-wave (km/s) = 8.80993 5.78758 4.69675
#
# Compressibility (1/GPa) = -0.00359604
#
# Stress axis : x y z
#
# Youngs Moduli (GPa) = 61.84958 87.26454 -37.46000
#
# Poissons Ratio (x) = 0.42680 -0.11659
# Poissons Ratio (y) = 0.30250 0.21498
# Poissons Ratio (z) = 0.19250 -0.50081
#
# Static dielectric constant tensor:
#      x y z
#    x 1.581820 0.000000 -0.022360 
#    y 0.000000 1.662990 0.000000 
#    z -0.022360 0.000000 1.708990 
# 
# From -- ./inp_files/38401.got.cif
#   From: 2010.05.17/outbox.ucp.g08.bks.cvg/sg11_20_cif.got.tgz:38401.got - 2010.06.11 11:38:39.
