data_PCOD9168174
_publ_section_title
;
Structure prediction by ZEFSAII (Michael W. Deem and Ramdas Pophale) SiO2 
 PCOD9168174
Probable space group: P 21/M
;
_chemical_formula_sum "Si O2"
_cell_formula_units_Z 28
_cell_length_a 12.000000
_cell_length_b 9.000000
_cell_length_c 15.000000
_cell_angle_alpha 90.000000
_cell_angle_beta 60.000000
_cell_angle_gamma 90.000000
_cell_volume 1402.961154
_symmetry_space_group_name_H-M "P 21/M"
_symmetry_group_IT_number 11
_symmetry_cell_setting 'monoclinic'
loop_
_space_group_symop_operation_xyz
x,y,z
-x,1/2+y,-z
-x,-y,-z
x,1/2-y,z
loop_
_atom_site_type_symbol
_atom_site_label
_atom_site_fract_x
_atom_site_fract_y
_atom_site_fract_z
Si Si1 0.543111 0.575025 0.072795
Si Si2 0.380257 0.071996 0.291318
Si Si3 0.156702 0.417792 0.017821
Si Si4 0.081922 0.429693 0.387371
Si Si5 0.136696 0.926160 0.651359
Si Si6 0.910578 0.583114 0.161375
Si Si7 0.594795 0.428888 0.533722
O O1 0.511363 0.750000 0.090330
O O2 0.471098 0.485264 0.177607
O O3 0.696505 0.561605 0.017274
O O4 0.500000 0.500000 0.000000
O O5 0.383748 0.250000 0.298573
O O6 0.231403 0.027347 0.331248
O O7 0.431515 0.993170 0.359096
O O8 0.115685 0.250000 0.061073
O O9 0.142246 0.427694 0.917083
O O10 0.058960 0.534773 0.097587
O O11 0.077739 0.250000 0.395611
O O12 0.000000 0.500000 0.500000
O O13 0.000813 0.476548 0.332375
O O14 0.135851 0.750000 0.647455
O O15 0.258159 0.977129 0.545549
O O16 0.158457 0.976451 0.742721
O O17 0.895926 0.750000 0.199625
O O18 0.500000 0.500000 0.500000
O O19 0.586139 0.250000 0.535006
#
# Coordination Sequence:
#
# PCOD9168174 Si02
#       7
#     4   4   4   4   4   4   4
#     4  11  25  44  65  90 123 165 209 258 310 370
#     4  11  24  42  65  94 125 164 208 257 313 371
#     4   9  21  42  62  84 119 158 198 248 308 363
#     4  10  21  39  62  87 120 157 199 248 299 356
#     4  10  22  39  60  89 123 161 198 245 306 363
#     4  10  21  37  62  93 118 152 199 251 303 360
#     4  11  24  42  64  92 128 168 210 256 307 370
#
# _framework density 19.957787
#
# number of rings (size 3 to 8) (size 9 to 14) (size 15 to 20)
#    0.000    1.714    1.429    1.714    4.000    4.000 
#    0.000    0.000    0.000    0.000    0.000    0.000 
#    0.000    0.000    0.000    0.000    0.000    0.000 
#
# Total GULP energy -156292.479554 kJ/mol
# GULP energy per Si atom -5581.874270 kJ/mol
# Density = 1.991236 g / cm^3
# Si number density = 19.957787 Si / 1000 Ang^3
#
#
#
# Elastic Constant Matrix: (Units=GPa)
#
#
# Indices 1 2 3 4 5 6 
#
# 1 92.7806 43.2399 19.1384 0.0000 21.1201 0.0000
# 2 43.2399 1.6341 -0.5262 0.0000 11.2514 0.0000
# 3 19.1384 -0.5262 53.2423 0.0000 24.0324 0.0000
# 4 0.0000 0.0000 0.0000 31.9251 0.0000 -1.8723
# 5 21.1201 11.2514 24.0324 0.0000 -4.6047 0.0000
# 6 0.0000 0.0000 0.0000 -1.8723 0.0000 23.6673
#
#
#
# Elastic Compliance Matrix: (Units=1/GPa)
#
#
# Indices 1 2 3 4 5 6 
#
# 1 -0.005644 0.029250 -0.005441 0.000000 0.017189 0.000000
# 2 0.029250 -0.053264 -0.003830 0.000000 -0.015976 0.000000
# 3 -0.005441 -0.003830 0.010784 0.000000 0.021969 0.000000
# 4 0.000000 0.000000 0.000000 0.031469 0.000000 0.002490
# 5 0.017189 -0.015976 0.021969 0.000000 -0.062709 0.000000
# 6 0.000000 0.000000 0.000000 0.002490 0.000000 0.042449
#
#
# Mechanical properties :
#
#
# Convention : Reuss Voigt Hill
#
# Bulk Modulus (GPa) = -122.47479 30.15125 -46.16177
# Shear Modulus (GPa) = -62.81623 15.91785 -23.44919
#
# Velocity S-wave (km/s) = -5.61630 2.82720 -3.43146
# Velocity P-wave (km/s) = 10.17631 5.07915 6.23537
#
# Compressibility (1/GPa) = -0.00816495
#
# Stress axis : x y z
#
# Youngs Moduli (GPa) = -177.17183 -18.77425 92.73385
#
# Poissons Ratio (x) = 0.54915 0.50453
# Poissons Ratio (y) = 5.18231 0.35513
# Poissons Ratio (z) = -0.96392 -0.07190
#
# Static dielectric constant tensor:
#      x y z
#    x 1.694390 0.000000 -0.000780 
#    y 0.000000 1.692190 0.000000 
#    z -0.000780 0.000000 1.672770 
# 
# From -- ./inp_files/49150.got.cif
#   From: 2010.05.17/outbox.ucp.g08.bks.cvg/sg11_25_cif.got.tgz:49150.got - 2010.06.11 11:38:39.
