data_PCOD9168386
_publ_section_title
;
Structure prediction by ZEFSAII (Michael W. Deem and Ramdas Pophale) SiO2 
 PCOD9168386
Probable space group: C 2/M
;
_chemical_formula_sum "Si O2"
_cell_formula_units_Z 44
_cell_length_a 20.690586
_cell_length_b 7.685376
_cell_length_c 13.489148
_cell_angle_alpha 90.000000
_cell_angle_beta 104.260218
_cell_angle_gamma 90.000000
_cell_volume 2078.882813
_symmetry_space_group_name_H-M "C 2/M"
_symmetry_group_IT_number 12
_symmetry_cell_setting 'monoclinic'
loop_
_space_group_symop_operation_xyz
x,y,z
-x,y,-z
-x,-y,-z
x,-y,z
1/2+x,1/2+y,z
1/2-x,1/2+y,-z
1/2-x,1/2-y,-z
1/2+x,1/2-y,z
loop_
_atom_site_type_symbol
_atom_site_label
_atom_site_fract_x
_atom_site_fract_y
_atom_site_fract_z
Si Si1 0.291031 0.288286 0.809180
Si Si2 0.854851 0.804461 0.032663
Si Si3 0.432111 0.714815 0.778273
Si Si4 0.000000 0.249648 0.000000
Si Si5 0.354548 0.199479 0.254919
Si Si6 0.994179 0.799540 0.388877
O O1 0.287849 0.500000 0.814685
O O2 0.354085 0.248722 0.764113
O O3 0.218683 0.228189 0.747477
O O4 0.309307 0.228498 0.927710
O O5 0.857753 0.704384 0.136439
O O6 0.928800 0.820255 0.013428
O O7 0.832187 0.000000 0.047622
O O8 0.442245 0.500000 0.794386
O O9 0.471670 0.808420 0.882292
O O10 0.461374 0.771552 0.684280
O O11 0.418039 0.294850 0.323369
O O12 0.359032 0.000000 0.290153
O O13 0.000000 0.718534 0.500000
O O14 0.016556 0.000000 0.406709
#
# Coordination Sequence:
#
# PCOD9168386 Si02
#       6
#     8   8   8   4   8   8
#     4   8  17  30  49  76 105 139 173 205 248 310
#     4  10  17  29  51  77 104 137 179 212 244 297
#     4   9  15  28  51  77 101 127 172 217 248 293
#     4  10  15  24  51  82  99 126 171 216 251 288
#     4  11  21  33  49  75 109 140 168 205 264 317
#     4  10  21  37  58  79  97 128 179 228 258 290
#
# _framework density 21.165213000000001
#
# number of rings (size 3 to 8) (size 9 to 14) (size 15 to 20)
#    0.000    2.364    1.818    3.818    0.000    0.364 
#    0.000    2.273    0.000    2.182    0.000    0.000 
#    0.000    0.000    0.000    0.000    0.000    0.000 
#
# Total GULP energy -122503.490712 kJ/mol
# GULP energy per Si atom -5568.340487 kJ/mol
# Density = 2.111704 g / cm^3
# Si number density = 21.165213 Si / 1000 Ang^3
#
#
#
# Elastic Constant Matrix: (Units=GPa)
#
#
# Indices 1 2 3 4 5 6 
#
# 1 130.5654 0.1275 67.4971 0.0000 -8.0262 0.0000
# 2 0.1275 45.9209 3.3969 0.0000 -6.6215 0.0000
# 3 67.4971 3.3969 141.0430 0.0000 -24.5336 0.0000
# 4 0.0000 0.0000 0.0000 37.3031 0.0000 -11.1367
# 5 -8.0262 -6.6215 -24.5336 0.0000 22.0901 0.0000
# 6 0.0000 0.0000 0.0000 -11.1367 0.0000 3.3407
#
#
#
# Elastic Compliance Matrix: (Units=1/GPa)
#
#
# Indices 1 2 3 4 5 6 
#
# 1 0.010258 0.000056 -0.005279 0.000000 -0.002119 0.000000
# 2 0.000056 0.022832 0.000765 0.000000 0.007714 0.000000
# 3 -0.005279 0.000765 0.011532 0.000000 0.011119 0.000000
# 4 0.000000 0.000000 0.000000 5.633352 0.000000 18.779559
# 5 -0.002119 0.007714 0.011119 0.000000 0.059160 0.000000
# 6 0.000000 0.000000 0.000000 18.779559 0.000000 62.903605
#
#
# Mechanical properties :
#
#
# Convention : Reuss Voigt Hill
#
# Bulk Modulus (GPa) = 28.00584 51.06360 39.53472
# Shear Modulus (GPa) = 0.07282 28.98064 14.52673
#
# Velocity S-wave (km/s) = 0.18569 3.70436 2.62267
# Velocity P-wave (km/s) = 3.64784 6.51728 5.28118
#
# Compressibility (1/GPa) = 0.03570683
#
# Stress axis : x y z
#
# Youngs Moduli (GPa) = 97.48869 43.79787 86.71649
#
# Poissons Ratio (x) = -0.00247 0.45775
# Poissons Ratio (y) = -0.00551 -0.06633
# Poissons Ratio (z) = 0.51462 -0.03350
#
# Static dielectric constant tensor:
#      x y z
#    x 1.767250 0.000000 -0.012250 
#    y 0.000000 1.827350 0.000000 
#    z -0.012250 0.000000 1.741820 
# 
# From -- ./inp_files/163236.got.cif
#   From: 2010.05.17/outbox.cif.g08.bks.cpg/sg12_82_cif.got.tgz:163236.got - 2010.06.03 13:09:07.
