data_PCOD9168276
_publ_section_title
;
Structure prediction by ZEFSAII (Michael W. Deem and Ramdas Pophale) SiO2 
 PCOD9168276
Probable space group: P 21/M
;
_chemical_formula_sum "Si O2"
_cell_formula_units_Z 32
_cell_length_a 12.000000
_cell_length_b 18.000000
_cell_length_c 15.000000
_cell_angle_alpha 90.000000
_cell_angle_beta 150.000000
_cell_angle_gamma 90.000000
_cell_volume 1620.000000
_symmetry_space_group_name_H-M "P 21/M"
_symmetry_group_IT_number 11
_symmetry_cell_setting 'monoclinic'
loop_
_space_group_symop_operation_xyz
x,y,z
-x,1/2+y,-z
-x,-y,-z
x,1/2-y,z
loop_
_atom_site_type_symbol
_atom_site_label
_atom_site_fract_x
_atom_site_fract_y
_atom_site_fract_z
Si Si1 0.714855 0.839352 0.112499
Si Si2 0.702583 0.100241 0.288814
Si Si3 0.946279 0.082045 0.155014
Si Si4 0.581688 0.338050 0.397798
Si Si5 0.591041 0.924349 0.208353
Si Si6 0.953152 0.661698 0.964821
Si Si7 0.094635 0.909868 0.249455
Si Si8 0.111534 0.340752 0.452565
O O1 0.727136 0.750000 0.133033
O O2 0.689011 0.881584 0.189295
O O3 0.919117 0.869443 0.194685
O O4 0.500293 0.862362 0.905694
O O5 0.687041 0.128824 0.379826
O O6 0.919541 0.129551 0.387161
O O7 0.676350 0.010238 0.268709
O O8 0.986270 0.123916 0.088179
O O9 0.052155 0.126867 0.312854
O O10 0.047082 0.998306 0.219989
O O11 0.678475 0.075281 0.984403
O O12 0.636851 0.250000 0.443968
O O13 0.314295 0.344432 0.207243
O O14 0.672765 0.384342 0.545289
O O15 0.670954 0.879276 0.351872
O O16 0.009496 0.750000 0.003161
O O17 0.062271 0.621222 0.126569
O O18 0.121491 0.250000 0.458496
#
# Coordination Sequence:
#
# PCOD9168276 Si02
#       8
#     4   4   4   4   4   4   4   4
#     4  12  22  38  68  98 130 171 216 266 326 386
#     4  12  22  42  68  97 133 172 215 270 331 388
#     4  12  26  45  67  95 134 177 219 266 325 393
#     4  11  23  41  67  98 129 166 217 276 332 382
#     4  12  25  44  66  98 136 177 218 265 325 395
#     4  11  25  44  66  94 129 170 221 274 324 384
#     4  12  24  43  70  98 130 168 218 275 334 388
#     4  12  26  42  65  97 134 177 222 267 323 391
#
# _framework density 19.753086
#
# number of rings (size 3 to 8) (size 9 to 14) (size 15 to 20)
#    0.000    0.250    3.750    6.375    0.000    3.000 
#    0.000    0.000    0.000    0.000    0.000    0.000 
#    0.000    0.000    0.000    0.000    0.000    0.000 
#
# Total GULP energy -179139.007478 kJ/mol
# GULP energy per Si atom -5598.093984 kJ/mol
# Density = 1.970813 g / cm^3
# Si number density = 19.753086 Si / 1000 Ang^3
#
#
#
# Elastic Constant Matrix: (Units=GPa)
#
#
# Indices 1 2 3 4 5 6 
#
# 1 114.2995 49.7113 12.2626 0.0000 -40.1660 0.0000
# 2 49.7113 204.4843 32.6898 0.0000 -28.1818 0.0000
# 3 12.2626 32.6898 94.1164 0.0000 -37.0918 0.0000
# 4 0.0000 0.0000 0.0000 39.0511 0.0000 -8.2231
# 5 -40.1660 -28.1818 -37.0918 0.0000 40.2705 0.0000
# 6 0.0000 0.0000 0.0000 -8.2231 0.0000 41.3761
#
#
#
# Elastic Compliance Matrix: (Units=1/GPa)
#
#
# Indices 1 2 3 4 5 6 
#
# 1 0.016446 -0.002179 0.007030 0.000000 0.021353 0.000000
# 2 -0.002179 0.005723 -0.001542 0.000000 0.000412 0.000000
# 3 0.007030 -0.001542 0.019753 0.000000 0.024126 0.000000
# 4 0.000000 0.000000 0.000000 0.026726 0.000000 0.005311
# 5 0.021353 0.000412 0.024126 0.000000 0.068640 0.000000
# 6 0.000000 0.000000 0.000000 0.005311 0.000000 0.025224
#
#
# Mechanical properties :
#
#
# Convention : Reuss Voigt Hill
#
# Bulk Modulus (GPa) = 20.60147 66.91418 43.75783
# Shear Modulus (GPa) = 29.05703 45.35529 37.20616
#
# Velocity S-wave (km/s) = 3.83954 4.79697 4.34471
# Velocity P-wave (km/s) = 5.48710 8.03929 6.88253
#
# Compressibility (1/GPa) = 0.04854022
#
# Stress axis : x y z
#
# Youngs Moduli (GPa) = 60.80400 174.72391 50.62514
#
# Poissons Ratio (x) = 0.38073 -0.35587
# Poissons Ratio (y) = 0.13250 0.07805
# Poissons Ratio (z) = -0.42742 0.26937
#
# Static dielectric constant tensor:
#      x y z
#    x 1.676110 0.000000 0.027930 
#    y 0.000000 1.665830 0.000000 
#    z 0.027930 0.000000 1.752460 
# 
# From -- ./inp_files/50688.got.cif
#   From: 2010.05.17/outbox.ucp.g08.bks.cvg/sg11_26_cif.got.tgz:50688.got - 2010.06.11 11:38:39.
