data_PCOD9168110
_publ_section_title
;
Structure prediction by ZEFSAII (Michael W. Deem and Ramdas Pophale) SiO2 
 PCOD9168110
Probable space group: P 21/M
;
_chemical_formula_sum "Si O2"
_cell_formula_units_Z 28
_cell_length_a 30.000000
_cell_length_b 9.000000
_cell_length_c 30.000000
_cell_angle_alpha 90.000000
_cell_angle_beta 10.000000
_cell_angle_gamma 90.000000
_cell_volume 1406.550239
_symmetry_space_group_name_H-M "P 21/M"
_symmetry_group_IT_number 11
_symmetry_cell_setting 'monoclinic'
loop_
_space_group_symop_operation_xyz
x,y,z
-x,1/2+y,-z
-x,-y,-z
x,1/2-y,z
loop_
_atom_site_type_symbol
_atom_site_label
_atom_site_fract_x
_atom_site_fract_y
_atom_site_fract_z
Si Si1 0.983571 0.427655 0.614139
Si Si2 0.457754 0.069873 0.089594
Si Si3 0.752310 0.415910 0.564978
Si Si4 0.276779 0.250000 0.561505
Si Si5 0.530550 0.420518 0.386682
Si Si6 0.222014 0.424114 0.037160
Si Si7 0.041781 0.571223 0.910408
Si Si8 0.257599 0.750000 0.954921
O O1 0.974418 0.250000 0.622983
O O2 0.182517 0.476308 0.379985
O O3 0.118580 0.476597 0.526603
O O4 0.693748 0.478615 0.889393
O O5 0.462425 0.250000 0.082280
O O6 0.500000 0.000000 0.000000
O O7 0.761133 0.250000 0.575808
O O8 0.461577 0.442868 0.835442
O O9 0.944667 0.419195 0.333601
O O10 0.389818 0.389088 0.478218
O O11 0.442010 0.250000 0.354116
O O12 0.971589 0.250000 0.856609
O O13 0.563997 0.250000 0.372080
O O14 0.322078 0.515400 0.619027
O O15 0.805175 0.501135 0.114944
O O16 0.258136 0.250000 0.982857
O O17 0.221287 0.583880 0.012039
O O18 0.027937 0.750000 0.924283
O O19 0.000000 0.500000 0.000000
#
# Coordination Sequence:
#
# PCOD9168110 Si02
#       8
#     4   4   4   2   4   4   4   2
#     4  10  21  34  54  79 109 140 189 234 286 353
#     4  10  21  36  51  75 104 143 188 242 279 333
#     4  10  21  38  57  85 122 154 183 242 306 360
#     4  10  24  42  68  88 126 164 218 250 310 384
#     4  10  22  42  63  85 129 168 204 273 314 360
#     4  10  23  39  60  93 127 150 201 253 296 376
#     4  12  23  38  62  96 128 171 216 264 327 385
#     4  12  22  42  70  96 114 180 206 248 332 364
#
# _framework density 19.906860999999999
#
# number of rings (size 3 to 8) (size 9 to 14) (size 15 to 20)
#    0.429    1.143    0.000    5.143    2.000    1.143 
#    0.000    4.286    0.000    0.000    0.000    0.000 
#    0.000    0.000    0.000    0.000    0.000    0.000 
#
# Total GULP energy -155999.471247 kJ/mol
# GULP energy per Si atom -5571.409687 kJ/mol
# Density = 1.986155 g / cm^3
# Si number density = 19.906861 Si / 1000 Ang^3
#
#
#
# Elastic Constant Matrix: (Units=GPa)
#
#
# Indices 1 2 3 4 5 6 
#
# 1 26.9099 15.1631 -14.8306 0.0000 -10.2468 0.0000
# 2 15.1631 101.0595 7.1343 0.0000 2.8664 0.0000
# 3 -14.8306 7.1343 60.8466 0.0000 -14.0889 0.0000
# 4 0.0000 0.0000 0.0000 32.3517 0.0000 -3.5304
# 5 -10.2468 2.8664 -14.0889 0.0000 35.5792 0.0000
# 6 0.0000 0.0000 0.0000 -3.5304 0.0000 31.1903
#
#
#
# Elastic Compliance Matrix: (Units=1/GPa)
#
#
# Indices 1 2 3 4 5 6 
#
# 1 0.071689 -0.013543 0.026527 0.000000 0.032242 0.000000
# 2 -0.013543 0.012600 -0.006514 0.000000 -0.007495 0.000000
# 3 0.026527 -0.006514 0.028134 0.000000 0.019305 0.000000
# 4 0.000000 0.000000 0.000000 0.031297 0.000000 0.003542
# 5 0.032242 -0.007495 0.019305 0.000000 0.045640 0.000000
# 6 0.000000 0.000000 0.000000 0.003542 0.000000 0.032462
#
#
# Mechanical properties :
#
#
# Convention : Reuss Voigt Hill
#
# Bulk Modulus (GPa) = 7.97693 22.63885 15.30789
# Shear Modulus (GPa) = 19.94652 31.91420 25.93036
#
# Velocity S-wave (km/s) = 3.16886 4.00831 3.61305
# Velocity P-wave (km/s) = 4.17190 5.72880 5.01118
#
# Compressibility (1/GPa) = 0.12536156
#
# Stress axis : x y z
#
# Youngs Moduli (GPa) = 13.94917 79.36725 35.54401
#
# Poissons Ratio (x) = 1.07490 -0.94286
# Poissons Ratio (y) = 0.18892 0.23153
# Poissons Ratio (z) = -0.37003 0.51698
#
# Static dielectric constant tensor:
#      x y z
#    x 1.743880 0.000000 0.030010 
#    y 0.000000 1.706420 0.000000 
#    z 0.030010 0.000000 1.692830 
# 
# From -- ./inp_files/73873.got.cif
#   From: 2010.05.17/outbox.ucp.g08.bks.cvg/sg11_37_cif.got.tgz:73873.got - 2010.06.11 11:38:39.
