data_PCOD9168865
_publ_section_title
;
Structure prediction by ZEFSAII (Michael W. Deem and Ramdas Pophale) SiO2 
 PCOD9168865
Probable space group: C 2/M
;
_chemical_formula_sum "Si O2"
_cell_formula_units_Z 64
_cell_length_a 27.383253
_cell_length_b 26.829666
_cell_length_c 5.368064
_cell_angle_alpha 90.000000
_cell_angle_beta 90.000962
_cell_angle_gamma 90.000000
_cell_volume 3943.828219
_symmetry_space_group_name_H-M "C 2/M"
_symmetry_group_IT_number 12
_symmetry_cell_setting 'monoclinic'
loop_
_space_group_symop_operation_xyz
x,y,z
-x,y,-z
-x,-y,-z
x,-y,z
1/2+x,1/2+y,z
1/2-x,1/2+y,-z
1/2-x,1/2-y,-z
1/2+x,1/2-y,z
loop_
_atom_site_type_symbol
_atom_site_label
_atom_site_fract_x
_atom_site_fract_y
_atom_site_fract_z
Si Si1 0.025751 0.194896 0.250002
Si Si2 0.862569 0.786645 0.749984
Si Si3 0.318974 0.115892 0.250005
Si Si4 0.299015 0.615844 0.750007
Si Si5 0.870462 0.277814 0.249985
Si Si6 0.484381 0.806634 0.249998
Si Si7 0.700807 0.442625 0.749995
Si Si8 0.680387 0.942579 0.249994
O O1 0.083528 0.188562 0.250007
O O2 0.000000 0.175732 0.500000
O O3 0.015855 0.254952 0.250001
O O4 0.000000 0.175732 0.000000
O O5 0.822420 0.829688 0.749990
O O6 0.859391 0.753529 0.499791
O O7 0.859391 0.753526 0.000166
O O8 0.259930 0.118999 0.249996
O O9 0.340873 0.170947 0.249994
O O10 0.334215 0.086342 0.499287
O O11 0.334216 0.086338 0.000738
O O12 0.314052 0.586167 0.500618
O O13 0.314053 0.586172 0.999409
O O14 0.928042 0.291182 0.249992
O O15 0.500000 0.833966 0.500000
O O16 0.500000 0.833966 0.000000
O O17 0.684352 0.500000 0.750004
O O18 0.760177 0.443448 0.750003
O O19 0.664062 0.000000 0.250004
#
# Coordination Sequence:
#
# PCOD9168865 Si02
#       8
#     8   8   8   8   8   8   8   8
#     4  10  16  30  47  65  86 120 157 210 237 258
#     4  12  21  31  48  68  99 140 160 190 234 279
#     4  10  21  33  46  72 102 127 165 196 224 292
#     4  10  21  33  46  72 102 127 165 196 224 292
#     4  12  21  31  48  68  99 140 160 190 234 279
#     4  10  16  30  47  65  86 120 157 210 237 258
#     4   9  17  33  54  70  90 123 160 208 252 270
#     4   9  17  33  54  70  90 123 160 208 252 270
#
# _framework density 16.227888
#
# number of rings (size 3 to 8) (size 9 to 14) (size 15 to 20)
#    0.000    1.750    5.000    2.250    0.000    4.000 
#    0.000    0.000    0.000    0.000    0.000    0.000 
#    0.000   20.000    0.000    0.000    0.000    0.000 
#
# Total GULP energy -178422.696542 kJ/mol
# GULP energy per Si atom -5575.709267 kJ/mol
# Density = 1.619095 g / cm^3
# Si number density = 16.227888 Si / 1000 Ang^3
#
#
#
# Elastic Constant Matrix: (Units=GPa)
#
#
# Indices 1 2 3 4 5 6 
#
# 1 30.1538 31.3762 28.7814 0.0000 -0.0041 0.0000
# 2 31.3762 105.4497 82.4744 0.0000 -0.0112 0.0000
# 3 28.7814 82.4744 206.0916 0.0000 -0.0155 0.0000
# 4 0.0000 0.0000 0.0000 20.3079 0.0000 -0.0001
# 5 -0.0041 -0.0112 -0.0155 0.0000 9.4573 0.0000
# 6 0.0000 0.0000 0.0000 -0.0001 0.0000 -3.7906
#
#
#
# Elastic Compliance Matrix: (Units=1/GPa)
#
#
# Indices 1 2 3 4 5 6 
#
# 1 0.048330 -0.013248 -0.001448 0.000000 0.000003 0.000000
# 2 -0.013248 0.017435 -0.005127 0.000000 0.000007 0.000000
# 3 -0.001448 -0.005127 0.007106 0.000000 0.000005 0.000000
# 4 0.000000 0.000000 0.000000 0.049242 0.000000 -0.000001
# 5 0.000003 0.000007 0.000005 0.000000 0.105739 0.000000
# 6 0.000000 0.000000 0.000000 -0.000001 0.000000 -0.263812
#
#
# Mechanical properties :
#
#
# Convention : Reuss Voigt Hill
#
# Bulk Modulus (GPa) = 30.09729 69.66211 49.87970
# Shear Modulus (GPa) = 338.70893 18.46579 178.58736
#
# Velocity S-wave (km/s) = 14.46283 3.37694 10.50184
# Velocity P-wave (km/s) = 17.24775 7.63057 13.33624
#
# Compressibility (1/GPa) = 0.03322558
#
# Stress axis : x y z
#
# Youngs Moduli (GPa) = 20.69090 57.35538 140.72255
#
# Poissons Ratio (x) = 0.75986 0.20374
# Poissons Ratio (y) = 0.27412 0.72150
# Poissons Ratio (z) = 0.02996 0.29407
#
# Static dielectric constant tensor:
#      x y z
#    x 1.525340 0.000000 0.000000 
#    y 0.000000 1.507380 0.000000 
#    z 0.000000 0.000000 1.611860 
# 
# From -- ./inp_files/29503.got.cif
#   From: 2010.05.17/outbox.cif.g08.bks.cpg/sg12_15_cif.got.tgz:29503.got - 2010.06.03 13:09:07.
