data_PCOD9168085
_publ_section_title
;
Structure prediction by ZEFSAII (Michael W. Deem and Ramdas Pophale) SiO2 
 PCOD9168085
Probable space group: P 21/M
;
_chemical_formula_sum "Si O2"
_cell_formula_units_Z 32
_cell_length_a 12.000000
_cell_length_b 9.000000
_cell_length_c 30.000000
_cell_angle_alpha 90.000000
_cell_angle_beta 30.000000
_cell_angle_gamma 90.000000
_cell_volume 1620.000000
_symmetry_space_group_name_H-M "P 21/M"
_symmetry_group_IT_number 11
_symmetry_cell_setting 'monoclinic'
loop_
_space_group_symop_operation_xyz
x,y,z
-x,1/2+y,-z
-x,-y,-z
x,1/2-y,z
loop_
_atom_site_type_symbol
_atom_site_label
_atom_site_fract_x
_atom_site_fract_y
_atom_site_fract_z
Si Si1 0.348512 0.577095 0.987508
Si Si2 0.477146 0.071173 0.248229
Si Si3 0.079808 0.071305 0.324757
Si Si4 0.836173 0.927277 0.328032
Si Si5 0.359398 0.570452 0.470272
Si Si6 0.982246 0.073028 0.053925
Si Si7 0.216472 0.577012 0.135924
Si Si8 0.757904 0.072414 0.586601
O O1 0.342425 0.750000 0.977250
O O2 0.259154 0.558547 0.068906
O O3 0.184204 0.485867 0.013480
O O4 0.601722 0.520085 0.901109
O O5 0.458101 0.250000 0.259179
O O6 0.322393 0.029222 0.259400
O O7 0.735747 0.031808 0.156396
O O8 0.367795 0.992560 0.327932
O O9 0.075819 0.250000 0.322114
O O10 0.880626 0.024826 0.427664
O O11 0.998878 0.998561 0.307534
O O12 0.826776 0.750000 0.338500
O O13 0.583504 0.986539 0.416346
O O14 0.963124 0.954898 0.237528
O O15 0.363564 0.750000 0.472591
O O16 0.369038 0.533823 0.415024
O O17 0.991936 0.250000 0.047634
O O18 0.000000 0.000000 0.000000
O O19 0.260031 0.750000 0.131703
O O20 0.778403 0.250000 0.582050
O O21 0.000000 0.000000 0.500000
#
# Coordination Sequence:
#
# PCOD9168085 Si02
#       8
#     4   4   4   4   4   4   4   4
#     4  10  21  39  63  87 117 154 197 243 301 363
#     4  10  23  42  61  87 122 158 198 249 303 359
#     4  10  20  38  58  80 117 157 192 234 293 350
#     4  10  21  36  57  86 114 147 197 243 286 342
#     4   9  19  36  58  82 117 156 188 235 291 343
#     4  11  25  43  64  91 125 159 200 253 309 369
#     4   9  20  38  60  86 117 153 195 247 298 354
#     4  11  21  37  63  90 121 162 204 247 298 357
#
# _framework density 19.753086
#
# number of rings (size 3 to 8) (size 9 to 14) (size 15 to 20)
#    0.000    2.000    1.250    1.500    3.500    2.500 
#    0.000    1.250    0.000    0.000    0.000    0.000 
#    0.000    0.000    0.000    0.000    0.000    0.000 
#
# Total GULP energy -178550.659479 kJ/mol
# GULP energy per Si atom -5579.708109 kJ/mol
# Density = 1.970813 g / cm^3
# Si number density = 19.753086 Si / 1000 Ang^3
#
#
#
# Elastic Constant Matrix: (Units=GPa)
#
#
# Indices 1 2 3 4 5 6 
#
# 1 42.3108 23.2438 17.2953 0.0000 -9.9479 0.0000
# 2 23.2438 11.7323 34.1214 0.0000 -2.5376 0.0000
# 3 17.2953 34.1214 57.9220 0.0000 -7.1766 0.0000
# 4 0.0000 0.0000 0.0000 20.9252 0.0000 0.6194
# 5 -9.9479 -2.5376 -7.1766 0.0000 19.4344 0.0000
# 6 0.0000 0.0000 0.0000 0.6194 0.0000 28.9619
#
#
#
# Elastic Compliance Matrix: (Units=1/GPa)
#
#
# Indices 1 2 3 4 5 6 
#
# 1 0.017825 0.028794 -0.021681 0.000000 0.004878 0.000000
# 2 0.028794 -0.070826 0.035426 0.000000 0.018573 0.000000
# 3 -0.021681 0.035426 0.002166 0.000000 -0.005672 0.000000
# 4 0.000000 0.000000 0.000000 0.047820 0.000000 -0.001023
# 5 0.004878 0.018573 -0.005672 0.000000 0.054283 0.000000
# 6 0.000000 0.000000 0.000000 -0.001023 0.000000 0.034550
#
#
# Mechanical properties :
#
#
# Convention : Reuss Voigt Hill
#
# Bulk Modulus (GPa) = 29.20078 29.03180 29.11629
# Shear Modulus (GPa) = 411.37338 16.35127 213.86232
#
# Velocity S-wave (km/s) = 14.44679 2.88024 10.41647
# Velocity P-wave (km/s) = 17.12001 5.07842 12.62706
#
# Compressibility (1/GPa) = 0.03424566
#
# Stress axis : x y z
#
# Youngs Moduli (GPa) = 56.09956 -14.11921 461.58743
#
# Poissons Ratio (x) = 0.40655 10.00758
# Poissons Ratio (y) = -1.61535 -16.35222
# Poissons Ratio (z) = 1.21628 0.50019
#
# Static dielectric constant tensor:
#      x y z
#    x 1.684400 0.000000 0.039690 
#    y 0.000000 1.646820 0.000000 
#    z 0.039690 0.000000 1.710370 
# 
# From -- ./inp_files/73029.got.cif
#   From: 2010.05.17/outbox.ucp.g08.bks.cvg/sg11_37_cif.got.tgz:73029.got - 2010.06.11 11:38:39.
