data_PCOD9168664
_publ_section_title
;
Structure prediction by ZEFSAII (Michael W. Deem and Ramdas Pophale) SiO2 
 PCOD9168664
Probable space group: C 2/M
;
_chemical_formula_sum "Si O2"
_cell_formula_units_Z 40
_cell_length_a 8.671872
_cell_length_b 27.452828
_cell_length_c 16.013335
_cell_angle_alpha 90.000000
_cell_angle_beta 152.334109
_cell_angle_gamma 90.000000
_cell_volume 1770.085869
_symmetry_space_group_name_H-M "C 2/M"
_symmetry_group_IT_number 12
_symmetry_cell_setting 'monoclinic'
loop_
_space_group_symop_operation_xyz
x,y,z
-x,y,-z
-x,-y,-z
x,-y,z
1/2+x,1/2+y,z
1/2-x,1/2+y,-z
1/2-x,1/2-y,-z
1/2+x,1/2-y,z
loop_
_atom_site_type_symbol
_atom_site_label
_atom_site_fract_x
_atom_site_fract_y
_atom_site_fract_z
Si Si1 0.766976 0.500000 0.204825
Si Si2 0.734761 0.599389 0.796500
Si Si3 0.719680 0.793685 0.187989
Si Si4 0.393725 0.796843 0.683787
Si Si5 0.895170 0.598776 0.202534
Si Si6 0.401215 0.500000 0.205260
O O1 0.962447 0.550144 0.287009
O O2 0.572243 0.500000 0.197713
O O3 0.500000 0.500000 0.000000
O O4 0.589103 0.654175 0.722182
O O5 0.522051 0.550992 0.712017
O O6 0.929247 0.592643 0.802835
O O7 0.000000 0.601599 0.000000
O O8 0.502446 0.793692 0.168368
O O9 0.943566 0.745883 0.290525
O O10 0.500000 0.792276 0.000000
O O11 0.483023 0.851148 0.698504
O O12 0.000000 0.791455 0.500000
O O13 0.500000 0.603503 0.000000
O O14 0.000000 0.500000 0.000000
#
# Coordination Sequence:
#
# PCOD9168664 Si02
#       6
#     4   8   8   8   8   4
#     4  10  18  28  49  80 108 141 181 226 269 314
#     4   9  17  29  48  76 106 137 172 218 269 315
#     4  10  21  37  58  82 108 145 188 228 272 325
#     4  11  23  38  56  82 113 147 182 227 282 331
#     4  10  19  33  53  79 108 143 183 225 267 322
#     4  10  16  26  46  76 109 135 164 218 275 316
#
# _framework density 22.597774999999999
#
# number of rings (size 3 to 8) (size 9 to 14) (size 15 to 20)
#    0.000    2.000    0.000    7.200    0.000    4.800 
#    0.000    0.500    0.000    0.000    0.000    6.300 
#    0.000    0.000    0.000    0.000    0.000    0.000 
#
# Total GULP energy -111729.264238 kJ/mol
# GULP energy per Si atom -5586.463212 kJ/mol
# Density = 2.254634 g / cm^3
# Si number density = 22.597775 Si / 1000 Ang^3
#
#
#
# Elastic Constant Matrix: (Units=GPa)
#
#
# Indices 1 2 3 4 5 6 
#
# 1 116.7764 87.1460 9.8367 0.0000 -1.1396 0.0000
# 2 87.1460 273.3953 12.7010 0.0000 16.7383 0.0000
# 3 9.8367 12.7010 37.2681 0.0000 -11.1276 0.0000
# 4 0.0000 0.0000 0.0000 -15.7656 0.0000 15.2428
# 5 -1.1396 16.7383 -11.1276 0.0000 21.3094 0.0000
# 6 0.0000 0.0000 0.0000 15.2428 0.0000 42.3348
#
#
#
# Elastic Compliance Matrix: (Units=1/GPa)
#
#
# Indices 1 2 3 4 5 6 
#
# 1 0.011521 -0.003834 -0.000771 0.000000 0.003225 0.000000
# 2 -0.003834 0.005347 -0.002518 0.000000 -0.005720 0.000000
# 3 -0.000771 -0.002518 0.033732 0.000000 0.019551 0.000000
# 4 0.000000 0.000000 0.000000 -0.047050 0.000000 0.016941
# 5 0.003225 -0.005720 0.019551 0.000000 0.061803 0.000000
# 6 0.000000 0.000000 0.000000 0.016941 0.000000 0.017522
#
#
# Mechanical properties :
#
#
# Convention : Reuss Voigt Hill
#
# Bulk Modulus (GPa) = 27.50807 71.86747 49.68777
# Shear Modulus (GPa) = 45.77117 30.75946 38.26531
#
# Velocity S-wave (km/s) = 4.50541 3.69341 4.11946
# Velocity P-wave (km/s) = 6.26612 7.07533 6.68298
#
# Compressibility (1/GPa) = 0.03635297
#
# Stress axis : x y z
#
# Youngs Moduli (GPa) = 86.79825 187.02115 29.64535
#
# Poissons Ratio (x) = 0.71703 0.02287
# Poissons Ratio (y) = 0.33278 0.07465
# Poissons Ratio (z) = 0.06695 0.47096
#
# Static dielectric constant tensor:
#      x y z
#    x 1.792380 0.000000 -0.032000 
#    y 0.000000 1.903420 0.000000 
#    z -0.032000 0.000000 1.880570 
# 
# From -- ./inp_files/259647.got.cif
#   From: 2010.05.17/outbox.cif.g08.bks.cpg/sg12_130_cif.got.tgz:259647.got - 2010.06.03 13:09:07.
