data_PCOD9168223
_publ_section_title
;
Structure prediction by ZEFSAII (Michael W. Deem and Ramdas Pophale) SiO2 
 PCOD9168223
Probable space group: P 21/M
;
_chemical_formula_sum "Si O2"
_cell_formula_units_Z 28
_cell_length_a 9.000000
_cell_length_b 15.000000
_cell_length_c 12.000000
_cell_angle_alpha 90.000000
_cell_angle_beta 120.000000
_cell_angle_gamma 90.000000
_cell_volume 1402.961154
_symmetry_space_group_name_H-M "P 21/M"
_symmetry_group_IT_number 11
_symmetry_cell_setting 'monoclinic'
loop_
_space_group_symop_operation_xyz
x,y,z
-x,1/2+y,-z
-x,-y,-z
x,1/2-y,z
loop_
_atom_site_type_symbol
_atom_site_label
_atom_site_fract_x
_atom_site_fract_y
_atom_site_fract_z
Si Si1 0.143825 0.521371 0.958164
Si Si2 0.414522 0.980086 0.247273
Si Si3 0.022950 0.586855 0.675272
Si Si4 0.357107 0.644235 0.659759
Si Si5 0.806719 0.417776 0.628970
Si Si6 0.267034 0.151345 0.602670
Si Si7 0.140801 0.153576 0.812677
O O1 0.068456 0.584647 0.827835
O O2 0.192904 0.431035 0.907644
O O3 0.307474 0.549483 0.096455
O O4 0.000000 0.500000 0.000000
O O5 0.299968 0.967777 0.315313
O O6 0.584842 0.922690 0.338985
O O7 0.479138 0.081521 0.255972
O O8 0.199876 0.610150 0.678990
O O9 0.940726 0.489153 0.627884
O O10 0.875700 0.641004 0.549616
O O11 0.382059 0.750000 0.684898
O O12 0.301901 0.624557 0.510897
O O13 0.933623 0.348944 0.735877
O O14 0.344275 0.250000 0.617097
O O15 0.191006 0.147984 0.700264
O O16 0.203960 0.250000 0.877592
#
# Coordination Sequence:
#
# PCOD9168223 Si02
#       7
#     4   4   4   4   4   4   4
#     4  11  24  44  66  94 134 182 222 266 340 403
#     4  12  25  44  66 101 142 178 218 277 337 400
#     4  11  22  43  71  94 127 175 224 274 326 399
#     4  12  25  41  68 104 136 173 224 282 336 393
#     4  11  21  40  69  96 132 172 223 278 334 384
#     4  11  24  43  71 105 134 170 226 285 337 392
#     4  10  21  40  69  95 125 175 230 273 323 399
#
# _framework density 19.957787
#
# number of rings (size 3 to 8) (size 9 to 14) (size 15 to 20)
#    0.000    0.857    5.714    3.429    0.000    4.000 
#    0.000    5.000    0.000    0.000    0.000    0.000 
#    0.000    0.000    0.000    0.000    0.000    0.000 
#
# Total GULP energy -156049.668383 kJ/mol
# GULP energy per Si atom -5573.202442 kJ/mol
# Density = 1.991236 g / cm^3
# Si number density = 19.957787 Si / 1000 Ang^3
#
#
#
# Elastic Constant Matrix: (Units=GPa)
#
#
# Indices 1 2 3 4 5 6 
#
# 1 84.8706 39.4906 26.8588 0.0000 -4.9832 0.0000
# 2 39.4906 116.5357 11.9476 0.0000 -7.3396 0.0000
# 3 26.8588 11.9476 133.2382 0.0000 -10.4341 0.0000
# 4 0.0000 0.0000 0.0000 26.3148 0.0000 -0.0033
# 5 -4.9832 -7.3396 -10.4341 0.0000 32.8881 0.0000
# 6 0.0000 0.0000 0.0000 -0.0033 0.0000 10.3946
#
#
#
# Elastic Compliance Matrix: (Units=1/GPa)
#
#
# Indices 1 2 3 4 5 6 
#
# 1 0.014809 -0.004735 -0.002531 0.000000 0.000384 0.000000
# 2 -0.004735 0.010271 0.000161 0.000000 0.001626 0.000000
# 3 -0.002531 0.000161 0.008177 0.000000 0.002247 0.000000
# 4 0.000000 0.000000 0.000000 0.038001 0.000000 0.000012
# 5 0.000384 0.001626 0.002247 0.000000 0.031540 0.000000
# 6 0.000000 0.000000 0.000000 0.000012 0.000000 0.096204
#
#
# Mechanical properties :
#
#
# Convention : Reuss Voigt Hill
#
# Bulk Modulus (GPa) = 52.49801 54.58205 53.54003
# Shear Modulus (GPa) = 22.77262 31.00934 26.89098
#
# Velocity S-wave (km/s) = 3.38159 3.94604 3.67467
# Velocity P-wave (km/s) = 6.45047 6.94044 6.69993
#
# Compressibility (1/GPa) = 0.01904834
#
# Stress axis : x y z
#
# Youngs Moduli (GPa) = 67.52571 97.35723 122.29396
#
# Poissons Ratio (x) = 0.46096 0.30948
# Poissons Ratio (y) = 0.31972 -0.01966
# Poissons Ratio (z) = 0.17088 -0.01565
#
# Static dielectric constant tensor:
#      x y z
#    x 1.738720 0.000000 0.013580 
#    y 0.000000 1.773650 0.000000 
#    z 0.013580 0.000000 1.713680 
# 
# From -- ./inp_files/31945.got.cif
#   From: 2010.05.17/outbox.ucp.g08.bks.cvg/sg11_16_cif.got.tgz:31945.got - 2010.06.11 11:38:39.
