data_PCOD9168318
_publ_section_title
;
Structure prediction by ZEFSAII (Michael W. Deem and Ramdas Pophale) SiO2 
 PCOD9168318
Probable space group: C 2/M
;
_chemical_formula_sum "Si O2"
_cell_formula_units_Z 48
_cell_length_a 20.979146
_cell_length_b 16.117683
_cell_length_c 6.971015
_cell_angle_alpha 90.000000
_cell_angle_beta 65.000903
_cell_angle_gamma 90.000000
_cell_volume 2136.315225
_symmetry_space_group_name_H-M "C 2/M"
_symmetry_group_IT_number 12
_symmetry_cell_setting 'monoclinic'
loop_
_space_group_symop_operation_xyz
x,y,z
-x,y,-z
-x,-y,-z
x,-y,z
1/2+x,1/2+y,z
1/2-x,1/2+y,-z
1/2-x,1/2-y,-z
1/2+x,1/2-y,z
loop_
_atom_site_type_symbol
_atom_site_label
_atom_site_fract_x
_atom_site_fract_y
_atom_site_fract_z
Si Si1 0.509363 0.674929 0.752637
Si Si2 0.054717 0.000000 0.751689
Si Si3 0.210799 0.672940 0.846833
Si Si4 0.804570 0.500000 0.906575
Si Si5 0.069410 0.500000 0.528563
Si Si6 0.835209 0.000000 0.072290
Si Si7 0.147363 0.825670 0.171355
Si Si8 0.071661 0.663205 0.774541
O O1 0.541381 0.585416 0.657646
O O2 0.436017 0.692438 0.738546
O O3 0.559340 0.753526 0.668719
O O4 0.500000 0.669589 0.000000
O O5 0.128106 0.000000 0.769430
O O6 0.000000 0.000000 0.000000
O O7 0.296948 0.675738 0.720069
O O8 0.149533 0.669092 0.766285
O O9 0.202787 0.584919 0.966636
O O10 0.184441 0.755292 0.992756
O O11 0.876049 0.500000 0.709709
O O12 0.747733 0.500000 0.808936
O O13 0.073332 0.580984 0.650703
O O14 0.000000 0.500000 0.500000
O O15 0.852562 0.082850 0.928940
O O16 0.000000 0.657791 0.000000
#
# Coordination Sequence:
#
# PCOD9168318 Si02
#       8
#     8   4   8   4   4   4   8   8
#     4  10  16  27  49  85 114 134 172 224 280 321
#     4  10  14  24  50  80 114 130 169 218 284 324
#     4  10  19  33  55  81 112 144 180 231 280 322
#     4  10  23  36  51  79 112 150 183 227 287 331
#     4  12  26  39  56  77 108 155 199 231 281 332
#     4  10  16  29  50  82 115 139 168 225 279 333
#     4  10  17  28  51  83 115 139 174 225 282 326
#     4  11  20  36  57  82 109 142 192 238 277 321
#
# _framework density 22.468594
#
# number of rings (size 3 to 8) (size 9 to 14) (size 15 to 20)
#    0.000    1.667    6.667    1.750    0.000    0.000 
#    0.000    0.000    0.000   16.000    0.000    1.750 
#    0.000    0.000    0.000    0.000    0.000    0.000 
#
# Total GULP energy -133707.450636 kJ/mol
# GULP energy per Si atom -5571.143776 kJ/mol
# Density = 2.241745 g / cm^3
# Si number density = 22.468594 Si / 1000 Ang^3
#
#
#
# Elastic Constant Matrix: (Units=GPa)
#
#
# Indices 1 2 3 4 5 6 
#
# 1 292.0346 53.3451 25.5119 0.0000 6.5515 0.0000
# 2 53.3451 182.9861 6.0305 0.0000 11.2539 0.0000
# 3 25.5119 6.0305 16.1535 0.0000 3.2364 0.0000
# 4 0.0000 0.0000 0.0000 0.4463 0.0000 1.4252
# 5 6.5515 11.2539 3.2364 0.0000 27.7900 0.0000
# 6 0.0000 0.0000 0.0000 1.4252 0.0000 47.6857
#
#
#
# Elastic Compliance Matrix: (Units=1/GPa)
#
#
# Indices 1 2 3 4 5 6 
#
# 1 0.004148 -0.001014 -0.006204 0.000000 0.000155 0.000000
# 2 -0.001014 0.005897 -0.000173 0.000000 -0.002129 0.000000
# 3 -0.006204 -0.000173 0.073168 0.000000 -0.006989 0.000000
# 4 0.000000 0.000000 0.000000 2.476815 0.000000 -0.074027
# 5 0.000155 -0.002129 -0.006989 0.000000 0.037624 0.000000
# 6 0.000000 0.000000 0.000000 -0.074027 0.000000 0.023183
#
#
# Mechanical properties :
#
#
# Convention : Reuss Voigt Hill
#
# Bulk Modulus (GPa) = 14.61313 73.43881 44.02597
# Shear Modulus (GPa) = 1.88081 42.27018 22.07549
#
# Velocity S-wave (km/s) = 0.91592 4.34210 3.13789
# Velocity P-wave (km/s) = 2.76341 7.60884 5.72411
#
# Compressibility (1/GPa) = 0.06843161
#
# Stress axis : x y z
#
# Youngs Moduli (GPa) = 241.08048 169.57089 13.66713
#
# Poissons Ratio (x) = 0.17201 0.08478
# Poissons Ratio (y) = 0.24454 0.00237
# Poissons Ratio (z) = 1.49555 0.02934
#
# Static dielectric constant tensor:
#      x y z
#    x 1.947220 0.000000 -0.010900 
#    y 0.000000 1.387490 0.000000 
#    z -0.010900 0.000000 1.858480 
# 
# From -- ./inp_files/85769.got.cif
#   From: 2010.05.17/outbox.cif.g08.bks.cpg/sg12_43_cif.got.tgz:85769.got - 2010.06.03 13:09:07.
