data_PCOD9168820
_publ_section_title
;
Structure prediction by ZEFSAII (Michael W. Deem and Ramdas Pophale) SiO2 
 PCOD9168820
Probable space group: C 2/M
;
_chemical_formula_sum "Si O2"
_cell_formula_units_Z 56
_cell_length_a 26.410925
_cell_length_b 13.332106
_cell_length_c 19.860357
_cell_angle_alpha 90.000000
_cell_angle_beta 33.022705
_cell_angle_gamma 90.000000
_cell_volume 3811.036276
_symmetry_space_group_name_H-M "C 2/M"
_symmetry_group_IT_number 12
_symmetry_cell_setting 'monoclinic'
loop_
_space_group_symop_operation_xyz
x,y,z
-x,y,-z
-x,-y,-z
x,-y,z
1/2+x,1/2+y,z
1/2-x,1/2+y,-z
1/2-x,1/2-y,-z
1/2+x,1/2-y,z
loop_
_atom_site_type_symbol
_atom_site_label
_atom_site_fract_x
_atom_site_fract_y
_atom_site_fract_z
Si Si1 0.599733 0.616928 0.351196
Si Si2 0.050293 0.615949 0.516247
Si Si3 0.062189 0.115315 0.139281
Si Si4 0.080157 0.880728 0.965126
Si Si5 0.939110 0.238814 0.736658
Si Si6 0.780577 0.696472 0.741282
Si Si7 0.216127 0.385941 0.111665
O O1 0.500000 0.629422 0.500000
O O2 0.625287 0.500000 0.326888
O O3 0.587578 0.652527 0.287485
O O4 0.675604 0.692808 0.298183
O O5 0.036025 0.500000 0.548988
O O6 0.157329 0.640991 0.383222
O O7 0.000000 0.634730 0.500000
O O8 0.007294 0.687826 0.620005
O O9 0.046099 0.141071 0.079132
O O10 0.021360 0.189186 0.240312
O O11 0.033642 0.000000 0.182093
O O12 0.174294 0.120555 0.024385
O O13 0.106607 0.000000 0.935639
O O14 0.171728 0.815295 0.849007
O O15 0.000000 0.866002 0.000000
O O16 0.848388 0.306177 0.853584
O O17 0.796033 0.639928 0.795595
O O18 0.186451 0.500000 0.131972
#
# Coordination Sequence:
#
# PCOD9168820 Si02
#       7
#     8   8   8   8   8   8   8
#     4  10  18  28  40  63  97 131 163 182 201 258
#     4  11  18  26  42  68  97 127 154 181 221 274
#     4   9  18  29  42  62  89 120 153 186 226 267
#     4   9  18  33  54  74  88 109 150 203 247 278
#     4  11  17  26  39  64  95 129 149 181 219 275
#     4  10  16  29  46  69  92 121 153 193 233 266
#     4   9  16  26  41  62  91 124 152 183 219 267
#
# _framework density 14.694165999999999
#
# number of rings (size 3 to 8) (size 9 to 14) (size 15 to 20)
#    0.000    2.143    4.286    3.429    0.000    0.000 
#    0.000    0.000    0.000    4.714    0.000    0.000 
#    0.000    0.000    0.000    0.000    0.000    0.000 
#
# Total GULP energy -156033.793697 kJ/mol
# GULP energy per Si atom -5572.635489 kJ/mol
# Density = 1.466072 g / cm^3
# Si number density = 14.694166 Si / 1000 Ang^3
#
#
#
# Elastic Constant Matrix: (Units=GPa)
#
#
# Indices 1 2 3 4 5 6 
#
# 1 73.3461 43.2210 31.8319 0.0000 1.7751 0.0000
# 2 43.2210 97.8569 40.1378 0.0000 7.7409 0.0000
# 3 31.8319 40.1378 52.9175 0.0000 6.3939 0.0000
# 4 0.0000 0.0000 0.0000 20.6529 0.0000 2.0758
# 5 1.7751 7.7409 6.3939 0.0000 15.0836 0.0000
# 6 0.0000 0.0000 0.0000 2.0758 0.0000 14.9236
#
#
#
# Elastic Compliance Matrix: (Units=1/GPa)
#
#
# Indices 1 2 3 4 5 6 
#
# 1 0.020742 -0.006051 -0.008398 0.000000 0.004224 0.000000
# 2 -0.006051 0.016729 -0.008535 0.000000 -0.004255 0.000000
# 3 -0.008398 -0.008535 0.031381 0.000000 -0.007934 0.000000
# 4 0.000000 0.000000 0.000000 0.049106 0.000000 -0.006831
# 5 0.004224 -0.004255 -0.007934 0.000000 0.071347 0.000000
# 6 0.000000 0.000000 0.000000 -0.006831 0.000000 0.067958
#
#
# Mechanical properties :
#
#
# Convention : Reuss Voigt Hill
#
# Bulk Modulus (GPa) = 43.69682 50.50020 47.09851
# Shear Modulus (GPa) = 16.08446 17.39400 16.73923
#
# Velocity S-wave (km/s) = 3.31209 3.44428 3.37883
# Velocity P-wave (km/s) = 6.66548 7.08940 6.88070
#
# Compressibility (1/GPa) = 0.02288496
#
# Stress axis : x y z
#
# Youngs Moduli (GPa) = 48.21123 59.77702 31.86609
#
# Poissons Ratio (x) = 0.36170 0.26761
# Poissons Ratio (y) = 0.29172 0.27197
# Poissons Ratio (z) = 0.40488 0.51019
#
# Static dielectric constant tensor:
#      x y z
#    x 1.467370 0.000000 0.007700 
#    y 0.000000 1.498370 0.000000 
#    z 0.007700 0.000000 1.520410 
# 
# From -- ./inp_files/327583.got.cif
#   From: 2010.05.17/outbox.cif.g08.bks.cpg/sg12_164_cif.got.tgz:327583.got - 2010.06.03 13:09:07.
