data_PCOD9168275
_publ_section_title
;
Structure prediction by ZEFSAII (Michael W. Deem and Ramdas Pophale) SiO2 
 PCOD9168275
Probable space group: P 21/M
;
_chemical_formula_sum "Si O2"
_cell_formula_units_Z 24
_cell_length_a 24.000000
_cell_length_b 9.000000
_cell_length_c 18.000000
_cell_angle_alpha 90.000000
_cell_angle_beta 20.000000
_cell_angle_gamma 90.000000
_cell_volume 1329.774317
_symmetry_space_group_name_H-M "P 21/M"
_symmetry_group_IT_number 11
_symmetry_cell_setting 'monoclinic'
loop_
_space_group_symop_operation_xyz
x,y,z
-x,1/2+y,-z
-x,-y,-z
x,1/2-y,z
loop_
_atom_site_type_symbol
_atom_site_label
_atom_site_fract_x
_atom_site_fract_y
_atom_site_fract_z
Si Si1 0.366761 0.071120 0.452989
Si Si2 0.969487 0.926138 0.211971
Si Si3 0.015404 0.070437 0.629778
Si Si4 0.146918 0.072516 0.862582
Si Si5 0.346516 0.931567 0.146579
Si Si6 0.680511 0.569526 0.984363
O O1 0.393943 0.250000 0.412339
O O2 0.209641 0.033565 0.597220
O O3 0.307080 0.039002 0.612405
O O4 0.527366 0.983787 0.226632
O O5 0.987345 0.750000 0.175488
O O6 0.979192 0.951440 0.287756
O O7 0.112574 0.009130 0.987469
O O8 0.017735 0.250000 0.612483
O O9 0.176621 0.992427 0.394120
O O10 0.851025 0.997274 0.802173
O O11 0.130257 0.250000 0.884329
O O12 0.000000 0.000000 0.000000
O O13 0.352317 0.750000 0.139708
O O14 0.350396 0.996330 0.057933
O O15 0.500000 0.000000 0.000000
O O16 0.688103 0.750000 0.970570
#
# Coordination Sequence:
#
# PCOD9168275 Si02
#       6
#     4   4   4   4   4   4
#     4   9  18  35  57  84 115 150 192 241 290 340
#     4   9  19  35  58  85 114 148 190 238 289 340
#     4  11  23  41  62  86 119 157 192 235 288 343
#     4   9  17  30  53  82 114 148 188 237 287 337
#     4  12  25  43  66  91 117 148 189 237 285 341
#     4  12  25  40  59  86 118 155 195 238 287 343
#
# _framework density 18.048175000000001
#
# number of rings (size 3 to 8) (size 9 to 14) (size 15 to 20)
#    0.000    1.667    0.000    6.500    0.000    6.000 
#    0.000    0.833    0.000    0.000    0.000    0.000 
#    0.000    0.000    0.000    0.000    0.000    0.000 
#
# Total GULP energy -133997.193542 kJ/mol
# GULP energy per Si atom -5583.216398 kJ/mol
# Density = 1.800710 g / cm^3
# Si number density = 18.048175 Si / 1000 Ang^3
#
#
#
# Elastic Constant Matrix: (Units=GPa)
#
#
# Indices 1 2 3 4 5 6 
#
# 1 73.9263 49.0927 72.3914 0.0000 0.8245 0.0000
# 2 49.0927 142.4188 84.8511 0.0000 7.4842 0.0000
# 3 72.3914 84.8511 178.7881 0.0000 9.9116 0.0000
# 4 0.0000 0.0000 0.0000 42.5410 0.0000 3.1414
# 5 0.8245 7.4842 9.9116 0.0000 37.8202 0.0000
# 6 0.0000 0.0000 0.0000 3.1414 0.0000 33.0339
#
#
#
# Elastic Compliance Matrix: (Units=1/GPa)
#
#
# Indices 1 2 3 4 5 6 
#
# 1 0.023729 -0.003486 -0.008081 0.000000 0.002290 0.000000
# 2 -0.003486 0.010322 -0.003428 0.000000 -0.001068 0.000000
# 3 -0.008081 -0.003428 0.010599 0.000000 -0.001923 0.000000
# 4 0.000000 0.000000 0.000000 0.023673 0.000000 -0.002251
# 5 0.002290 -0.001068 -0.001923 0.000000 0.027106 0.000000
# 6 0.000000 0.000000 0.000000 -0.002251 0.000000 0.030486
#
#
# Mechanical properties :
#
#
# Convention : Reuss Voigt Hill
#
# Bulk Modulus (GPa) = 68.20944 89.75595 78.98269
# Shear Modulus (GPa) = 31.09655 35.26555 33.18105
#
# Velocity S-wave (km/s) = 4.15538 4.42517 4.29239
# Velocity P-wave (km/s) = 7.80371 8.71486 8.27184
#
# Compressibility (1/GPa) = 0.01466073
#
# Stress axis : x y z
#
# Youngs Moduli (GPa) = 42.14260 96.88511 94.35253
#
# Poissons Ratio (x) = 0.33770 0.76243
# Poissons Ratio (y) = 0.14689 0.32344
# Poissons Ratio (z) = 0.34054 0.33212
#
# Static dielectric constant tensor:
#      x y z
#    x 1.630340 0.000000 0.028280 
#    y 0.000000 1.608440 0.000000 
#    z 0.028280 0.000000 1.618000 
# 
# From -- ./inp_files/28935.got.cif
#   From: 2010.05.17/outbox.ucp.g08.bks.cvg/sg11_15_cif.got.tgz:28935.got - 2010.06.11 11:38:39.
