data_PCOD9168692
_publ_section_title
;
Structure prediction by ZEFSAII (Michael W. Deem and Ramdas Pophale) SiO2 
 PCOD9168692
Probable space group: C 2/M
;
_chemical_formula_sum "Si O2"
_cell_formula_units_Z 36
_cell_length_a 15.906341
_cell_length_b 9.587529
_cell_length_c 11.829828
_cell_angle_alpha 90.000000
_cell_angle_beta 111.050056
_cell_angle_gamma 90.000000
_cell_volume 1683.686819
_symmetry_space_group_name_H-M "C 2/M"
_symmetry_group_IT_number 12
_symmetry_cell_setting 'monoclinic'
loop_
_space_group_symop_operation_xyz
x,y,z
-x,y,-z
-x,-y,-z
x,-y,z
1/2+x,1/2+y,z
1/2-x,1/2+y,-z
1/2-x,1/2-y,-z
1/2+x,1/2-y,z
loop_
_atom_site_type_symbol
_atom_site_label
_atom_site_fract_x
_atom_site_fract_y
_atom_site_fract_z
Si Si1 0.668486 0.500000 0.347017
Si Si2 0.500000 0.750840 0.500000
Si Si3 0.015084 0.000000 0.656419
Si Si4 0.386984 0.500000 0.066892
Si Si5 0.621252 0.000000 0.541534
Si Si6 0.315907 0.000000 0.929426
Si Si7 0.329307 0.698905 0.855610
Si Si8 0.335547 0.000000 0.184131
O O1 0.593621 0.500000 0.405699
O O2 0.772724 0.500000 0.432045
O O3 0.651945 0.632496 0.256835
O O4 0.544265 0.643741 0.611107
O O5 0.572943 0.857091 0.481823
O O6 0.042188 0.000000 0.799502
O O7 0.288639 0.500000 0.079678
O O8 0.390031 0.630737 0.983410
O O9 0.609204 0.000000 0.673823
O O10 0.332481 0.862176 0.866796
O O11 0.371966 0.000000 0.074798
O O12 0.230253 0.635010 0.837249
#
# Coordination Sequence:
#
# PCOD9168692 Si02
#       8
#     4   4   4   4   4   4   8   4
#     4   9  21  40  58  79 116 155 171 221 289 345
#     4  10  24  40  58  88 102 140 202 242 264 330
#     4  11  24  38  58  84 112 145 191 227 285 321
#     4   9  18  30  54  75 120 146 174 227 276 321
#     4   9  20  41  62  77 115 141 185 241 285 309
#     4  10  16  26  52  94 110 139 188 226 253 343
#     4   8  17  30  50  87 111 143 186 211 269 344
#     4   8  15  28  52  77 115 144 171 219 284 319
#
# _framework density 21.381647000000001
#
# number of rings (size 3 to 8) (size 9 to 14) (size 15 to 20)
#    0.000    3.556    0.000    2.667    9.333    2.667 
#    0.000    2.222    0.000    1.333    0.000    0.000 
#    0.000    0.000    0.000    0.000    0.000    0.000 
#
# Total GULP energy -100338.005145 kJ/mol
# GULP energy per Si atom -5574.333619 kJ/mol
# Density = 2.133298 g / cm^3
# Si number density = 21.381647 Si / 1000 Ang^3
#
#
#
# Elastic Constant Matrix: (Units=GPa)
#
#
# Indices 1 2 3 4 5 6 
#
# 1 46.4276 9.0421 0.4840 0.0000 4.5794 0.0000
# 2 9.0421 186.4049 18.0710 0.0000 -1.1717 0.0000
# 3 0.4840 18.0710 40.8725 0.0000 18.1414 0.0000
# 4 0.0000 0.0000 0.0000 -117.7679 0.0000 92.7782
# 5 4.5794 -1.1717 18.1414 0.0000 21.8706 0.0000
# 6 0.0000 0.0000 0.0000 92.7782 0.0000 -69.2806
#
#
#
# Elastic Compliance Matrix: (Units=1/GPa)
#
#
# Indices 1 2 3 4 5 6 
#
# 1 0.022602 -0.001539 0.004036 0.000000 -0.008163 0.000000
# 2 -0.001539 0.005909 -0.004555 0.000000 0.004417 0.000000
# 3 0.004036 -0.004555 0.042600 0.000000 -0.036425 0.000000
# 4 0.000000 0.000000 0.000000 0.154384 0.000000 0.206745
# 5 -0.008163 0.004417 -0.036425 0.000000 0.077884 0.000000
# 6 0.000000 0.000000 0.000000 0.206745 0.000000 0.262432
#
#
# Mechanical properties :
#
#
# Convention : Reuss Voigt Hill
#
# Bulk Modulus (GPa) = 14.92659 36.54436 25.73548
# Shear Modulus (GPa) = 8.44229 -16.62840 -4.09305
#
# Velocity S-wave (km/s) = 1.98921 -2.79174 -1.38508
# Velocity P-wave (km/s) = 3.50316 2.59553 3.08293
#
# Compressibility (1/GPa) = 0.06699454
#
# Stress axis : x y z
#
# Youngs Moduli (GPa) = 44.24454 169.24431 23.47435
#
# Poissons Ratio (x) = 0.26045 -0.09474
# Poissons Ratio (y) = 0.06809 0.10692
# Poissons Ratio (z) = -0.17856 0.77083
#
# Static dielectric constant tensor:
#      x y z
#    x 1.800480 0.000000 0.039060 
#    y 0.000000 1.782690 0.000000 
#    z 0.039060 0.000000 1.803410 
# 
# From -- ./inp_files/162883.got.cif
#   From: 2010.05.17/outbox.cif.g08.bks.cpg/sg12_82_cif.got.tgz:162883.got - 2010.06.03 13:09:07.
