data_PCOD9168482
_publ_section_title
;
Structure prediction by ZEFSAII (Michael W. Deem and Ramdas Pophale) SiO2 
 PCOD9168482
Probable space group: C 2/M
;
_chemical_formula_sum "Si O2"
_cell_formula_units_Z 48
_cell_length_a 13.922458
_cell_length_b 7.763517
_cell_length_c 21.226276
_cell_angle_alpha 90.000000
_cell_angle_beta 52.791695
_cell_angle_gamma 90.000000
_cell_volume 1827.269204
_symmetry_space_group_name_H-M "C 2/M"
_symmetry_group_IT_number 12
_symmetry_cell_setting 'monoclinic'
loop_
_space_group_symop_operation_xyz
x,y,z
-x,y,-z
-x,-y,-z
x,-y,z
1/2+x,1/2+y,z
1/2-x,1/2+y,-z
1/2-x,1/2-y,-z
1/2+x,1/2-y,z
loop_
_atom_site_type_symbol
_atom_site_label
_atom_site_fract_x
_atom_site_fract_y
_atom_site_fract_z
Si Si1 0.319734 0.808517 0.908186
Si Si2 0.210746 0.211342 0.753163
Si Si3 0.449413 0.792629 0.738274
Si Si4 0.192397 0.696250 0.408482
Si Si5 0.035568 0.804578 0.578524
Si Si6 0.916796 0.195905 0.082910
O O1 0.420672 0.723107 0.820625
O O2 0.209485 0.820054 0.902392
O O3 0.362917 0.000000 0.906476
O O4 0.250000 0.750000 0.000000
O O5 0.332055 0.258482 0.742649
O O6 0.216344 0.273687 0.679669
O O7 0.105745 0.274557 0.840561
O O8 0.206369 0.000000 0.753479
O O9 0.549681 0.738549 0.646642
O O10 0.452023 0.000000 0.742141
O O11 0.225749 0.500000 0.409655
O O12 0.152937 0.785793 0.488170
O O13 0.068610 0.693725 0.414652
O O14 0.993629 0.000000 0.589574
O O15 0.966253 0.000000 0.073922
O O16 0.000000 0.288572 0.000000
#
# Coordination Sequence:
#
# PCOD9168482 Si02
#       6
#     8   8   8   8   8   8
#     4   9  17  28  43  62  83 109 139 170 204 243
#     4   7  11  19  32  49  68  95 129 159 188 227
#     4   8  14  25  36  47  69 101 131 155 190 239
#     4   9  14  21  31  43  67 101 129 152 187 238
#     4  10  16  20  29  48  70  92 125 163 195 228
#     4   8  13  23  40  61  83 106 136 173 205 233
#
# _framework density 26.268706999999999
#
# number of rings (size 3 to 8) (size 9 to 14) (size 15 to 20)
#    0.000    3.500    0.000    6.000    0.000    0.667 
#    0.000    0.000    0.000    0.500    0.000    0.000 
#    0.000    1.333    0.000    2.667    0.000    8.500 
#
# Total GULP energy -133689.589896 kJ/mol
# GULP energy per Si atom -5570.399579 kJ/mol
# Density = 2.620892 g / cm^3
# Si number density = 26.268707 Si / 1000 Ang^3
#
#
#
# Elastic Constant Matrix: (Units=GPa)
#
#
# Indices 1 2 3 4 5 6 
#
# 1 83.8197 -5.1949 13.9963 0.0000 35.3899 0.0000
# 2 -5.1949 78.5977 34.2220 0.0001 3.7779 0.0001
# 3 13.9963 34.2220 355.9748 0.0000 24.8193 0.0000
# 4 0.0000 0.0001 0.0000 -13.4974 0.0000 13.3292
# 5 35.3899 3.7779 24.8193 0.0000 27.2550 0.0000
# 6 0.0000 0.0001 0.0000 13.3292 0.0000 -1.1414
#
#
#
# Elastic Compliance Matrix: (Units=1/GPa)
#
#
# Indices 1 2 3 4 5 6 
#
# 1 0.027833 0.003114 0.001235 0.000000 -0.037697 0.000000
# 2 0.003114 0.013641 -0.001089 0.000000 -0.004942 0.000000
# 3 0.001235 -0.001089 0.003168 0.000000 -0.004337 0.000000
# 4 0.000000 0.000000 0.000000 0.007034 0.000000 0.082146
# 5 -0.037697 -0.004942 -0.004337 0.000000 0.090273 0.000000
# 6 0.000000 0.000000 0.000000 0.082146 0.000000 0.083182
#
#
# Mechanical properties :
#
#
# Convention : Reuss Voigt Hill
#
# Bulk Modulus (GPa) = 19.54630 67.15989 43.35309
# Shear Modulus (GPa) = 21.21648 34.21450 27.71549
#
# Velocity S-wave (km/s) = 2.84504 3.61291 3.25172
# Velocity P-wave (km/s) = 4.27193 6.55943 5.53514
#
# Compressibility (1/GPa) = 0.05116058
#
# Stress axis : x y z
#
# Youngs Moduli (GPa) = 35.92807 73.31030 315.68420
#
# Poissons Ratio (x) = -0.22829 -0.38973
# Poissons Ratio (y) = -0.11188 0.34384
# Poissons Ratio (z) = -0.04436 0.07985
#
# Static dielectric constant tensor:
#      x y z
#    x 2.211840 0.000000 -0.110630 
#    y 0.000000 1.967460 0.000000 
#    z -0.110630 0.000000 2.250830 
# 
# From -- ./inp_files/348292.got.cif
#   From: 2010.05.17/outbox.cif.g08.bks.cpg/sg12_175_cif.got.tgz:348292.got - 2010.06.03 13:09:07.
