data_PCOD9168189
_publ_section_title
;
Structure prediction by ZEFSAII (Michael W. Deem and Ramdas Pophale) SiO2 
 PCOD9168189
Probable space group: P 21/M
;
_chemical_formula_sum "Si O2"
_cell_formula_units_Z 32
_cell_length_a 15.000000
_cell_length_b 9.000000
_cell_length_c 24.000000
_cell_angle_alpha 90.000000
_cell_angle_beta 30.000000
_cell_angle_gamma 90.000000
_cell_volume 1620.000000
_symmetry_space_group_name_H-M "P 21/M"
_symmetry_group_IT_number 11
_symmetry_cell_setting 'monoclinic'
loop_
_space_group_symop_operation_xyz
x,y,z
-x,1/2+y,-z
-x,-y,-z
x,1/2-y,z
loop_
_atom_site_type_symbol
_atom_site_label
_atom_site_fract_x
_atom_site_fract_y
_atom_site_fract_z
Si Si1 0.869058 0.573091 0.187276
Si Si2 0.241702 0.426189 0.529838
Si Si3 0.695300 0.571634 0.893298
Si Si4 0.780536 0.572062 0.972230
Si Si5 0.430156 0.929506 0.230401
Si Si6 0.303548 0.928621 0.609885
Si Si7 0.135535 0.572510 0.307370
Si Si8 0.460505 0.428827 0.705662
O O1 0.866692 0.750000 0.198440
O O2 0.787031 0.489665 0.285306
O O3 0.743020 0.542458 0.202424
O O4 0.068435 0.512812 0.075508
O O5 0.260425 0.250000 0.530467
O O6 0.207753 0.511208 0.606115
O O7 0.415943 0.492629 0.406803
O O8 0.075757 0.450026 0.578168
O O9 0.683247 0.750000 0.896917
O O10 0.786402 0.534364 0.903406
O O11 0.792520 0.507744 0.786676
O O12 0.500000 0.500000 0.000000
O O13 0.805940 0.750000 0.963654
O O14 0.587283 0.534777 0.101817
O O15 0.423692 0.750000 0.237958
O O16 0.245165 0.978562 0.302284
O O17 0.482847 0.981787 0.263530
O O18 0.310212 0.750000 0.606462
O O19 0.500000 0.000000 0.500000
O O20 0.167529 0.750000 0.283436
O O21 0.487154 0.250000 0.687874
#
# Coordination Sequence:
#
# PCOD9168189 Si02
#       8
#     4   4   4   4   4   4   4   4
#     4  11  23  38  58  89 122 154 195 242 295 349
#     4  11  23  38  61  91 122 154 192 243 296 347
#     4  11  21  35  59  89 119 153 191 235 294 355
#     4  10  21  38  61  86 116 157 199 239 291 352
#     4   9  19  40  63  83 113 158 205 245 291 346
#     4  12  23  38  62  89 120 156 194 238 293 354
#     4  10  21  39  61  87 119 156 195 240 292 348
#     4  10  22  40  62  83 114 160 203 245 293 346
#
# _framework density 19.753086
#
# number of rings (size 3 to 8) (size 9 to 14) (size 15 to 20)
#    0.000    1.500    2.500    3.000    0.000    5.500 
#    0.000    1.250    0.000    0.000    0.000    0.000 
#    0.000    0.000    0.000    0.000    0.000    0.000 
#
# Total GULP energy -178765.348715 kJ/mol
# GULP energy per Si atom -5586.417147 kJ/mol
# Density = 1.970813 g / cm^3
# Si number density = 19.753086 Si / 1000 Ang^3
#
#
#
# Elastic Constant Matrix: (Units=GPa)
#
#
# Indices 1 2 3 4 5 6 
#
# 1 146.4752 36.3905 15.4936 0.0000 -16.3489 0.0000
# 2 36.3905 52.4311 3.9395 0.0000 -14.9185 0.0000
# 3 15.4936 3.9395 16.4772 0.0000 -17.5911 0.0000
# 4 0.0000 0.0000 0.0000 25.2954 0.0000 -2.4683
# 5 -16.3489 -14.9185 -17.5911 0.0000 36.1323 0.0000
# 6 0.0000 0.0000 0.0000 -2.4683 0.0000 25.8982
#
#
#
# Elastic Compliance Matrix: (Units=1/GPa)
#
#
# Indices 1 2 3 4 5 6 
#
# 1 0.009266 -0.006773 -0.011667 0.000000 -0.004284 0.000000
# 2 -0.006773 0.027235 0.017888 0.000000 0.016889 0.000000
# 3 -0.011667 0.017888 0.144997 0.000000 0.072699 0.000000
# 4 0.000000 0.000000 0.000000 0.039904 0.000000 0.003803
# 5 -0.004284 0.016889 0.072699 0.000000 0.068104 0.000000
# 6 0.000000 0.000000 0.000000 0.003803 0.000000 0.038975
#
#
# Mechanical properties :
#
#
# Convention : Reuss Voigt Hill
#
# Bulk Modulus (GPa) = 5.54343 36.33673 20.94008
# Shear Modulus (GPa) = 12.82982 28.10252 20.46617
#
# Velocity S-wave (km/s) = 2.55131 3.77595 3.22234
# Velocity P-wave (km/s) = 3.38989 6.11930 4.94657
#
# Compressibility (1/GPa) = 0.18039371
#
# Stress axis : x y z
#
# Youngs Moduli (GPa) = 107.92374 36.71699 6.89671
#
# Poissons Ratio (x) = 0.24870 0.08046
# Poissons Ratio (y) = 0.73102 -0.12337
# Poissons Ratio (z) = 1.25916 -0.65681
#
# Static dielectric constant tensor:
#      x y z
#    x 1.725930 0.000000 -0.033110 
#    y 0.000000 1.657200 0.000000 
#    z -0.033110 0.000000 1.686900 
# 
# From -- ./inp_files/51649.got.cif
#   From: 2010.05.17/outbox.ucp.g08.bks.cvg/sg11_26_cif.got.tgz:51649.got - 2010.06.11 11:38:39.
