data_PCOD9168307
_publ_section_title
;
Structure prediction by ZEFSAII (Michael W. Deem and Ramdas Pophale) SiO2 
 PCOD9168307
Probable space group: C 2/M
;
_chemical_formula_sum "Si O2"
_cell_formula_units_Z 40
_cell_length_a 5.406887
_cell_length_b 14.695950
_cell_length_c 24.349222
_cell_angle_alpha 90.000000
_cell_angle_beta 83.629812
_cell_angle_gamma 90.000000
_cell_volume 1922.827427
_symmetry_space_group_name_H-M "C 2/M"
_symmetry_group_IT_number 12
_symmetry_cell_setting 'monoclinic'
loop_
_space_group_symop_operation_xyz
x,y,z
-x,y,-z
-x,-y,-z
x,-y,z
1/2+x,1/2+y,z
1/2-x,1/2+y,-z
1/2-x,1/2-y,-z
1/2+x,1/2-y,z
loop_
_atom_site_type_symbol
_atom_site_label
_atom_site_fract_x
_atom_site_fract_y
_atom_site_fract_z
Si Si1 0.264754 0.391178 0.970691
Si Si2 0.026348 0.654531 0.434808
Si Si3 0.903881 0.810531 0.730662
Si Si4 0.212733 0.191523 0.148245
Si Si5 0.950841 0.138520 0.610799
O O1 0.262220 0.500000 0.976797
O O2 0.292679 0.367832 0.906213
O O3 0.500000 0.356619 0.000000
O O4 0.000000 0.356836 0.000000
O O5 0.039210 0.752334 0.403413
O O6 0.283200 0.605116 0.415712
O O7 0.000000 0.672248 0.500000
O O8 0.784369 0.605610 0.417464
O O9 0.669708 0.741692 0.727375
O O10 0.850477 0.854189 0.791477
O O11 0.913974 0.872257 0.676508
O O12 0.487978 0.235438 0.146457
#
# Coordination Sequence:
#
# PCOD9168307 Si02
#       5
#     8   8   8   8   8
#     4  10  21  37  55  74  99 129 157 188 237 291
#     4  10  16  20  29  45  65  96 142 180 206 252
#     4  10  16  27  38  54  79 109 143 180 220 264
#     4  10  21  32  50  75  98 123 159 201 230 278
#     4  10  14  22  31  42  65  99 133 177 209 255
#
# _framework density 20.802700000000002
#
# number of rings (size 3 to 8) (size 9 to 14) (size 15 to 20)
#    0.000    2.000    4.000    4.200    0.000    2.400 
#    0.000    0.000    0.000    0.000    0.000    0.000 
#    0.000    0.000    0.000    0.000    0.000   11.000 
#
# Total GULP energy -111552.990179 kJ/mol
# GULP energy per Si atom -5577.649509 kJ/mol
# Density = 2.075535 g / cm^3
# Si number density = 20.802700 Si / 1000 Ang^3
#
#
#
# Elastic Constant Matrix: (Units=GPa)
#
#
# Indices 1 2 3 4 5 6 
#
# 1 169.3681 5.3198 58.5743 0.0000 -4.5513 0.0000
# 2 5.3198 44.7679 9.5008 0.0000 -1.8600 0.0000
# 3 58.5743 9.5008 194.7676 0.0000 3.5713 0.0000
# 4 0.0000 0.0000 0.0000 -30.0143 0.0000 -2.1585
# 5 -4.5513 -1.8600 3.5713 0.0000 38.7114 0.0000
# 6 0.0000 0.0000 0.0000 -2.1585 0.0000 -13.0039
#
#
#
# Elastic Compliance Matrix: (Units=1/GPa)
#
#
# Indices 1 2 3 4 5 6 
#
# 1 0.006630 -0.000325 -0.001995 0.000000 0.000948 0.000000
# 2 -0.000325 0.022642 -0.001028 0.000000 0.001144 0.000000
# 3 -0.001995 -0.001028 0.005800 0.000000 -0.000819 0.000000
# 4 0.000000 0.000000 0.000000 -0.033720 0.000000 0.005597
# 5 0.000948 0.001144 -0.000819 0.000000 0.026074 0.000000
# 6 0.000000 0.000000 0.000000 0.005597 0.000000 -0.077829
#
#
# Mechanical properties :
#
#
# Convention : Reuss Voigt Hill
#
# Bulk Modulus (GPa) = 35.24220 61.74372 48.49296
# Shear Modulus (GPa) = -145.99192 21.50587 -62.24302
#
# Velocity S-wave (km/s) = -8.38640 3.21877 -5.47591
# Velocity P-wave (km/s) = 8.76342 6.59993 4.07668
#
# Compressibility (1/GPa) = 0.02837507
#
# Stress axis : x y z
#
# Youngs Moduli (GPa) = 150.82750 44.16624 172.42603
#
# Poissons Ratio (x) = 0.01435 0.34407
# Poissons Ratio (y) = 0.04902 0.17721
# Poissons Ratio (z) = 0.30097 0.04539
#
# Static dielectric constant tensor:
#      x y z
#    x 1.822850 0.000000 0.000510 
#    y 0.000000 1.572420 0.000000 
#    z 0.000510 0.000000 1.723560 
# 
# From -- ./inp_files/297565.got.cif
#   From: 2010.05.17/outbox.cif.g08.bks.cpg/sg12_149_cif.got.tgz:297565.got - 2010.06.03 13:09:07.
