data_PCOD9168601
_publ_section_title
;
Structure prediction by ZEFSAII (Michael W. Deem and Ramdas Pophale) SiO2 
 PCOD9168601
Probable space group: C 2/M
;
_chemical_formula_sum "Si O2"
_cell_formula_units_Z 64
_cell_length_a 30.047281
_cell_length_b 7.531559
_cell_length_c 17.409618
_cell_angle_alpha 90.000000
_cell_angle_beta 64.935150
_cell_angle_gamma 90.000000
_cell_volume 3568.826706
_symmetry_space_group_name_H-M "C 2/M"
_symmetry_group_IT_number 12
_symmetry_cell_setting 'monoclinic'
loop_
_space_group_symop_operation_xyz
x,y,z
-x,y,-z
-x,-y,-z
x,-y,z
1/2+x,1/2+y,z
1/2-x,1/2+y,-z
1/2-x,1/2-y,-z
1/2+x,1/2-y,z
loop_
_atom_site_type_symbol
_atom_site_label
_atom_site_fract_x
_atom_site_fract_y
_atom_site_fract_z
Si Si1 0.046696 0.717245 0.912781
Si Si2 0.929599 0.795111 0.605874
Si Si3 0.243370 0.285882 0.913601
Si Si4 0.634947 0.784293 0.952613
Si Si5 0.908469 0.285402 0.850857
Si Si6 0.021564 0.283027 0.760016
Si Si7 0.536694 0.204185 0.583237
Si Si8 0.339767 0.702020 0.762574
O O1 0.045650 0.500000 0.913995
O O2 0.098147 0.774903 0.912655
O O3 0.041589 0.774074 0.828078
O O4 0.000000 0.771257 0.000000
O O5 0.937412 0.790587 0.508832
O O6 0.877661 0.718356 0.672594
O O7 0.977994 0.708950 0.608085
O O8 0.931005 0.000000 0.630011
O O9 0.244040 0.500000 0.907575
O O10 0.190957 0.222095 0.919771
O O11 0.288549 0.216665 0.828878
O O12 0.250000 0.250000 0.000000
O O13 0.636805 0.000000 0.946788
O O14 0.608589 0.739121 0.051676
O O15 0.905225 0.500000 0.845181
O O16 0.872713 0.202211 0.815126
O O17 0.964465 0.232284 0.798565
O O18 0.023229 0.500000 0.757796
O O19 0.045168 0.222293 0.662459
O O20 0.552213 0.000000 0.571069
O O21 0.329033 0.500000 0.745016
#
# Coordination Sequence:
#
# PCOD9168601 Si02
#       8
#     8   8   8   8   8   8   8   8
#     4   9  14  22  37  61  90 114 136 168 212 254
#     4  10  19  30  42  59  84 115 145 173 209 256
#     4  10  19  30  43  63  87 114 147 179 211 248
#     4   9  16  25  40  61  87 115 144 176 207 246
#     4  10  16  25  42  64  87 114 145 174 206 250
#     4   9  16  24  38  63  91 113 138 172 211 253
#     4  10  18  28  43  64  87 110 137 176 217 254
#     4  10  20  30  41  60  87 118 147 176 209 249
#
# _framework density 17.933064000000002
#
# number of rings (size 3 to 8) (size 9 to 14) (size 15 to 20)
#    0.000    2.375    3.750    1.500    0.000    0.500 
#    0.000    0.000    0.000    0.000    0.000    7.000 
#    0.000    0.000    0.000    0.000    0.000    0.000 
#
# Total GULP energy -178399.614507 kJ/mol
# GULP energy per Si atom -5574.987953 kJ/mol
# Density = 1.789225 g / cm^3
# Si number density = 17.933064 Si / 1000 Ang^3
#
#
#
# Elastic Constant Matrix: (Units=GPa)
#
#
# Indices 1 2 3 4 5 6 
#
# 1 100.9168 -5.7545 52.2780 0.0000 8.1968 0.0000
# 2 -5.7545 43.8921 -3.0966 0.0002 0.7751 0.0001
# 3 52.2780 -3.0966 129.3224 0.0000 7.7246 0.0000
# 4 0.0000 0.0002 0.0000 -26.9842 0.0000 -12.1230
# 5 8.1968 0.7751 7.7246 0.0000 28.9338 0.0000
# 6 0.0000 0.0001 0.0000 -12.1230 0.0000 0.4377
#
#
#
# Elastic Compliance Matrix: (Units=1/GPa)
#
#
# Indices 1 2 3 4 5 6 
#
# 1 0.012758 0.001362 -0.004986 0.000000 -0.002320 0.000000
# 2 0.001362 0.022984 0.000061 0.000000 -0.001018 0.000000
# 3 -0.004986 0.000061 0.009822 0.000000 -0.001211 0.000000
# 4 0.000000 0.000000 0.000000 -0.002757 0.000000 -0.076351
# 5 -0.002320 -0.001018 -0.001211 0.000000 0.035569 0.000000
# 6 0.000000 0.000000 0.000000 -0.076351 0.000000 0.169947
#
#
# Mechanical properties :
#
#
# Convention : Reuss Voigt Hill
#
# Bulk Modulus (GPa) = 26.01688 40.10949 33.06318
# Shear Modulus (GPa) = 18.63834 15.85778 17.24806
#
# Velocity S-wave (km/s) = 3.22736 2.97690 3.10466
# Velocity P-wave (km/s) = 5.33170 5.85070 5.59722
#
# Compressibility (1/GPa) = 0.03843659
#
# Stress axis : x y z
#
# Youngs Moduli (GPa) = 78.38050 43.50868 101.81113
#
# Poissons Ratio (x) = -0.05925 0.50766
# Poissons Ratio (y) = -0.10674 -0.00617
# Poissons Ratio (z) = 0.39083 -0.00264
#
# Static dielectric constant tensor:
#      x y z
#    x 1.604840 0.000000 -0.018320 
#    y 0.000000 1.706780 0.000000 
#    z -0.018320 0.000000 1.637380 
# 
# From -- ./inp_files/294569.got.cif
#   From: 2010.05.17/outbox.cif.g08.bks.cpg/sg12_148_cif.got.tgz:294569.got - 2010.06.03 13:09:07.
