data_PCOD9168919
_publ_section_title
;
Structure prediction by ZEFSAII (Michael W. Deem and Ramdas Pophale) SiO2 
 PCOD9168919
Probable space group: C 2/M
;
_chemical_formula_sum "Si O2"
_cell_formula_units_Z 30
_cell_length_a 15.661980
_cell_length_b 16.713366
_cell_length_c 5.185606
_cell_angle_alpha 90.000000
_cell_angle_beta 83.366556
_cell_angle_gamma 90.000000
_cell_volume 1348.319912
_symmetry_space_group_name_H-M "C 2/M"
_symmetry_group_IT_number 12
_symmetry_cell_setting 'monoclinic'
loop_
_space_group_symop_operation_xyz
x,y,z
-x,y,-z
-x,-y,-z
x,-y,z
1/2+x,1/2+y,z
1/2-x,1/2+y,-z
1/2-x,1/2-y,-z
1/2+x,1/2-y,z
loop_
_atom_site_type_symbol
_atom_site_label
_atom_site_fract_x
_atom_site_fract_y
_atom_site_fract_z
Si Si1 0.500000 0.633225 0.500000
Si Si2 0.845520 0.368938 0.078892
Si Si3 0.597932 0.786105 0.445617
Si Si4 0.591751 0.500000 0.767420
Si Si5 0.500000 0.000000 0.000000
Si Si6 0.296040 0.500000 0.774353
O O1 0.576580 0.693720 0.395476
O O2 0.535738 0.577235 0.711375
O O3 0.858362 0.303349 0.297443
O O4 0.761982 0.421991 0.156942
O O5 0.850247 0.327819 0.799155
O O6 0.925511 0.430394 0.061850
O O7 0.500000 0.821748 0.500000
O O8 0.667717 0.500000 0.527084
O O9 0.629773 0.500000 0.037513
#
# Coordination Sequence:
#
# PCOD9168919 Si02
#       6
#     4   8   8   4   2   4
#     4   9  24  42  76  85 116 160 224 271 294 350
#     4  11  21  36  58  91 129 163 198 247 304 376
#     4  10  20  37  61  92 117 151 213 258 297 345
#     4  11  24  48  62  93 118 168 214 257 308 370
#     4  10  16  30  52  80 112 166 200 228 276 350
#     4  11  26  40  62  91 140 164 196 245 324 382
#
# _framework density 22.249914
#
# number of rings (size 3 to 8) (size 9 to 14) (size 15 to 20)
#    0.800    0.800    2.667    1.600    0.000   10.667 
#    0.000    8.000    0.000    0.000    0.000    0.000 
#    0.000    0.000    0.000    0.000    0.000    0.000 
#
# Total GULP energy -83584.447147 kJ/mol
# GULP energy per Si atom -5572.296476 kJ/mol
# Density = 2.219927 g / cm^3
# Si number density = 22.249914 Si / 1000 Ang^3
#
#
#
# Elastic Constant Matrix: (Units=GPa)
#
#
# Indices 1 2 3 4 5 6 
#
# 1 80.8976 23.7116 9.3061 0.0000 -14.3602 0.0000
# 2 23.7116 94.6009 -15.4124 0.0000 -15.3322 0.0000
# 3 9.3061 -15.4124 59.3731 0.0000 -28.6526 0.0000
# 4 0.0000 0.0000 0.0000 1.8104 0.0000 -10.3980
# 5 -14.3602 -15.3322 -28.6526 0.0000 36.4072 0.0000
# 6 0.0000 0.0000 0.0000 -10.3980 0.0000 19.4534
#
#
#
# Elastic Compliance Matrix: (Units=1/GPa)
#
#
# Indices 1 2 3 4 5 6 
#
# 1 0.014034 -0.003356 -0.001744 0.000000 0.002750 0.000000
# 2 -0.003356 0.015587 0.011450 0.000000 0.014252 0.000000
# 3 -0.001744 0.011450 0.035606 0.000000 0.032156 0.000000
# 4 0.000000 0.000000 0.000000 -0.266846 0.000000 -0.142632
# 5 0.002750 0.014252 0.032156 0.000000 0.059861 0.000000
# 6 0.000000 0.000000 0.000000 -0.142632 0.000000 -0.024834
#
#
# Mechanical properties :
#
#
# Convention : Reuss Voigt Hill
#
# Bulk Modulus (GPa) = 12.83252 30.00913 21.42082
# Shear Modulus (GPa) = -32.61240 26.01861 -3.29690
#
# Velocity S-wave (km/s) = -3.83264 3.42333 -1.21860
# Velocity P-wave (km/s) = 3.71558 5.39835 2.76917
#
# Compressibility (1/GPa) = 0.07792702
#
# Stress axis : x y z
#
# Youngs Moduli (GPa) = 71.25723 64.15564 28.08477
#
# Poissons Ratio (x) = 0.21531 0.04898
# Poissons Ratio (y) = 0.23914 -0.32157
# Poissons Ratio (z) = 0.12427 -0.73457
#
# Static dielectric constant tensor:
#      x y z
#    x 1.840590 0.000000 -0.023260 
#    y 0.000000 1.805950 0.000000 
#    z -0.023260 0.000000 1.768560 
# 
# From -- ./inp_files/10003.got.cif
#   From: 2010.05.17/outbox.cif.g08.bks.cpg/sg12_6_cif.got.tgz:10003.got - 2010.06.03 13:09:07.
