data_PCOD9168211
_publ_section_title
;
Structure prediction by ZEFSAII (Michael W. Deem and Ramdas Pophale) SiO2 
 PCOD9168211
Probable space group: P 21/M
;
_chemical_formula_sum "Si O2"
_cell_formula_units_Z 28
_cell_length_a 9.000000
_cell_length_b 9.000000
_cell_length_c 27.000000
_cell_angle_alpha 90.000000
_cell_angle_beta 40.000000
_cell_angle_gamma 90.000000
_cell_volume 1405.776502
_symmetry_space_group_name_H-M "P 21/M"
_symmetry_group_IT_number 11
_symmetry_cell_setting 'monoclinic'
loop_
_space_group_symop_operation_xyz
x,y,z
-x,1/2+y,-z
-x,-y,-z
x,1/2-y,z
loop_
_atom_site_type_symbol
_atom_site_label
_atom_site_fract_x
_atom_site_fract_y
_atom_site_fract_z
Si Si1 0.981720 0.576663 0.844230
Si Si2 0.126730 0.428911 0.014799
Si Si3 0.362047 0.921835 0.580068
Si Si4 0.103309 0.571815 0.311407
Si Si5 0.522121 0.085049 0.335859
Si Si6 0.901044 0.079424 0.574491
Si Si7 0.646200 0.071638 0.850435
O O1 0.909223 0.750000 0.863055
O O2 0.956837 0.524910 0.908201
O O3 0.823991 0.490421 0.845362
O O4 0.236618 0.572744 0.754806
O O5 0.099207 0.250000 0.019637
O O6 0.394303 0.466557 0.935815
O O7 0.000000 0.500000 0.000000
O O8 0.310735 0.750000 0.579352
O O9 0.479344 0.914998 0.603964
O O10 0.500000 0.000000 0.500000
O O11 0.136897 0.018296 0.649701
O O12 0.123731 0.750000 0.310308
O O13 0.068479 0.516623 0.377334
O O14 0.294158 0.521296 0.221746
O O15 0.425981 0.250000 0.346135
O O16 0.372057 0.943619 0.360190
O O17 0.977218 0.250000 0.554409
O O18 0.000000 0.000000 0.500000
O O19 0.664366 0.250000 0.844484
#
# Coordination Sequence:
#
# PCOD9168211 Si02
#       7
#     4   4   4   4   4   4   4
#     4  10  21  40  62  89 122 156 196 242 292 348
#     4  10  23  40  62  92 125 158 195 240 289 346
#     4  11  22  37  59  86 116 152 194 242 292 346
#     4  10  22  39  58  84 118 153 195 244 293 347
#     4  10  22  39  58  84 119 154 194 243 292 347
#     4  11  24  40  59  84 116 157 200 245 297 352
#     4  10  21  39  62  89 120 155 196 243 292 348
#
# _framework density 19.917818
#
# number of rings (size 3 to 8) (size 9 to 14) (size 15 to 20)
#    0.000    1.714    1.429    2.143    2.000    7.429 
#    0.000    0.000    0.000    0.000    0.000    0.000 
#    0.000    0.000    0.000    0.000    0.000    0.000 
#
# Total GULP energy -155886.577164 kJ/mol
# GULP energy per Si atom -5567.377756 kJ/mol
# Density = 1.987248 g / cm^3
# Si number density = 19.917818 Si / 1000 Ang^3
#
#
#
# Elastic Constant Matrix: (Units=GPa)
#
#
# Indices 1 2 3 4 5 6 
#
# 1 68.5014 13.5972 32.7441 0.0000 19.8756 0.0000
# 2 13.5972 -4.1349 25.0633 0.0000 6.7807 0.0000
# 3 32.7441 25.0633 136.3233 0.0000 25.1980 0.0000
# 4 0.0000 0.0000 0.0000 25.3207 0.0000 1.9644
# 5 19.8756 6.7807 25.1980 0.0000 36.0615 0.0000
# 6 0.0000 0.0000 0.0000 1.9644 0.0000 29.9437
#
#
#
# Elastic Compliance Matrix: (Units=1/GPa)
#
#
# Indices 1 2 3 4 5 6 
#
# 1 0.016807 0.012538 -0.004816 0.000000 -0.008256 0.000000
# 2 0.012538 -0.103136 0.015666 0.000000 0.001536 0.000000
# 3 -0.004816 0.015666 0.006506 0.000000 -0.004838 0.000000
# 4 0.000000 0.000000 0.000000 0.039695 0.000000 -0.002604
# 5 -0.008256 0.001536 -0.004838 0.000000 0.035372 0.000000
# 6 0.000000 0.000000 0.000000 -0.002604 0.000000 0.033567
#
#
# Mechanical properties :
#
#
# Convention : Reuss Voigt Hill
#
# Bulk Modulus (GPa) = -30.26058 38.16658 3.95300
# Shear Modulus (GPa) = -172.53507 26.88419 -72.82544
#
# Velocity S-wave (km/s) = -9.31727 3.67789 -6.05329
# Velocity P-wave (km/s) = 11.44441 6.10241 6.84598
#
# Compressibility (1/GPa) = -0.03304629
#
# Stress axis : x y z
#
# Youngs Moduli (GPa) = 59.49899 -9.69598 153.70023
#
# Poissons Ratio (x) = 0.12157 0.74023
# Poissons Ratio (y) = -0.74598 -2.40793
# Poissons Ratio (z) = 0.28655 0.15190
#
# Static dielectric constant tensor:
#      x y z
#    x 1.782160 0.000000 -0.009880 
#    y 0.000000 1.694730 0.000000 
#    z -0.009880 0.000000 1.716420 
# 
# From -- ./inp_files/70776.got.cif
#   From: 2010.05.17/outbox.ucp.g08.bks.cvg/sg11_36_cif.got.tgz:70776.got - 2010.06.11 11:38:39.
