data_PCOD9168806
_publ_section_title
;
Structure prediction by ZEFSAII (Michael W. Deem and Ramdas Pophale) SiO2 
 PCOD9168806
Probable space group: C 2/M
;
_chemical_formula_sum "Si O2"
_cell_formula_units_Z 46
_cell_length_a 19.938071
_cell_length_b 13.895334
_cell_length_c 11.528999
_cell_angle_alpha 90.000000
_cell_angle_beta 128.054260
_cell_angle_gamma 90.000000
_cell_volume 2515.094053
_symmetry_space_group_name_H-M "C 2/M"
_symmetry_group_IT_number 12
_symmetry_cell_setting 'monoclinic'
loop_
_space_group_symop_operation_xyz
x,y,z
-x,y,-z
-x,-y,-z
x,-y,z
1/2+x,1/2+y,z
1/2-x,1/2+y,-z
1/2-x,1/2-y,-z
1/2+x,1/2-y,z
loop_
_atom_site_type_symbol
_atom_site_label
_atom_site_fract_x
_atom_site_fract_y
_atom_site_fract_z
Si Si1 0.871142 0.201704 0.223462
Si Si2 0.633689 0.163319 0.133993
Si Si3 0.203405 0.387877 0.951281
Si Si4 0.500000 0.000000 0.000000
Si Si5 0.000000 0.830380 0.000000
Si Si6 0.970263 0.891976 0.714337
Si Si7 0.688093 0.615033 0.600434
O O1 0.842888 0.312814 0.183032
O O2 0.860193 0.158699 0.339512
O O3 0.964429 0.181678 0.274752
O O4 0.801629 0.144504 0.070418
O O5 0.719472 0.163819 0.300608
O O6 0.662101 0.129629 0.034825
O O7 0.568389 0.084083 0.110012
O O8 0.582763 0.262363 0.071975
O O9 0.196033 0.500000 0.913801
O O10 0.984532 0.887778 0.866255
O O11 0.873532 0.870601 0.574236
O O12 0.989788 0.000000 0.691138
O O13 0.700632 0.500000 0.631214
#
# Coordination Sequence:
#
# PCOD9168806 Si02
#       7
#     8   8   8   2   4   8   8
#     4  10  19  33  55  86 109 140 185 229 278 327
#     4  10  18  33  54  82 109 142 186 232 272 320
#     4  10  18  32  55  84 113 140 181 234 276 326
#     4  10  16  28  58  80 108 140 186 234 254 326
#     4  11  23  35  53  82 108 150 186 220 280 334
#     4  11  22  37  56  80 113 149 183 229 275 340
#     4  10  20  36  58  83 111 141 186 235 283 321
#
# _framework density 18.289574999999999
#
# number of rings (size 3 to 8) (size 9 to 14) (size 15 to 20)
#    0.000    1.739    3.478    3.391    0.000    2.087 
#    0.000    0.000    0.000    2.087    0.000    0.000 
#    0.000    0.000    0.000    0.000    0.000    0.000 
#
# Total GULP energy -128055.094042 kJ/mol
# GULP energy per Si atom -5567.612784 kJ/mol
# Density = 1.824795 g / cm^3
# Si number density = 18.289575 Si / 1000 Ang^3
#
#
#
# Elastic Constant Matrix: (Units=GPa)
#
#
# Indices 1 2 3 4 5 6 
#
# 1 39.0623 13.2337 30.9142 0.0000 20.2931 0.0000
# 2 13.2337 88.3727 30.0886 0.0000 12.9519 0.0000
# 3 30.9142 30.0886 109.5649 0.0000 20.3141 0.0000
# 4 0.0000 0.0000 0.0000 20.3254 0.0000 -6.0018
# 5 20.2931 12.9519 20.3141 0.0000 22.5837 0.0000
# 6 0.0000 0.0000 0.0000 -6.0018 0.0000 -7.5361
#
#
#
# Elastic Compliance Matrix: (Units=1/GPa)
#
#
# Indices 1 2 3 4 5 6 
#
# 1 0.052467 0.000653 -0.007408 0.000000 -0.040856 0.000000
# 2 0.000653 0.012958 -0.002708 0.000000 -0.005583 0.000000
# 3 -0.007408 -0.002708 0.012528 0.000000 -0.003059 0.000000
# 4 0.000000 0.000000 0.000000 0.039832 0.000000 -0.031723
# 5 -0.040856 -0.005583 -0.003059 0.000000 0.086946 0.000000
# 6 0.000000 0.000000 0.000000 -0.031723 0.000000 -0.107431
#
#
# Mechanical properties :
#
#
# Convention : Reuss Voigt Hill
#
# Bulk Modulus (GPa) = 16.94117 42.83033 29.88575
# Shear Modulus (GPa) = 36.79146 17.92549 27.35848
#
# Velocity S-wave (km/s) = 4.48996 3.13404 3.87182
# Velocity P-wave (km/s) = 6.01353 6.04690 6.03024
#
# Compressibility (1/GPa) = 0.05902778
#
# Stress axis : x y z
#
# Youngs Moduli (GPa) = 19.05968 77.17224 79.82070
#
# Poissons Ratio (x) = -0.05042 0.59132
# Poissons Ratio (y) = -0.01245 0.21613
# Poissons Ratio (z) = 0.14120 0.20896
#
# Static dielectric constant tensor:
#      x y z
#    x 1.645650 0.000000 0.009670 
#    y 0.000000 1.619200 0.000000 
#    z 0.009670 0.000000 1.630060 
# 
# From -- ./inp_files/166903.got.cif
#   From: 2010.05.17/outbox.cif.g08.bks.cpg/sg12_84_cif.got.tgz:166903.got - 2010.06.03 13:09:07.
