data_PCOD9168993
_publ_section_title
;
Structure prediction by ZEFSAII (Michael W. Deem and Ramdas Pophale) SiO2 
 PCOD9168993
Probable space group: C 2/M
;
_chemical_formula_sum "Si O2"
_cell_formula_units_Z 54
_cell_length_a 18.518502
_cell_length_b 25.564627
_cell_length_c 5.641254
_cell_angle_alpha 90.000000
_cell_angle_beta 117.077291
_cell_angle_gamma 90.000000
_cell_volume 2377.950695
_symmetry_space_group_name_H-M "C 2/M"
_symmetry_group_IT_number 12
_symmetry_cell_setting 'monoclinic'
loop_
_space_group_symop_operation_xyz
x,y,z
-x,y,-z
-x,-y,-z
x,-y,z
1/2+x,1/2+y,z
1/2-x,1/2+y,-z
1/2-x,1/2-y,-z
1/2+x,1/2-y,z
loop_
_atom_site_type_symbol
_atom_site_label
_atom_site_fract_x
_atom_site_fract_y
_atom_site_fract_z
Si Si1 0.647765 0.278688 0.973238
Si Si2 0.237914 0.351739 0.631188
Si Si3 0.226136 0.059414 0.933934
Si Si4 0.500000 0.000000 0.000000
Si Si5 0.880719 0.135046 0.463378
Si Si6 0.047165 0.318431 0.817846
Si Si7 0.000000 0.166169 0.000000
Si Si8 0.124087 0.409622 0.152169
O O1 0.629760 0.313298 0.713626
O O2 0.627012 0.218190 0.924071
O O3 0.575948 0.299191 0.037488
O O4 0.734430 0.297000 0.207488
O O5 0.248047 0.398227 0.833381
O O6 0.307767 0.360435 0.541898
O O7 0.153314 0.364176 0.377614
O O8 0.220609 0.000000 0.009541
O O9 0.141559 0.082863 0.712711
O O10 0.296273 0.063641 0.839690
O O11 0.566624 0.045980 0.166787
O O12 0.965710 0.134203 0.726599
O O13 0.000000 0.308006 0.500000
O O14 0.076366 0.378194 0.876884
O O15 0.000000 0.309136 0.000000
#
# Coordination Sequence:
#
# PCOD9168993 Si02
#       8
#     8   8   8   2   8   8   4   8
#     4  10  20  39  67  97 136 182 224 283 355 418
#     4   9  22  40  65  96 129 177 237 288 350 423
#     4  10  21  40  64  91 128 178 231 294 352 419
#     4  12  24  46  74 104 142 194 232 304 354 422
#     4   9  19  35  59  96 129 171 229 282 345 426
#     4  12  27  45  69 107 152 185 236 297 357 432
#     4  10  16  31  61  92 130 173 221 270 342 426
#     4  11  25  45  67 101 138 181 243 292 357 419
#
# _framework density 22.708628999999998
#
# number of rings (size 3 to 8) (size 9 to 14) (size 15 to 20)
#    0.000    1.778    2.222    1.333    5.185    1.185 
#    0.000    8.148    0.000   11.556    0.000    0.000 
#    0.000    0.000    0.000    0.000    0.000    0.000 
#
# Total GULP energy -150414.479505 kJ/mol
# GULP energy per Si atom -5570.906648 kJ/mol
# Density = 2.265694 g / cm^3
# Si number density = 22.708629 Si / 1000 Ang^3
#
#
#
# Elastic Constant Matrix: (Units=GPa)
#
#
# Indices 1 2 3 4 5 6 
#
# 1 79.1161 22.0493 16.2600 0.0000 5.7342 0.0000
# 2 22.0493 111.6737 22.0675 0.0000 18.6666 0.0000
# 3 16.2600 22.0675 85.9928 0.0000 11.7555 0.0000
# 4 0.0000 0.0000 0.0000 0.0066 0.0000 4.3313
# 5 5.7342 18.6666 11.7555 0.0000 28.4783 0.0000
# 6 0.0000 0.0000 0.0000 4.3313 0.0000 36.0183
#
#
#
# Elastic Compliance Matrix: (Units=1/GPa)
#
#
# Indices 1 2 3 4 5 6 
#
# 1 0.013699 -0.002238 -0.001949 0.000000 -0.000487 0.000000
# 2 -0.002238 0.010686 -0.001508 0.000000 -0.005931 0.000000
# 3 -0.001949 -0.001508 0.012925 0.000000 -0.003954 0.000000
# 4 0.000000 0.000000 0.000000 -1.944643 0.000000 0.233850
# 5 -0.000487 -0.005931 -0.003954 0.000000 0.040732 0.000000
# 6 0.000000 0.000000 0.000000 0.233850 0.000000 -0.000358
#
#
# Mechanical properties :
#
#
# Convention : Reuss Voigt Hill
#
# Bulk Modulus (GPa) = 38.58241 44.17070 41.37655
# Shear Modulus (GPa) = -2.70720 27.32769 12.31025
#
# Velocity S-wave (km/s) = -1.09304 3.47278 2.33082
# Velocity P-wave (km/s) = 3.92863 5.96436 5.05013
#
# Compressibility (1/GPa) = 0.02591855
#
# Stress axis : x y z
#
# Youngs Moduli (GPa) = 72.99601 93.58005 77.36887
#
# Poissons Ratio (x) = 0.20946 0.15083
# Poissons Ratio (y) = 0.16339 0.11669
# Poissons Ratio (z) = 0.14230 0.14114
#
# Static dielectric constant tensor:
#      x y z
#    x 1.880420 0.000000 -0.022080 
#    y 0.000000 1.799040 0.000000 
#    z -0.022080 0.000000 1.953610 
# 
# From -- ./inp_files/22381.got.cif
#   From: 2010.05.17/outbox.cif.g08.bks.cpg/sg12_12_cif.got.tgz:22381.got - 2010.06.03 13:09:07.
