data_PCOD9168623
_publ_section_title
;
Structure prediction by ZEFSAII (Michael W. Deem and Ramdas Pophale) SiO2 
 PCOD9168623
Probable space group: C 2/M
;
_chemical_formula_sum "Si O2"
_cell_formula_units_Z 40
_cell_length_a 23.860059
_cell_length_b 14.067003
_cell_length_c 12.277134
_cell_angle_alpha 90.000000
_cell_angle_beta 152.427114
_cell_angle_gamma 90.000000
_cell_volume 1907.371643
_symmetry_space_group_name_H-M "C 2/M"
_symmetry_group_IT_number 12
_symmetry_cell_setting 'monoclinic'
loop_
_space_group_symop_operation_xyz
x,y,z
-x,y,-z
-x,-y,-z
x,-y,z
1/2+x,1/2+y,z
1/2-x,1/2+y,-z
1/2-x,1/2-y,-z
1/2+x,1/2-y,z
loop_
_atom_site_type_symbol
_atom_site_label
_atom_site_fract_x
_atom_site_fract_y
_atom_site_fract_z
Si Si1 0.314280 0.214307 0.364633
Si Si2 0.718739 0.615064 0.981232
Si Si3 0.535368 0.608850 0.390315
Si Si4 0.040751 0.610488 0.697618
Si Si5 0.096790 0.890367 0.072853
O O1 0.266082 0.165785 0.171119
O O2 0.349412 0.323641 0.412859
O O3 0.447938 0.168473 0.611034
O O4 0.210203 0.181463 0.267978
O O5 0.723824 0.500000 0.005337
O O6 0.818525 0.639099 0.062587
O O7 0.577826 0.639885 0.727587
O O8 0.566747 0.500000 0.471507
O O9 0.474639 0.611998 0.165376
O O10 0.031244 0.500000 0.709789
O O11 0.000000 0.618713 0.500000
O O12 0.141084 0.000000 0.161171
O O13 0.000000 0.870641 0.000000
#
# Coordination Sequence:
#
# PCOD9168623 Si02
#       5
#     8   8   8   8   8
#     4  10  16  25  47  68  87 113 147 180 213 255
#     4   8  15  29  46  66  92 117 144 179 216 254
#     4   9  18  30  44  64  89 118 147 175 213 258
#     4   8  13  23  42  67  91 113 141 180 218 250
#     4   9  18  33  50  67  87 109 139 182 225 263
#
# _framework density 20.971266
#
# number of rings (size 3 to 8) (size 9 to 14) (size 15 to 20)
#    0.000    3.200    0.000    4.200    0.000    1.600 
#    0.000    0.000    0.000   20.400    0.000    0.000 
#    0.000    0.000    0.000    0.000    0.000    0.000 
#
# Total GULP energy -111601.184562 kJ/mol
# GULP energy per Si atom -5580.059228 kJ/mol
# Density = 2.092353 g / cm^3
# Si number density = 20.971266 Si / 1000 Ang^3
#
#
#
# Elastic Constant Matrix: (Units=GPa)
#
#
# Indices 1 2 3 4 5 6 
#
# 1 65.1049 46.7178 69.5428 0.0000 39.0812 0.0000
# 2 46.7178 88.1858 54.6415 0.0000 34.8437 0.0000
# 3 69.5428 54.6415 82.6967 0.0000 33.0690 0.0000
# 4 0.0000 0.0000 0.0000 39.4782 0.0000 16.4449
# 5 39.0812 34.8437 33.0690 0.0000 32.6973 0.0000
# 6 0.0000 0.0000 0.0000 16.4449 0.0000 20.6207
#
#
#
# Elastic Compliance Matrix: (Units=1/GPa)
#
#
# Indices 1 2 3 4 5 6 
#
# 1 -1.050541 -0.163434 0.704651 0.000000 0.717154 0.000000
# 2 -0.163434 -0.002390 0.100549 0.000000 0.096198 0.000000
# 3 0.704651 0.100549 -0.448766 0.000000 -0.495511 0.000000
# 4 0.000000 0.000000 0.000000 0.037931 0.000000 -0.030250
# 5 0.717154 0.096198 -0.495511 0.000000 -0.427959 0.000000
# 6 0.000000 0.000000 0.000000 -0.030250 0.000000 0.072619
#
#
# Mechanical properties :
#
#
# Convention : Reuss Voigt Hill
#
# Bulk Modulus (GPa) = -4.58367 64.19909 29.80771
# Shear Modulus (GPa) = -1.57462 22.89828 10.66183
#
# Velocity S-wave (km/s) = -0.86746 3.30796 2.25722
# Velocity P-wave (km/s) = 1.78710 6.72826 4.58670
#
# Compressibility (1/GPa) = -0.21816563
#
# Stress axis : x y z
#
# Youngs Moduli (GPa) = -0.95189 -418.35571 -2.22833
#
# Poissons Ratio (x) = -68.37338 1.57020
# Poissons Ratio (y) = -0.15557 0.22406
# Poissons Ratio (z) = 0.67075 42.06522
#
# Static dielectric constant tensor:
#      x y z
#    x 1.787950 0.000000 0.017180 
#    y 0.000000 1.799230 0.000000 
#    z 0.017180 0.000000 1.802010 
# 
# From -- ./inp_files/129818.got.cif
#   From: 2010.05.17/outbox.cif.g08.bks.cpg/sg12_65_cif.got.tgz:129818.got - 2010.06.03 13:09:07.
