data_PCOD9168271
_publ_section_title
;
Structure prediction by ZEFSAII (Michael W. Deem and Ramdas Pophale) SiO2 
 PCOD9168271
Probable space group: P 21/M
;
_chemical_formula_sum "Si O2"
_cell_formula_units_Z 28
_cell_length_a 27.000000
_cell_length_b 9.000000
_cell_length_c 9.000000
_cell_angle_alpha 90.000000
_cell_angle_beta 140.000000
_cell_angle_gamma 90.000000
_cell_volume 1405.776502
_symmetry_space_group_name_H-M "P 21/M"
_symmetry_group_IT_number 11
_symmetry_cell_setting 'monoclinic'
loop_
_space_group_symop_operation_xyz
x,y,z
-x,1/2+y,-z
-x,-y,-z
x,1/2-y,z
loop_
_atom_site_type_symbol
_atom_site_label
_atom_site_fract_x
_atom_site_fract_y
_atom_site_fract_z
Si Si1 0.023090 0.926401 0.208052
Si Si2 0.735407 0.080684 0.146360
Si Si3 0.259414 0.572789 0.485233
Si Si4 0.137395 0.078715 0.687449
Si Si5 0.116765 0.570816 0.952247
Si Si6 0.575085 0.430601 0.106857
Si Si7 0.560516 0.418479 0.738863
O O1 0.034538 0.750000 0.220128
O O2 0.094804 0.008338 0.447558
O O3 0.954038 0.972258 0.156598
O O4 0.000000 0.000000 0.000000
O O5 0.766756 0.250000 0.192396
O O6 0.744630 0.053766 0.345317
O O7 0.774645 0.946190 0.152163
O O8 0.648299 0.085268 0.888155
O O9 0.259460 0.750000 0.464132
O O10 0.344348 0.517539 0.636910
O O11 0.188973 0.522382 0.221518
O O12 0.115717 0.250000 0.662265
O O13 0.125076 0.974185 0.800715
O O14 0.104394 0.750000 0.940117
O O15 0.574737 0.250000 0.110772
O O16 0.500000 0.500000 0.000000
O O17 0.571048 0.480965 0.927333
O O18 0.500000 0.500000 0.500000
O O19 0.533198 0.250000 0.691489
#
# Coordination Sequence:
#
# PCOD9168271 Si02
#       7
#     4   4   4   4   4   4   4
#     4  12  25  43  65  90 118 151 190 233 280 338
#     4   9  18  37  60  81 107 147 193 239 287 342
#     4   8  17  35  59  80 105 142 187 231 278 334
#     4  12  25  40  58  86 120 153 188 235 288 340
#     4  11  22  39  62  88 116 151 191 236 286 339
#     4   9  18  34  53  78 108 143 184 229 277 332
#     4   9  19  34  54  79 111 147 188 235 287 343
#
# _framework density 19.917818
#
# number of rings (size 3 to 8) (size 9 to 14) (size 15 to 20)
#    0.000    2.000    0.000    6.000    0.000    3.429 
#    0.000    8.571    0.000    0.000    0.000    0.000 
#    0.000    0.000    0.000    0.000    0.000    0.000 
#
# Total GULP energy -155909.779278 kJ/mol
# GULP energy per Si atom -5568.206403 kJ/mol
# Density = 1.987248 g / cm^3
# Si number density = 19.917818 Si / 1000 Ang^3
#
#
#
# Elastic Constant Matrix: (Units=GPa)
#
#
# Indices 1 2 3 4 5 6 
#
# 1 24.3773 4.2905 4.6179 0.0000 14.1439 0.0000
# 2 4.2905 47.1087 19.5310 0.0000 -0.2196 0.0000
# 3 4.6179 19.5310 63.5576 0.0000 1.0995 0.0000
# 4 0.0000 0.0000 0.0000 31.4789 0.0000 1.8092
# 5 14.1439 -0.2196 1.0995 0.0000 20.5554 0.0000
# 6 0.0000 0.0000 0.0000 1.8092 0.0000 30.3812
#
#
#
# Elastic Compliance Matrix: (Units=1/GPa)
#
#
# Indices 1 2 3 4 5 6 
#
# 1 0.070658 -0.005594 -0.002575 0.000000 -0.048541 0.000000
# 2 -0.005594 0.024779 -0.007286 0.000000 0.004504 0.000000
# 3 -0.002575 -0.007286 0.018147 0.000000 0.000723 0.000000
# 4 0.000000 0.000000 0.000000 0.031876 0.000000 -0.001898
# 5 -0.048541 0.004504 0.000723 0.000000 0.082059 0.000000
# 6 0.000000 0.000000 0.000000 -0.001898 0.000000 0.033028
#
#
# Mechanical properties :
#
#
# Convention : Reuss Voigt Hill
#
# Bulk Modulus (GPa) = 12.09568 21.32470 16.71019
# Shear Modulus (GPa) = 15.67323 23.59006 19.63164
#
# Velocity S-wave (km/s) = 2.80821 3.44520 3.14288
# Velocity P-wave (km/s) = 4.07439 5.15320 4.64522
#
# Compressibility (1/GPa) = 0.08267418
#
# Stress axis : x y z
#
# Youngs Moduli (GPa) = 14.15268 40.35734 55.10478
#
# Poissons Ratio (x) = 0.22576 0.14190
# Poissons Ratio (y) = 0.07917 0.40149
# Poissons Ratio (z) = 0.03644 0.29404
#
# Static dielectric constant tensor:
#      x y z
#    x 1.725880 0.000000 0.211760 
#    y 0.000000 1.683110 0.000000 
#    z 0.211760 0.000000 1.541180 
# 
# From -- ./inp_files/28359.got.cif
#   From: 2010.05.17/outbox.ucp.g08.bks.cvg/sg11_15_cif.got.tgz:28359.got - 2010.06.11 11:38:39.
