data_PCOD9168754
_publ_section_title
;
Structure prediction by ZEFSAII (Michael W. Deem and Ramdas Pophale) SiO2 
 PCOD9168754
Probable space group: C 2/M
;
_chemical_formula_sum "Si O2"
_cell_formula_units_Z 52
_cell_length_a 27.372320
_cell_length_b 13.445429
_cell_length_c 19.965019
_cell_angle_alpha 90.000000
_cell_angle_beta 23.199805
_cell_angle_gamma 90.000000
_cell_volume 2894.574536
_symmetry_space_group_name_H-M "C 2/M"
_symmetry_group_IT_number 12
_symmetry_cell_setting 'monoclinic'
loop_
_space_group_symop_operation_xyz
x,y,z
-x,y,-z
-x,-y,-z
x,-y,z
1/2+x,1/2+y,z
1/2-x,1/2+y,-z
1/2-x,1/2-y,-z
1/2+x,1/2-y,z
loop_
_atom_site_type_symbol
_atom_site_label
_atom_site_fract_x
_atom_site_fract_y
_atom_site_fract_z
Si Si1 0.014210 0.302172 0.646480
Si Si2 0.031791 0.885658 0.035233
Si Si3 0.836613 0.000000 0.780567
Si Si4 0.038041 0.793155 0.160951
Si Si5 0.170582 0.384412 0.330324
Si Si6 0.178721 0.778950 0.209765
Si Si7 0.603622 0.500000 0.145027
Si Si8 0.867705 0.500000 0.857774
O O1 0.049008 0.259124 0.674864
O O2 0.906694 0.233793 0.748322
O O3 0.947398 0.404708 0.745736
O O4 0.118881 0.328455 0.460972
O O5 0.180691 0.888453 0.854268
O O6 0.985904 0.000000 0.102175
O O7 0.990077 0.810916 0.146297
O O8 0.000000 0.854663 0.000000
O O9 0.847364 0.107862 0.732208
O O10 0.918170 0.000000 0.746937
O O11 0.698794 0.000000 0.986593
O O12 0.058018 0.902963 0.165408
O O13 0.174169 0.739015 0.988768
O O14 0.127157 0.500000 0.380432
O O15 0.139391 0.311696 0.307692
O O16 0.752857 0.500000 0.951322
#
# Coordination Sequence:
#
# PCOD9168754 Si02
#       8
#     8   8   4   8   8   8   4   4
#     4  12  19  31  47  79 105 136 169 207 255 299
#     4   9  19  36  56  76  97 127 169 218 266 312
#     4  10  18  32  46  70 107 148 184 201 227 295
#     4  11  18  30  53  76 101 137 174 209 251 297
#     4  10  23  34  51  76 107 134 169 217 266 296
#     4  11  20  31  47  75 108 148 175 200 244 300
#     4  10  16  28  45  77 101 136 174 215 231 287
#     4  10  18  26  48  71 107 136 163 214 241 282
#
# _framework density 17.964644
#
# number of rings (size 3 to 8) (size 9 to 14) (size 15 to 20)
#    0.462    1.077    6.154    0.923    2.154    0.615 
#    0.000    3.077    0.000    0.000    0.000   13.462 
#    0.000    0.000    0.000    0.000    0.000    0.000 
#
# Total GULP energy -144820.415874 kJ/mol
# GULP energy per Si atom -5570.015995 kJ/mol
# Density = 1.792376 g / cm^3
# Si number density = 17.964644 Si / 1000 Ang^3
#
#
#
# Elastic Constant Matrix: (Units=GPa)
#
#
# Indices 1 2 3 4 5 6 
#
# 1 64.5066 19.5185 6.3922 0.0000 23.9771 0.0000
# 2 19.5185 111.5995 6.0194 0.0000 12.8813 0.0000
# 3 6.3922 6.0194 38.4829 0.0000 24.6184 0.0000
# 4 0.0000 0.0000 0.0000 19.0230 0.0000 11.4586
# 5 23.9771 12.8813 24.6184 0.0000 24.6749 0.0000
# 6 0.0000 0.0000 0.0000 11.4586 0.0000 19.8378
#
#
#
# Elastic Compliance Matrix: (Units=1/GPa)
#
#
# Indices 1 2 3 4 5 6 
#
# 1 0.052336 0.000826 0.066310 0.000000 -0.117446 0.000000
# 2 0.000826 0.009863 0.005881 0.000000 -0.011819 0.000000
# 3 0.066310 0.005881 0.158224 0.000000 -0.225367 0.000000
# 4 0.000000 0.000000 0.000000 0.080617 0.000000 -0.046565
# 5 -0.117446 -0.011819 -0.225367 0.000000 0.385674 0.000000
# 6 0.000000 0.000000 0.000000 -0.046565 0.000000 0.077305
#
#
# Mechanical properties :
#
#
# Convention : Reuss Voigt Hill
#
# Bulk Modulus (GPa) = 2.72882 30.93879 16.83380
# Shear Modulus (GPa) = 6.75552 24.88440 15.81996
#
# Velocity S-wave (km/s) = 1.94129 3.72585 2.97074
# Velocity P-wave (km/s) = 2.55873 5.98069 4.59977
#
# Compressibility (1/GPa) = 0.36645880
#
# Stress axis : x y z
#
# Youngs Moduli (GPa) = 19.10731 101.38729 6.32015
#
# Poissons Ratio (x) = -0.08376 -0.41909
# Poissons Ratio (y) = -0.01578 -0.03717
# Poissons Ratio (z) = -1.26701 -0.59628
#
# Static dielectric constant tensor:
#      x y z
#    x 1.644420 0.000000 0.041620 
#    y 0.000000 1.649200 0.000000 
#    z 0.041620 0.000000 1.658760 
# 
# From -- ./inp_files/293125.got.cif
#   From: 2010.05.17/outbox.cif.g08.bks.cpg/sg12_147_cif.got.tgz:293125.got - 2010.06.03 13:09:07.
