data_PCOD9168867
_publ_section_title
;
Structure prediction by ZEFSAII (Michael W. Deem and Ramdas Pophale) SiO2 
 PCOD9168867
Probable space group: C 2/M
;
_chemical_formula_sum "Si O2"
_cell_formula_units_Z 48
_cell_length_a 7.825021
_cell_length_b 22.425870
_cell_length_c 19.117863
_cell_angle_alpha 90.000000
_cell_angle_beta 40.868222
_cell_angle_gamma 90.000000
_cell_volume 2195.155770
_symmetry_space_group_name_H-M "C 2/M"
_symmetry_group_IT_number 12
_symmetry_cell_setting 'monoclinic'
loop_
_space_group_symop_operation_xyz
x,y,z
-x,y,-z
-x,-y,-z
x,-y,z
1/2+x,1/2+y,z
1/2-x,1/2+y,-z
1/2-x,1/2-y,-z
1/2+x,1/2-y,z
loop_
_atom_site_type_symbol
_atom_site_label
_atom_site_fract_x
_atom_site_fract_y
_atom_site_fract_z
Si Si1 0.780193 0.880703 0.668545
Si Si2 0.258148 0.841645 0.669990
Si Si3 0.499900 0.314546 0.112838
Si Si4 0.697812 0.232321 0.612604
Si Si5 0.936580 0.674539 0.872739
Si Si6 0.667908 0.069973 0.549735
O O1 0.702260 0.812492 0.675723
O O2 0.638176 0.879064 0.788170
O O3 0.668710 0.915964 0.634016
O O4 0.083031 0.897747 0.563546
O O5 0.075617 0.848371 0.793098
O O6 0.504701 0.799833 0.618771
O O7 0.125608 0.799481 0.653835
O O8 0.398612 0.902067 0.605685
O O9 0.285062 0.325087 0.119424
O O10 0.480943 0.244207 0.139951
O O11 0.774833 0.334178 0.995218
O O12 0.000000 0.230422 0.500000
O O13 0.691848 0.000000 0.531880
#
# Coordination Sequence:
#
# PCOD9168867 Si02
#       6
#     8   8   8   8   8   8
#     4  10  16  30  47  70  96 125 164 210 241 293
#     4  11  19  32  50  75 104 130 163 205 252 308
#     4  10  18  30  45  70 104 135 155 198 247 310
#     4  11  19  28  47  78 103 124 162 202 264 301
#     4  10  19  29  46  70 104 132 161 194 252 303
#     4  10  20  32  49  71  98 139 176 205 244 292
#
# _framework density 21.866330999999999
#
# number of rings (size 3 to 8) (size 9 to 14) (size 15 to 20)
#    0.000    1.667    8.333    1.500    0.000    0.000 
#    0.000    0.000    0.000    3.500    0.000    0.000 
#    0.000    0.000    0.000   27.000    0.000    0.000 
#
# Total GULP energy -133744.402079 kJ/mol
# GULP energy per Si atom -5572.683420 kJ/mol
# Density = 2.181656 g / cm^3
# Si number density = 21.866331 Si / 1000 Ang^3
#
#
#
# Elastic Constant Matrix: (Units=GPa)
#
#
# Indices 1 2 3 4 5 6 
#
# 1 52.9877 7.0745 1.8980 0.0000 3.9820 0.0000
# 2 7.0745 103.4402 48.6797 0.0000 2.4291 0.0000
# 3 1.8980 48.6797 175.7888 -0.0001 7.5286 0.0000
# 4 0.0000 0.0000 -0.0001 10.1650 0.0000 4.3570
# 5 3.9820 2.4291 7.5286 0.0000 16.9175 0.0000
# 6 0.0000 0.0000 0.0000 4.3570 0.0000 18.7420
#
#
#
# Elastic Compliance Matrix: (Units=1/GPa)
#
#
# Indices 1 2 3 4 5 6 
#
# 1 0.019385 -0.001394 0.000371 0.000000 -0.004528 0.000000
# 2 -0.001394 0.011217 -0.003095 0.000000 0.000095 0.000000
# 3 0.000371 -0.003095 0.006653 0.000000 -0.002604 0.000000
# 4 0.000000 0.000000 0.000000 0.109264 0.000000 -0.025401
# 5 -0.004528 0.000095 -0.002604 0.000000 0.061321 0.000000
# 6 0.000000 0.000000 0.000000 -0.025401 0.000000 0.059261
#
#
# Mechanical properties :
#
#
# Convention : Reuss Voigt Hill
#
# Bulk Modulus (GPa) = 34.46051 49.72455 42.09253
# Shear Modulus (GPa) = 17.54308 27.46921 22.50615
#
# Velocity S-wave (km/s) = 2.83554 3.54818 3.21169
# Velocity P-wave (km/s) = 5.14920 6.29093 5.74848
#
# Compressibility (1/GPa) = 0.02901872
#
# Stress axis : x y z
#
# Youngs Moduli (GPa) = 51.58527 89.14884 150.30126
#
# Poissons Ratio (x) = 0.12426 -0.05570
# Poissons Ratio (y) = 0.07190 0.46523
# Poissons Ratio (z) = -0.01912 0.27594
#
# Static dielectric constant tensor:
#      x y z
#    x 1.955040 0.000000 0.022040 
#    y 0.000000 1.820770 0.000000 
#    z 0.022040 0.000000 1.996360 
# 
# From -- ./inp_files/358835.got.cif
#   From: 2010.05.17/outbox.cif.g08.bks.cpg/sg12_180_cif.got.tgz:358835.got - 2010.06.03 13:09:07.
