data_PCOD9168451
_publ_section_title
;
Structure prediction by ZEFSAII (Michael W. Deem and Ramdas Pophale) SiO2 
 PCOD9168451
Probable space group: C 2/M
;
_chemical_formula_sum "Si O2"
_cell_formula_units_Z 32
_cell_length_a 13.795861
_cell_length_b 15.038908
_cell_length_c 7.948837
_cell_angle_alpha 90.000000
_cell_angle_beta 57.653445
_cell_angle_gamma 90.000000
_cell_volume 1393.274474
_symmetry_space_group_name_H-M "C 2/M"
_symmetry_group_IT_number 12
_symmetry_cell_setting 'monoclinic'
loop_
_space_group_symop_operation_xyz
x,y,z
-x,y,-z
-x,-y,-z
x,-y,z
1/2+x,1/2+y,z
1/2-x,1/2+y,-z
1/2-x,1/2-y,-z
1/2+x,1/2-y,z
loop_
_atom_site_type_symbol
_atom_site_label
_atom_site_fract_x
_atom_site_fract_y
_atom_site_fract_z
Si Si1 0.458334 0.398850 0.270288
Si Si2 0.130504 0.500000 0.453728
Si Si3 0.319766 0.640340 0.749158
Si Si4 0.865388 0.500000 0.148893
Si Si5 0.740450 0.311228 0.681601
O O1 0.443881 0.500000 0.230668
O O2 0.589608 0.380891 0.191043
O O3 0.387196 0.387469 0.513431
O O4 0.392520 0.336404 0.202327
O O5 0.142037 0.500000 0.644045
O O6 0.192065 0.404864 0.358547
O O7 0.000000 0.500000 0.500000
O O8 0.203761 0.583732 0.860366
O O9 0.289316 0.743320 0.770835
O O10 0.000000 0.500000 0.000000
O O11 0.750000 0.250000 0.500000
#
# Coordination Sequence:
#
# PCOD9168451 Si02
#       5
#     8   4   8   4   8
#     4  10  15  29  54  80 113 136 199 258 273 316
#     4  12  24  37  55  94 124 148 190 253 312 333
#     4  10  18  30  54  88 107 146 197 240 288 326
#     4  12  22  38  58  87 129 158 189 239 292 369
#     4  10  19  31  54  85 122 142 185 253 300 332
#
# _framework density 22.967478
#
# number of rings (size 3 to 8) (size 9 to 14) (size 15 to 20)
#    0.000    1.500    8.750    0.750    7.000    0.000 
#    0.000    0.000    0.000    6.000    0.000    2.625 
#    0.000    0.000    0.000    0.000    0.000    0.000 
#
# Total GULP energy -89313.316397 kJ/mol
# GULP energy per Si atom -5582.082275 kJ/mol
# Density = 2.291520 g / cm^3
# Si number density = 22.967478 Si / 1000 Ang^3
#
#
#
# Elastic Constant Matrix: (Units=GPa)
#
#
# Indices 1 2 3 4 5 6 
#
# 1 121.1857 57.8053 55.1740 0.0000 -50.7522 0.0000
# 2 57.8053 207.3290 48.0327 0.0000 -38.6461 0.0000
# 3 55.1740 48.0327 76.8008 0.0000 -29.4164 0.0000
# 4 0.0000 0.0000 0.0000 -14.4038 0.0000 -15.0199
# 5 -50.7522 -38.6461 -29.4164 0.0000 59.7730 0.0000
# 6 0.0000 0.0000 0.0000 -15.0199 0.0000 42.6622
#
#
#
# Elastic Compliance Matrix: (Units=1/GPa)
#
#
# Indices 1 2 3 4 5 6 
#
# 1 0.015935 -0.001032 -0.007240 0.000000 0.009300 0.000000
# 2 -0.001032 0.005990 -0.002288 0.000000 0.001870 0.000000
# 3 -0.007240 -0.002288 0.020619 0.000000 0.002520 0.000000
# 4 0.000000 0.000000 0.000000 -0.050783 0.000000 -0.017879
# 5 0.009300 0.001870 0.002520 0.000000 0.027076 0.000000
# 6 0.000000 0.000000 0.000000 -0.017879 0.000000 0.017145
#
#
# Mechanical properties :
#
#
# Convention : Reuss Voigt Hill
#
# Bulk Modulus (GPa) = 46.68113 80.81548 63.74831
# Shear Modulus (GPa) = 77.82784 33.89321 55.86053
#
# Velocity S-wave (km/s) = 5.82749 3.84566 4.93704
# Velocity P-wave (km/s) = 8.10238 7.41499 7.76629
#
# Compressibility (1/GPa) = 0.02142193
#
# Stress axis : x y z
#
# Youngs Moduli (GPa) = 62.75383 166.95203 48.49981
#
# Poissons Ratio (x) = 0.17229 0.35116
# Poissons Ratio (y) = 0.06476 0.11099
# Poissons Ratio (z) = 0.45437 0.38205
#
# Static dielectric constant tensor:
#      x y z
#    x 1.868220 0.000000 0.067150 
#    y 0.000000 1.926940 0.000000 
#    z 0.067150 0.000000 2.080560 
# 
# From -- ./inp_files/58733.got.cif
#   From: 2010.05.17/outbox.cif.g08.bks.cpg/sg12_30_cif.got.tgz:58733.got - 2010.06.03 13:09:07.
