data_PCOD9168049
_publ_section_title
;
Structure prediction by ZEFSAII (Michael W. Deem and Ramdas Pophale) SiO2 
 PCOD9168049
Probable space group: P 21/M
;
_chemical_formula_sum "Si O2"
_cell_formula_units_Z 24
_cell_length_a 24.000000
_cell_length_b 9.000000
_cell_length_c 12.000000
_cell_angle_alpha 90.000000
_cell_angle_beta 30.000000
_cell_angle_gamma 90.000000
_cell_volume 1296.000000
_symmetry_space_group_name_H-M "P 21/M"
_symmetry_group_IT_number 11
_symmetry_cell_setting 'monoclinic'
loop_
_space_group_symop_operation_xyz
x,y,z
-x,1/2+y,-z
-x,-y,-z
x,1/2-y,z
loop_
_atom_site_type_symbol
_atom_site_label
_atom_site_fract_x
_atom_site_fract_y
_atom_site_fract_z
Si Si1 0.958282 0.572091 0.907342
Si Si2 0.334944 0.071453 0.826982
Si Si3 0.828265 0.573117 0.351935
Si Si4 0.405351 0.928219 0.239952
Si Si5 0.441053 0.928343 0.435207
Si Si6 0.090160 0.071947 0.264725
O O1 0.978731 0.750000 0.878680
O O2 0.927635 0.534185 0.834337
O O3 0.067681 0.484834 0.756697
O O4 0.862224 0.539212 0.164516
O O5 0.335065 0.250000 0.815809
O O6 0.436394 0.029244 0.731750
O O7 0.357276 0.003525 0.666966
O O8 0.215202 0.024943 0.079349
O O9 0.815284 0.750000 0.385773
O O10 0.716026 0.490312 0.579797
O O11 0.408613 0.750000 0.225395
O O12 0.425184 0.970432 0.334955
O O13 0.500000 0.000000 0.000000
O O14 0.430203 0.750000 0.462351
O O15 0.082620 0.250000 0.287121
O O16 0.000000 0.000000 0.500000
#
# Coordination Sequence:
#
# PCOD9168049 Si02
#       6
#     4   4   4   4   4   4
#     4   9  19  36  56  80 109 140 178 224 272 321
#     4   9  18  35  57  79 105 137 174 217 263 311
#     4  10  20  36  59  82 104 137 181 226 273 321
#     4  11  23  37  53  78 113 147 180 219 265 319
#     4   9  19  35  56  81 106 135 174 218 262 311
#     4  10  21  35  52  77 110 145 178 215 262 315
#
# _framework density 18.518519000000001
#
# number of rings (size 3 to 8) (size 9 to 14) (size 15 to 20)
#    0.000    2.333    0.000    2.000    0.000    6.000 
#    0.000    1.667    0.000    0.000    0.000    0.000 
#    0.000    0.000    0.000    0.000    0.000    0.000 
#
# Total GULP energy -133962.376768 kJ/mol
# GULP energy per Si atom -5581.765699 kJ/mol
# Density = 1.847637 g / cm^3
# Si number density = 18.518519 Si / 1000 Ang^3
#
#
#
# Elastic Constant Matrix: (Units=GPa)
#
#
# Indices 1 2 3 4 5 6 
#
# 1 22.4975 10.3609 17.3794 0.0000 -12.2563 0.0000
# 2 10.3609 18.1543 31.5832 0.0000 -7.9048 0.0000
# 3 17.3794 31.5832 135.3379 0.0000 -26.4322 0.0000
# 4 0.0000 0.0000 0.0000 34.6115 0.0000 4.0357
# 5 -12.2563 -7.9048 -26.4322 0.0000 12.4549 0.0000
# 6 0.0000 0.0000 0.0000 4.0357 0.0000 22.3785
#
#
#
# Elastic Compliance Matrix: (Units=1/GPa)
#
#
# Indices 1 2 3 4 5 6 
#
# 1 0.128212 -0.051864 0.023656 0.000000 0.143455 0.000000
# 2 -0.051864 0.117408 -0.027588 0.000000 -0.035069 0.000000
# 3 0.023656 -0.027588 0.020351 0.000000 0.048960 0.000000
# 4 0.000000 0.000000 0.000000 0.029513 0.000000 -0.005322
# 5 0.143455 -0.035069 0.048960 0.000000 0.303103 0.000000
# 6 0.000000 0.000000 0.000000 -0.005322 0.000000 0.045646
#
#
# Mechanical properties :
#
#
# Convention : Reuss Voigt Hill
#
# Bulk Modulus (GPa) = 6.47752 32.73740 19.60746
# Shear Modulus (GPa) = 6.19361 21.66673 13.93017
#
# Velocity S-wave (km/s) = 1.83079 3.42424 2.74565
# Velocity P-wave (km/s) = 2.82392 5.77499 4.54560
#
# Compressibility (1/GPa) = 0.15438010
#
# Stress axis : x y z
#
# Youngs Moduli (GPa) = 7.79958 8.51730 49.13688
#
# Poissons Ratio (x) = 0.44174 -1.16241
# Poissons Ratio (y) = 0.40452 1.35560
# Poissons Ratio (z) = -0.18451 0.23498
#
# Static dielectric constant tensor:
#      x y z
#    x 1.644890 0.000000 -0.009810 
#    y 0.000000 1.611660 0.000000 
#    z -0.009810 0.000000 1.619940 
# 
# From -- ./inp_files/33794.got.cif
#   From: 2010.05.17/outbox.ucp.g08.bks.cvg/sg11_17_cif.got.tgz:33794.got - 2010.06.11 11:38:39.
