data_PCOD9168329
_publ_section_title
;
Structure prediction by ZEFSAII (Michael W. Deem and Ramdas Pophale) SiO2 
 PCOD9168329
Probable space group: C 2/M
;
_chemical_formula_sum "Si O2"
_cell_formula_units_Z 60
_cell_length_a 26.049074
_cell_length_b 16.575146
_cell_length_c 12.837018
_cell_angle_alpha 90.000000
_cell_angle_beta 36.876752
_cell_angle_gamma 90.000000
_cell_volume 3326.092457
_symmetry_space_group_name_H-M "C 2/M"
_symmetry_group_IT_number 12
_symmetry_cell_setting 'monoclinic'
loop_
_space_group_symop_operation_xyz
x,y,z
-x,y,-z
-x,-y,-z
x,-y,z
1/2+x,1/2+y,z
1/2-x,1/2+y,-z
1/2-x,1/2-y,-z
1/2+x,1/2-y,z
loop_
_atom_site_type_symbol
_atom_site_label
_atom_site_fract_x
_atom_site_fract_y
_atom_site_fract_z
Si Si1 0.845365 0.682335 0.126848
Si Si2 0.687937 0.090408 0.255155
Si Si3 0.023537 0.692168 0.575187
Si Si4 0.034169 0.723648 0.785299
Si Si5 0.174268 0.125006 0.803692
Si Si6 0.789503 0.659848 0.435882
Si Si7 0.500000 0.360638 0.000000
Si Si8 0.853461 0.594940 0.904430
O O1 0.829104 0.778147 0.167051
O O2 0.801947 0.638065 0.294924
O O3 0.820632 0.646126 0.055785
O O4 0.948685 0.678065 0.961528
O O5 0.616432 0.151345 0.414034
O O6 0.773766 0.091989 0.182994
O O7 0.701180 0.108202 0.111631
O O8 0.650690 0.000000 0.320427
O O9 0.023789 0.744761 0.680129
O O10 0.000000 0.728442 0.500000
O O11 0.948877 0.626279 0.719256
O O12 0.116557 0.668616 0.667493
O O13 0.043194 0.801603 0.843877
O O14 0.230363 0.109867 0.609146
O O15 0.078031 0.097839 0.933588
O O16 0.750000 0.750000 0.500000
O O17 0.855583 0.500000 0.925769
#
# Coordination Sequence:
#
# PCOD9168329 Si02
#       8
#     8   8   8   8   8   8   4   8
#     4   9  18  28  46  70  94 124 156 189 223 280
#     4  10  19  31  47  67  93 125 162 196 231 275
#     4   9  17  27  45  69  95 128 160 185 217 275
#     4  10  14  26  45  66  96 122 152 185 226 275
#     4  10  19  30  48  71  92 121 156 198 235 274
#     4  10  15  26  46  68  89 124 156 186 232 277
#     4  10  18  30  47  68  95 124 154 194 246 284
#     4   9  18  32  47  66  97 132 154 182 231 278
#
# _framework density 18.039185
#
# number of rings (size 3 to 8) (size 9 to 14) (size 15 to 20)
#    0.000    2.400    5.333    0.400    0.000    2.133 
#    0.000    1.000    0.000    1.600    0.000    0.000 
#    0.000    2.133    0.000    0.000    0.000    0.000 
#
# Total GULP energy -167003.020750 kJ/mol
# GULP energy per Si atom -5566.767358 kJ/mol
# Density = 1.799813 g / cm^3
# Si number density = 18.039185 Si / 1000 Ang^3
#
#
#
# Elastic Constant Matrix: (Units=GPa)
#
#
# Indices 1 2 3 4 5 6 
#
# 1 125.4284 17.3683 47.3900 0.0000 17.6118 0.0000
# 2 17.3683 27.3153 11.7352 0.0000 10.5123 0.0000
# 3 47.3900 11.7352 87.7648 0.0000 17.7041 0.0000
# 4 0.0000 0.0000 0.0000 -1.8306 0.0000 -13.5404
# 5 17.6118 10.5123 17.7041 0.0000 37.7373 0.0000
# 6 0.0000 0.0000 0.0000 -13.5404 0.0000 -24.4067
#
#
#
# Elastic Compliance Matrix: (Units=1/GPa)
#
#
# Indices 1 2 3 4 5 6 
#
# 1 0.010587 -0.004053 -0.004866 0.000000 -0.001529 0.000000
# 2 -0.004053 0.043560 -0.001734 0.000000 -0.009430 0.000000
# 3 -0.004866 -0.001734 0.015130 0.000000 -0.004344 0.000000
# 4 0.000000 0.000000 0.000000 0.176013 0.000000 -0.097649
# 5 -0.001529 -0.009430 -0.004344 0.000000 0.031877 0.000000
# 6 0.000000 0.000000 0.000000 -0.097649 0.000000 0.013201
#
#
# Mechanical properties :
#
#
# Convention : Reuss Voigt Hill
#
# Bulk Modulus (GPa) = 20.84585 43.72169 32.28377
# Shear Modulus (GPa) = 15.25945 13.23435 14.24690
#
# Velocity S-wave (km/s) = 2.91160 2.71153 2.81334
# Velocity P-wave (km/s) = 4.78374 5.83891 5.33746
#
# Compressibility (1/GPa) = 0.04797117
#
# Stress axis : x y z
#
# Youngs Moduli (GPa) = 94.45368 22.95667 66.09430
#
# Poissons Ratio (x) = 0.09304 0.32164
# Poissons Ratio (y) = 0.38279 0.11461
# Poissons Ratio (z) = 0.45965 0.03981
#
# Static dielectric constant tensor:
#      x y z
#    x 1.669070 0.000000 0.011170 
#    y 0.000000 1.610030 0.000000 
#    z 0.011170 0.000000 1.638520 
# 
# From -- ./inp_files/184182.got.cif
#   From: 2010.05.17/outbox.cif.g08.bks.cpg/sg12_93_cif.got.tgz:184182.got - 2010.06.03 13:09:07.
