data_PCOD9168004
_publ_section_title
;
Structure prediction by ZEFSAII (Michael W. Deem and Ramdas Pophale) SiO2 
 PCOD9168004
Probable space group: P 21/M
;
_chemical_formula_sum "Si O2"
_cell_formula_units_Z 32
_cell_length_a 21.000000
_cell_length_b 9.000000
_cell_length_c 12.000000
_cell_angle_alpha 90.000000
_cell_angle_beta 50.000000
_cell_angle_gamma 90.000000
_cell_volume 1737.388797
_symmetry_space_group_name_H-M "P 21/M"
_symmetry_group_IT_number 11
_symmetry_cell_setting 'monoclinic'
loop_
_space_group_symop_operation_xyz
x,y,z
-x,1/2+y,-z
-x,-y,-z
x,1/2-y,z
loop_
_atom_site_type_symbol
_atom_site_label
_atom_site_fract_x
_atom_site_fract_y
_atom_site_fract_z
Si Si1 0.695849 0.570270 0.892494
Si Si2 0.653840 0.929164 0.698192
Si Si3 0.552460 0.929980 0.606510
Si Si4 0.038397 0.427886 0.630801
Si Si5 0.816540 0.929483 0.367083
Si Si6 0.115706 0.071709 0.300391
Si Si7 0.711151 0.071312 0.302125
Si Si8 0.376747 0.072130 0.790772
O O1 0.702491 0.750000 0.873886
O O2 0.659956 0.511898 0.816369
O O3 0.789527 0.518296 0.812117
O O4 0.639090 0.541581 0.061761
O O5 0.650730 0.750000 0.706490
O O6 0.576420 0.971766 0.707411
O O7 0.740259 0.964288 0.537547
O O8 0.551937 0.750000 0.595396
O O9 0.629809 0.000055 0.453254
O O10 0.465950 0.999524 0.665211
O O11 0.029358 0.250000 0.647592
O O12 0.097923 0.472978 0.666808
O O13 0.085338 0.461073 0.460988
O O14 0.948481 0.501213 0.714991
O O15 0.816792 0.750000 0.350532
O O16 0.790236 0.010448 0.282474
O O17 0.113372 0.250000 0.289407
O O18 0.708856 0.250000 0.305856
O O19 0.697613 0.004244 0.194682
O O20 0.377686 0.250000 0.769537
#
# Coordination Sequence:
#
# PCOD9168004 Si02
#       8
#     4   4   4   4   4   4   4   4
#     4   9  17  31  51  73 101 139 173 201 240 299
#     4   8  14  28  50  74  99 131 164 197 244 298
#     4  10  20  35  56  77 100 129 164 209 257 301
#     4   9  16  27  48  77 107 135 163 198 246 297
#     4   9  16  30  53  77 103 133 165 203 251 302
#     4   9  16  28  48  74 105 137 168 199 237 292
#     4  11  22  36  54  75 100 127 166 216 259 296
#     4  11  22  35  52  73  99 133 174 211 247 296
#
# _framework density 18.418444999999998
#
# number of rings (size 3 to 8) (size 9 to 14) (size 15 to 20)
#    0.000    2.500    1.250    3.000    0.000    1.000 
#    0.000    1.250    0.000    7.500    0.000    0.000 
#    0.000    0.000    0.000    0.000    0.000    0.000 
#
# Total GULP energy -178328.050628 kJ/mol
# GULP energy per Si atom -5572.751582 kJ/mol
# Density = 1.837652 g / cm^3
# Si number density = 18.418445 Si / 1000 Ang^3
#
#
#
# Elastic Constant Matrix: (Units=GPa)
#
#
# Indices 1 2 3 4 5 6 
#
# 1 130.0113 18.6962 10.5394 0.0000 19.8339 0.0000
# 2 18.6962 45.7629 5.1236 0.0000 8.3231 0.0000
# 3 10.5394 5.1236 23.8556 0.0000 9.1977 0.0000
# 4 0.0000 0.0000 0.0000 11.6739 0.0000 -1.2652
# 5 19.8339 8.3231 9.1977 0.0000 25.0720 0.0000
# 6 0.0000 0.0000 0.0000 -1.2652 0.0000 32.6849
#
#
#
# Elastic Compliance Matrix: (Units=1/GPa)
#
#
# Indices 1 2 3 4 5 6 
#
# 1 0.009045 -0.002491 -0.001189 0.000000 -0.005892 0.000000
# 2 -0.002491 0.024055 -0.002035 0.000000 -0.005269 0.000000
# 3 -0.001189 -0.002035 0.049220 0.000000 -0.016440 0.000000
# 4 0.000000 0.000000 0.000000 0.086022 0.000000 0.003330
# 5 -0.005892 -0.005269 -0.016440 0.000000 0.052327 0.000000
# 6 0.000000 0.000000 0.000000 0.003330 0.000000 0.030724
#
#
# Mechanical properties :
#
#
# Convention : Reuss Voigt Hill
#
# Bulk Modulus (GPa) = 14.10615 29.81648 21.96131
# Shear Modulus (GPa) = 17.45488 24.90419 21.17954
#
# Velocity S-wave (km/s) = 3.08179 3.68113 3.39471
# Velocity P-wave (km/s) = 4.50983 5.85586 5.22636
#
# Compressibility (1/GPa) = 0.07089107
#
# Stress axis : x y z
#
# Youngs Moduli (GPa) = 110.55713 41.57085 20.31699
#
# Poissons Ratio (x) = 0.10353 0.02417
# Poissons Ratio (y) = 0.27534 0.04134
# Poissons Ratio (z) = 0.13150 0.08458
#
# Static dielectric constant tensor:
#      x y z
#    x 1.661120 0.000000 0.040540 
#    y 0.000000 1.612190 0.000000 
#    z 0.040540 0.000000 1.672450 
# 
# From -- ./inp_files/42824.got.cif
#   From: 2010.05.17/outbox.ucp.g08.bks.cvg/sg11_22_cif.got.tgz:42824.got - 2010.06.11 11:38:39.
