data_PCOD9168955
_publ_section_title
;
Structure prediction by ZEFSAII (Michael W. Deem and Ramdas Pophale) SiO2 
 PCOD9168955
Probable space group: C 2/M
;
_chemical_formula_sum "Si O2"
_cell_formula_units_Z 60
_cell_length_a 12.519597
_cell_length_b 26.422312
_cell_length_c 15.315640
_cell_angle_alpha 90.000000
_cell_angle_beta 43.863298
_cell_angle_gamma 90.000000
_cell_volume 3510.686293
_symmetry_space_group_name_H-M "C 2/M"
_symmetry_group_IT_number 12
_symmetry_cell_setting 'monoclinic'
loop_
_space_group_symop_operation_xyz
x,y,z
-x,y,-z
-x,-y,-z
x,-y,z
1/2+x,1/2+y,z
1/2-x,1/2+y,-z
1/2-x,1/2-y,-z
1/2+x,1/2-y,z
loop_
_atom_site_type_symbol
_atom_site_label
_atom_site_fract_x
_atom_site_fract_y
_atom_site_fract_z
Si Si1 0.500000 0.790317 0.500000
Si Si2 0.052885 0.171861 0.183826
Si Si3 0.556951 0.941264 0.366351
Si Si4 0.470042 0.156502 0.340856
Si Si5 0.830420 0.308147 0.131159
Si Si6 0.316503 0.233687 0.332605
Si Si7 0.729763 0.696154 0.903932
Si Si8 0.391459 0.393690 0.142467
O O1 0.469340 0.824655 0.601540
O O2 0.648222 0.757049 0.429158
O O3 0.177651 0.162074 0.187343
O O4 0.935641 0.218670 0.272933
O O5 0.967352 0.123151 0.190237
O O6 0.154877 0.189430 0.041369
O O7 0.500000 0.934350 0.500000
O O8 0.464663 0.903285 0.356162
O O9 0.736827 0.925532 0.250038
O O10 0.536922 0.000000 0.356055
O O11 0.325989 0.191027 0.401925
O O12 0.595249 0.176875 0.197970
O O13 0.838077 0.296180 0.228940
O O14 0.798230 0.252806 0.108949
O O15 0.000000 0.326396 0.000000
O O16 0.656301 0.659424 0.874715
O O17 0.500000 0.416331 0.000000
#
# Coordination Sequence:
#
# PCOD9168955 Si02
#       8
#     4   8   8   8   8   8   8   8
#     4  12  22  34  45  72 105 142 176 198 238 310
#     4  11  19  30  49  71 106 148 170 202 249 302
#     4  10  21  38  58  79  99 126 174 230 274 318
#     4  11  21  34  52  70 102 138 169 212 259 307
#     4  12  19  28  45  71 101 139 178 203 234 293
#     4  12  21  32  45  70 106 144 178 203 242 301
#     4  10  16  31  46  72 101 136 174 203 242 296
#     4   9  18  32  52  76 108 136 170 208 265 317
#
# _framework density 17.090675000000001
#
# number of rings (size 3 to 8) (size 9 to 14) (size 15 to 20)
#    0.000    1.200    6.000    2.800    0.000    0.267 
#    0.000    0.000    0.000    0.000    0.000    1.400 
#    0.000   10.667    0.000    0.000    0.000    0.000 
#
# Total GULP energy -167161.107394 kJ/mol
# GULP energy per Si atom -5572.036913 kJ/mol
# Density = 1.705178 g / cm^3
# Si number density = 17.090675 Si / 1000 Ang^3
#
#
#
# Elastic Constant Matrix: (Units=GPa)
#
#
# Indices 1 2 3 4 5 6 
#
# 1 90.5738 28.0962 19.2239 0.0000 -7.9749 0.0000
# 2 28.0962 78.1410 23.8147 0.0000 -4.4057 0.0000
# 3 19.2239 23.8147 76.4490 0.0000 -10.3993 0.0000
# 4 0.0000 0.0000 0.0000 12.4456 0.0000 1.3701
# 5 -7.9749 -4.4057 -10.3993 0.0000 21.3382 0.0000
# 6 0.0000 0.0000 0.0000 1.3701 0.0000 10.3284
#
#
#
# Elastic Compliance Matrix: (Units=1/GPa)
#
#
# Indices 1 2 3 4 5 6 
#
# 1 0.012891 -0.003976 -0.001563 0.000000 0.003235 0.000000
# 2 -0.003976 0.015380 -0.003814 0.000000 -0.000169 0.000000
# 3 -0.001563 -0.003814 0.015503 0.000000 0.006184 0.000000
# 4 0.000000 0.000000 0.000000 0.081541 0.000000 -0.010817
# 5 0.003235 -0.000169 0.006184 0.000000 0.051052 0.000000
# 6 0.000000 0.000000 0.000000 -0.010817 0.000000 0.098256
#
#
# Mechanical properties :
#
#
# Convention : Reuss Voigt Hill
#
# Bulk Modulus (GPa) = 39.89290 43.04816 41.47053
# Shear Modulus (GPa) = 16.57362 20.42436 18.49899
#
# Velocity S-wave (km/s) = 3.11745 3.46071 3.29356
# Velocity P-wave (km/s) = 6.02915 6.41962 6.22744
#
# Compressibility (1/GPa) = 0.02506712
#
# Stress axis : x y z
#
# Youngs Moduli (GPa) = 77.57525 65.01962 64.50382
#
# Poissons Ratio (x) = 0.25854 0.10080
# Poissons Ratio (y) = 0.30846 0.24603
# Poissons Ratio (z) = 0.12123 0.24800
#
# Static dielectric constant tensor:
#      x y z
#    x 1.729400 0.000000 -0.049190 
#    y 0.000000 1.562740 0.000000 
#    z -0.049190 0.000000 1.651470 
# 
# From -- ./inp_files/208966.got.cif
#   From: 2010.05.17/outbox.cif.g08.bks.cpg/sg12_105_cif.got.tgz:208966.got - 2010.06.03 13:09:07.
