data_PCOD9168989
_publ_section_title
;
Structure prediction by ZEFSAII (Michael W. Deem and Ramdas Pophale) SiO2 
 PCOD9168989
Probable space group: C 2/M
;
_chemical_formula_sum "Si O2"
_cell_formula_units_Z 64
_cell_length_a 24.415511
_cell_length_b 15.514411
_cell_length_c 7.816204
_cell_angle_alpha 90.000000
_cell_angle_beta 117.675484
_cell_angle_gamma 90.000000
_cell_volume 2621.989201
_symmetry_space_group_name_H-M "C 2/M"
_symmetry_group_IT_number 12
_symmetry_cell_setting 'monoclinic'
loop_
_space_group_symop_operation_xyz
x,y,z
-x,y,-z
-x,-y,-z
x,-y,z
1/2+x,1/2+y,z
1/2-x,1/2+y,-z
1/2-x,1/2-y,-z
1/2+x,1/2-y,z
loop_
_atom_site_type_symbol
_atom_site_label
_atom_site_fract_x
_atom_site_fract_y
_atom_site_fract_z
Si Si1 0.774407 0.908963 0.738624
Si Si2 0.592776 0.630472 0.016626
Si Si3 0.733298 0.402007 0.666679
Si Si4 0.630048 0.823973 0.156625
Si Si5 0.576501 0.214909 0.458123
Si Si6 0.537834 0.404264 0.314826
Si Si7 0.477782 0.901562 0.161091
Si Si8 0.303327 0.760605 0.218746
O O1 0.839971 0.906254 0.928125
O O2 0.790047 0.906610 0.561113
O O3 0.731646 0.828444 0.711225
O O4 0.742117 0.000000 0.729088
O O5 0.607998 0.732045 0.050934
O O6 0.568089 0.601576 0.168128
O O7 0.536397 0.605406 0.813731
O O8 0.738279 0.500000 0.739192
O O9 0.799287 0.353159 0.754852
O O10 0.690074 0.336347 0.703084
O O11 0.612148 0.814008 0.332224
O O12 0.594210 0.891165 0.982795
O O13 0.558790 0.315394 0.430779
O O14 0.513595 0.160493 0.342054
O O15 0.626539 0.203095 0.682590
O O16 0.552707 0.500000 0.405725
O O17 0.494422 0.000000 0.223366
O O18 0.500000 0.878305 0.000000
O O19 0.250000 0.750000 0.000000
#
# Coordination Sequence:
#
# PCOD9168989 Si02
#       8
#     8   8   8   8   8   8   8   8
#     4  11  22  38  63  91 118 156 204 257 304 352
#     4  10  17  29  52  83 120 149 180 233 302 360
#     4  11  22  38  63  89 116 153 199 254 304 352
#     4  10  16  31  57  86 118 142 184 247 300 350
#     4  10  20  34  54  80 115 154 193 236 290 350
#     4  10  18  29  50  85 120 147 179 236 301 357
#     4   9  17  29  50  83 117 147 180 234 303 355
#     4  12  26  42  59  83 123 168 204 246 296 359
#
# _framework density 24.408950999999998
#
# number of rings (size 3 to 8) (size 9 to 14) (size 15 to 20)
#    0.000    1.625    3.750    3.750    0.000    3.000 
#    0.000    0.000    0.000    3.000    0.000    3.500 
#    0.000    0.000    0.000    0.000    0.000    0.000 
#
# Total GULP energy -178591.088955 kJ/mol
# GULP energy per Si atom -5580.971530 kJ/mol
# Density = 2.435340 g / cm^3
# Si number density = 24.408951 Si / 1000 Ang^3
#
#
#
# Elastic Constant Matrix: (Units=GPa)
#
#
# Indices 1 2 3 4 5 6 
#
# 1 47.1706 15.1895 40.2068 0.0000 24.3129 0.0000
# 2 15.1895 116.2657 51.3806 0.0000 -0.5829 0.0000
# 3 40.2068 51.3806 119.7045 0.0000 35.7190 0.0000
# 4 0.0000 0.0000 0.0000 -2.8527 0.0000 -5.7700
# 5 24.3129 -0.5829 35.7190 0.0000 49.4814 0.0000
# 6 0.0000 0.0000 0.0000 -5.7700 0.0000 -66.2037
#
#
#
# Elastic Compliance Matrix: (Units=1/GPa)
#
#
# Indices 1 2 3 4 5 6 
#
# 1 0.033718 -0.001146 -0.007502 0.000000 -0.011166 0.000000
# 2 -0.001146 0.011443 -0.006035 0.000000 0.005054 0.000000
# 3 -0.007502 -0.006035 0.015785 0.000000 -0.007780 0.000000
# 4 0.000000 0.000000 0.000000 -0.425571 0.000000 0.037091
# 5 -0.011166 0.005054 -0.007780 0.000000 0.031372 0.000000
# 6 0.000000 0.000000 0.000000 0.037091 0.000000 -0.018338
#
#
# Mechanical properties :
#
#
# Convention : Reuss Voigt Hill
#
# Bulk Modulus (GPa) = 31.66414 55.18828 43.42621
# Shear Modulus (GPa) = -16.04116 7.84261 -4.09928
#
# Velocity S-wave (km/s) = -2.56634 1.79443 -1.29733
# Velocity P-wave (km/s) = 2.05403 5.19156 3.94787
#
# Compressibility (1/GPa) = 0.03158147
#
# Stress axis : x y z
#
# Youngs Moduli (GPa) = 29.65782 87.38954 63.34930
#
# Poissons Ratio (x) = 0.10014 0.47523
# Poissons Ratio (y) = 0.03398 0.38231
# Poissons Ratio (z) = 0.22248 0.52739
#
# Static dielectric constant tensor:
#      x y z
#    x 1.994470 0.000000 -0.018980 
#    y 0.000000 1.962660 0.000000 
#    z -0.018980 0.000000 1.996810 
# 
# From -- ./inp_files/112041.got.cif
#   From: 2010.05.17/outbox.cif.g08.bks.cpg/sg12_57_cif.got.tgz:112041.got - 2010.06.03 13:09:07.
