data_PCOD9168160
_publ_section_title
;
Structure prediction by ZEFSAII (Michael W. Deem and Ramdas Pophale) SiO2 
 PCOD9168160
Probable space group: P 21/M
;
_chemical_formula_sum "Si O2"
_cell_formula_units_Z 32
_cell_length_a 21.000000
_cell_length_b 9.000000
_cell_length_c 27.000000
_cell_angle_alpha 90.000000
_cell_angle_beta 20.000000
_cell_angle_gamma 90.000000
_cell_volume 1745.328791
_symmetry_space_group_name_H-M "P 21/M"
_symmetry_group_IT_number 11
_symmetry_cell_setting 'monoclinic'
loop_
_space_group_symop_operation_xyz
x,y,z
-x,1/2+y,-z
-x,-y,-z
x,1/2-y,z
loop_
_atom_site_type_symbol
_atom_site_label
_atom_site_fract_x
_atom_site_fract_y
_atom_site_fract_z
Si Si1 0.212749 0.419119 0.196888
Si Si2 0.395446 0.919239 0.149799
Si Si3 0.380039 0.926453 0.813370
Si Si4 0.601951 0.427902 0.085955
Si Si5 0.003091 0.071597 0.052753
Si Si6 0.601164 0.572640 0.553573
Si Si7 0.368708 0.071824 0.638289
Si Si8 0.026813 0.571759 0.242187
O O1 0.150236 0.250000 0.247832
O O2 0.247787 0.494365 0.224065
O O3 0.081366 0.508827 0.255925
O O4 0.413043 0.417694 0.022407
O O5 0.337708 0.750000 0.199891
O O6 0.453716 0.997474 0.157920
O O7 0.329255 0.750000 0.848488
O O8 0.432141 0.961278 0.831769
O O9 0.540467 0.948152 0.655058
O O10 0.201146 0.023493 0.930113
O O11 0.592578 0.250000 0.086161
O O12 0.810394 0.475021 0.915222
O O13 0.981743 0.250000 0.065376
O O14 0.836464 0.000663 0.207303
O O15 0.000000 0.000000 0.000000
O O16 0.577169 0.750000 0.559996
O O17 0.466549 0.475144 0.618154
O O18 0.814334 0.530281 0.386272
O O19 0.356579 0.250000 0.641118
O O20 0.500000 0.000000 0.500000
O O21 0.031338 0.750000 0.240877
#
# Coordination Sequence:
#
# PCOD9168160 Si02
#       8
#     4   4   4   4   4   4   4   4
#     4   9  16  27  46  73 104 139 175 219 271 326
#     4   9  16  27  46  73 105 138 174 221 271 323
#     4  10  21  37  58  82 112 150 188 229 278 334
#     4   9  18  32  51  78 108 142 181 224 274 327
#     4  12  24  41  63  88 115 150 193 238 284 339
#     4  10  21  38  58  81 113 150 187 227 278 338
#     4  12  26  43  63  88 117 150 189 238 290 342
#     4   9  18  32  51  77 108 143 181 224 274 330
#
# _framework density 18.334654
#
# number of rings (size 3 to 8) (size 9 to 14) (size 15 to 20)
#    0.000    2.000    1.250    3.000    1.750    4.000 
#    0.000    0.000    0.000    0.750    0.000    0.000 
#    0.000    0.000    0.000    0.000    0.000    0.000 
#
# Total GULP energy -178568.120966 kJ/mol
# GULP energy per Si atom -5580.253780 kJ/mol
# Density = 1.829292 g / cm^3
# Si number density = 18.334654 Si / 1000 Ang^3
#
#
#
# Elastic Constant Matrix: (Units=GPa)
#
#
# Indices 1 2 3 4 5 6 
#
# 1 73.1829 17.8536 -8.0611 0.0000 23.5918 0.0000
# 2 17.8536 53.5483 6.2442 0.0000 15.0640 0.0000
# 3 -8.0611 6.2442 32.0489 0.0000 18.4018 0.0000
# 4 0.0000 0.0000 0.0000 20.5360 0.0000 -3.7103
# 5 23.5918 15.0640 18.4018 0.0000 26.2916 0.0000
# 6 0.0000 0.0000 0.0000 -3.7103 0.0000 32.0944
#
#
#
# Elastic Compliance Matrix: (Units=1/GPa)
#
#
# Indices 1 2 3 4 5 6 
#
# 1 0.048825 0.001305 0.062881 0.000000 -0.088570 0.000000
# 2 0.001305 0.022786 0.006783 0.000000 -0.018974 0.000000
# 3 0.062881 0.006783 0.134296 0.000000 -0.154307 0.000000
# 4 0.000000 0.000000 0.000000 0.049734 0.000000 0.005750
# 5 -0.088570 -0.018974 -0.154307 0.000000 0.236382 0.000000
# 6 0.000000 0.000000 0.000000 0.005750 0.000000 0.031823
#
#
# Mechanical properties :
#
#
# Convention : Reuss Voigt Hill
#
# Bulk Modulus (GPa) = 2.87483 21.20593 12.04038
# Shear Modulus (GPa) = 10.04307 25.30062 17.67184
#
# Velocity S-wave (km/s) = 2.34298 3.71878 3.10796
# Velocity P-wave (km/s) = 2.98174 5.47998 4.41140
#
# Compressibility (1/GPa) = 0.34784665
#
# Stress axis : x y z
#
# Youngs Moduli (GPa) = 20.48152 43.88579 7.44621
#
# Poissons Ratio (x) = -0.05727 -0.46823
# Poissons Ratio (y) = -0.02673 -0.05051
# Poissons Ratio (z) = -1.28790 -0.29769
#
# Static dielectric constant tensor:
#      x y z
#    x 1.630900 0.000000 0.001680 
#    y 0.000000 1.620970 0.000000 
#    z 0.001680 0.000000 1.619230 
# 
# From -- ./inp_files/72034.got.cif
#   From: 2010.05.17/outbox.ucp.g08.bks.cvg/sg11_37_cif.got.tgz:72034.got - 2010.06.11 11:38:39.
