data_PCOD9168725
_publ_section_title
;
Structure prediction by ZEFSAII (Michael W. Deem and Ramdas Pophale) SiO2 
 PCOD9168725
Probable space group: C 2/M
;
_chemical_formula_sum "Si O2"
_cell_formula_units_Z 52
_cell_length_a 16.700312
_cell_length_b 22.687798
_cell_length_c 13.501157
_cell_angle_alpha 90.000000
_cell_angle_beta 37.765932
_cell_angle_gamma 90.000000
_cell_volume 3132.920863
_symmetry_space_group_name_H-M "C 2/M"
_symmetry_group_IT_number 12
_symmetry_cell_setting 'monoclinic'
loop_
_space_group_symop_operation_xyz
x,y,z
-x,y,-z
-x,-y,-z
x,-y,z
1/2+x,1/2+y,z
1/2-x,1/2+y,-z
1/2-x,1/2-y,-z
1/2+x,1/2-y,z
loop_
_atom_site_type_symbol
_atom_site_label
_atom_site_fract_x
_atom_site_fract_y
_atom_site_fract_z
Si Si1 0.885229 0.369012 0.414504
Si Si2 0.338120 0.621305 0.057813
Si Si3 0.000000 0.687522 0.500000
Si Si4 0.801150 0.500000 0.764306
Si Si5 0.198950 0.261429 0.174922
Si Si6 0.962909 0.724595 0.853499
Si Si7 0.096795 0.500000 0.553541
Si Si8 0.611391 0.662044 0.765989
O O1 0.883477 0.439266 0.407688
O O2 0.736609 0.347268 0.575002
O O3 0.958666 0.352291 0.446860
O O4 0.961367 0.333722 0.254514
O O5 0.271625 0.558306 0.127130
O O6 0.250309 0.672594 0.096351
O O7 0.351938 0.643673 0.158086
O O8 0.482287 0.622979 0.870008
O O9 0.878961 0.728763 0.648189
O O10 0.811344 0.500000 0.634487
O O11 0.948248 0.500000 0.659955
O O12 0.092603 0.246773 0.195063
O O13 0.327999 0.221354 0.048043
O O14 0.059122 0.771210 0.810414
#
# Coordination Sequence:
#
# PCOD9168725 Si02
#       8
#     8   8   4   4   8   8   4   8
#     4  11  19  31  44  67  91 126 153 194 222 269
#     4  10  19  29  46  65  97 124 161 184 222 264
#     4  10  16  27  48  64  92 121 154 182 224 262
#     4  11  18  30  43  66  93 129 155 189 208 263
#     4   9  16  31  44  66  85 126 155 192 219 272
#     4   9  19  29  46  60  92 124 157 186 237 261
#     4  11  20  27  46  65  90 122 170 180 213 270
#     4  10  19  30  42  65  90 127 156 193 226 270
#
# _framework density 16.597929000000001
#
# number of rings (size 3 to 8) (size 9 to 14) (size 15 to 20)
#    0.000    2.000    3.077    3.231    0.000    1.846 
#    0.000    0.000    0.000    0.000    0.000    0.000 
#    0.000   10.462    0.000    1.615    0.000    8.846 
#
# Total GULP energy -144846.333504 kJ/mol
# GULP energy per Si atom -5571.012827 kJ/mol
# Density = 1.656015 g / cm^3
# Si number density = 16.597929 Si / 1000 Ang^3
#
#
#
# Elastic Constant Matrix: (Units=GPa)
#
#
# Indices 1 2 3 4 5 6 
#
# 1 19.7926 3.2841 0.2386 -0.0014 -7.3162 0.0007
# 2 3.2841 72.4861 44.1958 -0.0002 2.0715 0.0000
# 3 0.2386 44.1958 111.2635 -0.0011 -23.6259 0.0010
# 4 -0.0014 -0.0002 -0.0011 29.3091 0.0010 3.0815
# 5 -7.3162 2.0715 -23.6259 0.0010 19.3933 -0.0006
# 6 0.0007 0.0000 0.0010 3.0815 -0.0006 17.0908
#
#
#
# Elastic Compliance Matrix: (Units=1/GPa)
#
#
# Indices 1 2 3 4 5 6 
#
# 1 0.069638 -0.013652 0.015056 0.000003 0.046072 -0.000003
# 2 -0.013652 0.024510 -0.015319 0.000000 -0.026430 0.000001
# 3 0.015056 -0.015319 0.022384 0.000000 0.034586 -0.000001
# 4 0.000003 0.000000 0.000000 0.034778 -0.000001 -0.006271
# 5 0.046072 -0.026430 0.034586 -0.000001 0.113903 0.000000
# 6 -0.000003 0.000001 -0.000001 -0.006271 0.000000 0.059642
#
#
# Mechanical properties :
#
#
# Convention : Reuss Voigt Hill
#
# Bulk Modulus (GPa) = 11.27351 33.21992 22.24672
# Shear Modulus (GPa) = 13.08044 23.54690 18.31367
#
# Velocity S-wave (km/s) = 2.81032 3.77060 3.32531
# Velocity P-wave (km/s) = 4.16382 6.24616 5.30810
#
# Compressibility (1/GPa) = 0.08870349
#
# Stress axis : x y z
#
# Youngs Moduli (GPa) = 14.36004 40.80034 44.67415
#
# Poissons Ratio (x) = 0.55700 -0.67263
# Poissons Ratio (y) = 0.19604 0.68435
# Poissons Ratio (z) = -0.21621 0.62500
#
# Static dielectric constant tensor:
#      x y z
#    x 1.604750 0.000000 -0.016920 
#    y 0.000000 1.557020 0.000000 
#    z -0.016920 0.000000 1.622900 
# 
# From -- ./inp_files/227121.got.cif
#   From: 2010.05.17/outbox.cif.g08.bks.cpg/sg12_114_cif.got.tgz:227121.got - 2010.06.03 13:09:07.
