data_PCOD9168372
_publ_section_title
;
Structure prediction by ZEFSAII (Michael W. Deem and Ramdas Pophale) SiO2 
 PCOD9168372
Probable space group: C 2/M
;
_chemical_formula_sum "Si O2"
_cell_formula_units_Z 44
_cell_length_a 7.490532
_cell_length_b 25.250460
_cell_length_c 12.071503
_cell_angle_alpha 90.000000
_cell_angle_beta 111.309586
_cell_angle_gamma 90.000000
_cell_volume 2127.095431
_symmetry_space_group_name_H-M "C 2/M"
_symmetry_group_IT_number 12
_symmetry_cell_setting 'monoclinic'
loop_
_space_group_symop_operation_xyz
x,y,z
-x,y,-z
-x,-y,-z
x,-y,z
1/2+x,1/2+y,z
1/2-x,1/2+y,-z
1/2-x,1/2-y,-z
1/2+x,1/2-y,z
loop_
_atom_site_type_symbol
_atom_site_label
_atom_site_fract_x
_atom_site_fract_y
_atom_site_fract_z
Si Si1 0.234552 0.113985 0.532803
Si Si2 0.647715 0.707732 0.636943
Si Si3 0.217442 0.000000 0.596761
Si Si4 0.157064 0.089027 0.133522
Si Si5 0.692762 0.324510 0.303486
Si Si6 0.452398 0.500000 0.203280
Si Si7 0.842367 0.500000 0.056398
O O1 0.292388 0.162081 0.627839
O O2 0.271955 0.137690 0.419872
O O3 0.000000 0.110011 0.500000
O O4 0.308527 0.055282 0.576256
O O5 0.500000 0.715609 0.500000
O O6 0.529410 0.683994 0.712166
O O7 0.726951 0.765437 0.677185
O O8 0.184585 0.000000 0.721950
O O9 0.000000 0.000000 0.500000
O O10 0.214904 0.144985 0.194681
O O11 0.327916 0.052615 0.125556
O O12 0.073797 0.053854 0.218188
O O13 0.000000 0.095591 0.000000
O O14 0.346710 0.500000 0.061893
O O15 0.000000 0.500000 0.000000
#
# Coordination Sequence:
#
# PCOD9168372 Si02
#       7
#     8   8   4   8   8   4   4
#     4   8  15  25  43  71 100 126 158 198 241 293
#     4   9  17  31  49  70  99 136 172 201 244 305
#     4  10  15  23  45  80 103 122 158 206 247 287
#     4   9  18  33  54  75  96 129 170 207 247 296
#     4  10  18  32  50  71  99 135 172 211 245 289
#     4   9  16  31  54  74 101 135 162 197 244 302
#     4   9  19  36  54  76 101 129 165 201 250 309
#
# _framework density 20.685485
#
# number of rings (size 3 to 8) (size 9 to 14) (size 15 to 20)
#    0.000    3.273    0.000    6.545    0.000    0.727 
#    0.000    8.182    0.000    0.000    0.000    9.545 
#    0.000    0.000    0.000    0.000    0.000    0.000 
#
# Total GULP energy -122583.622277 kJ/mol
# GULP energy per Si atom -5571.982831 kJ/mol
# Density = 2.063840 g / cm^3
# Si number density = 20.685485 Si / 1000 Ang^3
#
#
#
# Elastic Constant Matrix: (Units=GPa)
#
#
# Indices 1 2 3 4 5 6 
#
# 1 35.6471 29.5577 17.7322 0.0000 -18.1935 0.0000
# 2 29.5577 225.0357 62.8354 0.0000 -18.1502 0.0000
# 3 17.7322 62.8354 59.0343 0.0000 -19.2332 0.0000
# 4 0.0000 0.0000 0.0000 36.9364 0.0000 1.8559
# 5 -18.1935 -18.1502 -19.2332 0.0000 23.2480 0.0000
# 6 0.0000 0.0000 0.0000 1.8559 0.0000 13.3085
#
#
#
# Elastic Compliance Matrix: (Units=1/GPa)
#
#
# Indices 1 2 3 4 5 6 
#
# 1 0.049331 -0.003870 0.001225 0.000000 0.036597 0.000000
# 2 -0.003870 0.006639 -0.007122 0.000000 -0.003737 0.000000
# 3 0.001225 -0.007122 0.031011 0.000000 0.021054 0.000000
# 4 0.000000 0.000000 0.000000 0.027265 0.000000 -0.003802
# 5 0.036597 -0.003737 0.021054 0.000000 0.086156 0.000000
# 6 0.000000 0.000000 0.000000 -0.003802 0.000000 0.075670
#
#
# Mechanical properties :
#
#
# Convention : Reuss Voigt Hill
#
# Bulk Modulus (GPa) = 14.82635 59.99642 37.41139
# Shear Modulus (GPa) = 15.71894 28.67136 22.19515
#
# Velocity S-wave (km/s) = 2.75962 3.72702 3.27919
# Velocity P-wave (km/s) = 4.16378 6.89841 5.69759
#
# Compressibility (1/GPa) = 0.06744747
#
# Stress axis : x y z
#
# Youngs Moduli (GPa) = 20.27132 150.62088 32.24648
#
# Poissons Ratio (x) = 0.58285 -0.03949
# Poissons Ratio (y) = 0.07844 0.22965
# Poissons Ratio (z) = -0.02482 1.07269
#
# Static dielectric constant tensor:
#      x y z
#    x 1.466790 0.000000 0.011950 
#    y 0.000000 1.787530 0.000000 
#    z 0.011950 0.000000 1.761950 
# 
# From -- ./inp_files/123197.got.cif
#   From: 2010.05.17/outbox.cif.g08.bks.cpg/sg12_62_cif.got.tgz:123197.got - 2010.06.03 13:09:07.
