data_PCOD9168179
_publ_section_title
;
Structure prediction by ZEFSAII (Michael W. Deem and Ramdas Pophale) SiO2 
 PCOD9168179
Probable space group: P 21/M
;
_chemical_formula_sum "Si O2"
_cell_formula_units_Z 28
_cell_length_a 9.000000
_cell_length_b 9.000000
_cell_length_c 27.000000
_cell_angle_alpha 90.000000
_cell_angle_beta 40.000000
_cell_angle_gamma 90.000000
_cell_volume 1405.776502
_symmetry_space_group_name_H-M "P 21/M"
_symmetry_group_IT_number 11
_symmetry_cell_setting 'monoclinic'
loop_
_space_group_symop_operation_xyz
x,y,z
-x,1/2+y,-z
-x,-y,-z
x,1/2-y,z
loop_
_atom_site_type_symbol
_atom_site_label
_atom_site_fract_x
_atom_site_fract_y
_atom_site_fract_z
Si Si1 0.741674 0.079776 0.944219
Si Si2 0.015412 0.429360 0.363080
Si Si3 0.299414 0.578393 0.646213
Si Si4 0.140979 0.409202 0.771244
Si Si5 0.495889 0.079544 0.772534
Si Si6 0.184041 0.428421 0.489366
Si Si7 0.095605 0.926120 0.926945
O O1 0.722673 0.250000 0.968539
O O2 0.882424 0.091126 0.857370
O O3 0.911321 0.979275 0.933374
O O4 0.500000 0.000000 0.000000
O O5 0.010339 0.250000 0.370112
O O6 0.276343 0.486398 0.295745
O O7 0.875474 0.477668 0.350213
O O8 0.887087 0.514137 0.439257
O O9 0.334065 0.750000 0.625599
O O10 0.180266 0.551059 0.728371
O O11 0.555828 0.514461 0.585479
O O12 0.181037 0.250000 0.734603
O O13 0.325708 0.414637 0.768550
O O14 0.551084 0.250000 0.771546
O O15 0.343121 0.997608 0.852326
O O16 0.173688 0.250000 0.487466
O O17 0.000000 0.500000 0.500000
O O18 0.110501 0.750000 0.925457
O O19 0.000000 0.000000 0.000000
#
# Coordination Sequence:
#
# PCOD9168179 Si02
#       7
#     4   4   4   4   4   4   4
#     4  10  21  38  58  85 118 154 196 244 294 349
#     4  11  23  39  58  85 117 151 190 235 284 339
#     4  10  23  39  57  83 116 149 187 233 284 337
#     4   9  20  37  58  82 111 146 188 233 282 339
#     4  10  21  39  60  85 115 150 192 239 288 345
#     4  11  23  40  61  86 114 150 191 235 284 340
#     4  11  22  38  60  86 116 154 196 243 295 351
#
# _framework density 19.917818
#
# number of rings (size 3 to 8) (size 9 to 14) (size 15 to 20)
#    0.000    1.714    0.000    5.143    0.000    9.143 
#    0.000    2.857    0.000    0.000    0.000    0.000 
#    0.000    0.000    0.000    0.000    0.000    0.000 
#
# Total GULP energy -156044.513447 kJ/mol
# GULP energy per Si atom -5573.018337 kJ/mol
# Density = 1.987248 g / cm^3
# Si number density = 19.917818 Si / 1000 Ang^3
#
#
#
# Elastic Constant Matrix: (Units=GPa)
#
#
# Indices 1 2 3 4 5 6 
#
# 1 31.2648 16.5673 26.1668 0.0000 -17.7678 0.0000
# 2 16.5673 64.8280 3.3657 0.0000 1.4340 0.0000
# 3 26.1668 3.3657 49.8188 0.0000 -5.7084 0.0000
# 4 0.0000 0.0000 0.0000 26.7924 0.0000 3.8469
# 5 -17.7678 1.4340 -5.7084 0.0000 24.6747 0.0000
# 6 0.0000 0.0000 0.0000 3.8469 0.0000 22.2999
#
#
#
# Elastic Compliance Matrix: (Units=1/GPa)
#
#
# Indices 1 2 3 4 5 6 
#
# 1 0.221786 -0.054768 -0.096690 0.000000 0.140518 0.000000
# 2 -0.054768 0.029037 0.022694 0.000000 -0.035875 0.000000
# 3 -0.096690 0.022694 0.062862 0.000000 -0.056401 0.000000
# 4 0.000000 0.000000 0.000000 0.038272 0.000000 -0.006602
# 5 0.140518 -0.035875 -0.056401 0.000000 0.130749 0.000000
# 6 0.000000 0.000000 0.000000 -0.006602 0.000000 0.045982
#
#
# Mechanical properties :
#
#
# Convention : Reuss Voigt Hill
#
# Bulk Modulus (GPa) = 17.80678 26.45679 22.13178
# Shear Modulus (GPa) = 6.21167 21.40750 13.80959
#
# Velocity S-wave (km/s) = 1.76789 3.28196 2.63597
# Velocity P-wave (km/s) = 3.62309 5.26056 4.51665
#
# Compressibility (1/GPa) = 0.05615840
#
# Stress axis : x y z
#
# Youngs Moduli (GPa) = 4.50884 34.43873 15.90777
#
# Poissons Ratio (x) = 1.88613 1.53812
# Poissons Ratio (y) = 0.24694 -0.36101
# Poissons Ratio (z) = 0.43596 -0.78154
#
# Static dielectric constant tensor:
#      x y z
#    x 1.592910 0.000000 0.011710 
#    y 0.000000 1.718830 0.000000 
#    z 0.011710 0.000000 1.733680 
# 
# From -- ./inp_files/28583.got.cif
#   From: 2010.05.17/outbox.ucp.g08.bks.cvg/sg11_15_cif.got.tgz:28583.got - 2010.06.11 11:38:39.
