data_PCOD9168727
_publ_section_title
;
Structure prediction by ZEFSAII (Michael W. Deem and Ramdas Pophale) SiO2 
 PCOD9168727
Probable space group: C 2/M
;
_chemical_formula_sum "Si O2"
_cell_formula_units_Z 64
_cell_length_a 14.812586
_cell_length_b 17.728367
_cell_length_c 28.466888
_cell_angle_alpha 90.000000
_cell_angle_beta 150.981485
_cell_angle_gamma 90.000000
_cell_volume 3626.301638
_symmetry_space_group_name_H-M "C 2/M"
_symmetry_group_IT_number 12
_symmetry_cell_setting 'monoclinic'
loop_
_space_group_symop_operation_xyz
x,y,z
-x,y,-z
-x,-y,-z
x,-y,z
1/2+x,1/2+y,z
1/2-x,1/2+y,-z
1/2-x,1/2-y,-z
1/2+x,1/2-y,z
loop_
_atom_site_type_symbol
_atom_site_label
_atom_site_fract_x
_atom_site_fract_y
_atom_site_fract_z
Si Si1 0.059229 0.910603 0.418844
Si Si2 0.220461 0.913989 0.585729
Si Si3 0.630805 0.414952 0.943804
Si Si4 0.394269 0.727712 0.001021
Si Si5 0.063590 0.086636 0.738006
Si Si6 0.304838 0.171401 0.712363
Si Si7 0.989022 0.181913 0.193122
Si Si8 0.464411 0.869891 0.879857
O O1 0.223449 0.898143 0.531272
O O2 0.070344 0.899893 0.368073
O O3 0.896487 0.855280 0.361694
O O4 0.005472 0.000000 0.400696
O O5 0.326770 0.859417 0.669579
O O6 0.000000 0.910799 0.500000
O O7 0.281006 0.000000 0.621531
O O8 0.581242 0.500000 0.934622
O O9 0.508159 0.381604 0.845626
O O10 0.621514 0.352508 0.980590
O O11 0.845184 0.413315 0.023192
O O12 0.194605 0.766976 0.900904
O O13 0.500000 0.722015 0.000000
O O14 0.502863 0.785902 0.084702
O O15 0.029249 0.142855 0.764885
O O16 0.276265 0.097325 0.816524
O O17 0.040914 0.000000 0.742793
O O18 0.341201 0.259940 0.730914
O O19 0.436989 0.133082 0.811349
#
# Coordination Sequence:
#
# PCOD9168727 Si02
#       8
#     8   8   8   8   8   8   8   8
#     4   8  16  30  49  75 102 122 149 196 247 289
#     4   8  14  26  46  73 101 123 148 193 245 285
#     4  11  22  34  49  67  93 124 165 204 235 281
#     4  11  20  36  51  63  96 129 159 196 246 279
#     4  10  19  30  49  73  96 126 159 193 241 288
#     4  10  16  27  48  69  97 126 155 187 240 289
#     4  11  20  33  45  70  98 127 158 202 239 278
#     4  10  18  33  50  71  93 121 158 204 243 284
#
# _framework density 17.648834999999998
#
# number of rings (size 3 to 8) (size 9 to 14) (size 15 to 20)
#    0.000    2.125    3.750    2.625    0.000    1.750 
#    0.000    2.500    0.000    0.000    0.000    0.000 
#    0.000   18.000    0.000    0.000    0.000    0.375 
#
# Total GULP energy -178227.865020 kJ/mol
# GULP energy per Si atom -5569.620782 kJ/mol
# Density = 1.760867 g / cm^3
# Si number density = 17.648835 Si / 1000 Ang^3
#
#
#
# Elastic Constant Matrix: (Units=GPa)
#
#
# Indices 1 2 3 4 5 6 
#
# 1 56.7648 36.1252 26.3427 -0.0002 -25.7011 0.0000
# 2 36.1252 110.5018 32.2800 -0.0001 -25.0704 0.0000
# 3 26.3427 32.2800 46.0923 -0.0007 -32.1476 0.0003
# 4 -0.0002 -0.0001 -0.0007 19.7313 -0.0001 -8.0908
# 5 -25.7011 -25.0704 -32.1476 -0.0001 29.6031 -0.0002
# 6 0.0000 0.0000 0.0003 -8.0908 -0.0002 24.2341
#
#
#
# Elastic Compliance Matrix: (Units=1/GPa)
#
#
# Indices 1 2 3 4 5 6 
#
# 1 0.031624 -0.005478 0.006910 0.000001 0.030320 0.000001
# 2 -0.005478 0.012445 -0.006394 0.000000 -0.001160 0.000000
# 3 0.006910 -0.006394 0.093293 0.000004 0.101896 0.000001
# 4 0.000001 0.000000 0.000004 0.058720 0.000006 0.019604
# 5 0.030320 -0.001160 0.101896 0.000006 0.169776 0.000002
# 6 0.000001 0.000000 0.000001 0.019604 0.000002 0.047809
#
#
# Mechanical properties :
#
#
# Convention : Reuss Voigt Hill
#
# Bulk Modulus (GPa) = 7.84698 44.76164 26.30431
# Shear Modulus (GPa) = 10.72799 22.62108 16.67454
#
# Velocity S-wave (km/s) = 2.46815 3.58401 3.07709
# Velocity P-wave (km/s) = 3.54658 6.52260 5.24988
#
# Compressibility (1/GPa) = 0.12743756
#
# Stress axis : x y z
#
# Youngs Moduli (GPa) = 31.62150 80.35254 10.71894
#
# Poissons Ratio (x) = 0.44017 -0.07407
# Poissons Ratio (y) = 0.17322 0.06854
# Poissons Ratio (z) = -0.21850 0.51377
#
# Static dielectric constant tensor:
#      x y z
#    x 1.621160 0.000000 -0.029740 
#    y 0.000000 1.601520 0.000000 
#    z -0.029740 0.000000 1.634450 
# 
# From -- ./inp_files/296700.got.cif
#   From: 2010.05.17/outbox.cif.g08.bks.cpg/sg12_149_cif.got.tgz:296700.got - 2010.06.03 13:09:07.
