data_PCOD9168905
_publ_section_title
;
Structure prediction by ZEFSAII (Michael W. Deem and Ramdas Pophale) SiO2 
 PCOD9168905
Probable space group: C 2/M
;
_chemical_formula_sum "Si O2"
_cell_formula_units_Z 48
_cell_length_a 17.610323
_cell_length_b 8.317831
_cell_length_c 27.493073
_cell_angle_alpha 90.000000
_cell_angle_beta 148.841744
_cell_angle_gamma 90.000000
_cell_volume 2083.676106
_symmetry_space_group_name_H-M "C 2/M"
_symmetry_group_IT_number 12
_symmetry_cell_setting 'monoclinic'
loop_
_space_group_symop_operation_xyz
x,y,z
-x,y,-z
-x,-y,-z
x,-y,z
1/2+x,1/2+y,z
1/2-x,1/2+y,-z
1/2-x,1/2-y,-z
1/2+x,1/2-y,z
loop_
_atom_site_type_symbol
_atom_site_label
_atom_site_fract_x
_atom_site_fract_y
_atom_site_fract_z
Si Si1 0.415222 0.500000 0.504931
Si Si2 0.612040 0.681646 0.287747
Si Si3 0.138751 0.500000 0.728635
Si Si4 0.581986 0.167345 0.492791
Si Si5 0.933953 0.500000 0.694569
Si Si6 0.427072 0.825071 0.013886
Si Si7 0.287184 0.190637 0.761594
Si Si8 0.336574 0.500000 0.934200
O O1 0.500000 0.500000 0.500000
O O2 0.450251 0.334437 0.550501
O O3 0.243189 0.500000 0.397850
O O4 0.551039 0.500000 0.248746
O O5 0.746755 0.665528 0.399847
O O6 0.516676 0.831832 0.254143
O O7 0.681461 0.745123 0.275471
O O8 0.189734 0.332935 0.731819
O O9 0.228556 0.500000 0.829591
O O10 0.975955 0.500000 0.661552
O O11 0.500000 0.170070 0.500000
O O12 0.537646 0.000000 0.444987
O O13 0.560078 0.807943 0.124759
O O14 0.354538 0.000000 0.982008
O O15 0.500000 0.831401 0.000000
O O16 0.329768 0.664779 0.961013
O O17 0.241126 0.000000 0.735750
O O18 0.500000 0.500000 0.000000
#
# Coordination Sequence:
#
# PCOD9168905 Si02
#       8
#     4   8   4   8   4   8   8   4
#     4   8  14  28  50  72  96 134 174 206 245 310
#     4  10  19  33  54  78 110 144 179 221 269 326
#     4  12  22  34  54  84 110 141 177 227 286 314
#     4   8  14  25  44  73 103 123 167 217 252 295
#     4  10  22  36  50  82 120 137 169 233 277 320
#     4   9  16  27  46  75  96 126 181 234 252 301
#     4  11  20  32  54  82 105 141 185 228 267 322
#     4  10  16  30  50  74  96 134 181 227 247 326
#
# _framework density 23.036210000000001
#
# number of rings (size 3 to 8) (size 9 to 14) (size 15 to 20)
#    0.000    2.333    5.000    0.000    0.000    0.667 
#    0.000    0.000    0.000    1.000    0.000   18.667 
#    0.000    0.000    0.000    0.000    0.000    0.000 
#
# Total GULP energy -133797.798669 kJ/mol
# GULP energy per Si atom -5574.908278 kJ/mol
# Density = 2.298378 g / cm^3
# Si number density = 23.036210 Si / 1000 Ang^3
#
#
#
# Elastic Constant Matrix: (Units=GPa)
#
#
# Indices 1 2 3 4 5 6 
#
# 1 84.8888 49.9920 6.6837 0.0000 -0.4917 0.0000
# 2 49.9920 337.9068 32.5531 0.0001 -16.1632 0.0001
# 3 6.6837 32.5531 56.4852 0.0002 -8.2572 0.0000
# 4 0.0000 0.0001 0.0002 17.7316 0.0000 -11.3182
# 5 -0.4917 -16.1632 -8.2572 0.0000 22.2273 0.0000
# 6 0.0000 0.0001 0.0000 -11.3182 0.0000 19.5670
#
#
#
# Elastic Compliance Matrix: (Units=1/GPa)
#
#
# Indices 1 2 3 4 5 6 
#
# 1 0.012952 -0.001920 -0.000622 0.000000 -0.001341 0.000000
# 2 -0.001920 0.003480 -0.001496 0.000000 0.001932 0.000000
# 3 -0.000622 -0.001496 0.019540 0.000000 0.006157 0.000000
# 4 0.000000 0.000000 0.000000 0.089407 0.000000 0.051716
# 5 -0.001341 0.001932 0.006157 0.000000 0.048653 0.000000
# 6 0.000000 0.000000 0.000000 0.051716 0.000000 0.081021
#
#
# Mechanical properties :
#
#
# Convention : Reuss Voigt Hill
#
# Bulk Modulus (GPa) = 35.84805 73.08203 54.46504
# Shear Modulus (GPa) = 18.35355 37.90866 28.13110
#
# Velocity S-wave (km/s) = 2.82570 4.06101 3.49831
# Velocity P-wave (km/s) = 5.12264 7.33368 6.32552
#
# Compressibility (1/GPa) = 0.02789552
#
# Stress axis : x y z
#
# Youngs Moduli (GPa) = 77.20635 287.35087 51.17834
#
# Poissons Ratio (x) = 0.55185 0.03182
# Poissons Ratio (y) = 0.14827 0.07656
# Poissons Ratio (z) = 0.04801 0.42984
#
# Static dielectric constant tensor:
#      x y z
#    x 1.755670 0.000000 0.090090 
#    y 0.000000 1.999830 0.000000 
#    z 0.090090 0.000000 1.916790 
# 
# From -- ./inp_files/378597.got.cif
#   From: 2010.05.17/outbox.cif.g08.bks.cpg/sg12_190_cif.got.tgz:378597.got - 2010.06.03 13:09:07.
