data_PCOD9168345
_publ_section_title
;
Structure prediction by ZEFSAII (Michael W. Deem and Ramdas Pophale) SiO2 
 PCOD9168345
Probable space group: C 2/M
;
_chemical_formula_sum "Si O2"
_cell_formula_units_Z 60
_cell_length_a 13.118548
_cell_length_b 26.149005
_cell_length_c 11.679849
_cell_angle_alpha 90.000000
_cell_angle_beta 124.762629
_cell_angle_gamma 90.000000
_cell_volume 3291.523672
_symmetry_space_group_name_H-M "C 2/M"
_symmetry_group_IT_number 12
_symmetry_cell_setting 'monoclinic'
loop_
_space_group_symop_operation_xyz
x,y,z
-x,y,-z
-x,-y,-z
x,-y,z
1/2+x,1/2+y,z
1/2-x,1/2+y,-z
1/2-x,1/2-y,-z
1/2+x,1/2-y,z
loop_
_atom_site_type_symbol
_atom_site_label
_atom_site_fract_x
_atom_site_fract_y
_atom_site_fract_z
Si Si1 0.865240 0.718046 0.894441
Si Si2 0.237588 0.700148 0.575056
Si Si3 0.000000 0.157725 0.500000
Si Si4 0.756980 0.639157 0.987889
Si Si5 0.646509 0.940985 0.119731
Si Si6 0.721848 0.138968 0.348642
Si Si7 0.652036 0.201687 0.767365
Si Si8 0.017827 0.205095 0.759893
O O1 0.854712 0.672716 0.978406
O O2 0.819942 0.689187 0.751092
O O3 0.766970 0.760413 0.863712
O O4 0.000000 0.740750 0.000000
O O5 0.250000 0.750000 0.500000
O O6 0.201215 0.653984 0.466930
O O7 0.147249 0.701726 0.626389
O O8 0.378680 0.694628 0.714419
O O9 0.130540 0.129785 0.570511
O O10 0.014772 0.190011 0.624191
O O11 0.772523 0.585696 0.930876
O O12 0.624229 0.668278 0.882742
O O13 0.808311 0.648206 0.149001
O O14 0.661727 0.908589 0.246180
O O15 0.683073 0.000000 0.156144
O O16 0.500000 0.938918 0.000000
O O17 0.546663 0.234169 0.766561
#
# Coordination Sequence:
#
# PCOD9168345 Si02
#       8
#     8   8   4   8   8   8   8   8
#     4  10  18  30  49  73 106 144 186 220 254 302
#     4  11  22  32  48  74 113 160 188 210 251 316
#     4  10  14  30  49  68 108 146 169 210 258 306
#     4  10  20  32  50  77 106 136 179 232 271 317
#     4  10  21  40  64  83  99 127 175 240 297 328
#     4  10  18  32  52  75 109 141 179 220 262 316
#     4  11  21  31  46  78 108 154 187 211 265 308
#     4  10  19  32  47  71 114 151 187 216 250 310
#
# _framework density 18.228639999999999
#
# number of rings (size 3 to 8) (size 9 to 14) (size 15 to 20)
#    0.000    1.733    5.333    4.000    3.733    1.067 
#    0.000    0.333    0.000    0.800    0.000    2.800 
#    0.000    0.000    0.000    0.000    0.000    0.000 
#
# Total GULP energy -167054.658158 kJ/mol
# GULP energy per Si atom -5568.488605 kJ/mol
# Density = 1.818715 g / cm^3
# Si number density = 18.228640 Si / 1000 Ang^3
#
#
#
# Elastic Constant Matrix: (Units=GPa)
#
#
# Indices 1 2 3 4 5 6 
#
# 1 51.7299 14.0690 22.8785 0.0000 -0.6533 0.0000
# 2 14.0690 87.9692 33.1221 0.0000 -5.5818 0.0000
# 3 22.8785 33.1221 89.3906 0.0000 -4.2083 0.0000
# 4 0.0000 0.0000 0.0000 16.9032 0.0000 2.9130
# 5 -0.6533 -5.5818 -4.2083 0.0000 33.3609 0.0000
# 6 0.0000 0.0000 0.0000 2.9130 0.0000 13.6821
#
#
#
# Elastic Compliance Matrix: (Units=1/GPa)
#
#
# Indices 1 2 3 4 5 6 
#
# 1 0.022004 -0.001651 -0.005043 0.000000 -0.000481 0.000000
# 2 -0.001651 0.013420 -0.004472 0.000000 0.001649 0.000000
# 3 -0.005043 -0.004472 0.014179 0.000000 0.000942 0.000000
# 4 0.000000 0.000000 0.000000 0.061414 0.000000 -0.013076
# 5 -0.000481 0.001649 0.000942 0.000000 0.030360 0.000000
# 6 0.000000 0.000000 0.000000 -0.013076 0.000000 0.075872
#
#
# Mechanical properties :
#
#
# Convention : Reuss Voigt Hill
#
# Bulk Modulus (GPa) = 36.66866 41.02545 38.84705
# Shear Modulus (GPa) = 20.10677 23.39059 21.74868
#
# Velocity S-wave (km/s) = 3.32480 3.58603 3.45788
# Velocity P-wave (km/s) = 5.90751 6.30088 6.10736
#
# Compressibility (1/GPa) = 0.02727125
#
# Stress axis : x y z
#
# Youngs Moduli (GPa) = 45.44556 74.51428 70.52701
#
# Poissons Ratio (x) = 0.12303 0.35564
# Poissons Ratio (y) = 0.07503 0.31543
# Poissons Ratio (z) = 0.22917 0.33326
#
# Static dielectric constant tensor:
#      x y z
#    x 1.717970 0.000000 0.002870 
#    y 0.000000 1.624070 0.000000 
#    z 0.002870 0.000000 1.746430 
# 
# From -- ./inp_files/149316.got.cif
#   From: 2010.05.17/outbox.cif.g08.bks.cpg/sg12_75_cif.got.tgz:149316.got - 2010.06.03 13:09:07.
