data_PCOD9168201
_publ_section_title
;
Structure prediction by ZEFSAII (Michael W. Deem and Ramdas Pophale) SiO2 
 PCOD9168201
Probable space group: P 21/M
;
_chemical_formula_sum "Si O2"
_cell_formula_units_Z 32
_cell_length_a 24.000000
_cell_length_b 15.000000
_cell_length_c 9.000000
_cell_angle_alpha 90.000000
_cell_angle_beta 150.000000
_cell_angle_gamma 90.000000
_cell_volume 1620.000000
_symmetry_space_group_name_H-M "P 21/M"
_symmetry_group_IT_number 11
_symmetry_cell_setting 'monoclinic'
loop_
_space_group_symop_operation_xyz
x,y,z
-x,1/2+y,-z
-x,-y,-z
x,1/2-y,z
loop_
_atom_site_type_symbol
_atom_site_label
_atom_site_fract_x
_atom_site_fract_y
_atom_site_fract_z
Si Si1 0.839538 0.646347 0.290096
Si Si2 0.593174 0.848686 0.855649
Si Si3 0.048034 0.987323 0.272827
Si Si4 0.764803 0.147313 0.386254
Si Si5 0.467914 0.525911 0.760877
Si Si6 0.251270 0.856407 0.293786
Si Si7 0.109682 0.020138 0.847804
Si Si8 0.507363 0.148097 0.693200
O O1 0.878321 0.750000 0.367645
O O2 0.915322 0.581887 0.568839
O O3 0.829901 0.595512 0.109553
O O4 0.717272 0.648092 0.078853
O O5 0.574764 0.750000 0.878813
O O6 0.570907 0.927512 0.917047
O O7 0.510458 0.859443 0.524331
O O8 0.154371 0.922139 0.508766
O O9 0.944618 0.946417 0.125488
O O10 0.000000 0.000000 0.000000
O O11 0.797575 0.250000 0.430178
O O12 0.770103 0.135255 0.577723
O O13 0.636376 0.137611 0.038388
O O14 0.372358 0.600936 0.541894
O O15 0.441265 0.433211 0.616150
O O16 0.500000 0.500000 0.000000
O O17 0.243097 0.750000 0.237702
O O18 0.172438 0.926877 0.025022
O O19 0.000000 0.000000 0.500000
O O20 0.473036 0.250000 0.655179
#
# Coordination Sequence:
#
# PCOD9168201 Si02
#       8
#     4   4   4   4   4   4   4   4
#     4  10  23  43  65  90 130 174 215 264 326 394
#     4  10  22  40  62  89 124 170 214 259 316 389
#     4  11  22  40  66  92 125 161 222 276 332 385
#     4  10  21  38  63  95 129 168 212 265 326 389
#     4  12  23  36  63  96 133 171 213 264 323 385
#     4  11  23  41  64  94 130 170 215 266 327 389
#     4  10  23  41  64  95 125 169 214 277 327 388
#     4  10  21  39  62  91 130 172 213 261 320 383
#
# _framework density 19.753086
#
# number of rings (size 3 to 8) (size 9 to 14) (size 15 to 20)
#    0.000    1.500    2.500    2.250    0.000    5.500 
#    0.000    4.375    0.000    0.000    0.000    0.000 
#    0.000    0.000    0.000    0.000    0.000    0.000 
#
# Total GULP energy -178537.302438 kJ/mol
# GULP energy per Si atom -5579.290701 kJ/mol
# Density = 1.970813 g / cm^3
# Si number density = 19.753086 Si / 1000 Ang^3
#
#
#
# Elastic Constant Matrix: (Units=GPa)
#
#
# Indices 1 2 3 4 5 6 
#
# 1 92.2167 66.8128 17.0657 0.0000 -5.6341 0.0000
# 2 66.8128 174.2290 32.1914 0.0000 -0.8781 0.0000
# 3 17.0657 32.1914 71.9272 0.0000 -7.7871 0.0000
# 4 0.0000 0.0000 0.0000 34.2194 0.0000 -3.7108
# 5 -5.6341 -0.8781 -7.7871 0.0000 27.5504 0.0000
# 6 0.0000 0.0000 0.0000 -3.7108 0.0000 28.5081
#
#
#
# Elastic Compliance Matrix: (Units=1/GPa)
#
#
# Indices 1 2 3 4 5 6 
#
# 1 0.015288 -0.005705 -0.000779 0.000000 0.002724 0.000000
# 2 -0.005705 0.008396 -0.002580 0.000000 -0.001628 0.000000
# 3 -0.000779 -0.002580 0.015697 0.000000 0.004195 0.000000
# 4 0.000000 0.000000 0.000000 0.029642 0.000000 0.003858
# 5 0.002724 -0.001628 0.004195 0.000000 0.037988 0.000000
# 6 0.000000 0.000000 0.000000 0.003858 0.000000 0.035580
#
#
# Mechanical properties :
#
#
# Convention : Reuss Voigt Hill
#
# Bulk Modulus (GPa) = 47.05438 63.39031 55.22234
# Shear Modulus (GPa) = 29.79688 32.87579 31.33633
#
# Velocity S-wave (km/s) = 3.88811 4.08405 3.98729
# Velocity P-wave (km/s) = 6.63548 7.37566 7.01534
#
# Compressibility (1/GPa) = 0.02125201
#
# Stress axis : x y z
#
# Youngs Moduli (GPa) = 65.41093 119.10687 63.70723
#
# Poissons Ratio (x) = 0.67949 0.04963
# Poissons Ratio (y) = 0.37316 0.16439
# Poissons Ratio (z) = 0.05096 0.30733
#
# Static dielectric constant tensor:
#      x y z
#    x 1.718030 0.000000 0.026710 
#    y 0.000000 1.703010 0.000000 
#    z 0.026710 0.000000 1.700520 
# 
# From -- ./inp_files/27810.got.cif
#   From: 2010.05.17/outbox.ucp.g08.bks.cvg/sg11_14_cif.got.tgz:27810.got - 2010.06.11 11:38:39.
