data_PCOD9168591
_publ_section_title
;
Structure prediction by ZEFSAII (Michael W. Deem and Ramdas Pophale) SiO2 
 PCOD9168591
Probable space group: C 2/M
;
_chemical_formula_sum "Si O2"
_cell_formula_units_Z 48
_cell_length_a 5.560273
_cell_length_b 18.505723
_cell_length_c 24.473494
_cell_angle_alpha 90.000000
_cell_angle_beta 125.227417
_cell_angle_gamma 90.000000
_cell_volume 2057.077004
_symmetry_space_group_name_H-M "C 2/M"
_symmetry_group_IT_number 12
_symmetry_cell_setting 'monoclinic'
loop_
_space_group_symop_operation_xyz
x,y,z
-x,y,-z
-x,-y,-z
x,-y,z
1/2+x,1/2+y,z
1/2-x,1/2+y,-z
1/2-x,1/2-y,-z
1/2+x,1/2-y,z
loop_
_atom_site_type_symbol
_atom_site_label
_atom_site_fract_x
_atom_site_fract_y
_atom_site_fract_z
Si Si1 0.402146 0.328133 0.237037
Si Si2 0.228834 0.335291 0.814848
Si Si3 0.244369 0.628612 0.428349
Si Si4 0.943030 0.000000 0.327488
Si Si5 0.682328 0.666296 0.973325
Si Si6 0.069905 0.500000 0.678651
Si Si7 0.859409 0.156384 0.612510
O O1 0.634004 0.362558 0.224638
O O2 0.340685 0.249493 0.203770
O O3 0.533923 0.316148 0.314454
O O4 0.085418 0.365410 0.205593
O O5 0.475148 0.338059 0.893516
O O6 0.500000 0.597077 0.500000
O O7 0.064400 0.568985 0.370953
O O8 0.422587 0.678293 0.408233
O O9 0.992758 0.664004 0.433426
O O10 0.070176 0.929900 0.374629
O O11 0.593624 0.000000 0.285580
O O12 0.085499 0.000000 0.286652
O O13 0.500000 0.634143 0.000000
O O14 0.750000 0.750000 0.000000
O O15 0.000000 0.634260 0.000000
#
# Coordination Sequence:
#
# PCOD9168591 Si02
#       7
#     8   8   8   4   8   4   8
#     4  10  18  30  44  62  87 115 149 177 202 243
#     4  10  19  30  45  67  88 117 148 174 200 242
#     4  10  18  29  43  63  84 106 137 176 221 272
#     4   8  16  28  41  62  88 108 138 167 205 260
#     4  10  16  25  41  63  91 118 132 158 208 254
#     4   8  15  26  42  60  84 108 128 161 213 272
#     4  10  19  30  45  64  85 115 140 173 218 255
#
# _framework density 23.334078000000002
#
# number of rings (size 3 to 8) (size 9 to 14) (size 15 to 20)
#    0.000    2.333    0.000    6.750    0.000    0.000 
#    0.000    5.000    0.000    0.000    0.000   46.667 
#    0.000    0.000    0.000   55.500    0.000    0.000 
#
# Total GULP energy -133876.740740 kJ/mol
# GULP energy per Si atom -5578.197531 kJ/mol
# Density = 2.328097 g / cm^3
# Si number density = 23.334078 Si / 1000 Ang^3
#
#
#
# Elastic Constant Matrix: (Units=GPa)
#
#
# Indices 1 2 3 4 5 6 
#
# 1 292.0714 -2.8118 32.3438 0.0000 6.8869 0.0000
# 2 -2.8118 56.3708 -10.5563 0.0000 -3.1580 0.0000
# 3 32.3438 -10.5563 96.4861 0.0000 4.8038 0.0000
# 4 0.0000 0.0000 0.0000 4.3289 0.0000 -12.4603
# 5 6.8869 -3.1580 4.8038 0.0000 42.8695 0.0000
# 6 0.0000 0.0000 0.0000 -12.4603 0.0000 -2.6675
#
#
#
# Elastic Compliance Matrix: (Units=1/GPa)
#
#
# Indices 1 2 3 4 5 6 
#
# 1 0.003564 -0.000068 -0.001180 0.000000 -0.000445 0.000000
# 2 -0.000068 0.018166 0.001954 0.000000 0.001130 0.000000
# 3 -0.001180 0.001954 0.011018 0.000000 -0.000901 0.000000
# 4 0.000000 0.000000 0.000000 0.015992 0.000000 -0.074699
# 5 -0.000445 0.001130 -0.000901 0.000000 0.023582 0.000000
# 6 0.000000 0.000000 0.000000 -0.074699 0.000000 -0.025951
#
#
# Mechanical properties :
#
#
# Convention : Reuss Voigt Hill
#
# Bulk Modulus (GPa) = 29.27415 53.65328 41.46372
# Shear Modulus (GPa) = 88.73768 37.30302 63.02035
#
# Velocity S-wave (km/s) = 6.17347 4.00265 5.20255
# Velocity P-wave (km/s) = 7.96170 6.66371 7.34145
#
# Compressibility (1/GPa) = 0.03415983
#
# Stress axis : x y z
#
# Youngs Moduli (GPa) = 280.55598 55.04934 90.75702
#
# Poissons Ratio (x) = 0.00375 0.10710
# Poissons Ratio (y) = 0.01912 -0.17734
# Poissons Ratio (z) = 0.33109 -0.10757
#
# Static dielectric constant tensor:
#      x y z
#    x 2.050940 0.000000 -0.011270 
#    y 0.000000 1.948160 0.000000 
#    z -0.011270 0.000000 1.813240 
# 
# From -- ./inp_files/192386.got.cif
#   From: 2010.05.17/outbox.cif.g08.bks.cpg/sg12_97_cif.got.tgz:192386.got - 2010.06.03 13:09:07.
