data_PCOD9168956
_publ_section_title
;
Structure prediction by ZEFSAII (Michael W. Deem and Ramdas Pophale) SiO2 
 PCOD9168956
Probable space group: C 2/M
;
_chemical_formula_sum "Si O2"
_cell_formula_units_Z 64
_cell_length_a 12.207361
_cell_length_b 14.416632
_cell_length_c 28.446605
_cell_angle_alpha 90.000000
_cell_angle_beta 136.065348
_cell_angle_gamma 90.000000
_cell_volume 3473.551977
_symmetry_space_group_name_H-M "C 2/M"
_symmetry_group_IT_number 12
_symmetry_cell_setting 'monoclinic'
loop_
_space_group_symop_operation_xyz
x,y,z
-x,y,-z
-x,-y,-z
x,-y,z
1/2+x,1/2+y,z
1/2-x,1/2+y,-z
1/2-x,1/2-y,-z
1/2+x,1/2-y,z
loop_
_atom_site_type_symbol
_atom_site_label
_atom_site_fract_x
_atom_site_fract_y
_atom_site_fract_z
Si Si1 0.622064 0.098284 0.950051
Si Si2 0.851146 0.103234 0.211651
Si Si3 0.206816 0.893891 0.350601
Si Si4 0.494375 0.774248 0.554951
Si Si5 0.385330 0.259002 0.855602
Si Si6 0.815475 0.892200 0.543227
Si Si7 0.326119 0.653768 0.930466
Si Si8 0.174808 0.152430 0.901996
O O1 0.509234 0.187098 0.918577
O O2 0.697409 0.100016 0.921236
O O3 0.537709 0.000000 0.931642
O O4 0.762543 0.103951 0.031591
O O5 0.750708 0.188065 0.202331
O O6 0.813591 0.103400 0.144347
O O7 0.036671 0.121740 0.275180
O O8 0.818871 0.000000 0.221325
O O9 0.341109 0.820390 0.378846
O O10 0.182021 0.889075 0.399294
O O11 0.258320 0.000000 0.355874
O O12 0.500000 0.764620 0.500000
O O13 0.352430 0.846192 0.522712
O O14 0.448274 0.676067 0.563464
O O15 0.321125 0.334862 0.872809
O O16 0.495902 0.311794 0.853090
O O17 0.828477 0.000000 0.532979
O O18 0.288478 0.758679 0.934338
O O19 0.500000 0.624421 0.000000
#
# Coordination Sequence:
#
# PCOD9168956 Si02
#       8
#     8   8   8   8   8   8   8   8
#     4  11  20  29  46  70  88 108 145 194 238 282
#     4  10  21  33  48  70  91 118 158 198 228 267
#     4   9  18  33  49  69  99 130 162 197 232 274
#     4   9  17  30  51  77 105 131 159 195 233 276
#     4  10  19  34  49  62  88 121 149 184 237 289
#     4   9  17  30  51  78 103 132 163 193 231 273
#     4  10  16  31  47  62  85 114 142 177 227 294
#     4  10  19  31  47  66  88 116 150 186 237 285
#
# _framework density 18.424944
#
# number of rings (size 3 to 8) (size 9 to 14) (size 15 to 20)
#    0.000    2.250    2.500    1.875    0.000    3.000 
#    0.000    1.875    0.000    0.000    0.000    1.750 
#    0.000    0.000    0.000    0.000    0.000    0.000 
#
# Total GULP energy -178202.805931 kJ/mol
# GULP energy per Si atom -5568.837685 kJ/mol
# Density = 1.838301 g / cm^3
# Si number density = 18.424944 Si / 1000 Ang^3
#
#
#
# Elastic Constant Matrix: (Units=GPa)
#
#
# Indices 1 2 3 4 5 6 
#
# 1 71.0309 27.4691 5.5390 0.0000 18.0025 0.0000
# 2 27.4691 92.5161 21.0336 0.0000 12.6258 0.0000
# 3 5.5390 21.0336 54.6030 0.0000 19.8451 0.0000
# 4 0.0000 0.0000 0.0000 13.2335 0.0000 3.0313
# 5 18.0025 12.6258 19.8451 0.0000 19.7097 0.0000
# 6 0.0000 0.0000 0.0000 3.0313 0.0000 17.4227
#
#
#
# Elastic Compliance Matrix: (Units=1/GPa)
#
#
# Indices 1 2 3 4 5 6 
#
# 1 0.021906 -0.005039 0.009175 0.000000 -0.026019 0.000000
# 2 -0.005039 0.013291 -0.005027 0.000000 0.001150 0.000000
# 3 0.009175 -0.005027 0.033428 0.000000 -0.038818 0.000000
# 4 0.000000 0.000000 0.000000 0.078702 0.000000 -0.013693
# 5 -0.026019 0.001150 -0.038818 0.000000 0.112850 0.000000
# 6 0.000000 0.000000 0.000000 -0.013693 0.000000 0.059779
#
#
# Mechanical properties :
#
#
# Convention : Reuss Voigt Hill
#
# Bulk Modulus (GPa) = 14.96018 36.24813 25.60415
# Shear Modulus (GPa) = 14.53412 21.01375 17.77394
#
# Velocity S-wave (km/s) = 2.81166 3.38080 3.10928
# Velocity P-wave (km/s) = 4.32177 5.91235 5.17849
#
# Compressibility (1/GPa) = 0.06684411
#
# Stress axis : x y z
#
# Youngs Moduli (GPa) = 45.64941 75.23866 29.91520
#
# Poissons Ratio (x) = 0.37915 -0.27449
# Poissons Ratio (y) = 0.23004 0.15037
# Poissons Ratio (z) = -0.41886 0.37819
#
# Static dielectric constant tensor:
#      x y z
#    x 1.658710 0.000000 0.005940 
#    y 0.000000 1.659560 0.000000 
#    z 0.005940 0.000000 1.627880 
# 
# From -- ./inp_files/374114.got.cif
#   From: 2010.05.17/outbox.cif.g08.bks.cpg/sg12_188_cif.got.tgz:374114.got - 2010.06.03 13:09:07.
