data_PCOD9168572
_publ_section_title
;
Structure prediction by ZEFSAII (Michael W. Deem and Ramdas Pophale) SiO2 
 PCOD9168572
Probable space group: C 2/M
;
_chemical_formula_sum "Si O2"
_cell_formula_units_Z 44
_cell_length_a 5.408650
_cell_length_b 14.508057
_cell_length_c 27.975372
_cell_angle_alpha 90.000000
_cell_angle_beta 112.939627
_cell_angle_gamma 90.000000
_cell_volume 2021.594504
_symmetry_space_group_name_H-M "C 2/M"
_symmetry_group_IT_number 12
_symmetry_cell_setting 'monoclinic'
loop_
_space_group_symop_operation_xyz
x,y,z
-x,y,-z
-x,-y,-z
x,-y,z
1/2+x,1/2+y,z
1/2-x,1/2+y,-z
1/2-x,1/2-y,-z
1/2+x,1/2-y,z
loop_
_atom_site_type_symbol
_atom_site_label
_atom_site_fract_x
_atom_site_fract_y
_atom_site_fract_z
Si Si1 0.167351 0.857944 0.115131
Si Si2 0.747556 0.644752 0.842648
Si Si3 0.339624 0.387217 0.440761
Si Si4 0.588873 0.693247 0.273355
Si Si5 0.500000 0.689494 0.000000
Si Si6 0.274060 0.610119 0.615354
O O1 0.187191 0.750385 0.134782
O O2 0.462618 0.896140 0.146194
O O3 0.925047 0.897017 0.127712
O O4 0.102751 0.863283 0.054359
O O5 0.564653 0.645109 0.781932
O O6 0.500000 0.357659 0.500000
O O7 0.337011 0.500000 0.440706
O O8 0.503872 0.357330 0.406083
O O9 0.029675 0.357166 0.417780
O O10 0.371612 0.769691 0.274243
O O11 0.646531 0.635166 0.324936
O O12 0.250000 0.750000 0.000000
O O13 0.267386 0.500000 0.610216
#
# Coordination Sequence:
#
# PCOD9168572 Si02
#       6
#     8   8   8   8   4   8
#     4  10  16  25  36  56  85 114 156 192 232 284
#     4  10  16  27  39  56  83 118 159 187 219 277
#     4   9  17  33  57  79  98 126 163 200 243 294
#     4  12  21  33  52  72  98 136 173 196 235 291
#     4  12  16  20  34  52  78 118 142 188 246 278
#     4  10  21  35  53  80 105 125 159 209 247 280
#
# _framework density 21.764997999999999
#
# number of rings (size 3 to 8) (size 9 to 14) (size 15 to 20)
#    0.000    1.636    7.273    1.636    0.000    2.182 
#    0.000    0.000    0.000   10.909    0.000    0.000 
#    0.000    0.000    0.000    9.000    0.000    0.364 
#
# Total GULP energy -122855.384786 kJ/mol
# GULP energy per Si atom -5584.335672 kJ/mol
# Density = 2.171546 g / cm^3
# Si number density = 21.764998 Si / 1000 Ang^3
#
#
#
# Elastic Constant Matrix: (Units=GPa)
#
#
# Indices 1 2 3 4 5 6 
#
# 1 103.6344 -7.0032 -27.4074 0.0000 -0.9411 0.0000
# 2 -7.0032 53.1960 -7.0517 0.0000 4.6464 0.0000
# 3 -27.4074 -7.0517 82.8148 0.0000 -4.2126 0.0000
# 4 0.0000 0.0000 0.0000 90.4357 0.0000 -9.4464
# 5 -0.9411 4.6464 -4.2126 0.0000 45.5897 0.0000
# 6 0.0000 0.0000 0.0000 -9.4464 0.0000 -12.6402
#
#
#
# Elastic Compliance Matrix: (Units=1/GPa)
#
#
# Indices 1 2 3 4 5 6 
#
# 1 0.010770 0.001881 0.003744 0.000000 0.000377 0.000000
# 2 0.001881 0.019489 0.002193 0.000000 -0.001745 0.000000
# 3 0.003744 0.002193 0.013557 0.000000 0.001106 0.000000
# 4 0.000000 0.000000 0.000000 0.010257 0.000000 -0.007665
# 5 0.000377 -0.001745 0.001106 0.000000 0.022223 0.000000
# 6 0.000000 0.000000 0.000000 -0.007665 0.000000 -0.073384
#
#
# Mechanical properties :
#
#
# Convention : Reuss Voigt Hill
#
# Bulk Modulus (GPa) = 16.82012 17.41340 17.11676
# Shear Modulus (GPa) = 704.92472 43.41754 374.17113
#
# Velocity S-wave (km/s) = 18.01619 4.47120 13.12583
# Velocity P-wave (km/s) = 20.98862 5.88842 15.41421
#
# Compressibility (1/GPa) = 0.05945260
#
# Stress axis : x y z
#
# Youngs Moduli (GPa) = 92.85143 51.31039 73.76200
#
# Poissons Ratio (x) = -0.09653 -0.27614
# Poissons Ratio (y) = -0.17467 -0.16179
# Poissons Ratio (z) = -0.34760 -0.11254
#
# Static dielectric constant tensor:
#      x y z
#    x 1.801250 0.000000 -0.001770 
#    y 0.000000 1.718110 0.000000 
#    z -0.001770 0.000000 1.775260 
# 
# From -- ./inp_files/331075.got.cif
#   From: 2010.05.17/outbox.cif.g08.bks.cpg/sg12_166_cif.got.tgz:331075.got - 2010.06.03 13:09:07.
