data_PCOD9168693
_publ_section_title
;
Structure prediction by ZEFSAII (Michael W. Deem and Ramdas Pophale) SiO2 
 PCOD9168693
Probable space group: C 2/M
;
_chemical_formula_sum "Si O2"
_cell_formula_units_Z 56
_cell_length_a 13.211516
_cell_length_b 26.971444
_cell_length_c 8.632862
_cell_angle_alpha 90.000000
_cell_angle_beta 117.164713
_cell_angle_gamma 90.000000
_cell_volume 2736.869750
_symmetry_space_group_name_H-M "C 2/M"
_symmetry_group_IT_number 12
_symmetry_cell_setting 'monoclinic'
loop_
_space_group_symop_operation_xyz
x,y,z
-x,y,-z
-x,-y,-z
x,-y,z
1/2+x,1/2+y,z
1/2-x,1/2+y,-z
1/2-x,1/2-y,-z
1/2+x,1/2-y,z
loop_
_atom_site_type_symbol
_atom_site_label
_atom_site_fract_x
_atom_site_fract_y
_atom_site_fract_z
Si Si1 0.779695 0.216351 0.369651
Si Si2 0.258423 0.374453 0.541494
Si Si3 0.884529 0.690209 0.325859
Si Si4 0.450885 0.943770 0.639447
Si Si5 0.810025 0.555758 0.016104
Si Si6 0.618313 0.442528 0.149460
Si Si7 0.627113 0.843105 0.038071
O O1 0.750000 0.250000 0.500000
O O2 0.816636 0.163700 0.465105
O O3 0.861979 0.251266 0.329419
O O4 0.677218 0.199254 0.185660
O O5 0.211286 0.341013 0.650947
O O6 0.146994 0.403595 0.401139
O O7 0.342565 0.413751 0.672622
O O8 0.000000 0.679060 0.500000
O O9 0.880730 0.675046 0.145068
O O10 0.500000 0.937317 0.500000
O O11 0.561729 0.941307 0.825163
O O12 0.404171 0.000000 0.616118
O O13 0.797539 0.500000 0.938361
O O14 0.719204 0.559520 0.092409
O O15 0.800857 0.605657 0.909795
O O16 0.600612 0.500000 0.175097
O O17 0.500000 0.422441 0.000000
O O18 0.500000 0.854304 0.000000
#
# Coordination Sequence:
#
# PCOD9168693 Si02
#       7
#     8   8   8   8   8   8   8
#     4  10  24  41  58  85 121 160 214 267 313 372
#     4  11  19  37  61  92 123 163 210 261 317 375
#     4  11  22  41  63  90 124 160 205 268 325 383
#     4  10  16  26  53  91 127 160 197 246 303 368
#     4  10  20  35  57  94 132 162 201 253 312 381
#     4  10  20  36  60  91 130 170 211 252 300 380
#     4  12  22  39  66  92 124 171 206 253 331 384
#
# _framework density 20.461331999999999
#
# number of rings (size 3 to 8) (size 9 to 14) (size 15 to 20)
#    0.000    1.429    2.857    4.714    0.000    0.286 
#    2.571    4.286    0.000    0.000    0.000    3.000 
#    0.000    0.000    0.000    0.000    0.000    0.000 
#
# Total GULP energy -156311.869260 kJ/mol
# GULP energy per Si atom -5582.566759 kJ/mol
# Density = 2.041476 g / cm^3
# Si number density = 20.461332 Si / 1000 Ang^3
#
#
#
# Elastic Constant Matrix: (Units=GPa)
#
#
# Indices 1 2 3 4 5 6 
#
# 1 34.3693 38.9172 22.4688 0.0000 -1.3053 0.0000
# 2 38.9172 130.9939 40.5661 0.0000 -5.2547 0.0000
# 3 22.4688 40.5661 92.9753 0.0000 -2.5980 0.0000
# 4 0.0000 0.0000 0.0000 34.3309 0.0000 -4.7809
# 5 -1.3053 -5.2547 -2.5980 0.0000 33.8232 0.0000
# 6 0.0000 0.0000 0.0000 -4.7809 0.0000 30.9451
#
#
#
# Elastic Compliance Matrix: (Units=1/GPa)
#
#
# Indices 1 2 3 4 5 6 
#
# 1 0.046612 -0.011997 -0.006045 0.000000 -0.000529 0.000000
# 2 -0.011997 0.011954 -0.002282 0.000000 0.001219 0.000000
# 3 -0.006045 -0.002282 0.013224 0.000000 0.000428 0.000000
# 4 0.000000 0.000000 0.000000 0.029769 0.000000 0.004599
# 5 -0.000529 0.001219 0.000428 0.000000 0.029767 0.000000
# 6 0.000000 0.000000 0.000000 0.004599 0.000000 0.033026
#
#
# Mechanical properties :
#
#
# Convention : Reuss Voigt Hill
#
# Bulk Modulus (GPa) = 32.11141 51.36029 41.73585
# Shear Modulus (GPa) = 23.21462 30.24560 26.73011
#
# Velocity S-wave (km/s) = 3.37198 3.84889 3.61830
# Velocity P-wave (km/s) = 5.55771 6.70131 6.15612
#
# Compressibility (1/GPa) = 0.03114158
#
# Stress axis : x y z
#
# Youngs Moduli (GPa) = 21.45355 83.65448 75.61988
#
# Poissons Ratio (x) = 1.00364 0.45710
# Poissons Ratio (y) = 0.25739 0.17258
# Poissons Ratio (z) = 0.12968 0.19092
#
# Static dielectric constant tensor:
#      x y z
#    x 1.707630 0.000000 -0.007950 
#    y 0.000000 1.785490 0.000000 
#    z -0.007950 0.000000 1.786540 
# 
# From -- ./inp_files/67067.got.cif
#   From: 2010.05.17/outbox.cif.g08.bks.cpg/sg12_34_cif.got.tgz:67067.got - 2010.06.03 13:09:07.
