data_PCOD9168593
_publ_section_title
;
Structure prediction by ZEFSAII (Michael W. Deem and Ramdas Pophale) SiO2 
 PCOD9168593
Probable space group: C 2/M
;
_chemical_formula_sum "Si O2"
_cell_formula_units_Z 48
_cell_length_a 5.418160
_cell_length_b 14.676074
_cell_length_c 28.505133
_cell_angle_alpha 90.000000
_cell_angle_beta 106.512823
_cell_angle_gamma 90.000000
_cell_volume 2173.166251
_symmetry_space_group_name_H-M "C 2/M"
_symmetry_group_IT_number 12
_symmetry_cell_setting 'monoclinic'
loop_
_space_group_symop_operation_xyz
x,y,z
-x,y,-z
-x,-y,-z
x,-y,z
1/2+x,1/2+y,z
1/2-x,1/2+y,-z
1/2-x,1/2-y,-z
1/2+x,1/2-y,z
loop_
_atom_site_type_symbol
_atom_site_label
_atom_site_fract_x
_atom_site_fract_y
_atom_site_fract_z
Si Si1 0.219366 0.354187 0.479506
Si Si2 0.539204 0.352368 0.323522
Si Si3 0.876741 0.807506 0.947427
Si Si4 0.704935 0.391049 0.157684
Si Si5 0.285635 0.611073 0.211505
Si Si6 0.598761 0.854545 0.363518
O O1 0.500000 0.396119 0.500000
O O2 0.250000 0.250000 0.500000
O O3 0.137115 0.354034 0.421134
O O4 0.000000 0.395925 0.500000
O O5 0.402291 0.352349 0.266079
O O6 0.591380 0.249849 0.344647
O O7 0.342929 0.395638 0.350061
O O8 0.821886 0.395280 0.335900
O O9 0.596574 0.767964 0.946642
O O10 0.844860 0.864202 0.898537
O O11 0.000000 0.855277 0.000000
O O12 0.709249 0.500000 0.161360
O O13 0.473139 0.360108 0.179059
O O14 0.990131 0.359469 0.188389
O O15 0.289137 0.500000 0.214105
#
# Coordination Sequence:
#
# PCOD9168593 Si02
#       6
#     8   8   8   8   8   8
#     4  10  16  25  41  63  94 127 158 191 251 318
#     4  10  18  32  45  66  99 132 161 203 259 300
#     4  10  21  39  59  86 119 147 177 225 279 327
#     4  10  21  39  58  81 108 144 188 230 266 319
#     4  10  21  37  55  74 104 139 181 225 260 304
#     4  10  19  30  45  70 104 127 156 216 252 316
#
# _framework density 22.087586000000002
#
# number of rings (size 3 to 8) (size 9 to 14) (size 15 to 20)
#    0.000    2.000    0.000    7.000    0.000    0.333 
#   18.000    0.000    0.000    6.000    0.000    0.000 
#    0.000   49.333    0.000    0.000    0.000    0.000 
#
# Total GULP energy -134089.728282 kJ/mol
# GULP energy per Si atom -5587.072012 kJ/mol
# Density = 2.203731 g / cm^3
# Si number density = 22.087586 Si / 1000 Ang^3
#
#
#
# Elastic Constant Matrix: (Units=GPa)
#
#
# Indices 1 2 3 4 5 6 
#
# 1 135.1393 0.2902 -20.4726 0.0000 1.3433 0.0000
# 2 0.2902 62.8752 -3.0665 0.0000 2.5135 0.0000
# 3 -20.4726 -3.0665 94.7933 0.0000 -2.3012 0.0000
# 4 0.0000 0.0000 0.0000 -619.1502 0.0000 4.9421
# 5 1.3433 2.5135 -2.3012 0.0000 44.9436 0.0000
# 6 0.0000 0.0000 0.0000 4.9421 0.0000 -14.4579
#
#
#
# Elastic Compliance Matrix: (Units=1/GPa)
#
#
# Indices 1 2 3 4 5 6 
#
# 1 0.007651 0.000051 0.001651 0.000000 -0.000147 0.000000
# 2 0.000051 0.015964 0.000506 0.000000 -0.000868 0.000000
# 3 0.001651 0.000506 0.010934 0.000000 0.000482 0.000000
# 4 0.000000 0.000000 0.000000 -0.001620 0.000000 -0.000554
# 5 -0.000147 -0.000868 0.000482 0.000000 0.022328 0.000000
# 6 0.000000 0.000000 0.000000 -0.000554 0.000000 -0.069356
#
#
# Mechanical properties :
#
#
# Convention : Reuss Voigt Hill
#
# Bulk Modulus (GPa) = 25.66436 27.36778 26.51607
# Shear Modulus (GPa) = -904.76473 -96.66246 -500.71360
#
# Velocity S-wave (km/s) = -20.26117 -6.62256 -15.07271
# Velocity P-wave (km/s) = 23.14539 6.78677 17.05534
#
# Compressibility (1/GPa) = 0.03896453
#
# Stress axis : x y z
#
# Youngs Moduli (GPa) = 130.69905 62.64218 91.45934
#
# Poissons Ratio (x) = -0.00320 -0.15095
# Poissons Ratio (y) = -0.00667 -0.04631
# Poissons Ratio (z) = -0.21572 -0.03172
#
# Static dielectric constant tensor:
#      x y z
#    x 1.880020 0.000000 -0.001010 
#    y 0.000000 1.767330 0.000000 
#    z -0.001010 0.000000 1.745220 
# 
# From -- ./inp_files/331061.got.cif
#   From: 2010.05.17/outbox.cif.g08.bks.cpg/sg12_166_cif.got.tgz:331061.got - 2010.06.03 13:09:07.
