data_PCOD9168139
_publ_section_title
;
Structure prediction by ZEFSAII (Michael W. Deem and Ramdas Pophale) SiO2 
 PCOD9168139
Probable space group: P 21/M
;
_chemical_formula_sum "Si O2"
_cell_formula_units_Z 28
_cell_length_a 27.000000
_cell_length_b 9.000000
_cell_length_c 9.000000
_cell_angle_alpha 90.000000
_cell_angle_beta 40.000000
_cell_angle_gamma 90.000000
_cell_volume 1405.776502
_symmetry_space_group_name_H-M "P 21/M"
_symmetry_group_IT_number 11
_symmetry_cell_setting 'monoclinic'
loop_
_space_group_symop_operation_xyz
x,y,z
-x,1/2+y,-z
-x,-y,-z
x,1/2-y,z
loop_
_atom_site_type_symbol
_atom_site_label
_atom_site_fract_x
_atom_site_fract_y
_atom_site_fract_z
Si Si1 0.839162 0.924762 0.493128
Si Si2 0.536783 0.088678 0.286601
Si Si3 0.988839 0.073351 0.187319
Si Si4 0.301879 0.574024 0.034537
Si Si5 0.294696 0.574567 0.701441
Si Si6 0.154662 0.072449 0.870166
Si Si7 0.433817 0.085764 0.237924
O O1 0.854458 0.750000 0.458443
O O2 0.832554 0.968825 0.333581
O O3 0.907992 0.007745 0.420160
O O4 0.763348 0.970602 0.751846
O O5 0.554815 0.250000 0.308953
O O6 0.620932 0.033490 0.051370
O O7 0.475372 0.099640 0.300510
O O8 0.500000 0.000000 0.500000
O O9 0.985084 0.250000 0.179368
O O10 0.064905 0.038548 0.106034
O O11 0.000000 0.000000 0.000000
O O12 0.282300 0.750000 0.099302
O O13 0.313164 0.545174 0.832591
O O14 0.297385 0.750000 0.674459
O O15 0.212018 0.511388 0.846105
O O16 0.355675 0.499961 0.449844
O O17 0.166665 0.250000 0.854992
O O18 0.419493 0.250000 0.208217
O O19 0.500000 0.000000 0.000000
#
# Coordination Sequence:
#
# PCOD9168139 Si02
#       7
#     4   4   4   4   4   4   4
#     4  10  21  36  58  88 115 147 190 234 281 333
#     4  10  21  39  61  83 110 148 190 231 281 334
#     4   9  17  33  57  84 115 149 185 231 282 332
#     4  10  22  39  57  82 115 149 189 235 279 333
#     4  11  23  39  59  83 114 152 189 232 286 335
#     4   9  20  37  57  85 117 148 186 232 281 334
#     4  11  24  40  60  86 115 149 188 234 285 335
#
# _framework density 19.917818
#
# number of rings (size 3 to 8) (size 9 to 14) (size 15 to 20)
#    0.000    2.000    1.429    2.571    2.000    5.714 
#    0.000    0.714    0.000    0.000    0.000    0.000 
#    0.000    0.000    0.000    0.000    0.000    0.000 
#
# Total GULP energy -155973.794908 kJ/mol
# GULP energy per Si atom -5570.492675 kJ/mol
# Density = 1.987248 g / cm^3
# Si number density = 19.917818 Si / 1000 Ang^3
#
#
#
# Elastic Constant Matrix: (Units=GPa)
#
#
# Indices 1 2 3 4 5 6 
#
# 1 43.4516 15.9776 -11.0957 0.0000 -26.2777 0.0000
# 2 15.9776 33.7152 9.5983 0.0000 -12.4625 0.0000
# 3 -11.0957 9.5983 26.6156 0.0000 -24.4845 0.0000
# 4 0.0000 0.0000 0.0000 29.1298 0.0000 -5.5937
# 5 -26.2777 -12.4625 -24.4845 0.0000 33.9771 0.0000
# 6 0.0000 0.0000 0.0000 -5.5937 0.0000 24.7064
#
#
#
# Elastic Compliance Matrix: (Units=1/GPa)
#
#
# Indices 1 2 3 4 5 6 
#
# 1 -0.012527 0.003619 -0.042181 0.000000 -0.038757 0.000000
# 2 0.003619 0.033317 0.009819 0.000000 0.022095 0.000000
# 3 -0.042181 0.009819 -0.030413 0.000000 -0.050937 0.000000
# 4 0.000000 0.000000 0.000000 0.035889 0.000000 0.008126
# 5 -0.038757 0.022095 -0.050937 0.000000 -0.029145 0.000000
# 6 0.000000 0.000000 0.000000 0.008126 0.000000 0.042315
#
#
# Mechanical properties :
#
#
# Convention : Reuss Voigt Hill
#
# Bulk Modulus (GPa) = -14.90117 14.74919 -0.07599
# Shear Modulus (GPa) = 67.06509 23.51615 45.29062
#
# Velocity S-wave (km/s) = 5.80896 3.43980 4.77369
# Velocity P-wave (km/s) = 6.12327 4.81637 5.50871
#
# Compressibility (1/GPa) = -0.06710881
#
# Stress axis : x y z
#
# Youngs Moduli (GPa) = -79.82991 30.01457 -32.88112
#
# Poissons Ratio (x) = -0.10861 -1.38697
# Poissons Ratio (y) = 0.28887 0.32287
# Poissons Ratio (z) = -3.36733 -0.29473
#
# Static dielectric constant tensor:
#      x y z
#    x 1.722090 0.000000 0.006770 
#    y 0.000000 1.716240 0.000000 
#    z 0.006770 0.000000 1.702960 
# 
# From -- ./inp_files/28233.got.cif
#   From: 2010.05.17/outbox.ucp.g08.bks.cvg/sg11_15_cif.got.tgz:28233.got - 2010.06.11 11:38:39.
