data_PCOD9168097
_publ_section_title
;
Structure prediction by ZEFSAII (Michael W. Deem and Ramdas Pophale) SiO2 
 PCOD9168097
Probable space group: P 21/M
;
_chemical_formula_sum "Si O2"
_cell_formula_units_Z 28
_cell_length_a 9.000000
_cell_length_b 21.000000
_cell_length_c 15.000000
_cell_angle_alpha 90.000000
_cell_angle_beta 150.000000
_cell_angle_gamma 90.000000
_cell_volume 1417.500000
_symmetry_space_group_name_H-M "P 21/M"
_symmetry_group_IT_number 11
_symmetry_cell_setting 'monoclinic'
loop_
_space_group_symop_operation_xyz
x,y,z
-x,1/2+y,-z
-x,-y,-z
x,1/2-y,z
loop_
_atom_site_type_symbol
_atom_site_label
_atom_site_fract_x
_atom_site_fract_y
_atom_site_fract_z
Si Si1 0.372792 0.085734 0.149152
Si Si2 0.227230 0.178013 0.689473
Si Si3 0.180222 0.000907 0.882984
Si Si4 0.099936 0.821914 0.006276
Si Si5 0.761117 0.416970 0.534079
Si Si6 0.839963 0.630172 0.701971
Si Si7 0.852297 0.178473 0.314012
O O1 0.574193 0.065986 0.343220
O O2 0.589768 0.129900 0.201997
O O3 0.241737 0.033814 0.011594
O O4 0.096351 0.128833 0.038849
O O5 0.243636 0.250000 0.735816
O O6 0.563489 0.157257 0.842145
O O7 0.021513 0.132184 0.641461
O O8 0.056216 0.181060 0.507173
O O9 0.940404 0.032550 0.688954
O O10 0.040495 0.931826 0.826375
O O11 0.500000 0.000000 0.000000
O O12 0.112830 0.750000 0.051504
O O13 0.926207 0.819973 0.822596
O O14 0.503910 0.387447 0.462847
O O15 0.944495 0.654837 0.661112
O O16 0.738501 0.250000 0.236609
#
# Coordination Sequence:
#
# PCOD9168097 Si02
#       7
#     4   4   4   4   4   4   4
#     4  10  23  42  65  93 124 169 205 259 317 368
#     4   9  20  39  61  90 124 161 207 259 316 375
#     4  12  24  43  64  93 129 163 217 261 307 374
#     4  10  21  40  65  93 125 162 208 260 316 374
#     4  10  24  42  62  91 125 169 208 257 313 375
#     4  11  23  40  61  93 124 165 208 258 318 369
#     4  10  20  38  62  90 123 161 204 257 315 374
#
# _framework density 19.753086
#
# number of rings (size 3 to 8) (size 9 to 14) (size 15 to 20)
#    0.000    1.714    1.429    2.143    2.000    6.857 
#    2.571    0.714    0.000    0.000    0.000    0.000 
#    0.000    0.000    0.000    0.000    0.000    0.000 
#
# Total GULP energy -156149.345985 kJ/mol
# GULP energy per Si atom -5576.762357 kJ/mol
# Density = 1.970813 g / cm^3
# Si number density = 19.753086 Si / 1000 Ang^3
#
#
#
# Elastic Constant Matrix: (Units=GPa)
#
#
# Indices 1 2 3 4 5 6 
#
# 1 83.7076 19.1674 -3.2911 0.0000 6.6094 0.0000
# 2 19.1674 74.1565 25.3340 0.0000 -10.4737 0.0000
# 3 -3.2911 25.3340 65.2646 0.0000 13.7638 0.0000
# 4 0.0000 0.0000 0.0000 32.4244 0.0000 -7.2735
# 5 6.6094 -10.4737 13.7638 0.0000 41.6235 0.0000
# 6 0.0000 0.0000 0.0000 -7.2735 0.0000 18.6027
#
#
#
# Elastic Compliance Matrix: (Units=1/GPa)
#
#
# Indices 1 2 3 4 5 6 
#
# 1 0.013759 -0.005571 0.003884 0.000000 -0.004871 0.000000
# 2 -0.005571 0.019538 -0.009770 0.000000 0.009032 0.000000
# 3 0.003884 -0.009770 0.021455 0.000000 -0.010170 0.000000
# 4 0.000000 0.000000 0.000000 0.033806 0.000000 0.013218
# 5 -0.004871 0.009032 -0.010170 0.000000 0.030434 0.000000
# 6 0.000000 0.000000 0.000000 0.013218 0.000000 0.058924
#
#
# Mechanical properties :
#
#
# Convention : Reuss Voigt Hill
#
# Bulk Modulus (GPa) = 31.40896 33.94994 32.67945
# Shear Modulus (GPa) = 23.64697 30.65802 27.15249
#
# Velocity S-wave (km/s) = 3.46371 3.94390 3.71158
# Velocity P-wave (km/s) = 5.65081 6.16146 5.91165
#
# Compressibility (1/GPa) = 0.03183805
#
# Stress axis : x y z
#
# Youngs Moduli (GPa) = 72.67808 51.18164 46.60869
#
# Poissons Ratio (x) = 0.28514 -0.18101
# Poissons Ratio (y) = 0.40490 0.45536
# Poissons Ratio (z) = -0.28226 0.50004
#
# Static dielectric constant tensor:
#      x y z
#    x 1.688740 0.000000 -0.012680 
#    y 0.000000 1.742750 0.000000 
#    z -0.012680 0.000000 1.685370 
# 
# From -- ./inp_files/23189.got.cif
#   From: 2010.05.17/outbox.ucp.g08.bks.cvg/sg11_12_cif.got.tgz:23189.got - 2010.06.11 11:38:39.
