data_PCOD9168095
_publ_section_title
;
Structure prediction by ZEFSAII (Michael W. Deem and Ramdas Pophale) SiO2 
 PCOD9168095
Probable space group: P 21/M
;
_chemical_formula_sum "Si O2"
_cell_formula_units_Z 32
_cell_length_a 15.000000
_cell_length_b 9.000000
_cell_length_c 12.000000
_cell_angle_alpha 90.000000
_cell_angle_beta 90.000000
_cell_angle_gamma 90.000000
_cell_volume 1620.000000
_symmetry_space_group_name_H-M "P 21/M"
_symmetry_group_IT_number 11
_symmetry_cell_setting 'monoclinic'
loop_
_space_group_symop_operation_xyz
x,y,z
-x,1/2+y,-z
-x,-y,-z
x,1/2-y,z
loop_
_atom_site_type_symbol
_atom_site_label
_atom_site_fract_x
_atom_site_fract_y
_atom_site_fract_z
Si Si1 0.213517 0.572611 0.025596
Si Si2 0.481017 0.072573 0.265464
Si Si3 0.809880 0.571976 0.734703
Si Si4 0.334128 0.429086 0.692914
Si Si5 0.000705 0.427527 0.378314
Si Si6 0.340736 0.429224 0.437488
Si Si7 0.156637 0.929983 0.790089
Si Si8 0.413181 0.927647 0.054568
O O1 0.207331 0.750000 0.040291
O O2 0.151184 0.530138 0.921355
O O3 0.193985 0.496859 0.142904
O O4 0.317944 0.539824 0.998511
O O5 0.486875 0.250000 0.249482
O O6 0.436674 0.038792 0.384336
O O7 0.576619 0.997431 0.254993
O O8 0.414253 0.001545 0.176047
O O9 0.798233 0.750000 0.745784
O O10 0.905203 0.542105 0.679834
O O11 0.735286 0.516080 0.647304
O O12 0.336920 0.250000 0.699241
O O13 0.331741 0.479461 0.563586
O O14 0.246349 0.493670 0.748191
O O15 0.992213 0.250000 0.392544
O O16 0.000000 0.500000 0.500000
O O17 0.922859 0.475319 0.292757
O O18 0.332071 0.250000 0.440035
O O19 0.164686 0.750000 0.785179
O O20 0.423682 0.750000 0.059783
O O21 0.500000 0.000000 0.000000
#
# Coordination Sequence:
#
# PCOD9168095 Si02
#       8
#     4   4   4   4   4   4   4   4
#     4  10  22  39  58  83 118 155 197 247 296 352
#     4  11  21  36  56  81 115 157 197 243 304 361
#     4  10  20  38  62  88 118 156 199 245 298 356
#     4  11  22  37  58  86 117 154 201 250 298 355
#     4  10  22  40  65  93 123 157 196 243 298 358
#     4   9  19  35  56  82 116 153 192 243 298 354
#     4  10  22  41  60  85 121 158 194 240 301 358
#     4  11  22  36  56  83 115 157 206 254 300 353
#
# _framework density 19.753086
#
# number of rings (size 3 to 8) (size 9 to 14) (size 15 to 20)
#    0.000    1.750    1.250    3.000    0.000    4.500 
#    0.000    3.125    0.000    0.000    0.000    0.000 
#    0.000    0.000    0.000    0.000    0.000    0.000 
#
# Total GULP energy -178649.531423 kJ/mol
# GULP energy per Si atom -5582.797857 kJ/mol
# Density = 1.970813 g / cm^3
# Si number density = 19.753086 Si / 1000 Ang^3
#
#
#
# Elastic Constant Matrix: (Units=GPa)
#
#
# Indices 1 2 3 4 5 6 
#
# 1 90.6148 29.3167 39.5170 0.0000 24.1312 0.0000
# 2 29.3167 22.5039 22.7944 0.0000 2.1360 0.0000
# 3 39.5170 22.7944 111.8995 0.0000 10.9546 0.0000
# 4 0.0000 0.0000 0.0000 33.7971 0.0000 0.0007
# 5 24.1312 2.1360 10.9546 0.0000 29.7573 0.0000
# 6 0.0000 0.0000 0.0000 0.0007 0.0000 15.5378
#
#
#
# Elastic Compliance Matrix: (Units=1/GPa)
#
#
# Indices 1 2 3 4 5 6 
#
# 1 0.027128 -0.032405 -0.001093 0.000000 -0.019271 0.000000
# 2 -0.032405 0.094699 -0.010119 0.000000 0.023206 0.000000
# 3 -0.001093 -0.010119 0.011645 0.000000 -0.002675 0.000000
# 4 0.000000 0.000000 0.000000 0.029588 0.000000 -0.000001
# 5 -0.019271 0.023206 -0.002675 0.000000 0.048552 0.000000
# 6 0.000000 0.000000 0.000000 -0.000001 0.000000 0.064359
#
#
# Mechanical properties :
#
#
# Convention : Reuss Voigt Hill
#
# Bulk Modulus (GPa) = 21.62635 45.36381 33.49508
# Shear Modulus (GPa) = 13.20593 24.71112 18.95852
#
# Velocity S-wave (km/s) = 2.58844 3.54079 3.10138
# Velocity P-wave (km/s) = 4.46155 6.30329 5.46063
#
# Compressibility (1/GPa) = 0.04623989
#
# Stress axis : x y z
#
# Youngs Moduli (GPa) = 36.86188 10.55978 85.87022
#
# Poissons Ratio (x) = 0.34219 0.09382
# Poissons Ratio (y) = 1.19452 0.86888
# Poissons Ratio (z) = 0.04028 0.10685
#
# Static dielectric constant tensor:
#      x y z
#    x 1.702700 0.000000 0.027290 
#    y 0.000000 1.657630 0.000000 
#    z 0.027290 0.000000 1.879750 
# 
# From -- ./inp_files/38302.got.cif
#   From: 2010.05.17/outbox.ucp.g08.bks.cvg/sg11_20_cif.got.tgz:38302.got - 2010.06.11 11:38:39.
