data_PCOD9168145
_publ_section_title
;
Structure prediction by ZEFSAII (Michael W. Deem and Ramdas Pophale) SiO2 
 PCOD9168145
Probable space group: P 21/M
;
_chemical_formula_sum "Si O2"
_cell_formula_units_Z 28
_cell_length_a 12.000000
_cell_length_b 9.000000
_cell_length_c 15.000000
_cell_angle_alpha 90.000000
_cell_angle_beta 120.000000
_cell_angle_gamma 90.000000
_cell_volume 1402.961154
_symmetry_space_group_name_H-M "P 21/M"
_symmetry_group_IT_number 11
_symmetry_cell_setting 'monoclinic'
loop_
_space_group_symop_operation_xyz
x,y,z
-x,1/2+y,-z
-x,-y,-z
x,1/2-y,z
loop_
_atom_site_type_symbol
_atom_site_label
_atom_site_fract_x
_atom_site_fract_y
_atom_site_fract_z
Si Si1 0.944540 0.426760 0.563495
Si Si2 0.915830 0.919392 0.039425
Si Si3 0.426092 0.927975 0.887585
Si Si4 0.662557 0.071531 0.488843
Si Si5 0.645613 0.582475 0.838335
Si Si6 0.415034 0.576090 0.344980
Si Si7 0.850052 0.928890 0.202746
O O1 0.935193 0.250000 0.549632
O O2 0.801835 0.484575 0.520701
O O3 0.000000 0.500000 0.500000
O O4 0.042127 0.455590 0.681585
O O5 0.962924 0.750000 0.064659
O O6 0.910164 0.987497 0.134832
O O7 0.766522 0.916733 0.951631
O O8 0.000000 0.000000 0.000000
O O9 0.420241 0.750000 0.895050
O O10 0.517274 0.960081 0.839785
O O11 0.284215 0.995430 0.826500
O O12 0.500000 0.000000 0.000000
O O13 0.657680 0.250000 0.481835
O O14 0.636653 0.026804 0.580368
O O15 0.550352 0.004387 0.385095
O O16 0.629951 0.750000 0.796647
O O17 0.675523 0.471997 0.770645
O O18 0.434050 0.750000 0.354986
O O19 0.828209 0.750000 0.184886
#
# Coordination Sequence:
#
# PCOD9168145 Si02
#       7
#     4   4   4   4   4   4   4
#     4  10  23  41  62  85 116 157 198 243 294 350
#     4  10  22  40  61  87 122 158 195 239 291 350
#     4  11  22  39  62  86 117 154 194 239 290 348
#     4   9  20  40  60  82 117 155 191 238 300 352
#     4  10  22  39  58  85 121 156 187 236 297 347
#     4  10  21  36  61  90 113 148 196 244 288 345
#     4  10  22  42  63  86 120 159 198 246 298 348
#
# _framework density 19.957787
#
# number of rings (size 3 to 8) (size 9 to 14) (size 15 to 20)
#    0.000    2.000    1.429    0.857    4.000    4.000 
#    0.000    0.000    0.000    0.000    0.000    0.000 
#    0.000    0.000    0.000    0.000    0.000    0.000 
#
# Total GULP energy -156135.302611 kJ/mol
# GULP energy per Si atom -5576.260808 kJ/mol
# Density = 1.991236 g / cm^3
# Si number density = 19.957787 Si / 1000 Ang^3
#
#
#
# Elastic Constant Matrix: (Units=GPa)
#
#
# Indices 1 2 3 4 5 6 
#
# 1 111.4820 22.8923 32.7329 0.0000 -14.4068 0.0000
# 2 22.8923 -15.2952 30.1028 0.0000 -15.0420 0.0000
# 3 32.7329 30.1028 62.0169 0.0000 -20.9105 0.0000
# 4 0.0000 0.0000 0.0000 26.5496 0.0000 1.0357
# 5 -14.4068 -15.0420 -20.9105 0.0000 7.5601 0.0000
# 6 0.0000 0.0000 0.0000 1.0357 0.0000 27.3759
#
#
#
# Elastic Compliance Matrix: (Units=1/GPa)
#
#
# Indices 1 2 3 4 5 6 
#
# 1 0.012457 -0.004108 0.009899 0.000000 0.042945 0.000000
# 2 -0.004108 -0.011655 -0.039055 0.000000 -0.139040 0.000000
# 3 0.009899 -0.039055 0.148592 0.000000 0.352148 0.000000
# 4 0.000000 0.000000 0.000000 0.037721 0.000000 -0.001427
# 5 0.042945 -0.139040 0.352148 0.000000 0.911473 0.000000
# 6 0.000000 0.000000 0.000000 -0.001427 0.000000 0.036582
#
#
# Mechanical properties :
#
#
# Convention : Reuss Voigt Hill
#
# Bulk Modulus (GPa) = 12.06766 36.62884 24.34825
# Shear Modulus (GPa) = 4.06729 17.12884 10.59807
#
# Velocity S-wave (km/s) = 1.42912 2.93277 2.30690
# Velocity P-wave (km/s) = 2.96359 5.46454 4.39569
#
# Compressibility (1/GPa) = 0.08286614
#
# Stress axis : x y z
#
# Youngs Moduli (GPa) = 80.27741 -85.79894 6.72982
#
# Poissons Ratio (x) = -0.35242 -0.06662
# Poissons Ratio (y) = 0.32974 0.26283
# Poissons Ratio (z) = -0.79465 -3.35089
#
# Static dielectric constant tensor:
#      x y z
#    x 1.676280 0.000000 -0.020310 
#    y 0.000000 1.663160 0.000000 
#    z -0.020310 0.000000 1.672350 
# 
# From -- ./inp_files/37472.got.cif
#   From: 2010.05.17/outbox.ucp.g08.bks.cvg/sg11_19_cif.got.tgz:37472.got - 2010.06.11 11:38:39.
