data_PCOD9168895
_publ_section_title
;
Structure prediction by ZEFSAII (Michael W. Deem and Ramdas Pophale) SiO2 
 PCOD9168895
Probable space group: C 2/M
;
_chemical_formula_sum "Si O2"
_cell_formula_units_Z 56
_cell_length_a 5.316345
_cell_length_b 14.284737
_cell_length_c 35.541621
_cell_angle_alpha 90.000000
_cell_angle_beta 111.797923
_cell_angle_gamma 90.000000
_cell_volume 2506.133559
_symmetry_space_group_name_H-M "C 2/M"
_symmetry_group_IT_number 12
_symmetry_cell_setting 'monoclinic'
loop_
_space_group_symop_operation_xyz
x,y,z
-x,y,-z
-x,-y,-z
x,-y,z
1/2+x,1/2+y,z
1/2-x,1/2+y,-z
1/2-x,1/2-y,-z
1/2+x,1/2-y,z
loop_
_atom_site_type_symbol
_atom_site_label
_atom_site_fract_x
_atom_site_fract_y
_atom_site_fract_z
Si Si1 0.109089 0.809594 0.323441
Si Si2 0.181789 0.885511 0.545291
Si Si3 0.804760 0.813342 0.236281
Si Si4 0.045205 0.636455 0.148733
Si Si5 0.207645 0.111612 0.410508
Si Si6 0.184771 0.112443 0.974658
Si Si7 0.461759 0.347592 0.115367
O O1 0.396078 0.772330 0.323576
O O2 0.157879 0.864568 0.364430
O O3 0.949659 0.859653 0.280374
O O4 0.493526 0.854947 0.560706
O O5 0.000000 0.855144 0.500000
O O6 0.033147 0.855662 0.575519
O O7 0.185352 0.000000 0.544849
O O8 0.528565 0.762096 0.234390
O O9 0.721710 0.874552 0.195926
O O10 0.209013 0.604446 0.121513
O O11 0.993576 0.747668 0.138002
O O12 0.743853 0.600284 0.136311
O O13 0.212506 0.000000 0.414708
O O14 0.091424 0.163491 0.931638
O O15 0.152902 0.000000 0.966538
O O16 0.500000 0.130228 0.000000
O O17 0.000000 0.137701 0.000000
#
# Coordination Sequence:
#
# PCOD9168895 Si02
#       7
#     8   8   8   8   8   8   8
#     4  10  21  33  53  77 103 142 181 213 251 321
#     4   9  17  30  52  78 101 133 178 221 264 315
#     4  10  16  30  49  74  97 128 165 196 240 291
#     4  10  17  30  48  77  99 119 148 201 247 296
#     4  10  19  33  53  77 106 135 172 225 268 303
#     4  10  21  37  52  67  93 133 173 199 231 289
#     4  10  18  30  51  73  97 122 155 199 244 280
#
# _framework density 22.345179000000002
#
# number of rings (size 3 to 8) (size 9 to 14) (size 15 to 20)
#    0.000    2.143    2.857    2.143    0.000    1.714 
#    0.000    8.571    0.000   10.286    0.000    0.000 
#    0.000    0.000    0.000    0.000    0.000    0.000 
#
# Total GULP energy -156385.814555 kJ/mol
# GULP energy per Si atom -5585.207663 kJ/mol
# Density = 2.229432 g / cm^3
# Si number density = 22.345179 Si / 1000 Ang^3
#
#
#
# Elastic Constant Matrix: (Units=GPa)
#
#
# Indices 1 2 3 4 5 6 
#
# 1 104.1646 -7.1631 -17.5597 -0.0001 1.4602 0.0000
# 2 -7.1631 64.5757 -7.2814 0.0000 2.8098 0.0000
# 3 -17.5597 -7.2814 93.3624 0.0000 -1.3566 0.0000
# 4 -0.0001 0.0000 0.0000 177.2448 0.0000 -57.1348
# 5 1.4602 2.8098 -1.3566 0.0000 40.1396 0.0000
# 6 0.0000 0.0000 0.0000 -57.1348 0.0000 3.4588
#
#
#
# Elastic Compliance Matrix: (Units=1/GPa)
#
#
# Indices 1 2 3 4 5 6 
#
# 1 0.010034 0.001354 0.001987 0.000000 -0.000393 0.000000
# 2 0.001354 0.015850 0.001475 0.000000 -0.001109 0.000000
# 3 0.001987 0.001475 0.011203 0.000000 0.000203 0.000000
# 4 0.000000 0.000000 0.000000 -0.001305 0.000000 -0.021549
# 5 -0.000393 -0.001109 0.000203 0.000000 0.025012 0.000000
# 6 0.000000 0.000000 0.000000 -0.021549 0.000000 -0.066851
#
#
# Mechanical properties :
#
#
# Convention : Reuss Voigt Hill
#
# Bulk Modulus (GPa) = 21.40461 22.01045 21.70753
# Shear Modulus (GPa) = -43080.34074 63.77577 -21508.28248
#
# Velocity S-wave (km/s) = -139.00120 5.34819 -98.21591
# Velocity P-wave (km/s) = 160.47485 6.92886 113.36703
#
# Compressibility (1/GPa) = 0.04671890
#
# Stress axis : x y z
#
# Youngs Moduli (GPa) = 99.66322 63.08970 89.26454
#
# Poissons Ratio (x) = -0.08543 -0.17738
# Poissons Ratio (y) = -0.13496 -0.13164
# Poissons Ratio (z) = -0.19804 -0.09304
#
# Static dielectric constant tensor:
#      x y z
#    x 1.846480 0.000000 -0.007730 
#    y 0.000000 1.920990 0.000000 
#    z -0.007730 0.000000 1.800980 
# 
# From -- ./inp_files/371618.got.cif
#   From: 2010.05.17/outbox.cif.g08.bks.cpg/sg12_186_cif.got.tgz:371618.got - 2010.06.03 13:09:07.
