data_PCOD9168580
_publ_section_title
;
Structure prediction by ZEFSAII (Michael W. Deem and Ramdas Pophale) SiO2 
 PCOD9168580
Probable space group: C 2/M
;
_chemical_formula_sum "Si O2"
_cell_formula_units_Z 44
_cell_length_a 5.463714
_cell_length_b 31.181010
_cell_length_c 16.339311
_cell_angle_alpha 90.000000
_cell_angle_beta 63.847690
_cell_angle_gamma 90.000000
_cell_volume 2498.659509
_symmetry_space_group_name_H-M "C 2/M"
_symmetry_group_IT_number 12
_symmetry_cell_setting 'monoclinic'
loop_
_space_group_symop_operation_xyz
x,y,z
-x,y,-z
-x,-y,-z
x,-y,z
1/2+x,1/2+y,z
1/2-x,1/2+y,-z
1/2-x,1/2-y,-z
1/2+x,1/2-y,z
loop_
_atom_site_type_symbol
_atom_site_label
_atom_site_fract_x
_atom_site_fract_y
_atom_site_fract_z
Si Si1 0.601225 0.405385 0.611560
Si Si2 0.018104 0.725836 0.608350
Si Si3 0.904124 0.697794 0.105819
Si Si4 0.622888 0.129026 0.594327
Si Si5 0.330733 0.500000 0.439304
Si Si6 0.691005 0.705718 0.822135
O O1 0.747722 0.395987 0.501946
O O2 0.309882 0.382778 0.643865
O O3 0.589138 0.456457 0.619003
O O4 0.808824 0.384998 0.645779
O O5 0.773902 0.742711 0.586523
O O6 0.871533 0.718752 0.717839
O O7 0.132349 0.678991 0.571247
O O8 0.590770 0.683706 0.162355
O O9 0.900312 0.749387 0.122288
O O10 0.118355 0.681361 0.141426
O O11 0.000000 0.689202 0.000000
O O12 0.500000 0.500000 0.500000
O O13 0.000000 0.500000 0.500000
#
# Coordination Sequence:
#
# PCOD9168580 Si02
#       6
#     8   8   8   8   4   8
#     4  10  19  35  47  73  86 104 132 177 225 263
#     4  12  21  34  44  57  78 122 159 184 214 241
#     4  10  16  25  41  58  76  94 124 192 234 242
#     4  10  20  32  48  61  89 107 141 188 217 249
#     4  12  16  30  58  72  92 104 120 164 226 288
#     4  10  16  27  38  55  77  97 140 177 213 253
#
# _framework density 17.609442000000001
#
# number of rings (size 3 to 8) (size 9 to 14) (size 15 to 20)
#    0.000    1.455    7.273    3.818    0.000    0.000 
#    0.000   10.909    0.000    0.000    0.000    0.000 
#    0.000    0.000    0.000    0.000    0.000    0.000 
#
# Total GULP energy -122711.497478 kJ/mol
# GULP energy per Si atom -5577.795340 kJ/mol
# Density = 1.756936 g / cm^3
# Si number density = 17.609442 Si / 1000 Ang^3
#
#
#
# Elastic Constant Matrix: (Units=GPa)
#
#
# Indices 1 2 3 4 5 6 
#
# 1 177.9906 33.6435 -4.5153 0.0000 12.1987 0.0000
# 2 33.6435 97.8008 -3.9916 0.0000 1.8318 0.0000
# 3 -4.5153 -3.9916 23.8602 0.0000 -4.1341 0.0000
# 4 0.0000 0.0000 0.0000 -1.4701 0.0000 -0.0952
# 5 12.1987 1.8318 -4.1341 0.0000 20.7766 0.0000
# 6 0.0000 0.0000 0.0000 -0.0952 0.0000 20.7064
#
#
#
# Elastic Compliance Matrix: (Units=1/GPa)
#
#
# Indices 1 2 3 4 5 6 
#
# 1 0.006253 -0.002077 0.000240 0.000000 -0.003440 0.000000
# 2 -0.002077 0.010992 0.001542 0.000000 0.000557 0.000000
# 3 0.000240 0.001542 0.043672 0.000000 0.008413 0.000000
# 4 0.000000 0.000000 0.000000 -0.680023 0.000000 -0.003125
# 5 -0.003440 0.000557 0.008413 0.000000 0.051776 0.000000
# 6 0.000000 0.000000 0.000000 -0.003125 0.000000 0.048280
#
#
# Mechanical properties :
#
#
# Convention : Reuss Voigt Hill
#
# Bulk Modulus (GPa) = 16.57629 38.88052 27.72841
# Shear Modulus (GPa) = -10.03305 26.30357 8.13526
#
# Velocity S-wave (km/s) = -2.38954 3.86906 2.15171
# Velocity P-wave (km/s) = 1.34926 6.48743 4.68547
#
# Compressibility (1/GPa) = 0.06032714
#
# Stress axis : x y z
#
# Youngs Moduli (GPa) = 159.93145 90.97720 22.89804
#
# Poissons Ratio (x) = 0.18893 -0.00549
# Poissons Ratio (y) = 0.33213 -0.03532
# Poissons Ratio (z) = -0.03834 -0.14032
#
# Static dielectric constant tensor:
#      x y z
#    x 1.780010 0.000000 -0.001950 
#    y 0.000000 1.579110 0.000000 
#    z -0.001950 0.000000 1.611280 
# 
# From -- ./inp_files/253349.got.cif
#   From: 2010.05.17/outbox.cif.g08.bks.cpg/sg12_127_cif.got.tgz:253349.got - 2010.06.03 13:09:07.
