data_PCOD9168431
_publ_section_title
;
Structure prediction by ZEFSAII (Michael W. Deem and Ramdas Pophale) SiO2 
 PCOD9168431
Probable space group: C 2/M
;
_chemical_formula_sum "Si O2"
_cell_formula_units_Z 60
_cell_length_a 7.547761
_cell_length_b 20.819185
_cell_length_c 20.723190
_cell_angle_alpha 90.000000
_cell_angle_beta 48.539995
_cell_angle_gamma 90.000000
_cell_volume 2440.409109
_symmetry_space_group_name_H-M "C 2/M"
_symmetry_group_IT_number 12
_symmetry_cell_setting 'monoclinic'
loop_
_space_group_symop_operation_xyz
x,y,z
-x,y,-z
-x,-y,-z
x,-y,z
1/2+x,1/2+y,z
1/2-x,1/2+y,-z
1/2-x,1/2-y,-z
1/2+x,1/2-y,z
loop_
_atom_site_type_symbol
_atom_site_label
_atom_site_fract_x
_atom_site_fract_y
_atom_site_fract_z
Si Si1 0.591297 0.500000 0.345514
Si Si2 0.486998 0.666602 0.076299
Si Si3 0.729172 0.379271 0.548127
Si Si4 0.787066 0.693196 0.122535
Si Si5 0.761900 0.067523 0.813941
Si Si6 0.622080 0.155119 0.625938
Si Si7 0.739289 0.072539 0.229291
Si Si8 0.831073 0.221077 0.320638
O O1 0.433273 0.441934 0.415244
O O2 0.713457 0.554454 0.267214
O O3 0.710932 0.667131 0.070565
O O4 0.430902 0.742088 0.086290
O O5 0.295821 0.624470 0.161186
O O6 0.500000 0.643023 0.000000
O O7 0.667906 0.325382 0.616802
O O8 0.000000 0.399328 0.500000
O O9 0.741849 0.350559 0.473461
O O10 0.884277 0.630377 0.134753
O O11 0.560678 0.713544 0.220829
O O12 0.034941 0.075057 0.775295
O O13 0.672858 0.000000 0.864714
O O14 0.512666 0.087943 0.676613
O O15 0.380888 0.193532 0.670149
O O16 0.733898 0.205264 0.647961
O O17 0.733979 0.000000 0.205650
#
# Coordination Sequence:
#
# PCOD9168431 Si02
#       8
#     4   8   8   8   8   8   8   8
#     4  10  15  28  46  78 113 142 184 226 271 296
#     4  11  23  37  59  85 109 141 179 227 283 335
#     4  10  20  27  46  79 116 140 183 227 267 307
#     4  11  18  37  57  83 113 139 182 226 272 333
#     4   8  15  28  52  78 106 141 177 223 262 314
#     4  11  21  33  54  82 113 146 185 224 274 316
#     4  10  19  33  53  78 111 139 178 223 279 322
#     4  11  18  36  50  82 109 147 179 222 272 323
#
# _framework density 24.586041999999999
#
# number of rings (size 3 to 8) (size 9 to 14) (size 15 to 20)
#    0.400    1.333    5.333    1.800    0.933    0.267 
#    0.000    0.000    0.000    1.200    5.200    0.933 
#    0.000    0.000    0.000    0.000    0.000    0.000 
#
# Total GULP energy -167189.224899 kJ/mol
# GULP energy per Si atom -5572.974163 kJ/mol
# Density = 2.453008 g / cm^3
# Si number density = 24.586042 Si / 1000 Ang^3
#
#
#
# Elastic Constant Matrix: (Units=GPa)
#
#
# Indices 1 2 3 4 5 6 
#
# 1 60.5287 -8.9076 9.0634 0.0000 6.6783 0.0000
# 2 -8.9076 94.6360 6.5458 0.0000 2.2758 0.0000
# 3 9.0634 6.5458 85.6803 0.0000 9.8210 0.0000
# 4 0.0000 0.0000 0.0000 29.6227 0.0000 3.0816
# 5 6.6783 2.2758 9.8210 0.0000 19.9384 0.0000
# 6 0.0000 0.0000 0.0000 3.0816 0.0000 5.1706
#
#
#
# Elastic Compliance Matrix: (Units=1/GPa)
#
#
# Indices 1 2 3 4 5 6 
#
# 1 0.017605 0.001883 -0.001384 0.000000 -0.005430 0.000000
# 2 0.001883 0.010838 -0.000862 0.000000 -0.001443 0.000000
# 3 -0.001384 -0.000862 0.012526 0.000000 -0.005608 0.000000
# 4 0.000000 0.000000 0.000000 0.035989 0.000000 -0.021449
# 5 -0.005430 -0.001443 -0.005608 0.000000 0.054900 0.000000
# 6 0.000000 0.000000 0.000000 -0.021449 0.000000 0.206185
#
#
# Mechanical properties :
#
#
# Convention : Reuss Voigt Hill
#
# Bulk Modulus (GPa) = 24.84788 28.24979 26.54884
# Shear Modulus (GPa) = 14.19716 26.55591 20.37654
#
# Velocity S-wave (km/s) = 2.40562 3.29009 2.88199
# Velocity P-wave (km/s) = 4.22427 5.09392 4.67934
#
# Compressibility (1/GPa) = 0.04024489
#
# Stress axis : x y z
#
# Youngs Moduli (GPa) = 56.80356 92.26460 79.83178
#
# Poissons Ratio (x) = -0.17376 0.11046
# Poissons Ratio (y) = -0.10698 0.06880
# Poissons Ratio (z) = 0.07860 0.07951
#
# Static dielectric constant tensor:
#      x y z
#    x 2.098080 0.000000 -0.042150 
#    y 0.000000 2.010620 0.000000 
#    z -0.042150 0.000000 1.943380 
# 
# From -- ./inp_files/301883.got.cif
#   From: 2010.05.17/outbox.cif.g08.bks.cpg/sg12_151_cif.got.tgz:301883.got - 2010.06.03 13:09:07.
