data_PCOD9168303
_publ_section_title
;
Structure prediction by ZEFSAII (Michael W. Deem and Ramdas Pophale) SiO2 
 PCOD9168303
Probable space group: C 2/M
;
_chemical_formula_sum "Si O2"
_cell_formula_units_Z 42
_cell_length_a 19.268718
_cell_length_b 14.752844
_cell_length_c 16.181817
_cell_angle_alpha 90.000000
_cell_angle_beta 156.559812
_cell_angle_gamma 90.000000
_cell_volume 1829.832659
_symmetry_space_group_name_H-M "C 2/M"
_symmetry_group_IT_number 12
_symmetry_cell_setting 'monoclinic'
loop_
_space_group_symop_operation_xyz
x,y,z
-x,y,-z
-x,-y,-z
x,-y,z
1/2+x,1/2+y,z
1/2-x,1/2+y,-z
1/2-x,1/2-y,-z
1/2+x,1/2-y,z
loop_
_atom_site_type_symbol
_atom_site_label
_atom_site_fract_x
_atom_site_fract_y
_atom_site_fract_z
Si Si1 0.947062 0.602589 0.685614
Si Si2 0.032258 0.903132 0.202862
Si Si3 0.047438 0.788616 0.739236
Si Si4 0.000000 0.000000 0.000000
Si Si5 0.806715 0.896037 0.245741
Si Si6 0.801104 0.608492 0.698387
O O1 0.005352 0.500000 0.731812
O O2 0.741908 0.608735 0.435666
O O3 0.041295 0.681025 0.738619
O O4 0.942397 0.618412 0.779720
O O5 0.937850 0.827185 0.151989
O O6 0.996860 0.000000 0.208718
O O7 0.983719 0.922103 0.055587
O O8 0.858871 0.828759 0.505937
O O9 0.177989 0.831409 0.815955
O O10 0.680944 0.871804 0.184747
O O11 0.000000 0.894232 0.500000
O O12 0.775046 0.000000 0.185761
O O13 0.757617 0.500000 0.648746
#
# Coordination Sequence:
#
# PCOD9168303 Si02
#       6
#     8   8   8   2   8   8
#     4   9  16  24  35  54  81 109 128 151 187 230
#     4   8  14  23  34  52  76 101 122 149 190 235
#     4  10  14  20  36  55  77 103 126 149 198 233
#     4   8  16  24  36  52  80 108 118 154 200 226
#     4   8  13  20  32  52  77 103 117 153 196 239
#     4   8  13  21  33  51  76 103 118 154 195 238
#
# _framework density 22.952919999999999
#
# number of rings (size 3 to 8) (size 9 to 14) (size 15 to 20)
#    0.571    2.857    0.000    6.286    0.000    0.000 
#    0.000    0.000    0.000    5.143    0.000    0.667 
#    0.000   38.095    0.000    0.000    0.000    0.000 
#
# Total GULP energy -116901.944709 kJ/mol
# GULP energy per Si atom -5566.759272 kJ/mol
# Density = 2.290068 g / cm^3
# Si number density = 22.952920 Si / 1000 Ang^3
#
#
#
# Elastic Constant Matrix: (Units=GPa)
#
#
# Indices 1 2 3 4 5 6 
#
# 1 162.6212 105.7937 40.0148 -0.0003 -24.3537 0.0000
# 2 105.7937 158.7686 34.3210 -0.0001 -6.6215 0.0000
# 3 40.0148 34.3210 52.5876 -0.0002 -0.1984 0.0001
# 4 -0.0003 -0.0001 -0.0002 11.0467 -0.0005 -4.8450
# 5 -24.3537 -6.6215 -0.1984 -0.0005 41.2259 -0.0003
# 6 0.0000 0.0000 0.0001 -4.8450 -0.0003 19.6682
#
#
#
# Elastic Compliance Matrix: (Units=1/GPa)
#
#
# Indices 1 2 3 4 5 6 
#
# 1 0.013256 -0.007430 -0.005212 0.000001 0.006612 0.000000
# 2 -0.007430 0.011553 -0.001896 0.000000 -0.002543 0.000000
# 3 -0.005212 -0.001896 0.024207 0.000000 -0.003267 0.000000
# 4 0.000001 0.000000 0.000000 0.101490 0.000002 0.025001
# 5 0.006612 -0.002543 -0.003267 0.000002 0.027739 0.000001
# 6 0.000000 0.000000 0.000000 0.025001 0.000001 0.057002
#
#
# Mechanical properties :
#
#
# Convention : Reuss Voigt Hill
#
# Bulk Modulus (GPa) = 50.15269 81.58182 65.86726
# Shear Modulus (GPa) = 18.45219 27.31135 22.88177
#
# Velocity S-wave (km/s) = 2.83842 3.45321 3.16080
# Velocity P-wave (km/s) = 5.71313 7.17773 6.48690
#
# Compressibility (1/GPa) = 0.01993911
#
# Stress axis : x y z
#
# Youngs Moduli (GPa) = 75.43803 86.55422 41.31024
#
# Poissons Ratio (x) = 0.64313 0.21532
# Poissons Ratio (y) = 0.56054 0.07832
# Poissons Ratio (z) = 0.39320 0.16410
#
# Static dielectric constant tensor:
#      x y z
#    x 1.831740 0.000000 0.022250 
#    y 0.000000 1.841950 0.000000 
#    z 0.022250 0.000000 1.972340 
# 
# From -- ./inp_files/224969.got.cif
#   From: 2010.05.17/outbox.cif.g08.bks.cpg/sg12_113_cif.got.tgz:224969.got - 2010.06.03 13:09:07.
