data_PCOD9168940
_publ_section_title
;
Structure prediction by ZEFSAII (Michael W. Deem and Ramdas Pophale) SiO2 
 PCOD9168940
Probable space group: C 2/M
;
_chemical_formula_sum "Si O2"
_cell_formula_units_Z 48
_cell_length_a 23.895890
_cell_length_b 17.200443
_cell_length_c 16.026995
_cell_angle_alpha 90.000000
_cell_angle_beta 21.154612
_cell_angle_gamma 90.000000
_cell_volume 2377.304737
_symmetry_space_group_name_H-M "C 2/M"
_symmetry_group_IT_number 12
_symmetry_cell_setting 'monoclinic'
loop_
_space_group_symop_operation_xyz
x,y,z
-x,y,-z
-x,-y,-z
x,-y,z
1/2+x,1/2+y,z
1/2-x,1/2+y,-z
1/2-x,1/2-y,-z
1/2+x,1/2-y,z
loop_
_atom_site_type_symbol
_atom_site_label
_atom_site_fract_x
_atom_site_fract_y
_atom_site_fract_z
Si Si1 0.349222 0.914146 0.767860
Si Si2 0.840849 0.911044 0.258559
Si Si3 0.225145 0.246765 0.935047
Si Si4 0.538693 0.000000 0.083398
Si Si5 0.808083 0.000000 0.465990
Si Si6 0.508500 0.136044 0.718914
Si Si7 0.500000 0.362330 0.500000
Si Si8 0.604878 0.500000 0.471348
O O1 0.500000 0.915491 0.500000
O O2 0.246662 0.842180 0.879853
O O3 0.412459 0.893951 0.772377
O O4 0.277790 0.000000 0.866496
O O5 0.689350 0.863166 0.446726
O O6 0.817982 0.000000 0.255647
O O7 0.843743 0.927719 0.354054
O O8 0.000000 0.880770 0.000000
O O9 0.353419 0.305202 0.717782
O O10 0.250000 0.250000 0.000000
O O11 0.056798 0.282817 0.157738
O O12 0.377318 0.000000 0.256151
O O13 0.521020 0.073978 0.167954
O O14 0.711307 0.000000 0.807048
O O15 0.902341 0.000000 0.419333
O O16 0.529142 0.422592 0.535805
#
# Coordination Sequence:
#
# PCOD9168940 Si02
#       8
#     8   8   8   4   4   8   4   4
#     4  10  19  32  54  85 121 151 200 253 300 368
#     4   8  15  30  56  83 124 161 203 262 308 352
#     4  10  21  36  56  78 120 165 200 240 299 373
#     4  10  16  30  56  83 124 162 204 248 288 359
#     4   8  17  31  52  86 123 158 214 253 299 340
#     4  10  17  32  55  84 120 163 198 242 309 367
#     4  11  22  36  55  82 126 176 197 236 310 365
#     4  11  21  33  55  87 130 161 208 247 287 372
#
# _framework density 20.190933000000001
#
# number of rings (size 3 to 8) (size 9 to 14) (size 15 to 20)
#    0.500    1.833    4.167    0.250    0.000    0.000 
#    1.500    3.333    0.000    0.000    0.000   38.500 
#    0.000    0.667    0.000    1.333    0.000    0.000 
#
# Total GULP energy -133782.273965 kJ/mol
# GULP energy per Si atom -5574.261415 kJ/mol
# Density = 2.014498 g / cm^3
# Si number density = 20.190933 Si / 1000 Ang^3
#
#
#
# Elastic Constant Matrix: (Units=GPa)
#
#
# Indices 1 2 3 4 5 6 
#
# 1 54.2180 26.5100 -1.6698 0.0015 -5.4876 0.0001
# 2 26.5100 150.2001 58.1329 0.0043 -15.3966 -0.0005
# 3 -1.6698 58.1329 124.2339 0.0064 -21.4975 -0.0004
# 4 0.0015 0.0043 0.0064 15.9640 -0.0012 2.9377
# 5 -5.4876 -15.3966 -21.4975 -0.0012 16.7848 -0.0002
# 6 0.0001 -0.0005 -0.0004 2.9377 -0.0002 6.5414
#
#
#
# Elastic Compliance Matrix: (Units=1/GPa)
#
#
# Indices 1 2 3 4 5 6 
#
# 1 0.021507 -0.004438 0.003698 -0.000002 0.007696 0.000001
# 2 -0.004438 0.009193 -0.004051 0.000000 0.001793 0.000001
# 3 0.003698 -0.004051 0.012283 -0.000004 0.013225 0.000002
# 4 -0.000002 0.000000 -0.000004 0.068284 -0.000001 -0.030666
# 5 0.007696 0.001793 0.013225 -0.000001 0.080676 0.000004
# 6 0.000001 0.000001 0.000002 -0.030666 0.000004 0.166644
#
#
# Mechanical properties :
#
#
# Convention : Reuss Voigt Hill
#
# Bulk Modulus (GPa) = 29.94044 54.95535 42.44790
# Shear Modulus (GPa) = 13.18207 24.23664 18.70936
#
# Velocity S-wave (km/s) = 2.55791 3.46840 3.04735
# Velocity P-wave (km/s) = 4.85641 6.58154 5.78366
#
# Compressibility (1/GPa) = 0.03339964
#
# Stress axis : x y z
#
# Youngs Moduli (GPa) = 46.49672 108.78110 81.41328
#
# Poissons Ratio (x) = 0.48278 -0.30103
# Poissons Ratio (y) = 0.20636 0.32980
# Poissons Ratio (z) = -0.17192 0.44067
#
# Static dielectric constant tensor:
#      x y z
#    x 1.816460 0.000000 -0.052490 
#    y 0.000000 1.748370 0.000000 
#    z -0.052490 0.000000 1.777390 
# 
# From -- ./inp_files/293779.got.cif
#   From: 2010.05.17/outbox.cif.g08.bks.cpg/sg12_147_cif.got.tgz:293779.got - 2010.06.03 13:09:07.
