data_PCOD9168413
_publ_section_title
;
Structure prediction by ZEFSAII (Michael W. Deem and Ramdas Pophale) SiO2 
 PCOD9168413
Probable space group: C 2/M
;
_chemical_formula_sum "Si O2"
_cell_formula_units_Z 48
_cell_length_a 21.394271
_cell_length_b 13.691028
_cell_length_c 18.958395
_cell_angle_alpha 90.000000
_cell_angle_beta 146.357168
_cell_angle_gamma 90.000000
_cell_volume 3076.492777
_symmetry_space_group_name_H-M "C 2/M"
_symmetry_group_IT_number 12
_symmetry_cell_setting 'monoclinic'
loop_
_space_group_symop_operation_xyz
x,y,z
-x,y,-z
-x,-y,-z
x,-y,z
1/2+x,1/2+y,z
1/2-x,1/2+y,-z
1/2-x,1/2-y,-z
1/2+x,1/2-y,z
loop_
_atom_site_type_symbol
_atom_site_label
_atom_site_fract_x
_atom_site_fract_y
_atom_site_fract_z
Si Si1 0.052863 0.891043 0.628068
Si Si2 0.291949 0.299202 0.630425
Si Si3 0.338688 0.615792 0.528729
Si Si4 0.345863 0.191813 0.294468
Si Si5 0.374299 0.384008 0.854630
Si Si6 0.924673 0.614527 0.519949
O O1 0.949881 0.871361 0.585004
O O2 0.000000 0.889968 0.500000
O O3 0.143732 0.805107 0.714694
O O4 0.097052 0.000000 0.683229
O O5 0.357524 0.341341 0.624798
O O6 0.260699 0.184928 0.595298
O O7 0.349669 0.329276 0.757802
O O8 0.168659 0.352396 0.512092
O O9 0.313227 0.500000 0.506553
O O10 0.220542 0.149708 0.178191
O O11 0.386983 0.172343 0.413913
O O12 0.444984 0.139045 0.343303
O O13 0.359682 0.500000 0.828705
O O14 0.500000 0.366172 0.000000
O O15 0.914108 0.500000 0.495450
#
# Coordination Sequence:
#
# PCOD9168413 Si02
#       6
#     8   8   8   8   8   8
#     4  10  17  27  43  66  96 124 155 191 233 286
#     4  10  18  31  49  72 102 127 156 195 244 292
#     4  10  19  30  47  74 102 129 156 193 246 295
#     4  10  15  27  42  65  92 117 150 191 238 279
#     4  10  20  33  50  71  96 128 164 200 236 284
#     4  10  16  24  42  68  93 118 144 192 247 289
#
# _framework density 15.602182000000001
#
# number of rings (size 3 to 8) (size 9 to 14) (size 15 to 20)
#    0.000    2.000    3.333    5.500    0.000    0.000 
#    0.000    0.000    0.000    3.000    0.000    0.000 
#    0.000    0.000    0.000    0.000    0.000    0.000 
#
# Total GULP energy -133614.434981 kJ/mol
# GULP energy per Si atom -5567.268124 kJ/mol
# Density = 1.556667 g / cm^3
# Si number density = 15.602182 Si / 1000 Ang^3
#
#
#
# Elastic Constant Matrix: (Units=GPa)
#
#
# Indices 1 2 3 4 5 6 
#
# 1 78.9208 25.1254 19.7129 0.0000 6.7332 0.0000
# 2 25.1254 127.3156 32.3742 0.0000 2.8904 0.0000
# 3 19.7129 32.3742 63.2284 0.0000 13.6448 0.0000
# 4 0.0000 0.0000 0.0000 -4.1999 0.0000 5.1507
# 5 6.7332 2.8904 13.6448 0.0000 18.9754 0.0000
# 6 0.0000 0.0000 0.0000 5.1507 0.0000 26.5098
#
#
#
# Elastic Compliance Matrix: (Units=1/GPa)
#
#
# Indices 1 2 3 4 5 6 
#
# 1 0.014254 -0.002036 -0.002814 0.000000 -0.002725 0.000000
# 2 -0.002036 0.009407 -0.004769 0.000000 0.002718 0.000000
# 3 -0.002814 -0.004769 0.022209 0.000000 -0.014245 0.000000
# 4 0.000000 0.000000 0.000000 -0.192282 0.000000 0.037359
# 5 -0.002725 0.002718 -0.014245 0.000000 0.063496 0.000000
# 6 0.000000 0.000000 0.000000 0.037359 0.000000 0.030463
#
#
# Mechanical properties :
#
#
# Convention : Reuss Voigt Hill
#
# Bulk Modulus (GPa) = 37.54618 47.09885 42.32251
# Shear Modulus (GPa) = -205.43272 21.07387 -92.17943
#
# Velocity S-wave (km/s) = -11.48717 3.67917 -7.69476
# Velocity P-wave (km/s) = 12.32165 6.94991 7.19451
#
# Compressibility (1/GPa) = 0.02663387
#
# Stress axis : x y z
#
# Youngs Moduli (GPa) = 70.15424 106.30285 45.02746
#
# Poissons Ratio (x) = 0.21640 0.12670
# Poissons Ratio (y) = 0.14281 0.21472
# Poissons Ratio (z) = 0.19740 0.50691
#
# Static dielectric constant tensor:
#      x y z
#    x 1.568640 0.000000 0.020210 
#    y 0.000000 1.558910 0.000000 
#    z 0.020210 0.000000 1.500050 
# 
# From -- ./inp_files/325345.got.cif
#   From: 2010.05.17/outbox.cif.g08.bks.cpg/sg12_163_cif.got.tgz:325345.got - 2010.06.03 13:09:07.
