data_PCOD9168312
_publ_section_title
;
Structure prediction by ZEFSAII (Michael W. Deem and Ramdas Pophale) SiO2 
 PCOD9168312
Probable space group: C 2/M
;
_chemical_formula_sum "Si O2"
_cell_formula_units_Z 48
_cell_length_a 17.249127
_cell_length_b 24.144291
_cell_length_c 7.888913
_cell_angle_alpha 90.000000
_cell_angle_beta 34.260429
_cell_angle_gamma 90.000000
_cell_volume 1849.578264
_symmetry_space_group_name_H-M "C 2/M"
_symmetry_group_IT_number 12
_symmetry_cell_setting 'monoclinic'
loop_
_space_group_symop_operation_xyz
x,y,z
-x,y,-z
-x,-y,-z
x,-y,z
1/2+x,1/2+y,z
1/2-x,1/2+y,-z
1/2-x,1/2-y,-z
1/2+x,1/2-y,z
loop_
_atom_site_type_symbol
_atom_site_label
_atom_site_fract_x
_atom_site_fract_y
_atom_site_fract_z
Si Si1 0.908670 0.687623 0.875758
Si Si2 0.869992 0.500000 0.427266
Si Si3 0.770445 0.113760 0.991794
Si Si4 0.000000 0.397857 0.000000
Si Si5 0.158820 0.231501 0.507731
Si Si6 0.844516 0.500000 0.910957
Si Si7 0.149324 0.000000 0.600594
Si Si8 0.462197 0.616876 0.307551
O O1 0.038807 0.727603 0.662829
O O2 0.858285 0.654260 0.801147
O O3 0.927649 0.641131 0.990685
O O4 0.772730 0.723531 0.157887
O O5 0.902317 0.559041 0.274323
O O6 0.707654 0.500000 0.686907
O O7 0.994571 0.500000 0.336039
O O8 0.872120 0.117512 0.645254
O O9 0.874960 0.123177 0.955023
O O10 0.708019 0.052783 0.097061
O O11 0.250000 0.250000 0.500000
O O12 0.093412 0.172489 0.675817
O O13 0.767317 0.500000 0.235539
O O14 0.071695 0.057405 0.707886
#
# Coordination Sequence:
#
# PCOD9168312 Si02
#       8
#     8   4   8   4   8   4   4   8
#     4  11  21  33  53  72 104 138 171 214 248 304
#     4  11  16  22  44  76 104 130 159 205 262 311
#     4   9  17  30  45  70 103 131 168 206 259 305
#     4  11  16  28  44  74 104 131 162 206 258 293
#     4  11  21  34  52  74 101 135 174 211 255 301
#     4  10  14  22  43  69  99 131 155 204 259 314
#     4  10  16  26  43  69 104 128 165 206 259 307
#     4   9  19  30  46  70  99 137 167 208 255 309
#
# _framework density 25.951861000000001
#
# number of rings (size 3 to 8) (size 9 to 14) (size 15 to 20)
#    0.000    1.833    5.000    2.500    0.000    2.667 
#    0.000    0.000    0.000    0.000    0.000    5.833 
#    0.000    2.667    0.000    0.000    0.000    0.667 
#
# Total GULP energy -134243.797034 kJ/mol
# GULP energy per Si atom -5593.491543 kJ/mol
# Density = 2.589279 g / cm^3
# Si number density = 25.951861 Si / 1000 Ang^3
#
#
#
# Elastic Constant Matrix: (Units=GPa)
#
#
# Indices 1 2 3 4 5 6 
#
# 1 130.0712 95.6128 57.8949 0.0000 -64.8751 0.0000
# 2 95.6128 223.1747 78.2343 0.0000 -59.3028 0.0000
# 3 57.8949 78.2343 144.8646 0.0000 -46.9625 0.0000
# 4 0.0000 0.0000 0.0000 31.3898 0.0000 -12.1905
# 5 -64.8751 -59.3028 -46.9625 0.0000 64.5944 0.0000
# 6 0.0000 0.0000 0.0000 -12.1905 0.0000 27.2878
#
#
#
# Elastic Compliance Matrix: (Units=1/GPa)
#
#
# Indices 1 2 3 4 5 6 
#
# 1 0.017510 -0.003628 -0.000546 0.000000 0.013859 0.000000
# 2 -0.003628 0.007097 -0.001900 0.000000 0.001491 0.000000
# 3 -0.000546 -0.001900 0.009687 0.000000 0.004751 0.000000
# 4 0.000000 0.000000 0.000000 0.038545 0.000000 0.017220
# 5 0.013859 0.001491 0.004751 0.000000 0.034223 0.000000
# 6 0.000000 0.000000 0.000000 0.017220 0.000000 0.044339
#
#
# Mechanical properties :
#
#
# Convention : Reuss Voigt Hill
#
# Bulk Modulus (GPa) = 45.15145 106.84383 75.99764
# Shear Modulus (GPa) = 29.25171 42.41229 35.83200
#
# Velocity S-wave (km/s) = 3.36095 4.04699 3.71982
# Velocity P-wave (km/s) = 5.70064 7.94336 6.91354
#
# Compressibility (1/GPa) = 0.02214768
#
# Stress axis : x y z
#
# Youngs Moduli (GPa) = 57.11039 140.90212 103.22988
#
# Poissons Ratio (x) = 0.51115 0.05636
# Poissons Ratio (y) = 0.20718 0.19609
# Poissons Ratio (z) = 0.03118 0.26766
#
# Static dielectric constant tensor:
#      x y z
#    x 2.272470 0.000000 0.151820 
#    y 0.000000 1.879830 0.000000 
#    z 0.151820 0.000000 2.109630 
# 
# From -- ./inp_files/169641.got.cif
#   From: 2010.05.17/outbox.cif.g08.bks.cpg/sg12_85_cif.got.tgz:169641.got - 2010.06.03 13:09:07.
