data_PCOD9168630
_publ_section_title
;
Structure prediction by ZEFSAII (Michael W. Deem and Ramdas Pophale) SiO2 
 PCOD9168630
Probable space group: C 2/M
;
_chemical_formula_sum "Si O2"
_cell_formula_units_Z 48
_cell_length_a 16.442228
_cell_length_b 13.937524
_cell_length_c 9.297972
_cell_angle_alpha 90.000000
_cell_angle_beta 84.404920
_cell_angle_gamma 90.000000
_cell_volume 2120.608548
_symmetry_space_group_name_H-M "C 2/M"
_symmetry_group_IT_number 12
_symmetry_cell_setting 'monoclinic'
loop_
_space_group_symop_operation_xyz
x,y,z
-x,y,-z
-x,-y,-z
x,-y,z
1/2+x,1/2+y,z
1/2-x,1/2+y,-z
1/2-x,1/2-y,-z
1/2+x,1/2-y,z
loop_
_atom_site_type_symbol
_atom_site_label
_atom_site_fract_x
_atom_site_fract_y
_atom_site_fract_z
Si Si1 0.724002 0.608930 0.943524
Si Si2 0.365123 0.893007 0.485503
Si Si3 0.220579 0.381777 0.777185
Si Si4 0.951156 0.109549 0.875834
Si Si5 0.818972 0.891120 0.357203
Si Si6 0.888038 0.202372 0.616237
O O1 0.751564 0.500000 0.902086
O O2 0.698732 0.653925 0.795963
O O3 0.787398 0.646269 0.052749
O O4 0.640975 0.604029 0.048970
O O5 0.354673 0.866510 0.318823
O O6 0.270163 0.894198 0.553587
O O7 0.403682 0.813344 0.580522
O O8 0.398236 0.000000 0.494923
O O9 0.235581 0.500000 0.769855
O O10 0.298935 0.325425 0.698887
O O11 0.949390 0.161118 0.723460
O O12 0.980572 0.000000 0.851061
O O13 0.000000 0.154652 0.000000
O O14 0.879922 0.843642 0.459632
O O15 0.847270 0.000000 0.329579
#
# Coordination Sequence:
#
# PCOD9168630 Si02
#       6
#     8   8   8   8   8   8
#     4   8  14  24  39  61  88 111 130 157 194 237
#     4   9  17  27  39  56  81 112 141 165 191 232
#     4   8  13  23  38  56  80 109 133 152 186 239
#     4   9  17  30  46  61  79 106 135 161 197 246
#     4   9  15  24  40  64  89 108 129 161 200 236
#     4  10  16  26  41  58  79 107 139 167 197 234
#
# _framework density 22.635013000000001
#
# number of rings (size 3 to 8) (size 9 to 14) (size 15 to 20)
#    0.000    3.167    0.000    5.500    0.000    0.000 
#    0.000    8.333    0.000    4.500    0.000    0.000 
#    0.000    1.333    0.000    0.000    0.000    0.000 
#
# Total GULP energy -133731.499121 kJ/mol
# GULP energy per Si atom -5572.145797 kJ/mol
# Density = 2.258350 g / cm^3
# Si number density = 22.635013 Si / 1000 Ang^3
#
#
#
# Elastic Constant Matrix: (Units=GPa)
#
#
# Indices 1 2 3 4 5 6 
#
# 1 25.7348 0.8329 9.5202 0.0000 1.0431 0.0000
# 2 0.8329 101.1511 79.3326 0.0000 26.4190 0.0000
# 3 9.5202 79.3326 236.2588 0.0000 39.1738 0.0000
# 4 0.0000 0.0000 0.0000 27.6895 0.0000 5.1763
# 5 1.0431 26.4190 39.1738 0.0000 26.5112 0.0000
# 6 0.0000 0.0000 0.0000 5.1763 0.0000 -1.0370
#
#
#
# Elastic Compliance Matrix: (Units=1/GPa)
#
#
# Indices 1 2 3 4 5 6 
#
# 1 0.039564 0.001209 -0.002043 0.000000 0.000257 0.000000
# 2 0.001209 0.015253 -0.003500 0.000000 -0.010076 0.000000
# 3 -0.002043 -0.003500 0.006488 0.000000 -0.006019 0.000000
# 4 0.000000 0.000000 0.000000 0.018682 0.000000 0.093253
# 5 0.000257 -0.010076 -0.006019 0.000000 0.056645 0.000000
# 6 0.000000 0.000000 0.000000 0.093253 0.000000 -0.498832
#
#
# Mechanical properties :
#
#
# Convention : Reuss Voigt Hill
#
# Bulk Modulus (GPa) = 18.99748 60.27955 39.63852
# Shear Modulus (GPa) = -14.88151 28.86334 6.99092
#
# Velocity S-wave (km/s) = -2.56687 3.57482 1.75933
# Velocity P-wave (km/s) = 0.61149 6.61272 4.65586
#
# Compressibility (1/GPa) = 0.05263855
#
# Stress axis : x y z
#
# Youngs Moduli (GPa) = 25.27544 65.56202 154.12689
#
# Poissons Ratio (x) = -0.07929 0.31487
# Poissons Ratio (y) = -0.03057 0.53940
# Poissons Ratio (z) = 0.05164 0.22945
#
# Static dielectric constant tensor:
#      x y z
#    x 1.861800 0.000000 0.019830 
#    y 0.000000 1.915850 0.000000 
#    z 0.019830 0.000000 1.923180 
# 
# From -- ./inp_files/95672.got.cif
#   From: 2010.05.17/outbox.cif.g08.bks.cpg/sg12_48_cif.got.tgz:95672.got - 2010.06.03 13:09:07.
