data_PCOD9168028
_publ_section_title
;
Structure prediction by ZEFSAII (Michael W. Deem and Ramdas Pophale) SiO2 
 PCOD9168028
Probable space group: P 21/M
;
_chemical_formula_sum "Si O2"
_cell_formula_units_Z 32
_cell_length_a 12.000000
_cell_length_b 9.000000
_cell_length_c 15.000000
_cell_angle_alpha 90.000000
_cell_angle_beta 90.000000
_cell_angle_gamma 90.000000
_cell_volume 1620.000000
_symmetry_space_group_name_H-M "P 21/M"
_symmetry_group_IT_number 11
_symmetry_cell_setting 'monoclinic'
loop_
_space_group_symop_operation_xyz
x,y,z
-x,1/2+y,-z
-x,-y,-z
x,1/2-y,z
loop_
_atom_site_type_symbol
_atom_site_label
_atom_site_fract_x
_atom_site_fract_y
_atom_site_fract_z
Si Si1 0.925378 0.425757 0.746587
Si Si2 0.080443 0.072804 0.071016
Si Si3 0.275973 0.076285 0.542044
Si Si4 0.332518 0.428572 0.037273
Si Si5 0.944872 0.073623 0.413394
Si Si6 0.443114 0.574110 0.868890
Si Si7 0.704324 0.421570 0.643687
Si Si8 0.448619 0.079959 0.691001
O O1 0.941817 0.250000 0.758415
O O2 0.955791 0.516233 0.833275
O O3 0.797316 0.451800 0.717475
O O4 0.998112 0.490753 0.667707
O O5 0.076827 0.250000 0.064270
O O6 0.208470 0.021911 0.059723
O O7 0.000000 0.000000 0.000000
O O8 0.244448 0.250000 0.549759
O O9 0.389328 0.053064 0.596790
O O10 0.183862 0.970407 0.584580
O O11 0.283914 0.030546 0.439480
O O12 0.332469 0.250000 0.032617
O O13 0.428852 0.470967 0.107821
O O14 0.369387 0.494207 0.942972
O O15 0.962029 0.250000 0.412280
O O16 0.000000 0.000000 0.500000
O O17 0.434339 0.750000 0.879579
O O18 0.411245 0.525843 0.770132
O O19 0.722360 0.250000 0.613114
O O20 0.580409 0.433980 0.679968
O O21 0.422524 0.250000 0.716963
#
# Coordination Sequence:
#
# PCOD9168028 Si02
#       8
#     4   4   4   4   4   4   4   4
#     4  11  23  40  65  94 122 158 203 251 306 364
#     4  11  24  42  63  89 123 161 202 251 306 364
#     4  11  23  38  59  86 120 161 201 245 300 357
#     4   9  20  39  61  85 117 154 193 242 299 356
#     4  12  24  41  64  89 120 157 204 255 304 358
#     4  10  20  35  60  90 115 150 197 244 296 356
#     4  10  21  38  61  87 119 157 200 248 298 357
#     4  10  22  38  56  85 123 160 196 240 299 359
#
# _framework density 19.753086
#
# number of rings (size 3 to 8) (size 9 to 14) (size 15 to 20)
#    0.000    1.500    1.250    3.750    0.000    4.500 
#    0.000    1.250    0.000    0.000    0.000    0.000 
#    0.000    0.000    0.000    0.000    0.000    0.000 
#
# Total GULP energy -178728.805205 kJ/mol
# GULP energy per Si atom -5585.275163 kJ/mol
# Density = 1.970813 g / cm^3
# Si number density = 19.753086 Si / 1000 Ang^3
#
#
#
# Elastic Constant Matrix: (Units=GPa)
#
#
# Indices 1 2 3 4 5 6 
#
# 1 -49.1357 25.8930 59.1715 0.0000 -34.7585 0.0000
# 2 25.8930 -15.3018 -5.5023 0.0000 12.4633 0.0000
# 3 59.1715 -5.5023 68.4151 0.0000 22.1260 0.0000
# 4 0.0000 0.0000 0.0000 22.0517 0.0000 2.5918
# 5 -34.7585 12.4633 22.1260 0.0000 0.2692 0.0000
# 6 0.0000 0.0000 0.0000 2.5918 0.0000 26.3884
#
#
#
# Elastic Compliance Matrix: (Units=1/GPa)
#
#
# Indices 1 2 3 4 5 6 
#
# 1 -0.006460 -0.038073 0.011640 0.000000 -0.028184 0.000000
# 2 -0.038073 -0.151454 0.025688 0.000000 -0.015273 0.000000
# 3 0.011640 0.025688 0.003707 0.000000 0.008992 0.000000
# 4 0.000000 0.000000 0.000000 0.045878 0.000000 -0.004506
# 5 -0.028184 -0.015273 0.008992 0.000000 0.043771 0.000000
# 6 0.000000 0.000000 0.000000 -0.004506 0.000000 0.038338
#
#
# Mechanical properties :
#
#
# Convention : Reuss Voigt Hill
#
# Bulk Modulus (GPa) = -6.42274 18.12245 5.84985
# Shear Modulus (GPa) = -65.24889 4.70288 -30.27300
#
# Velocity S-wave (km/s) = -5.75360 1.54467 -3.91905
# Velocity P-wave (km/s) = 6.88456 3.51792 4.18458
#
# Compressibility (1/GPa) = -0.15569676
#
# Stress axis : x y z
#
# Youngs Moduli (GPa) = -154.79231 -6.60268 269.75316
#
# Poissons Ratio (x) = -0.25138 -3.13999
# Poissons Ratio (y) = -5.89339 -6.92934
# Poissons Ratio (z) = 1.80182 0.16961
#
# Static dielectric constant tensor:
#      x y z
#    x 1.716750 0.000000 0.014370 
#    y 0.000000 1.647890 0.000000 
#    z 0.014370 0.000000 1.656150 
# 
# From -- ./inp_files/49349.got.cif
#   From: 2010.05.17/outbox.ucp.g08.bks.cvg/sg11_25_cif.got.tgz:49349.got - 2010.06.11 11:38:39.
