data_PCOD9168669
_publ_section_title
;
Structure prediction by ZEFSAII (Michael W. Deem and Ramdas Pophale) SiO2 
 PCOD9168669
Probable space group: C 2/M
;
_chemical_formula_sum "Si O2"
_cell_formula_units_Z 60
_cell_length_a 18.393370
_cell_length_b 26.667819
_cell_length_c 14.310135
_cell_angle_alpha 90.000000
_cell_angle_beta 147.404748
_cell_angle_gamma 90.000000
_cell_volume 3781.292688
_symmetry_space_group_name_H-M "C 2/M"
_symmetry_group_IT_number 12
_symmetry_cell_setting 'monoclinic'
loop_
_space_group_symop_operation_xyz
x,y,z
-x,y,-z
-x,-y,-z
x,-y,z
1/2+x,1/2+y,z
1/2-x,1/2+y,-z
1/2-x,1/2-y,-z
1/2+x,1/2-y,z
loop_
_atom_site_type_symbol
_atom_site_label
_atom_site_fract_x
_atom_site_fract_y
_atom_site_fract_z
Si Si1 0.043947 0.350094 0.862445
Si Si2 0.500000 0.204609 0.000000
Si Si3 0.200912 0.301322 0.501144
Si Si4 0.099273 0.155613 0.420658
Si Si5 0.818461 0.208526 0.140430
Si Si6 0.894522 0.556849 0.970924
Si Si7 0.871351 0.058425 0.428152
Si Si8 0.206434 0.761779 0.682579
O O1 0.945041 0.323980 0.682228
O O2 0.196712 0.330584 0.022714
O O3 0.053173 0.409202 0.887843
O O4 0.980400 0.330017 0.889939
O O5 0.366957 0.236032 0.873016
O O6 0.250000 0.250000 0.500000
O O7 0.311655 0.338728 0.576811
O O8 0.189654 0.285706 0.596828
O O9 0.103163 0.098904 0.463027
O O10 0.162696 0.190126 0.572825
O O11 0.951097 0.180222 0.246311
O O12 0.855974 0.233071 0.281871
O O13 0.750000 0.250000 0.000000
O O14 0.872869 0.500000 0.978436
O O15 0.755969 0.575149 0.772960
O O16 0.000000 0.557139 0.000000
O O17 0.000000 0.058943 0.500000
O O18 0.847776 0.000000 0.432310
#
# Coordination Sequence:
#
# PCOD9168669 Si02
#       8
#     8   4   8   8   8   8   8   8
#     4  11  18  31  47  65  96 129 159 189 240 284
#     4  10  16  26  47  64  84 124 161 182 220 284
#     4  10  19  32  48  65  91 127 169 188 231 291
#     4  11  19  32  47  72  96 127 163 198 233 282
#     4  11  23  32  48  71  99 122 161 205 243 282
#     4  10  19  29  45  70  95 124 163 199 230 274
#     4  10  19  31  46  66  97 134 166 195 238 294
#     4  10  20  31  48  64  93 129 158 193 233 289
#
# _framework density 15.867589000000001
#
# number of rings (size 3 to 8) (size 9 to 14) (size 15 to 20)
#    0.000    1.600    3.333    6.000    1.867    0.000 
#    0.000    0.000    0.000    0.000    0.000    0.000 
#    0.000    6.400    0.000    0.000    0.000    0.267 
#
# Total GULP energy -167074.096228 kJ/mol
# GULP energy per Si atom -5569.136541 kJ/mol
# Density = 1.583147 g / cm^3
# Si number density = 15.867589 Si / 1000 Ang^3
#
#
#
# Elastic Constant Matrix: (Units=GPa)
#
#
# Indices 1 2 3 4 5 6 
#
# 1 46.0025 13.2382 18.2491 0.0000 1.8491 0.0000
# 2 13.2382 83.0741 28.9478 0.0000 -8.5286 0.0000
# 3 18.2491 28.9478 73.6643 0.0000 10.8266 0.0000
# 4 0.0000 0.0000 0.0000 29.1979 0.0000 17.4306
# 5 1.8491 -8.5286 10.8266 0.0000 26.8177 0.0000
# 6 0.0000 0.0000 0.0000 17.4306 0.0000 73.1243
#
#
#
# Elastic Compliance Matrix: (Units=1/GPa)
#
#
# Indices 1 2 3 4 5 6 
#
# 1 0.024411 -0.002113 -0.005178 0.000000 -0.000265 0.000000
# 2 -0.002113 0.015515 -0.006719 0.000000 0.007792 0.000000
# 3 -0.005178 -0.006719 0.018880 0.000000 -0.009402 0.000000
# 4 0.000000 0.000000 0.000000 0.039931 0.000000 -0.009518
# 5 -0.000265 0.007792 -0.009402 0.000000 0.043581 0.000000
# 6 0.000000 0.000000 0.000000 -0.009518 0.000000 0.015944
#
#
# Mechanical properties :
#
#
# Convention : Reuss Voigt Hill
#
# Bulk Modulus (GPa) = 32.48186 35.95677 34.21931
# Shear Modulus (GPa) = 25.43953 35.31504 30.37728
#
# Velocity S-wave (km/s) = 4.00839 4.72275 4.38016
# Velocity P-wave (km/s) = 6.47595 7.24216 6.86975
#
# Compressibility (1/GPa) = 0.03078642
#
# Stress axis : x y z
#
# Youngs Moduli (GPa) = 40.96554 64.45219 52.96597
#
# Poissons Ratio (x) = 0.13617 0.27427
# Poissons Ratio (y) = 0.08655 0.35588
# Poissons Ratio (z) = 0.21213 0.43305
#
# Static dielectric constant tensor:
#      x y z
#    x 1.950650 0.000000 0.329580 
#    y 0.000000 1.564390 0.000000 
#    z 0.329580 0.000000 1.933500 
# 
# From -- ./inp_files/235463.got.cif
#   From: 2010.05.17/outbox.cif.g08.bks.cpg/sg12_118_cif.got.tgz:235463.got - 2010.06.03 13:09:07.
