data_PCOD9168091
_publ_section_title
;
Structure prediction by ZEFSAII (Michael W. Deem and Ramdas Pophale) SiO2 
 PCOD9168091
Probable space group: P 21/M
;
_chemical_formula_sum "Si O2"
_cell_formula_units_Z 28
_cell_length_a 9.000000
_cell_length_b 9.000000
_cell_length_c 27.000000
_cell_angle_alpha 90.000000
_cell_angle_beta 140.000000
_cell_angle_gamma 90.000000
_cell_volume 1405.776502
_symmetry_space_group_name_H-M "P 21/M"
_symmetry_group_IT_number 11
_symmetry_cell_setting 'monoclinic'
loop_
_space_group_symop_operation_xyz
x,y,z
-x,1/2+y,-z
-x,-y,-z
x,1/2-y,z
loop_
_atom_site_type_symbol
_atom_site_label
_atom_site_fract_x
_atom_site_fract_y
_atom_site_fract_z
Si Si1 0.942760 0.078890 0.090292
Si Si2 0.783004 0.428971 0.340237
Si Si3 0.583265 0.917250 0.843201
Si Si4 0.508551 0.574559 0.083329
Si Si5 0.289383 0.931478 0.478748
Si Si6 0.462143 0.068551 0.625706
Si Si7 0.967268 0.426895 0.789022
O O1 0.910026 0.250000 0.100228
O O2 0.148490 0.087352 0.103521
O O3 0.696480 0.021455 0.006099
O O4 0.057302 0.974004 0.160542
O O5 0.809234 0.250000 0.354602
O O6 0.600769 0.447048 0.248127
O O7 0.666667 0.506913 0.358358
O O8 0.037277 0.503446 0.397993
O O9 0.525869 0.750000 0.847410
O O10 0.570085 0.040351 0.881618
O O11 0.524230 0.750000 0.077442
O O12 0.771223 0.512486 0.151688
O O13 0.288286 0.750000 0.476309
O O14 0.500000 0.000000 0.500000
O O15 0.344576 0.991803 0.548190
O O16 0.445687 0.250000 0.618865
O O17 0.736540 0.025834 0.700453
O O18 0.976309 0.250000 0.784734
#
# Coordination Sequence:
#
# PCOD9168091 Si02
#       7
#     4   4   4   4   4   4   4
#     4  10  20  38  60  86 121 162 209 258 308 364
#     4  11  23  43  67  94 127 165 211 258 309 372
#     4  10  22  38  59  89 122 161 208 255 306 367
#     4  10  22  37  57  87 124 164 207 258 312 364
#     4  12  27  46  69  98 130 163 201 252 311 372
#     4  11  23  42  66  94 127 167 212 257 310 372
#     4  10  22  38  59  90 123 160 207 255 306 366
#
# _framework density 19.917818
#
# number of rings (size 3 to 8) (size 9 to 14) (size 15 to 20)
#    0.000    1.429    1.429    3.429    2.000    3.429 
#    0.000    0.000    0.000    0.000    0.000    0.000 
#    0.000    0.000    0.000    0.000    0.000    0.000 
#
# Total GULP energy -156096.854981 kJ/mol
# GULP energy per Si atom -5574.887678 kJ/mol
# Density = 1.987248 g / cm^3
# Si number density = 19.917818 Si / 1000 Ang^3
#
#
#
# Elastic Constant Matrix: (Units=GPa)
#
#
# Indices 1 2 3 4 5 6 
#
# 1 33.2729 -1.2655 4.3960 0.0000 24.0135 0.0000
# 2 -1.2655 47.0666 20.1567 0.0000 13.6284 0.0000
# 3 4.3960 20.1567 109.3029 0.0000 27.8970 0.0000
# 4 0.0000 0.0000 0.0000 15.5036 0.0000 -0.1944
# 5 24.0135 13.6284 27.8970 0.0000 38.2730 0.0000
# 6 0.0000 0.0000 0.0000 -0.1944 0.0000 30.8818
#
#
#
# Elastic Compliance Matrix: (Units=1/GPa)
#
#
# Indices 1 2 3 4 5 6 
#
# 1 0.068529 0.013877 0.008501 0.000000 -0.054135 0.000000
# 2 0.013877 0.027177 -0.001078 0.000000 -0.017598 0.000000
# 3 0.008501 -0.001078 0.012616 0.000000 -0.014146 0.000000
# 4 0.000000 0.000000 0.000000 0.064506 0.000000 0.000406
# 5 -0.054135 -0.017598 -0.014146 0.000000 0.076671 0.000000
# 6 0.000000 0.000000 0.000000 0.000406 0.000000 0.032384
#
#
# Mechanical properties :
#
#
# Convention : Reuss Voigt Hill
#
# Bulk Modulus (GPa) = 6.62593 26.24630 16.43612
# Shear Modulus (GPa) = 17.26573 28.02204 22.64388
#
# Velocity S-wave (km/s) = 2.94742 3.75491 3.37540
# Velocity P-wave (km/s) = 3.86224 5.65730 4.84366
#
# Compressibility (1/GPa) = 0.15092228
#
# Stress axis : x y z
#
# Youngs Moduli (GPa) = 14.59236 36.79573 79.26282
#
# Poissons Ratio (x) = -0.51061 -0.67385
# Poissons Ratio (y) = -0.20250 0.08548
# Poissons Ratio (z) = -0.12406 0.03968
#
# Static dielectric constant tensor:
#      x y z
#    x 1.814500 0.000000 0.022720 
#    y 0.000000 1.676770 0.000000 
#    z 0.022720 0.000000 1.691520 
# 
# From -- ./inp_files/70901.got.cif
#   From: 2010.05.17/outbox.ucp.g08.bks.cvg/sg11_36_cif.got.tgz:70901.got - 2010.06.11 11:38:39.
