data_PCOD9168838
_publ_section_title
;
Structure prediction by ZEFSAII (Michael W. Deem and Ramdas Pophale) SiO2 
 PCOD9168838
Probable space group: C 2/M
;
_chemical_formula_sum "Si O2"
_cell_formula_units_Z 56
_cell_length_a 30.818735
_cell_length_b 20.926974
_cell_length_c 8.245950
_cell_angle_alpha 90.000000
_cell_angle_beta 29.658811
_cell_angle_gamma 90.000000
_cell_volume 2631.610172
_symmetry_space_group_name_H-M "C 2/M"
_symmetry_group_IT_number 12
_symmetry_cell_setting 'monoclinic'
loop_
_space_group_symop_operation_xyz
x,y,z
-x,y,-z
-x,-y,-z
x,-y,z
1/2+x,1/2+y,z
1/2-x,1/2+y,-z
1/2-x,1/2-y,-z
1/2+x,1/2-y,z
loop_
_atom_site_type_symbol
_atom_site_label
_atom_site_fract_x
_atom_site_fract_y
_atom_site_fract_z
Si Si1 0.094817 0.571522 0.607740
Si Si2 0.454623 0.798195 0.326366
Si Si3 0.889346 0.756437 0.970838
Si Si4 0.227717 0.571161 0.465636
Si Si5 0.910661 0.894101 0.733520
Si Si6 0.593600 0.661246 0.600067
Si Si7 0.740267 0.324162 0.367753
O O1 0.116930 0.500000 0.471409
O O2 0.089416 0.632558 0.506952
O O3 0.161865 0.588263 0.534407
O O4 0.000000 0.565582 0.000000
O O5 0.396978 0.734608 0.490880
O O6 0.500000 0.803365 0.000000
O O7 0.527233 0.780026 0.225854
O O8 0.828589 0.715318 0.048132
O O9 0.827731 0.775079 0.324022
O O10 0.909687 0.824169 0.823505
O O11 0.204579 0.500000 0.598097
O O12 0.229849 0.622526 0.600927
O O13 0.324095 0.571951 0.075660
O O14 0.911303 0.883044 0.540402
O O15 0.000000 0.925896 0.500000
O O16 0.679581 0.646464 0.425958
O O17 0.500000 0.657152 0.000000
#
# Coordination Sequence:
#
# PCOD9168838 Si02
#       7
#     8   8   8   8   8   8   8
#     4   9  18  32  55  87 118 153 197 238 282 347
#     4  10  16  29  52  81 115 149 185 234 290 346
#     4  10  19  32  53  84 116 150 183 239 297 355
#     4  10  22  40  61  86 118 159 204 244 287 355
#     4  11  22  38  57  85 124 155 195 247 302 352
#     4  11  20  35  55  84 116 152 192 248 303 359
#     4  10  19  33  55  82 113 146 193 238 296 347
#
# _framework density 21.279747
#
# number of rings (size 3 to 8) (size 9 to 14) (size 15 to 20)
#    0.000    1.857    4.286    2.571    4.000    0.857 
#    0.000    0.714    0.000    1.714    0.000    2.000 
#    0.000    0.429    0.000    0.000    0.000    0.000 
#
# Total GULP energy -156318.014815 kJ/mol
# GULP energy per Si atom -5582.786243 kJ/mol
# Density = 2.123131 g / cm^3
# Si number density = 21.279747 Si / 1000 Ang^3
#
#
#
# Elastic Constant Matrix: (Units=GPa)
#
#
# Indices 1 2 3 4 5 6 
#
# 1 105.6974 27.3670 25.4945 0.0000 -32.3254 0.0000
# 2 27.3670 96.3941 4.1617 0.0000 -11.1872 0.0000
# 3 25.4945 4.1617 46.7295 0.0000 -24.7022 0.0000
# 4 0.0000 0.0000 0.0000 15.7047 0.0000 -14.0591
# 5 -32.3254 -11.1872 -24.7022 0.0000 42.7807 0.0000
# 6 0.0000 0.0000 0.0000 -14.0591 0.0000 25.5563
#
#
#
# Elastic Compliance Matrix: (Units=1/GPa)
#
#
# Indices 1 2 3 4 5 6 
#
# 1 0.013192 -0.002742 -0.002969 0.000000 0.007536 0.000000
# 2 -0.002742 0.011288 0.001376 0.000000 0.001674 0.000000
# 3 -0.002969 0.001376 0.031523 0.000000 0.016318 0.000000
# 4 0.000000 0.000000 0.000000 0.125463 0.000000 0.069020
# 5 0.007536 0.001674 0.016318 0.000000 0.038930 0.000000
# 6 0.000000 0.000000 0.000000 0.069020 0.000000 0.077099
#
#
# Mechanical properties :
#
#
# Convention : Reuss Voigt Hill
#
# Bulk Modulus (GPa) = 21.12765 40.31860 30.72312
# Shear Modulus (GPa) = 15.53071 29.59485 22.56278
#
# Velocity S-wave (km/s) = 2.70448 3.73332 3.25975
# Velocity P-wave (km/s) = 4.43873 6.12957 5.35136
#
# Compressibility (1/GPa) = 0.04733135
#
# Stress axis : x y z
#
# Youngs Moduli (GPa) = 75.80309 88.59310 31.72260
#
# Poissons Ratio (x) = 0.24297 0.09419
# Poissons Ratio (y) = 0.20789 -0.04364
# Poissons Ratio (z) = 0.22507 -0.12189
#
# Static dielectric constant tensor:
#      x y z
#    x 1.770480 0.000000 0.012470 
#    y 0.000000 1.795040 0.000000 
#    z 0.012470 0.000000 1.829930 
# 
# From -- ./inp_files/113337.got.cif
#   From: 2010.05.17/outbox.cif.g08.bks.cpg/sg12_57_cif.got.tgz:113337.got - 2010.06.03 13:09:07.
