data_PCOD9168182
_publ_section_title
;
Structure prediction by ZEFSAII (Michael W. Deem and Ramdas Pophale) SiO2 
 PCOD9168182
Probable space group: P 21/M
;
_chemical_formula_sum "Si O2"
_cell_formula_units_Z 32
_cell_length_a 30.000000
_cell_length_b 9.000000
_cell_length_c 12.000000
_cell_angle_alpha 90.000000
_cell_angle_beta 150.000000
_cell_angle_gamma 90.000000
_cell_volume 1620.000000
_symmetry_space_group_name_H-M "P 21/M"
_symmetry_group_IT_number 11
_symmetry_cell_setting 'monoclinic'
loop_
_space_group_symop_operation_xyz
x,y,z
-x,1/2+y,-z
-x,-y,-z
x,1/2-y,z
loop_
_atom_site_type_symbol
_atom_site_label
_atom_site_fract_x
_atom_site_fract_y
_atom_site_fract_z
Si Si1 0.262418 0.570283 0.961583
Si Si2 0.092831 0.924182 0.960606
Si Si3 0.065588 0.073538 0.551748
Si Si4 0.095462 0.076652 0.192315
Si Si5 0.583676 0.069543 0.523633
Si Si6 0.277618 0.570704 0.616696
Si Si7 0.618328 0.929902 0.966116
Si Si8 0.286173 0.573159 0.374951
O O1 0.255486 0.750000 0.943057
O O2 0.162764 0.503455 0.761734
O O3 0.342002 0.531160 0.222004
O O4 0.303660 0.500713 0.939423
O O5 0.096725 0.750000 0.010048
O O6 0.998013 0.940914 0.695494
O O7 0.188357 0.944954 0.104889
O O8 0.104914 0.046272 0.081430
O O9 0.076808 0.250000 0.596172
O O10 0.000000 0.000000 0.500000
O O11 0.094422 0.250000 0.219035
O O12 0.179023 0.994862 0.431957
O O13 0.000000 0.000000 0.000000
O O14 0.579757 0.250000 0.517189
O O15 0.479456 0.023651 0.294253
O O16 0.632161 0.010251 0.517611
O O17 0.277591 0.750000 0.629547
O O18 0.287692 0.531308 0.507612
O O19 0.356157 0.495130 0.857616
O O20 0.622429 0.750000 0.975520
O O21 0.299510 0.750000 0.403843
#
# Coordination Sequence:
#
# PCOD9168182 Si02
#       8
#     4   4   4   4   4   4   4   4
#     4  11  23  40  62  87 120 160 205 254 307 363
#     4   9  19  36  57  82 116 156 195 237 291 351
#     4  11  23  39  61  90 124 159 200 247 300 358
#     4  11  22  36  57  83 115 152 194 240 289 351
#     4   9  19  37  62  88 115 155 202 252 311 367
#     4  10  21  38  59  86 120 157 198 244 303 364
#     4  11  23  39  60  87 121 159 203 253 306 363
#     4   8  15  33  60  86 114 150 194 243 296 358
#
# _framework density 19.753086
#
# number of rings (size 3 to 8) (size 9 to 14) (size 15 to 20)
#    0.000    2.000    0.000    4.500    1.750    3.500 
#    0.000    1.875    0.000    9.000    0.000    0.000 
#    0.000    0.000    0.000    0.000    0.000    0.000 
#
# Total GULP energy -178172.973297 kJ/mol
# GULP energy per Si atom -5567.905416 kJ/mol
# Density = 1.970813 g / cm^3
# Si number density = 19.753086 Si / 1000 Ang^3
#
#
#
# Elastic Constant Matrix: (Units=GPa)
#
#
# Indices 1 2 3 4 5 6 
#
# 1 71.6538 21.8612 43.5743 0.0000 20.7492 0.0000
# 2 21.8612 82.9459 45.3821 0.0000 4.4734 0.0000
# 3 43.5743 45.3821 156.0972 0.0000 16.0325 0.0000
# 4 0.0000 0.0000 0.0000 38.9023 0.0000 2.2861
# 5 20.7492 4.4734 16.0325 0.0000 34.0988 0.0000
# 6 0.0000 0.0000 0.0000 2.2861 0.0000 19.6759
#
#
#
# Elastic Compliance Matrix: (Units=1/GPa)
#
#
# Indices 1 2 3 4 5 6 
#
# 1 0.019963 -0.002658 -0.003770 0.000000 -0.010026 0.000000
# 2 -0.002658 0.014691 -0.003675 0.000000 0.001418 0.000000
# 3 -0.003770 -0.003675 0.008660 0.000000 -0.001296 0.000000
# 4 0.000000 0.000000 0.000000 0.025882 0.000000 -0.003007
# 5 -0.010026 0.001418 -0.001296 0.000000 0.035851 0.000000
# 6 0.000000 0.000000 0.000000 -0.003007 0.000000 0.051173
#
#
# Mechanical properties :
#
#
# Convention : Reuss Voigt Hill
#
# Bulk Modulus (GPa) = 43.27470 59.14801 51.21135
# Shear Modulus (GPa) = 27.15511 31.86071 29.50791
#
# Velocity S-wave (km/s) = 3.71175 4.02051 3.86921
# Velocity P-wave (km/s) = 6.35019 7.18062 6.77813
#
# Compressibility (1/GPa) = 0.02310819
#
# Stress axis : x y z
#
# Youngs Moduli (GPa) = 50.09286 68.07068 115.47232
#
# Poissons Ratio (x) = 0.18093 0.43534
# Poissons Ratio (y) = 0.13314 0.42432
# Poissons Ratio (z) = 0.18886 0.25014
#
# Static dielectric constant tensor:
#      x y z
#    x 1.889380 0.000000 -0.018940 
#    y 0.000000 1.670910 0.000000 
#    z -0.018940 0.000000 1.709930 
# 
# From -- ./inp_files/45327.got.cif
#   From: 2010.05.17/outbox.ucp.g08.bks.cvg/sg11_23_cif.got.tgz:45327.got - 2010.06.11 11:38:39.
