data_PCOD9168359
_publ_section_title
;
Structure prediction by ZEFSAII (Michael W. Deem and Ramdas Pophale) SiO2 
 PCOD9168359
Probable space group: C 2/M
;
_chemical_formula_sum "Si O2"
_cell_formula_units_Z 64
_cell_length_a 11.513301
_cell_length_b 14.316232
_cell_length_c 26.389192
_cell_angle_alpha 90.000000
_cell_angle_beta 147.018857
_cell_angle_gamma 90.000000
_cell_volume 2367.790460
_symmetry_space_group_name_H-M "C 2/M"
_symmetry_group_IT_number 12
_symmetry_cell_setting 'monoclinic'
loop_
_space_group_symop_operation_xyz
x,y,z
-x,y,-z
-x,-y,-z
x,-y,z
1/2+x,1/2+y,z
1/2-x,1/2+y,-z
1/2-x,1/2-y,-z
1/2+x,1/2-y,z
loop_
_atom_site_type_symbol
_atom_site_label
_atom_site_fract_x
_atom_site_fract_y
_atom_site_fract_z
Si Si1 0.470064 0.606849 0.042857
Si Si2 0.223676 0.363517 0.611864
Si Si3 0.023300 0.638409 0.384299
Si Si4 0.502417 0.894142 0.832429
Si Si5 0.459944 0.635792 0.602198
Si Si6 0.320393 0.386566 0.087467
Si Si7 0.848661 0.613979 0.874598
Si Si8 0.360526 0.153085 0.682549
O O1 0.563714 0.500000 0.075053
O O2 0.216041 0.597544 0.942862
O O3 0.500000 0.656992 0.000000
O O4 0.486717 0.647413 0.105500
O O5 0.402174 0.400064 0.637874
O O6 0.274883 0.253914 0.635288
O O7 0.000000 0.374581 0.500000
O O8 0.167117 0.395805 0.648382
O O9 0.249057 0.613324 0.492488
O O10 0.017006 0.751590 0.384875
O O11 0.040238 0.609839 0.331814
O O12 0.338804 0.851439 0.813236
O O13 0.533556 0.843561 0.790831
O O14 0.444712 0.000000 0.799339
O O15 0.661686 0.608446 0.641108
O O16 0.333311 0.500000 0.090053
O O17 0.329979 0.359130 0.149831
O O18 0.080079 0.359803 0.982435
O O19 0.846433 0.500000 0.871621
#
# Coordination Sequence:
#
# PCOD9168359 Si02
#       8
#     8   8   8   8   8   8   8   8
#     4   8  13  22  36  51  67  91 127 165 197 223
#     4   8  14  25  42  63  81  95 118 160 206 235
#     4   8  13  22  38  59  78  97 120 154 196 233
#     4   9  17  25  33  50  79 110 131 150 182 224
#     4   8  13  22  38  59  78  95 121 156 195 231
#     4   7   9  15  31  49  58  75 108 152 194 216
#     4   7  10  18  30  44  63  85 115 146 177 213
#     4  10  15  21  37  57  82 107 123 148 192 237
#
# _framework density 27.029419000000001
#
# number of rings (size 3 to 8) (size 9 to 14) (size 15 to 20)
#    0.000    3.875    0.000    4.875    0.000    0.000 
#    0.000    0.000    2.750    3.375    0.000    0.000 
#    0.000   12.000    0.000    9.000    0.000    0.000 
#
# Total GULP energy -178306.902628 kJ/mol
# GULP energy per Si atom -5572.090707 kJ/mol
# Density = 2.696790 g / cm^3
# Si number density = 27.029419 Si / 1000 Ang^3
#
#
#
# Elastic Constant Matrix: (Units=GPa)
#
#
# Indices 1 2 3 4 5 6 
#
# 1 211.6171 29.0008 57.2882 0.0000 -96.3741 0.0000
# 2 29.0008 108.3562 14.7056 0.0000 -4.2246 0.0000
# 3 57.2882 14.7056 35.8601 0.0000 -22.8956 0.0000
# 4 0.0000 0.0000 0.0000 9.0013 0.0000 6.5391
# 5 -96.3741 -4.2246 -22.8956 0.0000 73.0394 0.0000
# 6 0.0000 0.0000 0.0000 6.5391 0.0000 -14.9279
#
#
#
# Elastic Compliance Matrix: (Units=1/GPa)
#
#
# Indices 1 2 3 4 5 6 
#
# 1 0.017317 -0.001835 -0.015492 0.000000 0.017887 0.000000
# 2 -0.001835 0.010011 -0.002938 0.000000 -0.002763 0.000000
# 3 -0.015492 -0.002938 0.050859 0.000000 -0.004668 0.000000
# 4 0.000000 0.000000 0.000000 0.084277 0.000000 0.036917
# 5 0.017887 -0.002763 -0.004668 0.000000 0.035670 0.000000
# 6 0.000000 0.000000 0.000000 0.036917 0.000000 -0.050818
#
#
# Mechanical properties :
#
#
# Convention : Reuss Voigt Hill
#
# Bulk Modulus (GPa) = 26.55511 61.98031 44.26771
# Shear Modulus (GPa) = 24.95036 30.41183 27.68110
#
# Velocity S-wave (km/s) = 3.04152 3.35795 3.20364
# Velocity P-wave (km/s) = 4.70960 6.16562 5.48613
#
# Compressibility (1/GPa) = 0.03765753
#
# Stress axis : x y z
#
# Youngs Moduli (GPa) = 57.74698 99.89076 19.66207
#
# Poissons Ratio (x) = 0.18329 0.30460
# Poissons Ratio (y) = 0.10596 0.05777
# Poissons Ratio (z) = 0.89461 0.29349
#
# Static dielectric constant tensor:
#      x y z
#    x 2.290840 0.000000 -0.003020 
#    y 0.000000 1.876640 0.000000 
#    z -0.003020 0.000000 2.146790 
# 
# From -- ./inp_files/336912.got.cif
#   From: 2010.05.17/outbox.cif.g08.bks.cpg/sg12_169_cif.got.tgz:336912.got - 2010.06.03 13:09:07.
