data_PCOD9168441
_publ_section_title
;
Structure prediction by ZEFSAII (Michael W. Deem and Ramdas Pophale) SiO2 
 PCOD9168441
Probable space group: C 2/M
;
_chemical_formula_sum "Si O2"
_cell_formula_units_Z 48
_cell_length_a 14.481800
_cell_length_b 21.115622
_cell_length_c 13.459391
_cell_angle_alpha 90.000000
_cell_angle_beta 32.417876
_cell_angle_gamma 90.000000
_cell_volume 2206.427685
_symmetry_space_group_name_H-M "C 2/M"
_symmetry_group_IT_number 12
_symmetry_cell_setting 'monoclinic'
loop_
_space_group_symop_operation_xyz
x,y,z
-x,y,-z
-x,-y,-z
x,-y,z
1/2+x,1/2+y,z
1/2-x,1/2+y,-z
1/2-x,1/2-y,-z
1/2+x,1/2-y,z
loop_
_atom_site_type_symbol
_atom_site_label
_atom_site_fract_x
_atom_site_fract_y
_atom_site_fract_z
Si Si1 0.179120 0.883398 0.284938
Si Si2 0.489022 0.429253 0.755304
Si Si3 0.678215 0.883134 0.648819
Si Si4 0.713559 0.258505 0.353248
Si Si5 0.443291 0.696098 0.909544
Si Si6 0.555246 0.802623 0.263760
O O1 0.154575 0.909391 0.197533
O O2 0.328843 0.902374 0.227544
O O3 0.178154 0.806320 0.292564
O O4 0.000000 0.903710 0.500000
O O5 0.454078 0.500000 0.821409
O O6 0.680270 0.425879 0.532672
O O7 0.490530 0.374487 0.834352
O O8 0.767754 0.813718 0.579251
O O9 0.510296 0.864261 0.739320
O O10 0.897189 0.225911 0.176926
O O11 0.577222 0.211331 0.526551
O O12 0.438722 0.743609 0.818392
O O13 0.249207 0.690138 0.125195
#
# Coordination Sequence:
#
# PCOD9168441 Si02
#       6
#     8   8   8   8   8   8
#     4   8  16  27  46  67  97 137 165 204 259 291
#     4  11  19  31  47  71 112 152 178 196 245 323
#     4   8  15  28  44  68  91 126 170 212 253 288
#     4   9  15  31  50  68  93 117 174 230 258 292
#     4  10  18  28  51  74  87 133 173 221 267 286
#     4  10  15  28  53  70  88 116 181 235 265 284
#
# _framework density 21.754621
#
# number of rings (size 3 to 8) (size 9 to 14) (size 15 to 20)
#    1.000    1.667    3.333    1.000    0.000    3.000 
#    0.000    1.667    7.333    1.000    0.000    0.000 
#    0.000    0.667    0.000   14.167    2.000    0.667 
#
# Total GULP energy -133612.444560 kJ/mol
# GULP energy per Si atom -5567.185190 kJ/mol
# Density = 2.170511 g / cm^3
# Si number density = 21.754621 Si / 1000 Ang^3
#
#
#
# Elastic Constant Matrix: (Units=GPa)
#
#
# Indices 1 2 3 4 5 6 
#
# 1 51.8785 8.9283 25.6791 -0.0057 -24.7634 0.0022
# 2 8.9283 85.7965 15.5101 -0.0258 -4.6016 0.0159
# 3 25.6791 15.5101 116.3653 -0.0401 -4.2354 0.0220
# 4 -0.0057 -0.0258 -0.0401 5.6066 0.0075 -2.6687
# 5 -24.7634 -4.6016 -4.2354 0.0075 28.2043 -0.0008
# 6 0.0022 0.0159 0.0220 -2.6687 -0.0008 11.1693
#
#
#
# Elastic Compliance Matrix: (Units=1/GPa)
#
#
# Indices 1 2 3 4 5 6 
#
# 1 0.038584 -0.000963 -0.007198 -0.000062 0.032639 -0.000005
# 2 -0.000963 0.012051 -0.001360 0.000041 0.000916 -0.000004
# 3 -0.007198 -0.001360 0.010181 0.000065 -0.005013 -0.000001
# 4 -0.000062 0.000041 0.000065 0.201250 -0.000090 0.048085
# 5 0.032639 0.000916 -0.005013 -0.000090 0.063509 -0.000015
# 6 -0.000005 -0.000004 -0.000001 0.048085 -0.000015 0.101020
#
#
# Mechanical properties :
#
#
# Convention : Reuss Voigt Hill
#
# Bulk Modulus (GPa) = 23.93942 39.36390 31.65166
# Shear Modulus (GPa) = 10.87991 22.59092 16.73541
#
# Velocity S-wave (km/s) = 2.23876 3.22598 2.77660
# Velocity P-wave (km/s) = 4.20843 5.65771 4.98601
#
# Compressibility (1/GPa) = 0.04177211
#
# Stress axis : x y z
#
# Youngs Moduli (GPa) = 25.91733 82.98215 98.22247
#
# Poissons Ratio (x) = 0.07995 0.70703
# Poissons Ratio (y) = 0.02497 0.13361
# Poissons Ratio (z) = 0.18656 0.11288
#
# Static dielectric constant tensor:
#      x y z
#    x 1.932030 0.000000 -0.016760 
#    y 0.000000 1.768950 0.000020 
#    z -0.016760 0.000020 1.880750 
# 
# From -- ./inp_files/317884.got.cif
#   From: 2010.05.17/outbox.cif.g08.bks.cpg/sg12_159_cif.got.tgz:317884.got - 2010.06.03 13:09:07.
