data_PCOD9168435
_publ_section_title
;
Structure prediction by ZEFSAII (Michael W. Deem and Ramdas Pophale) SiO2 
 PCOD9168435
Probable space group: C 2/M
;
_chemical_formula_sum "Si O2"
_cell_formula_units_Z 40
_cell_length_a 28.675269
_cell_length_b 14.365332
_cell_length_c 5.457628
_cell_angle_alpha 90.000000
_cell_angle_beta 68.895353
_cell_angle_gamma 90.000000
_cell_volume 2097.362601
_symmetry_space_group_name_H-M "C 2/M"
_symmetry_group_IT_number 12
_symmetry_cell_setting 'monoclinic'
loop_
_space_group_symop_operation_xyz
x,y,z
-x,y,-z
-x,-y,-z
x,-y,z
1/2+x,1/2+y,z
1/2-x,1/2+y,-z
1/2-x,1/2-y,-z
1/2+x,1/2-y,z
loop_
_atom_site_type_symbol
_atom_site_label
_atom_site_fract_x
_atom_site_fract_y
_atom_site_fract_z
Si Si1 0.059321 0.739304 0.380979
Si Si2 0.623574 0.608760 0.060216
Si Si3 0.265694 0.359173 0.973826
Si Si4 0.724215 0.147484 0.552534
Si Si5 0.387142 0.215415 0.212133
O O1 0.078431 0.845466 0.299978
O O2 0.083191 0.705571 0.590950
O O3 0.000000 0.732760 0.500000
O O4 0.082067 0.690213 0.093554
O O5 0.618393 0.500000 0.022148
O O6 0.675215 0.628850 0.105371
O O7 0.625223 0.674867 0.816335
O O8 0.245494 0.397608 0.757646
O O9 0.250000 0.250000 0.000000
O O10 0.240356 0.397263 0.267204
O O11 0.750000 0.250000 0.500000
O O12 0.665070 0.161961 0.679148
#
# Coordination Sequence:
#
# PCOD9168435 Si02
#       5
#     8   8   8   8   8
#     4  10  20  34  46  62  88 123 162 200 231 252
#     4  10  22  32  46  67  93 122 161 196 223 263
#     4  10  17  29  47  67  85 111 149 191 223 276
#     4  10  15  28  48  64  84 105 146 192 225 278
#     4  10  19  32  47  67  83 116 160 199 227 263
#
# _framework density 19.071569
#
# number of rings (size 3 to 8) (size 9 to 14) (size 15 to 20)
#    1.200    0.800    4.000    4.200    0.000    1.200 
#    0.000    1.000    0.000    0.000    0.000    0.000 
#    0.000    0.000    0.000    0.000    0.000  195.000 
#
# Total GULP energy -111368.343716 kJ/mol
# GULP energy per Si atom -5568.417186 kJ/mol
# Density = 1.902816 g / cm^3
# Si number density = 19.071569 Si / 1000 Ang^3
#
#
#
# Elastic Constant Matrix: (Units=GPa)
#
#
# Indices 1 2 3 4 5 6 
#
# 1 153.8352 -1.3743 88.7609 0.0000 -0.6270 0.0000
# 2 -1.3743 33.3856 6.1507 0.0000 3.7022 0.0000
# 3 88.7609 6.1507 159.0134 0.0000 19.9400 0.0000
# 4 0.0000 0.0000 0.0000 -9.7242 0.0000 2.0281
# 5 -0.6270 3.7022 19.9400 0.0000 50.1997 0.0000
# 6 0.0000 0.0000 0.0000 2.0281 0.0000 -2.4493
#
#
#
# Elastic Compliance Matrix: (Units=1/GPa)
#
#
# Indices 1 2 3 4 5 6 
#
# 1 0.009912 0.001228 -0.005877 0.000000 0.002368 0.000000
# 2 0.001228 0.030485 -0.001668 0.000000 -0.001570 0.000000
# 3 -0.005877 -0.001668 0.010133 0.000000 -0.003975 0.000000
# 4 0.000000 0.000000 0.000000 -0.124304 0.000000 -0.102928
# 5 0.002368 -0.001570 -0.003975 0.000000 0.021645 0.000000
# 6 0.000000 0.000000 0.000000 -0.102928 0.000000 -0.493501
#
#
# Mechanical properties :
#
#
# Convention : Reuss Voigt Hill
#
# Bulk Modulus (GPa) = 26.38817 59.25655 42.82236
# Shear Modulus (GPa) = -9.60866 24.45170 7.42152
#
# Velocity S-wave (km/s) = -2.24703 3.58453 1.97480
# Velocity P-wave (km/s) = 2.67100 6.94765 5.26327
#
# Compressibility (1/GPa) = 0.03789577
#
# Stress axis : x y z
#
# Youngs Moduli (GPa) = 100.88479 32.80301 98.69182
#
# Poissons Ratio (x) = -0.04029 0.58006
# Poissons Ratio (y) = -0.12391 0.16460
# Poissons Ratio (z) = 0.59295 0.05471
#
# Static dielectric constant tensor:
#      x y z
#    x 1.657880 0.000000 0.039070 
#    y 0.000000 1.644600 0.000000 
#    z 0.039070 0.000000 1.734270 
# 
# From -- ./inp_files/28309.got.cif
#   From: 2010.05.17/outbox.cif.g08.bks.cpg/sg12_15_cif.got.tgz:28309.got - 2010.06.03 13:09:07.
