data_PCOD9168928
_publ_section_title
;
Structure prediction by ZEFSAII (Michael W. Deem and Ramdas Pophale) SiO2 
 PCOD9168928
Probable space group: C 2/M
;
_chemical_formula_sum "Si O2"
_cell_formula_units_Z 40
_cell_length_a 13.930010
_cell_length_b 24.272501
_cell_length_c 9.699365
_cell_angle_alpha 90.000000
_cell_angle_beta 132.470369
_cell_angle_gamma 90.000000
_cell_volume 2419.055560
_symmetry_space_group_name_H-M "C 2/M"
_symmetry_group_IT_number 12
_symmetry_cell_setting 'monoclinic'
loop_
_space_group_symop_operation_xyz
x,y,z
-x,y,-z
-x,-y,-z
x,-y,z
1/2+x,1/2+y,z
1/2-x,1/2+y,-z
1/2-x,1/2-y,-z
1/2+x,1/2-y,z
loop_
_atom_site_type_symbol
_atom_site_label
_atom_site_fract_x
_atom_site_fract_y
_atom_site_fract_z
Si Si1 0.971285 0.000000 0.634814
Si Si2 0.128193 0.766716 0.473537
Si Si3 0.141750 0.000000 0.052385
Si Si4 0.200948 0.880594 0.132117
Si Si5 0.147013 0.722309 0.798269
Si Si6 0.571318 0.620130 0.295975
O O1 0.907690 0.941535 0.622244
O O2 0.000000 0.000000 0.500000
O O3 0.101845 0.000000 0.853828
O O4 0.250000 0.750000 0.500000
O O5 0.155310 0.751057 0.657119
O O6 0.095743 0.831334 0.427082
O O7 0.000523 0.733314 0.299336
O O8 0.221859 0.054295 0.160674
O O9 0.000000 0.000000 0.000000
O O10 0.312663 0.841015 0.185879
O O11 0.159510 0.866311 0.247970
O O12 0.074694 0.875774 0.909151
O O13 0.250000 0.750000 0.000000
#
# Coordination Sequence:
#
# PCOD9168928 Si02
#       6
#     4   8   4   8   8   8
#     4  10  20  28  50  83 112 140 183 241 289 321
#     4  11  23  36  55  81 114 152 189 231 283 344
#     4  10  16  30  54  82 103 149 191 223 288 343
#     4  10  17  33  56  78 111 146 189 231 280 343
#     4  11  23  35  55  82 113 149 188 232 289 331
#     4  10  18  33  53  78 113 146 182 232 287 337
#
# _framework density 16.535378999999999
#
# number of rings (size 3 to 8) (size 9 to 14) (size 15 to 20)
#    0.000    1.600    8.000    0.000    2.800    0.800 
#    0.000    0.000    0.000    3.600    0.000    0.000 
#    0.000    6.800    0.000    0.000    0.000    0.000 
#
# Total GULP energy -111388.587778 kJ/mol
# GULP energy per Si atom -5569.429389 kJ/mol
# Density = 1.649774 g / cm^3
# Si number density = 16.535379 Si / 1000 Ang^3
#
#
#
# Elastic Constant Matrix: (Units=GPa)
#
#
# Indices 1 2 3 4 5 6 
#
# 1 88.7208 37.7109 33.9672 0.0000 15.5949 0.0000
# 2 37.7109 153.6968 28.6063 0.0000 13.5322 0.0000
# 3 33.9672 28.6063 79.8336 0.0000 -2.2700 0.0000
# 4 0.0000 0.0000 0.0000 30.9206 0.0000 -2.3883
# 5 15.5949 13.5322 -2.2700 0.0000 21.6118 0.0000
# 6 0.0000 0.0000 0.0000 -2.3883 0.0000 25.5808
#
#
#
# Elastic Compliance Matrix: (Units=1/GPa)
#
#
# Indices 1 2 3 4 5 6 
#
# 1 0.016676 -0.001808 -0.006778 0.000000 -0.011613 0.000000
# 2 -0.001808 0.007664 -0.002083 0.000000 -0.003714 0.000000
# 3 -0.006778 -0.002083 0.016381 0.000000 0.007916 0.000000
# 4 0.000000 0.000000 0.000000 0.032576 0.000000 0.003041
# 5 -0.011613 -0.003714 0.007916 0.000000 0.057808 0.000000
# 6 0.000000 0.000000 0.000000 0.003041 0.000000 0.039376
#
#
# Mechanical properties :
#
#
# Convention : Reuss Voigt Hill
#
# Bulk Modulus (GPa) = 51.58569 58.09112 54.83840
# Shear Modulus (GPa) = 25.21703 30.42043 27.81873
#
# Velocity S-wave (km/s) = 3.90941 4.29385 4.10613
# Velocity P-wave (km/s) = 7.18629 7.73243 7.46436
#
# Compressibility (1/GPa) = 0.01938522
#
# Stress axis : x y z
#
# Youngs Moduli (GPa) = 59.96704 130.47250 61.04559
#
# Poissons Ratio (x) = 0.23584 0.41375
# Poissons Ratio (y) = 0.10840 0.12715
# Poissons Ratio (z) = 0.40644 0.27176
#
# Static dielectric constant tensor:
#      x y z
#    x 1.582140 0.000000 -0.019260 
#    y 0.000000 1.607720 0.000000 
#    z -0.019260 0.000000 1.548740 
# 
# From -- ./inp_files/66666.got.cif
#   From: 2010.05.17/outbox.cif.g08.bks.cpg/sg12_34_cif.got.tgz:66666.got - 2010.06.03 13:09:07.
