data_PCOD9168906
_publ_section_title
;
Structure prediction by ZEFSAII (Michael W. Deem and Ramdas Pophale) SiO2 
 PCOD9168906
Probable space group: C 2/M
;
_chemical_formula_sum "Si O2"
_cell_formula_units_Z 40
_cell_length_a 22.510182
_cell_length_b 22.968095
_cell_length_c 11.334725
_cell_angle_alpha 90.000000
_cell_angle_beta 23.407966
_cell_angle_gamma 90.000000
_cell_volume 2328.127370
_symmetry_space_group_name_H-M "C 2/M"
_symmetry_group_IT_number 12
_symmetry_cell_setting 'monoclinic'
loop_
_space_group_symop_operation_xyz
x,y,z
-x,y,-z
-x,-y,-z
x,-y,z
1/2+x,1/2+y,z
1/2-x,1/2+y,-z
1/2-x,1/2-y,-z
1/2+x,1/2-y,z
loop_
_atom_site_type_symbol
_atom_site_label
_atom_site_fract_x
_atom_site_fract_y
_atom_site_fract_z
Si Si1 0.494651 0.931804 0.150036
Si Si2 0.000000 0.594680 0.500000
Si Si3 0.393857 0.828896 0.491043
Si Si4 0.348517 0.262593 0.939021
Si Si5 0.245598 0.563363 0.872261
Si Si6 0.000000 0.148092 0.500000
O O1 0.397538 0.879252 0.384704
O O2 0.450538 0.000000 0.258617
O O3 0.500000 0.926638 0.000000
O O4 0.659323 0.923728 0.907740
O O5 0.102224 0.635156 0.394569
O O6 0.108650 0.561592 0.214548
O O7 0.547606 0.791453 0.211835
O O8 0.255097 0.785526 0.765301
O O9 0.456291 0.312346 0.691240
O O10 0.250000 0.250000 0.000000
O O11 0.317935 0.500000 0.732183
O O12 0.362337 0.609421 0.707031
#
# Coordination Sequence:
#
# PCOD9168906 Si02
#       6
#     8   4   8   8   8   4
#     4   9  20  40  62  80 105 148 198 237 269 317
#     4  10  16  30  50  78 110 138 184 220 268 330
#     4  11  20  32  55  82 108 146 185 225 271 330
#     4  12  19  32  51  80 117 150 179 212 279 344
#     4  10  20  32  52  83 114 143 179 230 283 334
#     4  12  20  32  52  82 123 148 169 224 292 346
#
# _framework density 17.181190000000001
#
# number of rings (size 3 to 8) (size 9 to 14) (size 15 to 20)
#    0.000    1.400    6.000    1.800    0.000    0.800 
#    0.000    1.000    0.000    0.000    0.000    4.200 
#    0.000    0.000    0.000    0.000    0.000    0.000 
#
# Total GULP energy -111354.280863 kJ/mol
# GULP energy per Si atom -5567.714043 kJ/mol
# Density = 1.714209 g / cm^3
# Si number density = 17.181190 Si / 1000 Ang^3
#
#
#
# Elastic Constant Matrix: (Units=GPa)
#
#
# Indices 1 2 3 4 5 6 
#
# 1 84.9554 40.8006 29.6459 0.0022 12.4753 -0.0003
# 2 40.8006 109.1724 45.9431 -0.0030 5.6516 -0.0002
# 3 29.6459 45.9431 72.4351 -0.0095 2.4716 -0.0003
# 4 0.0022 -0.0030 -0.0095 25.2310 0.0005 5.8176
# 5 12.4753 5.6516 2.4716 0.0005 15.6284 0.0007
# 6 -0.0003 -0.0002 -0.0003 5.8176 0.0007 25.1563
#
#
#
# Elastic Compliance Matrix: (Units=1/GPa)
#
#
# Indices 1 2 3 4 5 6 
#
# 1 0.016722 -0.004021 -0.003909 -0.000003 -0.011276 0.000001
# 2 -0.004021 0.013632 -0.006979 -0.000001 -0.000616 0.000000
# 3 -0.003909 -0.006979 0.019746 0.000007 0.002521 -0.000002
# 4 -0.000003 -0.000001 0.000007 0.041866 0.000001 -0.009682
# 5 -0.011276 -0.000616 0.002521 0.000001 0.072811 -0.000002
# 6 0.000001 0.000000 -0.000002 -0.009682 -0.000002 0.041990
#
#
# Mechanical properties :
#
#
# Convention : Reuss Voigt Hill
#
# Bulk Modulus (GPa) = 49.30635 55.48248 52.39442
# Shear Modulus (GPa) = 20.54693 23.21469 21.88081
#
# Velocity S-wave (km/s) = 3.46193 3.67981 3.57253
# Velocity P-wave (km/s) = 6.68880 7.10052 6.89773
#
# Compressibility (1/GPa) = 0.02028136
#
# Stress axis : x y z
#
# Youngs Moduli (GPa) = 59.80261 73.35949 50.64305
#
# Poissons Ratio (x) = 0.29495 0.19796
# Poissons Ratio (y) = 0.24044 0.35346
# Poissons Ratio (z) = 0.23376 0.51201
#
# Static dielectric constant tensor:
#      x y z
#    x 1.559170 0.000000 -0.014080 
#    y 0.000000 1.664910 0.000000 
#    z -0.014080 0.000000 1.611620 
# 
# From -- ./inp_files/178245.got.cif
#   From: 2010.05.17/outbox.cif.g08.bks.cpg/sg12_90_cif.got.tgz:178245.got - 2010.06.03 13:09:07.
