data_PCOD9168093
_publ_section_title
;
Structure prediction by ZEFSAII (Michael W. Deem and Ramdas Pophale) SiO2 
 PCOD9168093
Probable space group: P 21/M
;
_chemical_formula_sum "Si O2"
_cell_formula_units_Z 32
_cell_length_a 27.000000
_cell_length_b 9.000000
_cell_length_c 21.000000
_cell_angle_alpha 90.000000
_cell_angle_beta 20.000000
_cell_angle_gamma 90.000000
_cell_volume 1745.328791
_symmetry_space_group_name_H-M "P 21/M"
_symmetry_group_IT_number 11
_symmetry_cell_setting 'monoclinic'
loop_
_space_group_symop_operation_xyz
x,y,z
-x,1/2+y,-z
-x,-y,-z
x,1/2-y,z
loop_
_atom_site_type_symbol
_atom_site_label
_atom_site_fract_x
_atom_site_fract_y
_atom_site_fract_z
Si Si1 0.325016 0.071189 0.374140
Si Si2 0.644500 0.428412 0.040914
Si Si3 0.155623 0.571481 0.320287
Si Si4 0.646461 0.928245 0.173618
Si Si5 0.649741 0.428978 0.794381
Si Si6 0.880495 0.571876 0.260882
Si Si7 0.344669 0.071061 0.578933
Si Si8 0.191811 0.071275 0.893581
O O1 0.321148 0.250000 0.368875
O O2 0.479513 0.036288 0.220221
O O3 0.202898 0.030285 0.573167
O O4 0.314390 0.991549 0.318910
O O5 0.653275 0.250000 0.038574
O O6 0.685606 0.505212 0.057499
O O7 0.743833 0.471957 0.861065
O O8 0.144056 0.750000 0.333087
O O9 0.231166 0.531469 0.295931
O O10 0.000000 0.500000 0.500000
O O11 0.645658 0.750000 0.170965
O O12 0.749379 0.974082 0.108108
O O13 0.488577 0.989027 0.382912
O O14 0.636500 0.250000 0.808335
O O15 0.500000 0.500000 0.000000
O O16 0.897950 0.750000 0.240404
O O17 0.781427 0.535567 0.319498
O O18 0.034753 0.495226 0.071072
O O19 0.367807 0.250000 0.548633
O O20 0.296805 0.028605 0.708147
O O21 0.183515 0.250000 0.902609
#
# Coordination Sequence:
#
# PCOD9168093 Si02
#       8
#     4   4   4   4   4   4   4   4
#     4  10  20  38  61  87 117 149 195 245 284 341
#     4  10  20  40  63  82 115 157 193 236 287 344
#     4  10  23  41  61  87 119 154 192 235 286 342
#     4  11  23  37  57  89 119 150 195 242 288 343
#     4  11  22  38  61  89 118 152 192 237 287 339
#     4  10  21  37  60  86 113 150 196 241 290 346
#     4  10  20  39  62  83 112 156 198 238 291 345
#     4  10  23  39  56  83 122 155 189 242 294 344
#
# _framework density 18.334654
#
# number of rings (size 3 to 8) (size 9 to 14) (size 15 to 20)
#    0.000    1.750    2.500    1.500    0.000    5.500 
#    0.000    5.000    0.000    0.000    0.000    0.000 
#    0.000    0.000    0.000    0.000    0.000    0.000 
#
# Total GULP energy -178749.740599 kJ/mol
# GULP energy per Si atom -5585.929394 kJ/mol
# Density = 1.829292 g / cm^3
# Si number density = 18.334654 Si / 1000 Ang^3
#
#
#
# Elastic Constant Matrix: (Units=GPa)
#
#
# Indices 1 2 3 4 5 6 
#
# 1 116.0424 27.3124 1.9437 0.0000 8.8896 0.0000
# 2 27.3124 16.6289 5.2609 0.0000 0.7965 0.0000
# 3 1.9437 5.2609 31.1561 0.0000 0.6436 0.0000
# 4 0.0000 0.0000 0.0000 27.9987 0.0000 -2.1768
# 5 8.8896 0.7965 0.6436 0.0000 36.6141 0.0000
# 6 0.0000 0.0000 0.0000 -2.1768 0.0000 31.2283
#
#
#
# Elastic Compliance Matrix: (Units=1/GPa)
#
#
# Indices 1 2 3 4 5 6 
#
# 1 0.014694 -0.025056 0.003378 0.000000 -0.003082 0.000000
# 2 -0.025056 0.106306 -0.016471 0.000000 0.004060 0.000000
# 3 0.003378 -0.016471 0.034689 0.000000 -0.001072 0.000000
# 4 0.000000 0.000000 0.000000 0.035911 0.000000 0.002503
# 5 -0.003082 0.004060 -0.001072 0.000000 0.027991 0.000000
# 6 0.000000 0.000000 0.000000 0.002503 0.000000 0.032197
#
#
# Mechanical properties :
#
#
# Convention : Reuss Voigt Hill
#
# Bulk Modulus (GPa) = 12.59592 25.87350 19.23471
# Shear Modulus (GPa) = 14.10238 27.78890 20.94564
#
# Velocity S-wave (km/s) = 2.77639 3.89736 3.38362
# Velocity P-wave (km/s) = 4.14279 5.86472 5.07729
#
# Compressibility (1/GPa) = 0.07939076
#
# Stress axis : x y z
#
# Youngs Moduli (GPa) = 68.05330 9.40680 28.82749
#
# Poissons Ratio (x) = 0.23570 -0.09737
# Poissons Ratio (y) = 1.70514 0.47483
# Poissons Ratio (z) = -0.22987 0.15494
#
# Static dielectric constant tensor:
#      x y z
#    x 1.621360 0.000000 0.007250 
#    y 0.000000 1.615030 0.000000 
#    z 0.007250 0.000000 1.608310 
# 
# From -- ./inp_files/66919.got.cif
#   From: 2010.05.17/outbox.ucp.g08.bks.cvg/sg11_34_cif.got.tgz:66919.got - 2010.06.11 11:38:39.
