data_PCOD9168607
_publ_section_title
;
Structure prediction by ZEFSAII (Michael W. Deem and Ramdas Pophale) SiO2 
 PCOD9168607
Probable space group: C 2/M
;
_chemical_formula_sum "Si O2"
_cell_formula_units_Z 64
_cell_length_a 20.702969
_cell_length_b 21.939801
_cell_length_c 26.432452
_cell_angle_alpha 90.000000
_cell_angle_beta 160.577181
_cell_angle_gamma 90.000000
_cell_volume 3992.477054
_symmetry_space_group_name_H-M "C 2/M"
_symmetry_group_IT_number 12
_symmetry_cell_setting 'monoclinic'
loop_
_space_group_symop_operation_xyz
x,y,z
-x,y,-z
-x,-y,-z
x,-y,z
1/2+x,1/2+y,z
1/2-x,1/2+y,-z
1/2-x,1/2-y,-z
1/2+x,1/2-y,z
loop_
_atom_site_type_symbol
_atom_site_label
_atom_site_fract_x
_atom_site_fract_y
_atom_site_fract_z
Si Si1 0.051509 0.634603 0.170101
Si Si2 0.330977 0.431205 0.089048
Si Si3 0.084847 0.208045 0.403176
Si Si4 0.482156 0.430368 0.661212
Si Si5 0.746300 0.264652 0.917360
Si Si6 0.507309 0.685213 0.836385
Si Si7 0.840303 0.227102 0.425901
Si Si8 0.172461 0.429547 0.162635
O O1 0.190733 0.670582 0.310358
O O2 0.176676 0.603311 0.219076
O O3 0.893677 0.589964 0.078479
O O4 0.914467 0.684945 0.042544
O O5 0.350744 0.500000 0.086482
O O6 0.399213 0.427853 0.198212
O O7 0.463645 0.384919 0.155608
O O8 0.250000 0.250000 0.500000
O O9 0.124244 0.135544 0.421551
O O10 0.076063 0.222519 0.456099
O O11 0.883294 0.227654 0.227645
O O12 0.393084 0.500000 0.594067
O O13 0.632936 0.427671 0.726082
O O14 0.603079 0.280573 0.858459
O O15 0.859363 0.203620 0.017140
O O16 0.292489 0.712719 0.681015
O O17 0.000000 0.223070 0.500000
O O18 0.121574 0.500000 0.135377
O O19 0.000000 0.404158 0.000000
#
# Coordination Sequence:
#
# PCOD9168607 Si02
#       8
#     8   8   8   8   8   8   8   8
#     4  10  18  31  47  71  99 131 170 212 248 292
#     4  10  17  29  53  76  96 127 176 219 256 299
#     4  12  20  34  54  75  97 141 181 212 259 313
#     4  10  19  30  44  70 101 134 173 215 247 293
#     4   9  17  31  54  70  95 127 172 217 254 293
#     4   9  17  34  51  75  99 129 166 224 262 295
#     4  11  23  34  50  75 110 139 168 214 267 310
#     4  10  16  25  43  67  98 133 169 203 238 289
#
# _framework density 16.030149000000002
#
# number of rings (size 3 to 8) (size 9 to 14) (size 15 to 20)
#    0.000    1.875    5.000    1.875    0.000    0.000 
#    0.000    3.125    0.000    3.750    0.000    0.000 
#    0.000    1.000    0.000    0.000    0.000    0.000 
#
# Total GULP energy -178220.275079 kJ/mol
# GULP energy per Si atom -5569.383596 kJ/mol
# Density = 1.599366 g / cm^3
# Si number density = 16.030149 Si / 1000 Ang^3
#
#
#
# Elastic Constant Matrix: (Units=GPa)
#
#
# Indices 1 2 3 4 5 6 
#
# 1 58.6082 28.5347 32.0230 0.0091 -15.3201 0.0086
# 2 28.5347 100.1353 25.7043 0.0004 2.6480 0.0092
# 3 32.0230 25.7043 66.2073 0.0122 -16.4859 0.0670
# 4 0.0091 0.0004 0.0122 -10.3842 0.0883 -34.3007
# 5 -15.3201 2.6480 -16.4859 0.0883 25.4110 0.0748
# 6 0.0086 0.0092 0.0670 -34.3007 0.0748 -16.0891
#
#
#
# Elastic Compliance Matrix: (Units=1/GPa)
#
#
# Indices 1 2 3 4 5 6 
#
# 1 0.027544 -0.006134 -0.007928 -0.000001 0.012102 0.000036
# 2 -0.006134 0.012952 -0.003958 -0.000014 -0.007615 -0.000018
# 3 -0.007928 -0.003958 0.023123 0.000058 0.010634 0.000016
# 4 -0.000001 -0.000014 0.000058 0.015938 0.000083 -0.033979
# 5 0.012102 -0.007615 0.010634 0.000083 0.054341 0.000122
# 6 0.000036 -0.000018 0.000016 -0.033979 0.000122 0.010287
#
#
# Mechanical properties :
#
#
# Convention : Reuss Voigt Hill
#
# Bulk Modulus (GPa) = 36.25811 44.16389 40.21100
# Shear Modulus (GPa) = 26.39676 9.03347 17.71512
#
# Velocity S-wave (km/s) = 4.06235 2.37645 3.32793
# Velocity P-wave (km/s) = 6.68367 5.92793 6.31711
#
# Compressibility (1/GPa) = 0.02758004
#
# Stress axis : x y z
#
# Youngs Moduli (GPa) = 36.30568 77.20953 43.24712
#
# Poissons Ratio (x) = 0.47361 0.34284
# Poissons Ratio (y) = 0.22270 0.17116
# Poissons Ratio (z) = 0.28781 0.30557
#
# Static dielectric constant tensor:
#      x y z
#    x 1.530560 -0.000010 -0.011220 
#    y -0.000010 1.584600 -0.000030 
#    z -0.011220 -0.000030 1.562120 
# 
# From -- ./inp_files/345058.got.cif
#   From: 2010.05.17/outbox.cif.g08.bks.cpg/sg12_173_cif.got.tgz:345058.got - 2010.06.03 13:09:07.
