data_PCOD9168840
_publ_section_title
;
Structure prediction by ZEFSAII (Michael W. Deem and Ramdas Pophale) SiO2 
 PCOD9168840
Probable space group: C 2/M
;
_chemical_formula_sum "Si O2"
_cell_formula_units_Z 52
_cell_length_a 26.119017
_cell_length_b 15.144377
_cell_length_c 25.500100
_cell_angle_alpha 90.000000
_cell_angle_beta 16.339021
_cell_angle_gamma 90.000000
_cell_volume 2837.600277
_symmetry_space_group_name_H-M "C 2/M"
_symmetry_group_IT_number 12
_symmetry_cell_setting 'monoclinic'
loop_
_space_group_symop_operation_xyz
x,y,z
-x,y,-z
-x,-y,-z
x,-y,z
1/2+x,1/2+y,z
1/2-x,1/2+y,-z
1/2-x,1/2-y,-z
1/2+x,1/2-y,z
loop_
_atom_site_type_symbol
_atom_site_label
_atom_site_fract_x
_atom_site_fract_y
_atom_site_fract_z
Si Si1 0.718102 0.396653 0.875675
Si Si2 0.710165 0.101422 0.309439
Si Si3 0.236717 0.500000 0.466801
Si Si4 0.662093 0.179886 0.145602
Si Si5 0.997387 0.696498 0.200612
Si Si6 0.657288 0.500000 0.078527
Si Si7 0.484924 0.000000 0.816230
Si Si8 0.176468 0.845819 0.693609
O O1 0.769430 0.500000 0.825129
O O2 0.696804 0.369348 0.836197
O O3 0.861603 0.342365 0.769790
O O4 0.523767 0.383796 0.094350
O O5 0.500000 0.097561 0.500000
O O6 0.735197 0.160347 0.336021
O O7 0.770002 0.000000 0.263365
O O8 0.440339 0.500000 0.291529
O O9 0.085448 0.500000 0.660278
O O10 0.226956 0.416723 0.438226
O O11 0.503847 0.196803 0.258317
O O12 0.801571 0.262395 0.007463
O O13 0.765765 0.090500 0.023031
O O14 0.969055 0.596918 0.208223
O O15 0.859162 0.759807 0.306374
O O16 0.765731 0.500000 0.026310
#
# Coordination Sequence:
#
# PCOD9168840 Si02
#       8
#     8   8   4   8   8   4   4   8
#     4  10  16  29  53  73 101 138 167 199 255 320
#     4  10  21  32  47  77 109 136 172 212 258 324
#     4  12  20  34  53  75 107 144 185 208 272 317
#     4   9  15  30  53  79  99 141 176 209 260 323
#     4   9  19  32  51  73 106 137 183 216 267 304
#     4  10  16  34  51  71 108 138 172 207 264 310
#     4  10  24  34  50  77 104 144 179 236 261 305
#     4  11  19  35  50  74 104 142 178 216 253 325
#
# _framework density 18.325344000000001
#
# number of rings (size 3 to 8) (size 9 to 14) (size 15 to 20)
#    0.000    2.000    5.385    0.462    0.000    4.308 
#    0.000    0.000    0.000    0.000    0.000    9.154 
#    0.000    0.000    0.000    0.000    0.000    0.000 
#
# Total GULP energy -144846.432805 kJ/mol
# GULP energy per Si atom -5571.016646 kJ/mol
# Density = 1.828363 g / cm^3
# Si number density = 18.325344 Si / 1000 Ang^3
#
#
#
# Elastic Constant Matrix: (Units=GPa)
#
#
# Indices 1 2 3 4 5 6 
#
# 1 134.7266 54.4312 21.9404 0.0019 -13.1641 0.0002
# 2 54.4312 128.8493 9.9634 0.0108 1.3388 -0.0164
# 3 21.9404 9.9634 46.1890 0.0054 4.6065 -0.0059
# 4 0.0019 0.0108 0.0054 12.7428 0.0107 -3.7995
# 5 -13.1641 1.3388 4.6065 0.0107 23.7187 0.0039
# 6 0.0002 -0.0164 -0.0059 -3.7995 0.0039 29.8704
#
#
#
# Elastic Compliance Matrix: (Units=1/GPa)
#
#
# Indices 1 2 3 4 5 6 
#
# 1 0.010582 -0.004170 -0.004830 -0.000003 0.007047 -0.000005
# 2 -0.004170 0.009536 0.000212 -0.000004 -0.002894 0.000005
# 3 -0.004830 0.000212 0.024645 -0.000002 -0.007479 0.000006
# 4 -0.000003 -0.000004 -0.000002 0.081569 -0.000040 0.010376
# 5 0.007047 -0.002894 -0.007479 -0.000040 0.047688 -0.000014
# 6 -0.000005 0.000005 0.000006 0.010376 -0.000014 0.034798
#
#
# Mechanical properties :
#
#
# Convention : Reuss Voigt Hill
#
# Bulk Modulus (GPa) = 36.78121 53.60386 45.19253
# Shear Modulus (GPa) = 21.23538 28.16169 24.69854
#
# Velocity S-wave (km/s) = 3.40781 3.92441 3.67520
# Velocity P-wave (km/s) = 5.96649 7.06041 6.53637
#
# Compressibility (1/GPa) = 0.02718779
#
# Stress axis : x y z
#
# Youngs Moduli (GPa) = 94.49713 104.86254 40.57690
#
# Poissons Ratio (x) = 0.43729 0.19599
# Poissons Ratio (y) = 0.39407 -0.00862
# Poissons Ratio (z) = 0.45642 -0.02228
#
# Static dielectric constant tensor:
#      x y z
#    x 1.706030 -0.000010 -0.003740 
#    y -0.000010 1.637440 0.000010 
#    z -0.003740 0.000010 1.747200 
# 
# From -- ./inp_files/369539.got.cif
#   From: 2010.05.17/outbox.cif.g08.bks.cpg/sg12_185_cif.got.tgz:369539.got - 2010.06.03 13:09:07.
