data_PCOD9168146
_publ_section_title
;
Structure prediction by ZEFSAII (Michael W. Deem and Ramdas Pophale) SiO2 
 PCOD9168146
Probable space group: P 21/M
;
_chemical_formula_sum "Si O2"
_cell_formula_units_Z 32
_cell_length_a 21.000000
_cell_length_b 9.000000
_cell_length_c 12.000000
_cell_angle_alpha 90.000000
_cell_angle_beta 130.000000
_cell_angle_gamma 90.000000
_cell_volume 1737.388797
_symmetry_space_group_name_H-M "P 21/M"
_symmetry_group_IT_number 11
_symmetry_cell_setting 'monoclinic'
loop_
_space_group_symop_operation_xyz
x,y,z
-x,1/2+y,-z
-x,-y,-z
x,1/2-y,z
loop_
_atom_site_type_symbol
_atom_site_label
_atom_site_fract_x
_atom_site_fract_y
_atom_site_fract_z
Si Si1 0.940399 0.421319 0.782176
Si Si2 0.310713 0.925027 0.683112
Si Si3 0.652626 0.073922 0.012865
Si Si4 0.853886 0.582515 0.506833
Si Si5 0.491385 0.926268 0.868887
Si Si6 0.126824 0.422107 0.087071
Si Si7 0.924799 0.579650 0.353208
Si Si8 0.812023 0.073488 0.050144
O O1 0.918383 0.250000 0.766245
O O2 0.923299 0.479184 0.639824
O O3 0.883006 0.514945 0.800837
O O4 0.034658 0.438179 0.929073
O O5 0.291554 0.750000 0.648502
O O6 0.324120 0.951168 0.830985
O O7 0.398444 0.960018 0.724340
O O8 0.235082 0.022707 0.557248
O O9 0.638482 0.250000 0.986656
O O10 0.728247 0.030281 0.019528
O O11 0.568763 0.988368 0.888935
O O12 0.870483 0.750000 0.561332
O O13 0.857220 0.579169 0.377088
O O14 0.497005 0.750000 0.888438
O O15 0.500000 0.000000 0.000000
O O16 0.148769 0.250000 0.111993
O O17 0.185380 0.513916 0.071755
O O18 0.944453 0.750000 0.346617
O O19 0.886574 0.495831 0.206048
O O20 0.000000 0.500000 0.500000
O O21 0.820446 0.250000 0.061387
#
# Coordination Sequence:
#
# PCOD9168146 Si02
#       8
#     4   4   4   4   4   4   4   4
#     4  10  21  37  56  74  97 131 168 212 260 302
#     4   9  17  31  47  68  99 134 168 202 247 297
#     4   9  18  31  47  70 100 135 169 204 246 296
#     4  11  22  33  49  74 101 131 169 211 251 297
#     4   9  17  28  45  68  96 131 168 205 246 295
#     4  10  21  37  56  77  99 127 169 216 258 300
#     4  11  23  35  48  70 100 136 173 206 250 303
#     4  11  21  34  52  74 103 136 170 208 252 301
#
# _framework density 18.418444999999998
#
# number of rings (size 3 to 8) (size 9 to 14) (size 15 to 20)
#    0.000    2.000    1.250    3.750    0.000    8.500 
#    0.000    0.000    0.000    0.000    0.000    0.875 
#    0.000    0.000    0.000    0.000    0.000    0.000 
#
# Total GULP energy -178426.375762 kJ/mol
# GULP energy per Si atom -5575.824243 kJ/mol
# Density = 1.837652 g / cm^3
# Si number density = 18.418445 Si / 1000 Ang^3
#
#
#
# Elastic Constant Matrix: (Units=GPa)
#
#
# Indices 1 2 3 4 5 6 
#
# 1 79.3010 50.0387 14.6201 0.0000 4.2234 0.0000
# 2 50.0387 21.6697 13.7336 0.0000 12.3442 0.0000
# 3 14.6201 13.7336 15.6623 0.0000 -2.1659 0.0000
# 4 0.0000 0.0000 0.0000 24.2742 0.0000 0.8215
# 5 4.2234 12.3442 -2.1659 0.0000 29.6307 0.0000
# 6 0.0000 0.0000 0.0000 0.8215 0.0000 26.3995
#
#
#
# Elastic Compliance Matrix: (Units=1/GPa)
#
#
# Indices 1 2 3 4 5 6 
#
# 1 -0.002726 0.034381 -0.029831 0.000000 -0.016115 0.000000
# 2 0.034381 -0.064690 0.027963 0.000000 0.024093 0.000000
# 3 -0.029831 0.027963 0.066827 0.000000 -0.002512 0.000000
# 4 0.000000 0.000000 0.000000 0.041239 0.000000 -0.001283
# 5 -0.016115 0.024093 -0.002512 0.000000 0.025825 0.000000
# 6 0.000000 0.000000 0.000000 -0.001283 0.000000 0.037919
#
#
# Mechanical properties :
#
#
# Convention : Reuss Voigt Hill
#
# Bulk Modulus (GPa) = 15.51927 30.37975 22.94951
# Shear Modulus (GPa) = 82.17183 18.61024 50.39104
#
# Velocity S-wave (km/s) = 6.68661 3.18215 5.23626
# Velocity P-wave (km/s) = 8.24976 5.48009 7.00321
#
# Compressibility (1/GPa) = 0.06443601
#
# Stress axis : x y z
#
# Youngs Moduli (GPa) = -366.81620 -15.45831 14.96397
#
# Poissons Ratio (x) = 0.53147 0.44639
# Poissons Ratio (y) = 12.61149 -0.41843
# Poissons Ratio (z) = -10.94247 0.43225
#
# Static dielectric constant tensor:
#      x y z
#    x 1.676820 0.000000 0.030200 
#    y 0.000000 1.618260 0.000000 
#    z 0.030200 0.000000 1.606220 
# 
# From -- ./inp_files/42794.got.cif
#   From: 2010.05.17/outbox.ucp.g08.bks.cvg/sg11_22_cif.got.tgz:42794.got - 2010.06.11 11:38:39.
