data_PCOD9168430
_publ_section_title
;
Structure prediction by ZEFSAII (Michael W. Deem and Ramdas Pophale) SiO2 
 PCOD9168430
Probable space group: C 2/M
;
_chemical_formula_sum "Si O2"
_cell_formula_units_Z 44
_cell_length_a 17.855058
_cell_length_b 22.826331
_cell_length_c 10.749595
_cell_angle_alpha 90.000000
_cell_angle_beta 30.142126
_cell_angle_gamma 90.000000
_cell_volume 2199.986851
_symmetry_space_group_name_H-M "C 2/M"
_symmetry_group_IT_number 12
_symmetry_cell_setting 'monoclinic'
loop_
_space_group_symop_operation_xyz
x,y,z
-x,y,-z
-x,-y,-z
x,-y,z
1/2+x,1/2+y,z
1/2-x,1/2+y,-z
1/2-x,1/2-y,-z
1/2+x,1/2-y,z
loop_
_atom_site_type_symbol
_atom_site_label
_atom_site_fract_x
_atom_site_fract_y
_atom_site_fract_z
Si Si1 0.500000 0.356825 0.000000
Si Si2 0.254634 0.434075 0.446305
Si Si3 0.676890 0.934104 0.264645
Si Si4 0.905059 0.754835 0.454905
Si Si5 0.639370 0.173981 0.717808
Si Si6 0.303132 0.308685 0.069315
O O1 0.409698 0.399215 0.220966
O O2 0.394093 0.318219 0.067583
O O3 0.269980 0.500000 0.466193
O O4 0.206981 0.433185 0.369794
O O5 0.146733 0.395052 0.683369
O O6 0.500000 0.929780 0.500000
O O7 0.751422 0.874455 0.104489
O O8 0.724552 0.000000 0.152174
O O9 0.789390 0.803721 0.569342
O O10 0.884599 0.703596 0.381791
O O11 0.837848 0.729669 0.680565
O O12 0.074625 0.778739 0.196611
O O13 0.500000 0.190552 0.000000
#
# Coordination Sequence:
#
# PCOD9168430 Si02
#       6
#     4   8   8   8   8   8
#     4  10  15  28  46  74  98 126 157 202 254 292
#     4  10  19  30  48  73 102 129 165 212 251 296
#     4   9  19  36  55  74  97 130 175 220 259 294
#     4  11  19  30  47  76 105 134 171 198 246 311
#     4  11  19  29  47  70 107 141 165 194 247 318
#     4  11  19  32  53  77 104 137 169 208 252 306
#
# _framework density 20.000119999999999
#
# number of rings (size 3 to 8) (size 9 to 14) (size 15 to 20)
#    0.000    1.636    7.273    1.364    0.000    1.091 
#    0.000    0.909    0.000    0.000    0.000    0.000 
#    0.000   13.091    0.000    0.000    0.000    0.000 
#
# Total GULP energy -122694.335439 kJ/mol
# GULP energy per Si atom -5577.015247 kJ/mol
# Density = 1.995460 g / cm^3
# Si number density = 20.000120 Si / 1000 Ang^3
#
#
#
# Elastic Constant Matrix: (Units=GPa)
#
#
# Indices 1 2 3 4 5 6 
#
# 1 28.6987 29.8232 30.7798 0.0005 -0.4834 0.0033
# 2 29.8232 143.5345 69.0471 0.0018 8.4152 0.0008
# 3 30.7798 69.0471 146.4596 -0.0002 2.8141 0.0019
# 4 0.0005 0.0018 -0.0002 27.1969 -0.0022 -6.6817
# 5 -0.4834 8.4152 2.8141 -0.0022 13.5973 -0.0036
# 6 0.0033 0.0008 0.0019 -6.6817 -0.0036 9.0384
#
#
#
# Elastic Compliance Matrix: (Units=1/GPa)
#
#
# Indices 1 2 3 4 5 6 
#
# 1 0.050517 -0.007476 -0.007244 -0.000004 0.007922 -0.000016
# 2 -0.007476 0.010428 -0.003229 -0.000001 -0.006051 -0.000001
# 3 -0.007244 -0.003229 0.009878 0.000001 -0.000304 0.000001
# 4 -0.000004 -0.000001 0.000001 0.044929 0.000017 0.033214
# 5 0.007922 -0.006051 -0.000304 0.000017 0.077634 0.000041
# 6 -0.000016 -0.000001 0.000001 0.033214 0.000041 0.135192
#
#
# Mechanical properties :
#
#
# Convention : Reuss Voigt Hill
#
# Bulk Modulus (GPa) = 28.63270 64.22146 46.42708
# Shear Modulus (GPa) = 13.29370 22.56938 17.93154
#
# Velocity S-wave (km/s) = 2.58094 3.36290 2.99753
# Velocity P-wave (km/s) = 4.81965 6.87452 5.93667
#
# Compressibility (1/GPa) = 0.03492510
#
# Stress axis : x y z
#
# Youngs Moduli (GPa) = 19.79549 95.89255 101.23111
#
# Poissons Ratio (x) = 0.71687 0.73335
# Poissons Ratio (y) = 0.14799 0.32687
# Poissons Ratio (z) = 0.14341 0.30963
#
# Static dielectric constant tensor:
#      x y z
#    x 1.682230 0.000000 -0.029290 
#    y 0.000000 1.741320 0.000000 
#    z -0.029290 0.000000 1.780050 
# 
# From -- ./inp_files/241966.got.cif
#   From: 2010.05.17/outbox.cif.g08.bks.cpg/sg12_121_cif.got.tgz:241966.got - 2010.06.03 13:09:07.
