data_PCOD9168929
_publ_section_title
;
Structure prediction by ZEFSAII (Michael W. Deem and Ramdas Pophale) SiO2 
 PCOD9168929
Probable space group: C 2/M
;
_chemical_formula_sum "Si O2"
_cell_formula_units_Z 60
_cell_length_a 25.153198
_cell_length_b 8.977435
_cell_length_c 15.122474
_cell_angle_alpha 90.000000
_cell_angle_beta 74.411578
_cell_angle_gamma 90.000000
_cell_volume 3289.216152
_symmetry_space_group_name_H-M "C 2/M"
_symmetry_group_IT_number 12
_symmetry_cell_setting 'monoclinic'
loop_
_space_group_symop_operation_xyz
x,y,z
-x,y,-z
-x,-y,-z
x,-y,z
1/2+x,1/2+y,z
1/2-x,1/2+y,-z
1/2-x,1/2-y,-z
1/2+x,1/2-y,z
loop_
_atom_site_type_symbol
_atom_site_label
_atom_site_fract_x
_atom_site_fract_y
_atom_site_fract_z
Si Si1 0.009808 0.667385 0.294504
Si Si2 0.631651 0.177272 0.166759
Si Si3 0.695291 0.321750 0.298738
Si Si4 0.305929 0.678484 0.014856
Si Si5 0.377381 0.329583 0.508026
Si Si6 0.319683 0.176560 0.200413
Si Si7 0.500000 0.750980 0.500000
Si Si8 0.600828 0.678291 0.695287
O O1 0.995437 0.500000 0.271854
O O2 0.009353 0.668780 0.401865
O O3 0.963537 0.779356 0.280495
O O4 0.070241 0.704391 0.231180
O O5 0.673307 0.237373 0.222562
O O6 0.638792 0.000000 0.150913
O O7 0.645585 0.264335 0.071161
O O8 0.684285 0.500000 0.292767
O O9 0.661288 0.263613 0.398734
O O10 0.760759 0.302414 0.275594
O O11 0.301721 0.500000 0.015966
O O12 0.315412 0.740377 0.108732
O O13 0.250000 0.750000 0.000000
O O14 0.359076 0.500000 0.507165
O O15 0.441403 0.329837 0.510207
O O16 0.375845 0.264278 0.410225
O O17 0.367528 0.243770 0.239445
O O18 0.327220 0.000000 0.182573
O O19 0.606984 0.500000 0.697213
#
# Coordination Sequence:
#
# PCOD9168929 Si02
#       8
#     8   8   8   8   8   8   4   8
#     4  10  21  36  57  86 121 156 196 243 293 348
#     4  11  22  37  58  90 123 153 191 244 298 347
#     4  10  20  35  57  85 119 157 196 241 293 351
#     4  12  24  40  63  91 119 152 192 242 295 353
#     4   9  18  32  52  84 120 157 201 242 289 343
#     4  11  23  40  62  86 116 156 198 247 297 350
#     4  10  16  30  54  84 117 158 195 242 289 344
#     4  10  22  39  59  83 117 162 204 244 289 350
#
# _framework density 18.241429
#
# number of rings (size 3 to 8) (size 9 to 14) (size 15 to 20)
#    0.000    1.600    2.667    2.800    0.000    2.667 
#    0.000    1.333    0.000    4.000    0.000    0.000 
#    0.000    0.000    0.000    0.000    0.000    0.000 
#
# Total GULP energy -167365.543690 kJ/mol
# GULP energy per Si atom -5578.851456 kJ/mol
# Density = 1.819991 g / cm^3
# Si number density = 18.241429 Si / 1000 Ang^3
#
#
#
# Elastic Constant Matrix: (Units=GPa)
#
#
# Indices 1 2 3 4 5 6 
#
# 1 86.2990 49.8255 52.3490 0.0000 12.4468 0.0000
# 2 49.8255 91.6609 44.1168 0.0000 0.9058 0.0000
# 3 52.3490 44.1168 107.7789 0.0000 -0.3815 0.0000
# 4 0.0000 0.0000 0.0000 -13.4755 0.0000 -43.9353
# 5 12.4468 0.9058 -0.3815 0.0000 34.8469 0.0000
# 6 0.0000 0.0000 0.0000 -43.9353 0.0000 -26.6223
#
#
#
# Elastic Compliance Matrix: (Units=1/GPa)
#
#
# Indices 1 2 3 4 5 6 
#
# 1 0.021917 -0.008345 -0.007256 0.000000 -0.007691 0.000000
# 2 -0.008345 0.016770 -0.002802 0.000000 0.002514 0.000000
# 3 -0.007256 -0.002802 0.013960 0.000000 0.002818 0.000000
# 4 0.000000 0.000000 0.000000 0.016940 0.000000 -0.027956
# 5 -0.007691 0.002514 0.002818 0.000000 0.031410 0.000000
# 6 0.000000 0.000000 0.000000 -0.027956 0.000000 0.008575
#
#
# Mechanical properties :
#
#
# Convention : Reuss Voigt Hill
#
# Bulk Modulus (GPa) = 63.13568 64.25795 63.69682
# Shear Modulus (GPa) = 32.96899 8.24631 20.60765
#
# Velocity S-wave (km/s) = 4.25593 2.12849 3.36477
# Velocity P-wave (km/s) = 7.67052 6.42989 7.07744
#
# Compressibility (1/GPa) = 0.01583891
#
# Stress axis : x y z
#
# Youngs Moduli (GPa) = 45.62728 59.63069 71.63432
#
# Poissons Ratio (x) = 0.49762 0.51981
# Poissons Ratio (y) = 0.38076 0.20074
# Poissons Ratio (z) = 0.33109 0.16710
#
# Static dielectric constant tensor:
#      x y z
#    x 1.600190 0.000000 -0.025240 
#    y 0.000000 1.628190 0.000000 
#    z -0.025240 0.000000 1.646620 
# 
# From -- ./inp_files/238539.got.cif
#   From: 2010.05.17/outbox.cif.g08.bks.cpg/sg12_120_cif.got.tgz:238539.got - 2010.06.03 13:09:07.
