data_PCOD9168467
_publ_section_title
;
Structure prediction by ZEFSAII (Michael W. Deem and Ramdas Pophale) SiO2 
 PCOD9168467
Probable space group: C 2/M
;
_chemical_formula_sum "Si O2"
_cell_formula_units_Z 44
_cell_length_a 26.871567
_cell_length_b 11.704163
_cell_length_c 9.294549
_cell_angle_alpha 90.000000
_cell_angle_beta 50.207600
_cell_angle_gamma 90.000000
_cell_volume 2246.110846
_symmetry_space_group_name_H-M "C 2/M"
_symmetry_group_IT_number 12
_symmetry_cell_setting 'monoclinic'
loop_
_space_group_symop_operation_xyz
x,y,z
-x,y,-z
-x,-y,-z
x,-y,z
1/2+x,1/2+y,z
1/2-x,1/2+y,-z
1/2-x,1/2-y,-z
1/2+x,1/2-y,z
loop_
_atom_site_type_symbol
_atom_site_label
_atom_site_fract_x
_atom_site_fract_y
_atom_site_fract_z
Si Si1 0.330116 0.000000 0.626467
Si Si2 0.363386 0.260080 0.942624
Si Si3 0.140701 0.864859 0.365489
Si Si4 0.515257 0.000000 0.655072
Si Si5 0.239362 0.277545 0.354375
Si Si6 0.494572 0.746982 0.334776
Si Si7 0.629972 0.000000 0.143931
O O1 0.407048 0.000000 0.494258
O O2 0.303846 0.888634 0.597458
O O3 0.318395 0.000000 0.820595
O O4 0.350509 0.300058 0.803001
O O5 0.436327 0.303751 0.839421
O O6 0.361699 0.121378 0.948747
O O7 0.307643 0.300388 0.150696
O O8 0.200347 0.826196 0.353029
O O9 0.071906 0.821873 0.559120
O O10 0.138195 0.000000 0.347968
O O11 0.507572 0.871960 0.732687
O O12 0.448746 0.000000 0.677856
O O13 0.250000 0.250000 0.500000
O O14 0.500000 0.764141 0.500000
#
# Coordination Sequence:
#
# PCOD9168467 Si02
#       7
#     4   8   8   4   8   8   4
#     4  12  21  39  67  88 122 162 201 250 316 363
#     4  10  22  39  64  93 123 154 202 260 306 365
#     4  11  23  39  64  90 122 158 204 258 307 362
#     4  10  15  32  62  97 118 143 195 261 313 363
#     4  12  28  42  58  87 127 170 205 243 301 370
#     4   9  17  34  60  92 119 149 194 254 312 356
#     4  10  19  35  71  98 116 145 204 271 323 344
#
# _framework density 19.589417000000001
#
# number of rings (size 3 to 8) (size 9 to 14) (size 15 to 20)
#    0.000    1.455    3.636    3.273    3.818    3.273 
#    0.000    0.909    0.000    3.273    0.000    0.000 
#    0.000    0.000    0.000    0.000    0.000    0.000 
#
# Total GULP energy -122485.844689 kJ/mol
# GULP energy per Si atom -5567.538395 kJ/mol
# Density = 1.954483 g / cm^3
# Si number density = 19.589417 Si / 1000 Ang^3
#
#
#
# Elastic Constant Matrix: (Units=GPa)
#
#
# Indices 1 2 3 4 5 6 
#
# 1 103.7073 37.0202 119.7130 0.0000 -49.0905 0.0000
# 2 37.0202 95.4499 34.1991 0.0000 -23.1636 0.0000
# 3 119.7130 34.1991 108.4496 0.0000 -36.0494 0.0000
# 4 0.0000 0.0000 0.0000 17.4883 0.0000 -19.2826
# 5 -49.0905 -23.1636 -36.0494 0.0000 30.0078 0.0000
# 6 0.0000 0.0000 0.0000 -19.2826 0.0000 30.9575
#
#
#
# Elastic Compliance Matrix: (Units=1/GPa)
#
#
# Indices 1 2 3 4 5 6 
#
# 1 -0.029553 -0.002617 0.027811 0.000000 -0.016956 0.000000
# 2 -0.002617 0.012764 0.001192 0.000000 0.007003 0.000000
# 3 0.027811 0.001192 -0.010697 0.000000 0.033567 0.000000
# 4 0.000000 0.000000 0.000000 0.182559 0.000000 0.113711
# 5 -0.016956 0.007003 0.033567 0.000000 0.051316 0.000000
# 6 0.000000 0.000000 0.000000 0.113711 0.000000 0.103130
#
#
# Mechanical properties :
#
#
# Convention : Reuss Voigt Hill
#
# Bulk Modulus (GPa) = 39.54744 76.60792 58.07768
# Shear Modulus (GPa) = 18.85534 23.46905 21.16220
#
# Velocity S-wave (km/s) = 3.10583 3.46504 3.29034
# Velocity P-wave (km/s) = 5.75270 7.42969 6.64432
#
# Compressibility (1/GPa) = 0.02528609
#
# Stress axis : x y z
#
# Youngs Moduli (GPa) = -33.83784 78.34362 -93.48644
#
# Poissons Ratio (x) = 0.20506 2.59996
# Poissons Ratio (y) = -0.08857 0.11143
# Poissons Ratio (z) = 0.94107 -0.09338
#
# Static dielectric constant tensor:
#      x y z
#    x 1.696820 0.000000 -0.015180 
#    y 0.000000 1.686500 0.000000 
#    z -0.015180 0.000000 1.758230 
# 
# From -- ./inp_files/84116.got.cif
#   From: 2010.05.17/outbox.cif.g08.bks.cpg/sg12_43_cif.got.tgz:84116.got - 2010.06.03 13:09:07.
