data_PCOD9168364
_publ_section_title
;
Structure prediction by ZEFSAII (Michael W. Deem and Ramdas Pophale) SiO2 
 PCOD9168364
Probable space group: C 2/M
;
_chemical_formula_sum "Si O2"
_cell_formula_units_Z 64
_cell_length_a 21.130063
_cell_length_b 18.676806
_cell_length_c 18.870059
_cell_angle_alpha 90.000000
_cell_angle_beta 154.702849
_cell_angle_gamma 90.000000
_cell_volume 3182.164815
_symmetry_space_group_name_H-M "C 2/M"
_symmetry_group_IT_number 12
_symmetry_cell_setting 'monoclinic'
loop_
_space_group_symop_operation_xyz
x,y,z
-x,y,-z
-x,-y,-z
x,-y,z
1/2+x,1/2+y,z
1/2-x,1/2+y,-z
1/2-x,1/2-y,-z
1/2+x,1/2-y,z
loop_
_atom_site_type_symbol
_atom_site_label
_atom_site_fract_x
_atom_site_fract_y
_atom_site_fract_z
Si Si1 0.087470 0.266410 0.414974
Si Si2 0.502992 0.326149 0.798489
Si Si3 0.672432 0.921663 0.720349
Si Si4 0.269972 0.418211 0.058823
Si Si5 0.750503 0.274905 0.880357
Si Si6 0.832804 0.269286 0.351141
Si Si7 0.000181 0.918855 0.082717
Si Si8 0.982224 0.578286 0.666231
O O1 0.100827 0.213928 0.362220
O O2 0.911507 0.256355 0.260158
O O3 0.105154 0.348841 0.411163
O O4 0.182136 0.250593 0.581551
O O5 0.591414 0.387812 0.845480
O O6 0.431185 0.363482 0.793978
O O7 0.624698 0.269058 0.950675
O O8 0.672742 0.854807 0.668523
O O9 0.544661 0.918009 0.649142
O O10 0.670197 0.000000 0.683162
O O11 0.823971 0.918914 0.918562
O O12 0.294975 0.500000 0.107740
O O13 0.246151 0.357892 0.094611
O O14 0.124894 0.418540 0.862165
O O15 0.767182 0.262760 0.812908
O O16 0.000000 0.246451 0.500000
O O17 0.055861 0.000000 0.145847
O O18 0.000000 0.898813 0.000000
O O19 0.910646 0.500000 0.603658
#
# Coordination Sequence:
#
# PCOD9168364 Si02
#       8
#     8   8   8   8   8   8   8   8
#     4  10  17  25  38  61  86 115 142 165 201 249
#     4  11  16  28  44  59  82 113 142 173 209 247
#     4  10  17  26  40  60  89 120 141 164 208 255
#     4  10  16  23  39  60  84 112 140 168 202 241
#     4  10  16  26  40  58  83 117 144 167 200 241
#     4  10  17  26  38  59  89 119 142 165 197 249
#     4  10  19  30  46  66  84 105 140 182 215 244
#     4  10  15  22  37  61  90 114 138 161 196 254
#
# _framework density 20.112095
#
# number of rings (size 3 to 8) (size 9 to 14) (size 15 to 20)
#    0.000    1.875    7.500    1.125    0.000    0.750 
#    0.000    0.000    0.000   10.875    0.000    0.000 
#    0.000    2.000    0.000    0.000    0.000    0.000 
#
# Total GULP energy -178628.402279 kJ/mol
# GULP energy per Si atom -5582.137571 kJ/mol
# Density = 2.006632 g / cm^3
# Si number density = 20.112095 Si / 1000 Ang^3
#
#
#
# Elastic Constant Matrix: (Units=GPa)
#
#
# Indices 1 2 3 4 5 6 
#
# 1 55.3240 53.5624 34.4128 -0.0001 -30.2950 -0.0002
# 2 53.5624 164.1874 49.5967 0.0004 -38.3698 0.0003
# 3 34.4128 49.5967 89.6341 -0.0001 -31.1266 -0.0002
# 4 -0.0001 0.0004 -0.0001 24.3957 -0.0001 -11.8171
# 5 -30.2950 -38.3698 -31.1266 -0.0001 40.8804 -0.0002
# 6 -0.0002 0.0003 -0.0002 -11.8171 -0.0002 19.8419
#
#
#
# Elastic Compliance Matrix: (Units=1/GPa)
#
#
# Indices 1 2 3 4 5 6 
#
# 1 0.036920 -0.006550 -0.004329 0.000001 0.017917 0.000001
# 2 -0.006550 0.009367 -0.001769 0.000000 0.002592 0.000000
# 3 -0.004329 -0.001769 0.016458 0.000000 0.007664 0.000000
# 4 0.000001 0.000000 0.000000 0.057611 0.000001 0.034311
# 5 0.017917 0.002592 0.007664 0.000001 0.046007 0.000001
# 6 0.000001 0.000000 0.000000 0.034311 0.000001 0.070833
#
#
# Mechanical properties :
#
#
# Convention : Reuss Voigt Hill
#
# Bulk Modulus (GPa) = 26.70089 64.92104 45.81096
# Shear Modulus (GPa) = 18.18359 28.46184 23.32271
#
# Velocity S-wave (km/s) = 3.01011 3.76594 3.40904
# Velocity P-wave (km/s) = 5.03844 7.15957 6.19053
#
# Compressibility (1/GPa) = 0.03745194
#
# Stress axis : x y z
#
# Youngs Moduli (GPa) = 27.08547 106.75595 60.75992
#
# Poissons Ratio (x) = 0.69922 0.26300
# Poissons Ratio (y) = 0.17740 0.10745
# Poissons Ratio (z) = 0.11724 0.18880
#
# Static dielectric constant tensor:
#      x y z
#    x 1.790610 0.000000 0.028450 
#    y 0.000000 1.727440 0.000000 
#    z 0.028450 0.000000 1.771700 
# 
# From -- ./inp_files/176879.got.cif
#   From: 2010.05.17/outbox.cif.g08.bks.cpg/sg12_89_cif.got.tgz:176879.got - 2010.06.03 13:09:07.
