data_PCOD9168150
_publ_section_title
;
Structure prediction by ZEFSAII (Michael W. Deem and Ramdas Pophale) SiO2 
 PCOD9168150
Probable space group: P 21/M
;
_chemical_formula_sum "Si O2"
_cell_formula_units_Z 24
_cell_length_a 12.000000
_cell_length_b 9.000000
_cell_length_c 12.000000
_cell_angle_alpha 90.000000
_cell_angle_beta 90.000000
_cell_angle_gamma 90.000000
_cell_volume 1296.000000
_symmetry_space_group_name_H-M "P 21/M"
_symmetry_group_IT_number 11
_symmetry_cell_setting 'monoclinic'
loop_
_space_group_symop_operation_xyz
x,y,z
-x,1/2+y,-z
-x,-y,-z
x,1/2-y,z
loop_
_atom_site_type_symbol
_atom_site_label
_atom_site_fract_x
_atom_site_fract_y
_atom_site_fract_z
Si Si1 0.661908 0.423786 0.255341
Si Si2 0.140614 0.573593 0.906936
Si Si3 0.527815 0.074046 0.881198
Si Si4 0.706695 0.925364 0.723438
Si Si5 0.892370 0.925937 0.876328
Si Si6 0.619515 0.076180 0.507483
O O1 0.628589 0.250000 0.234204
O O2 0.775152 0.454052 0.191396
O O3 0.571791 0.533000 0.203133
O O4 0.673656 0.440464 0.386642
O O5 0.136037 0.750000 0.924371
O O6 0.017689 0.516542 0.878594
O O7 0.173771 0.499047 0.022234
O O8 0.542018 0.250000 0.894788
O O9 0.631877 0.000791 0.818507
O O10 0.500000 0.000000 0.000000
O O11 0.681888 0.750000 0.721295
O O12 0.832741 0.950727 0.760563
O O13 0.683424 0.997101 0.605904
O O14 0.893350 0.750000 0.896222
O O15 0.606782 0.250000 0.532297
O O16 0.500000 0.000000 0.500000
#
# Coordination Sequence:
#
# PCOD9168150 Si02
#       6
#     4   4   4   4   4   4
#     4  10  21  37  57  80 109 143 184 229 275 331
#     4   9  18  35  58  82 109 143 181 224 276 330
#     4  12  24  36  54  80 112 144 179 226 279 334
#     4  11  22  37  56  80 112 146 186 229 274 330
#     4   9  19  35  56  82 111 144 180 224 276 328
#     4  11  22  37  57  80 109 148 189 231 278 328
#
# _framework density 18.518519000000001
#
# number of rings (size 3 to 8) (size 9 to 14) (size 15 to 20)
#    0.000    1.667    1.667    3.500    0.000    5.333 
#    0.000    0.833    0.000    0.000    0.000    0.000 
#    0.000    0.000    0.000    0.000    0.000    0.000 
#
# Total GULP energy -133868.850605 kJ/mol
# GULP energy per Si atom -5577.868775 kJ/mol
# Density = 1.847637 g / cm^3
# Si number density = 18.518519 Si / 1000 Ang^3
#
#
#
# Elastic Constant Matrix: (Units=GPa)
#
#
# Indices 1 2 3 4 5 6 
#
# 1 5.6164 -8.3415 56.2473 0.0000 133.7406 0.0000
# 2 -8.3415 3.7597 27.4482 0.0000 161.0965 0.0000
# 3 56.2473 27.4482 59.0597 0.0000 64.1941 0.0000
# 4 0.0000 0.0000 0.0000 32.6387 0.0000 4.7251
# 5 133.7406 161.0965 64.1941 0.0000 -301.0954 0.0000
# 6 0.0000 0.0000 0.0000 4.7251 0.0000 12.0112
#
#
#
# Elastic Compliance Matrix: (Units=1/GPa)
#
#
# Indices 1 2 3 4 5 6 
#
# 1 -0.027933 -0.006551 0.038112 0.000000 -0.007787 0.000000
# 2 -0.006551 0.025158 -0.013737 0.000000 0.007622 0.000000
# 3 0.038112 -0.013737 -0.018991 0.000000 0.005530 0.000000
# 4 0.000000 0.000000 0.000000 0.032489 0.000000 -0.012781
# 5 -0.007787 0.007622 0.005530 0.000000 -0.001523 0.000000
# 6 0.000000 0.000000 0.000000 -0.012781 0.000000 0.088283
#
#
# Mechanical properties :
#
#
# Convention : Reuss Voigt Hill
#
# Bulk Modulus (GPa) = 72.04366 24.34931 48.19649
# Shear Modulus (GPa) = 75.23008 -51.75029 11.73989
#
# Velocity S-wave (km/s) = 6.38063 -5.29205 2.52058
# Velocity P-wave (km/s) = 9.65771 4.91568 5.87824
#
# Compressibility (1/GPa) = 0.01388047
#
# Stress axis : x y z
#
# Youngs Moduli (GPa) = -35.79969 39.74854 -52.65633
#
# Poissons Ratio (x) = 0.26041 2.00683
# Poissons Ratio (y) = -0.23454 -0.72335
# Poissons Ratio (z) = 1.36439 0.54603
#
# Static dielectric constant tensor:
#      x y z
#    x 1.677930 0.000000 0.003080 
#    y 0.000000 1.623510 0.000000 
#    z 0.003080 0.000000 1.593090 
# 
# From -- ./inp_files/33779.got.cif
#   From: 2010.05.17/outbox.ucp.g08.bks.cvg/sg11_17_cif.got.tgz:33779.got - 2010.06.11 11:38:39.
