data_PCOD9168405
_publ_section_title
;
Structure prediction by ZEFSAII (Michael W. Deem and Ramdas Pophale) SiO2 
 PCOD9168405
Probable space group: C 2/M
;
_chemical_formula_sum "Si O2"
_cell_formula_units_Z 56
_cell_length_a 20.336714
_cell_length_b 23.947100
_cell_length_c 8.644065
_cell_angle_alpha 90.000000
_cell_angle_beta 48.546090
_cell_angle_gamma 90.000000
_cell_volume 3155.126011
_symmetry_space_group_name_H-M "C 2/M"
_symmetry_group_IT_number 12
_symmetry_cell_setting 'monoclinic'
loop_
_space_group_symop_operation_xyz
x,y,z
-x,y,-z
-x,-y,-z
x,-y,z
1/2+x,1/2+y,z
1/2-x,1/2+y,-z
1/2-x,1/2-y,-z
1/2+x,1/2-y,z
loop_
_atom_site_type_symbol
_atom_site_label
_atom_site_fract_x
_atom_site_fract_y
_atom_site_fract_z
Si Si1 0.683352 0.745078 0.409103
Si Si2 0.733828 0.156041 0.096766
Si Si3 0.416488 0.320574 0.704845
Si Si4 0.398498 0.062274 0.207315
Si Si5 0.074312 0.398577 0.492343
Si Si6 0.494808 0.216751 0.249317
Si Si7 0.335763 0.171558 0.145619
O O1 0.721577 0.795526 0.245120
O O2 0.633586 0.707081 0.360454
O O3 0.602515 0.762796 0.643345
O O4 0.762891 0.708115 0.346950
O O5 0.665500 0.109636 0.260298
O O6 0.838577 0.147354 0.915604
O O7 0.695765 0.171490 0.985820
O O8 0.500000 0.352067 0.500000
O O9 0.456552 0.268086 0.738492
O O10 0.402292 0.071724 0.384781
O O11 0.344295 0.110605 0.206654
O O12 0.367274 0.000000 0.217706
O O13 0.500000 0.067154 0.000000
O O14 0.030833 0.338187 0.608755
O O15 0.000000 0.425643 0.500000
O O16 0.566739 0.196253 0.016574
#
# Coordination Sequence:
#
# PCOD9168405 Si02
#       7
#     8   8   8   8   8   8   8
#     4   9  16  23  46  77 103 139 174 188 235 314
#     4  10  16  27  48  77 100 138 173 194 242 324
#     4   9  14  22  41  74 107 134 164 195 230 293
#     4  11  24  38  51  69  96 136 183 222 262 300
#     4  11  19  33  52  70  96 134 170 208 257 308
#     4  10  15  26  46  74 105 141 161 189 242 307
#     4  11  17  32  51  71 108 143 164 208 255 294
#
# _framework density 17.748895000000001
#
# number of rings (size 3 to 8) (size 9 to 14) (size 15 to 20)
#    0.000    1.857    5.714    2.143    0.000    0.286 
#    0.000    3.571    3.143    0.000    0.000    0.000 
#    0.000   57.714    0.000    0.000    0.000    0.000 
#
# Total GULP energy -155905.325304 kJ/mol
# GULP energy per Si atom -5568.047332 kJ/mol
# Density = 1.770850 g / cm^3
# Si number density = 17.748895 Si / 1000 Ang^3
#
#
#
# Elastic Constant Matrix: (Units=GPa)
#
#
# Indices 1 2 3 4 5 6 
#
# 1 83.2083 37.8712 35.4720 0.0000 -24.5200 0.0000
# 2 37.8712 65.4161 32.4019 0.0000 -11.1394 0.0000
# 3 35.4720 32.4019 139.4330 0.0000 -35.4070 0.0000
# 4 0.0000 0.0000 0.0000 2.3011 0.0000 1.3116
# 5 -24.5200 -11.1394 -35.4070 0.0000 29.0263 0.0000
# 6 0.0000 0.0000 0.0000 1.3116 0.0000 82.4948
#
#
#
# Elastic Compliance Matrix: (Units=1/GPa)
#
#
# Indices 1 2 3 4 5 6 
#
# 1 0.020353 -0.009695 0.000719 0.000000 0.014349 0.000000
# 2 -0.009695 0.022021 -0.003744 0.000000 -0.004307 0.000000
# 3 0.000719 -0.003744 0.011081 0.000000 0.012687 0.000000
# 4 0.000000 0.000000 0.000000 0.438553 0.000000 -0.006973
# 5 0.014349 -0.004307 0.012687 0.000000 0.060397 0.000000
# 6 0.000000 0.000000 0.000000 -0.006973 0.000000 0.012233
#
#
# Mechanical properties :
#
#
# Convention : Reuss Voigt Hill
#
# Bulk Modulus (GPa) = 35.69768 55.50527 45.60148
# Shear Modulus (GPa) = 8.34144 34.91857 21.63001
#
# Velocity S-wave (km/s) = 2.17023 4.44031 3.49473
# Velocity P-wave (km/s) = 5.14161 7.59137 6.48325
#
# Compressibility (1/GPa) = 0.02801303
#
# Stress axis : x y z
#
# Youngs Moduli (GPa) = 49.13342 45.41114 90.24594
#
# Poissons Ratio (x) = 0.44028 -0.06490
# Poissons Ratio (y) = 0.47637 0.33792
# Poissons Ratio (z) = -0.03533 0.17004
#
# Static dielectric constant tensor:
#      x y z
#    x 1.683620 0.000000 0.052880 
#    y 0.000000 1.608190 0.000000 
#    z 0.052880 0.000000 1.726210 
# 
# From -- ./inp_files/79646.got.cif
#   From: 2010.05.17/outbox.cif.g08.bks.cpg/sg12_40_cif.got.tgz:79646.got - 2010.06.03 13:09:07.
