data_PCOD9168388
_publ_section_title
;
Structure prediction by ZEFSAII (Michael W. Deem and Ramdas Pophale) SiO2 
 PCOD9168388
Probable space group: C 2/M
;
_chemical_formula_sum "Si O2"
_cell_formula_units_Z 64
_cell_length_a 19.773043
_cell_length_b 23.593014
_cell_length_c 8.418250
_cell_angle_alpha 90.000000
_cell_angle_beta 62.868602
_cell_angle_gamma 90.000000
_cell_volume 3495.028509
_symmetry_space_group_name_H-M "C 2/M"
_symmetry_group_IT_number 12
_symmetry_cell_setting 'monoclinic'
loop_
_space_group_symop_operation_xyz
x,y,z
-x,y,-z
-x,-y,-z
x,-y,z
1/2+x,1/2+y,z
1/2-x,1/2+y,-z
1/2-x,1/2-y,-z
1/2+x,1/2-y,z
loop_
_atom_site_type_symbol
_atom_site_label
_atom_site_fract_x
_atom_site_fract_y
_atom_site_fract_z
Si Si1 0.689626 0.709392 0.856645
Si Si2 0.659158 0.351474 0.346125
Si Si3 0.433158 0.150450 0.669146
Si Si4 0.046974 0.935413 0.617462
Si Si5 0.801506 0.665623 0.015861
Si Si6 0.444823 0.652098 0.858373
Si Si7 0.332466 0.223814 0.533830
Si Si8 0.027286 0.732291 0.795672
O O1 0.673312 0.772999 0.939989
O O2 0.743600 0.708636 0.643544
O O3 0.745049 0.683058 0.932463
O O4 0.613689 0.671655 0.941491
O O5 0.620013 0.396002 0.505583
O O6 0.745769 0.364542 0.201087
O O7 0.606028 0.349787 0.246265
O O8 0.660222 0.287134 0.405972
O O9 0.500000 0.117434 0.500000
O O10 0.378931 0.181981 0.601153
O O11 0.481748 0.196153 0.715458
O O12 0.371759 0.130270 0.867395
O O13 0.000000 0.935937 0.500000
O O14 0.992360 0.905490 0.804952
O O15 0.065904 0.000000 0.636606
O O16 0.504504 0.703256 0.783337
O O17 0.383127 0.222057 0.322057
O O18 0.000000 0.717487 0.000000
#
# Coordination Sequence:
#
# PCOD9168388 Si02
#       8
#     8   8   8   8   8   8   8   8
#     4   8  13  21  36  54  68  88 127 160 182 218
#     4   9  14  22  42  55  69  94 124 165 194 208
#     4   9  15  23  38  52  72  98 125 152 180 217
#     4   9  17  24  36  60  80  96 126 159 189 220
#     4   8  12  20  34  58  71  84 124 162 186 215
#     4  10  15  25  39  51  73 100 126 158 188 210
#     4   9  15  25  39  54  68  94 131 157 185 220
#     4  11  19  24  33  54  78 101 126 149 183 227
#
# _framework density 18.311724000000002
#
# number of rings (size 3 to 8) (size 9 to 14) (size 15 to 20)
#    0.000    2.875    3.750    1.500    0.000    0.000 
#    0.000    0.625    0.000    0.375    0.000    0.000 
#    0.000    0.500    0.000    4.375    0.000   10.500 
#
# Total GULP energy -178148.800070 kJ/mol
# GULP energy per Si atom -5567.150002 kJ/mol
# Density = 1.827005 g / cm^3
# Si number density = 18.311724 Si / 1000 Ang^3
#
#
#
# Elastic Constant Matrix: (Units=GPa)
#
#
# Indices 1 2 3 4 5 6 
#
# 1 51.5655 0.2635 26.9158 0.0000 -20.3764 0.0000
# 2 0.2635 37.3867 22.2722 0.0000 -17.3415 0.0000
# 3 26.9158 22.2722 136.4546 0.0000 -52.2113 0.0000
# 4 0.0000 0.0000 0.0000 10.9894 0.0000 -7.0517
# 5 -20.3764 -17.3415 -52.2113 0.0000 40.0969 0.0000
# 6 0.0000 0.0000 0.0000 -7.0517 0.0000 0.1088
#
#
#
# Elastic Compliance Matrix: (Units=1/GPa)
#
#
# Indices 1 2 3 4 5 6 
#
# 1 0.025797 0.007378 -0.000111 0.000000 0.016156 0.000000
# 2 0.007378 0.035572 0.000119 0.000000 0.019289 0.000000
# 3 -0.000111 0.000119 0.014606 0.000000 0.019014 0.000000
# 4 0.000000 0.000000 0.000000 -0.002242 0.000000 -0.145305
# 5 0.016156 0.019289 0.019014 0.000000 0.066251 0.000000
# 6 0.000000 0.000000 0.000000 -0.145305 0.000000 -0.226446
#
#
# Mechanical properties :
#
#
# Convention : Reuss Voigt Hill
#
# Bulk Modulus (GPa) = 11.01958 36.03441 23.52700
# Shear Modulus (GPa) = -70.43755 21.96938 -24.23409
#
# Velocity S-wave (km/s) = -6.20881 3.46749 -3.64183
# Velocity P-wave (km/s) = 6.73560 5.97933 2.19270
#
# Compressibility (1/GPa) = 0.09074756
#
# Stress axis : x y z
#
# Youngs Moduli (GPa) = 38.76387 28.11235 68.46323
#
# Poissons Ratio (x) = -0.20742 0.00760
# Poissons Ratio (y) = -0.28601 -0.00815
# Poissons Ratio (z) = 0.00431 -0.00335
#
# Static dielectric constant tensor:
#      x y z
#    x 1.676350 0.000000 -0.023140 
#    y 0.000000 1.570430 0.000000 
#    z -0.023140 0.000000 1.781170 
# 
# From -- ./inp_files/106703.got.cif
#   From: 2010.05.17/outbox.cif.g08.bks.cpg/sg12_54_cif.got.tgz:106703.got - 2010.06.03 13:09:07.
