data_PCOD9168439
_publ_section_title
;
Structure prediction by ZEFSAII (Michael W. Deem and Ramdas Pophale) SiO2 
 PCOD9168439
Probable space group: C 2/M
;
_chemical_formula_sum "Si O2"
_cell_formula_units_Z 36
_cell_length_a 24.447061
_cell_length_b 7.551700
_cell_length_c 8.539202
_cell_angle_alpha 90.000000
_cell_angle_beta 90.953178
_cell_angle_gamma 90.000000
_cell_volume 1576.262602
_symmetry_space_group_name_H-M "C 2/M"
_symmetry_group_IT_number 12
_symmetry_cell_setting 'monoclinic'
loop_
_space_group_symop_operation_xyz
x,y,z
-x,y,-z
-x,-y,-z
x,-y,z
1/2+x,1/2+y,z
1/2-x,1/2+y,-z
1/2-x,1/2-y,-z
1/2+x,1/2-y,z
loop_
_atom_site_type_symbol
_atom_site_label
_atom_site_fract_x
_atom_site_fract_y
_atom_site_fract_z
Si Si1 0.618961 0.782582 0.995950
Si Si2 0.672888 0.290532 0.657739
Si Si3 0.003861 0.500000 0.275751
Si Si4 0.776789 0.289054 0.831418
Si Si5 0.500000 0.733093 0.000000
Si Si6 0.899019 0.500000 0.500797
O O1 0.661336 0.731463 0.135521
O O2 0.611086 0.000000 0.997346
O O3 0.644219 0.737238 0.826914
O O4 0.562863 0.678525 0.012512
O O5 0.672096 0.500000 0.620095
O O6 0.735294 0.225163 0.695368
O O7 0.639232 0.168837 0.536331
O O8 0.066322 0.500000 0.338963
O O9 0.996465 0.664785 0.163431
O O10 0.952330 0.500000 0.389102
O O11 0.778146 0.500000 0.812137
O O12 0.750000 0.250000 0.000000
#
# Coordination Sequence:
#
# PCOD9168439 Si02
#       6
#     8   8   4   8   4   4
#     4  10  15  28  51  77 106 138 172 215 263 310
#     4  10  18  32  51  79 109 137 174 219 262 311
#     4  10  20  32  56  84 102 138 184 213 258 326
#     4   8  16  24  42  74 103 132 168 216 259 301
#     4  11  16  32  57  82 103 141 180 211 269 322
#     4  11  20  36  56  78 108 139 176 221 263 303
#
# _framework density 22.838835
#
# number of rings (size 3 to 8) (size 9 to 14) (size 15 to 20)
#    0.000    2.222    5.556    0.000    1.556    0.000 
#    0.000    2.778    0.000    1.333    0.000    0.000 
#    0.000    0.000    0.000    0.000    0.000    0.000 
#
# Total GULP energy -100237.632933 kJ/mol
# GULP energy per Si atom -5568.757385 kJ/mol
# Density = 2.278685 g / cm^3
# Si number density = 22.838835 Si / 1000 Ang^3
#
#
#
# Elastic Constant Matrix: (Units=GPa)
#
#
# Indices 1 2 3 4 5 6 
#
# 1 165.8847 41.6048 45.7579 0.0000 76.3706 0.0000
# 2 41.6048 117.1658 28.7153 0.0000 34.2926 0.0000
# 3 45.7579 28.7153 73.5619 0.0000 43.8556 0.0000
# 4 0.0000 0.0000 0.0000 -48.2059 0.0000 17.6366
# 5 76.3706 34.2926 43.8556 0.0000 61.2286 0.0000
# 6 0.0000 0.0000 0.0000 17.6366 0.0000 -7.7802
#
#
#
# Elastic Compliance Matrix: (Units=1/GPa)
#
#
# Indices 1 2 3 4 5 6 
#
# 1 0.014550 0.000043 0.003083 0.000000 -0.020380 0.000000
# 2 0.000043 0.010251 -0.001001 0.000000 -0.005078 0.000000
# 3 0.003083 -0.001001 0.024478 0.000000 -0.020817 0.000000
# 4 0.000000 0.000000 0.000000 -0.121556 0.000000 -0.275549
# 5 -0.020380 -0.005078 -0.020817 0.000000 0.059507 0.000000
# 6 0.000000 0.000000 0.000000 -0.275549 0.000000 -0.753155
#
#
# Mechanical properties :
#
#
# Convention : Reuss Voigt Hill
#
# Bulk Modulus (GPa) = 18.68158 65.41871 42.05014
# Shear Modulus (GPa) = -6.64600 17.08414 5.21907
#
# Velocity S-wave (km/s) = -1.70771 2.73798 1.51332
# Velocity P-wave (km/s) = 2.07585 6.22103 4.63737
#
# Compressibility (1/GPa) = 0.05352866
#
# Stress axis : x y z
#
# Youngs Moduli (GPa) = 68.72900 97.54907 40.85357
#
# Poissons Ratio (x) = -0.00418 -0.12595
# Poissons Ratio (y) = -0.00295 0.04089
# Poissons Ratio (z) = -0.21189 0.09764
#
# Static dielectric constant tensor:
#      x y z
#    x 1.908660 0.000000 0.010930 
#    y 0.000000 1.877870 0.000000 
#    z 0.010930 0.000000 1.838160 
# 
# From -- ./inp_files/101290.got.cif
#   From: 2010.05.17/outbox.cif.g08.bks.cpg/sg12_51_cif.got.tgz:101290.got - 2010.06.03 13:09:07.
