data_PCOD9168758
_publ_section_title
;
Structure prediction by ZEFSAII (Michael W. Deem and Ramdas Pophale) SiO2 
 PCOD9168758
Probable space group: C 2/M
;
_chemical_formula_sum "Si O2"
_cell_formula_units_Z 42
_cell_length_a 13.345487
_cell_length_b 26.541232
_cell_length_c 9.877270
_cell_angle_alpha 90.000000
_cell_angle_beta 149.232119
_cell_angle_gamma 90.000000
_cell_volume 1789.740577
_symmetry_space_group_name_H-M "C 2/M"
_symmetry_group_IT_number 12
_symmetry_cell_setting 'monoclinic'
loop_
_space_group_symop_operation_xyz
x,y,z
-x,y,-z
-x,-y,-z
x,-y,z
1/2+x,1/2+y,z
1/2-x,1/2+y,-z
1/2-x,1/2-y,-z
1/2+x,1/2-y,z
loop_
_atom_site_type_symbol
_atom_site_label
_atom_site_fract_x
_atom_site_fract_y
_atom_site_fract_z
Si Si1 0.189120 0.000000 0.599330
Si Si2 0.975641 0.695961 0.810786
Si Si3 0.453825 0.584762 0.742698
Si Si4 0.500000 0.500000 0.000000
Si Si5 0.416688 0.000000 0.129659
Si Si6 0.978028 0.806758 0.811482
Si Si7 0.479023 0.104453 0.633346
O O1 0.091100 0.052847 0.443531
O O2 0.381826 0.000000 0.725142
O O3 0.249532 0.000000 0.823900
O O4 0.061779 0.751265 0.876901
O O5 0.745600 0.696924 0.502410
O O6 0.054553 0.649389 0.816385
O O7 0.000000 0.687644 0.000000
O O8 0.556367 0.544048 0.956308
O O9 0.549685 0.639334 0.839462
O O10 0.246313 0.595760 0.579215
O O11 0.421992 0.949099 0.221009
O O12 0.000000 0.810892 0.000000
O O13 0.500000 0.117365 0.500000
#
# Coordination Sequence:
#
# PCOD9168758 Si02
#       7
#     4   8   8   2   4   8   8
#     4   8  16  26  42  77  96 118 161 218 247 286
#     4   9  19  31  52  78 101 131 177 219 256 299
#     4   9  17  28  49  75 104 126 173 214 259 294
#     4  10  16  28  46  82  96 130 168 234 236 298
#     4   9  17  27  46  67 101 127 159 201 261 307
#     4   9  16  30  50  77 101 132 167 219 258 298
#     4  10  20  32  48  75 108 136 164 208 269 324
#
# _framework density 23.467088
#
# number of rings (size 3 to 8) (size 9 to 14) (size 15 to 20)
#    0.000    2.857    0.952    0.857    8.000    0.000 
#    0.000    0.000    0.000   28.571    0.000   16.000 
#    0.000    0.000    0.000    0.000    0.000    0.000 
#
# Total GULP energy -116934.879202 kJ/mol
# GULP energy per Si atom -5568.327581 kJ/mol
# Density = 2.341368 g / cm^3
# Si number density = 23.467088 Si / 1000 Ang^3
#
#
#
# Elastic Constant Matrix: (Units=GPa)
#
#
# Indices 1 2 3 4 5 6 
#
# 1 119.3844 51.3051 43.1522 0.0000 2.5490 0.0000
# 2 51.3051 300.1073 62.6865 0.0000 -29.1440 0.0000
# 3 43.1522 62.6865 123.8106 0.0000 -32.1077 0.0000
# 4 0.0000 0.0000 0.0000 34.3844 0.0000 -19.7335
# 5 2.5490 -29.1440 -32.1077 0.0000 24.9782 0.0000
# 6 0.0000 0.0000 0.0000 -19.7335 0.0000 -4.3345
#
#
#
# Elastic Compliance Matrix: (Units=1/GPa)
#
#
# Indices 1 2 3 4 5 6 
#
# 1 0.011522 -0.001788 -0.005935 0.000000 -0.010891 0.000000
# 2 -0.001788 0.004147 -0.000262 0.000000 0.004685 0.000000
# 3 -0.005935 -0.000262 0.015534 0.000000 0.020268 0.000000
# 4 0.000000 0.000000 0.000000 0.008050 0.000000 -0.036649
# 5 -0.010891 0.004685 0.020268 0.000000 0.072666 0.000000
# 6 0.000000 0.000000 0.000000 -0.036649 0.000000 -0.063858
#
#
# Mechanical properties :
#
#
# Convention : Reuss Voigt Hill
#
# Bulk Modulus (GPa) = 65.64022 95.28776 80.46399
# Shear Modulus (GPa) = 72.34905 36.74952 54.54928
#
# Velocity S-wave (km/s) = 5.55850 3.96157 4.82654
# Velocity P-wave (km/s) = 8.32033 7.84974 8.08845
#
# Compressibility (1/GPa) = 0.01523456
#
# Stress axis : x y z
#
# Youngs Moduli (GPa) = 86.78737 241.11340 64.37418
#
# Poissons Ratio (x) = 0.43105 0.38207
# Poissons Ratio (y) = 0.15515 0.01686
# Poissons Ratio (z) = 0.51510 0.06313
#
# Static dielectric constant tensor:
#      x y z
#    x 1.893890 0.000000 0.089950 
#    y 0.000000 1.878980 0.000000 
#    z 0.089950 0.000000 1.928870 
# 
# From -- ./inp_files/67214.got.cif
#   From: 2010.05.17/outbox.cif.g08.bks.cpg/sg12_34_cif.got.tgz:67214.got - 2010.06.03 13:09:07.
