data_PCOD9168558
_publ_section_title
;
Structure prediction by ZEFSAII (Michael W. Deem and Ramdas Pophale) SiO2 
 PCOD9168558
Probable space group: C 2/M
;
_chemical_formula_sum "Si O2"
_cell_formula_units_Z 56
_cell_length_a 17.049924
_cell_length_b 25.882298
_cell_length_c 14.927782
_cell_angle_alpha 90.000000
_cell_angle_beta 152.368640
_cell_angle_gamma 90.000000
_cell_volume 3055.156998
_symmetry_space_group_name_H-M "C 2/M"
_symmetry_group_IT_number 12
_symmetry_cell_setting 'monoclinic'
loop_
_space_group_symop_operation_xyz
x,y,z
-x,y,-z
-x,-y,-z
x,-y,z
1/2+x,1/2+y,z
1/2-x,1/2+y,-z
1/2-x,1/2-y,-z
1/2+x,1/2-y,z
loop_
_atom_site_type_symbol
_atom_site_label
_atom_site_fract_x
_atom_site_fract_y
_atom_site_fract_z
Si Si1 0.719360 0.124999 0.852777
Si Si2 0.701539 0.940518 0.677417
Si Si3 0.620946 0.249758 0.203919
Si Si4 0.469161 0.690943 0.221675
Si Si5 0.979149 0.286023 0.617142
Si Si6 0.426524 0.061145 0.641066
Si Si7 0.323739 0.845569 0.633968
O O1 0.793810 0.097214 0.840184
O O2 0.598984 0.171244 0.696122
O O3 0.607154 0.081740 0.789192
O O4 0.834645 0.152324 0.043512
O O5 0.500000 0.938726 0.500000
O O6 0.700905 0.926658 0.571644
O O7 0.755485 0.000000 0.742548
O O8 0.547580 0.279029 0.216141
O O9 0.817591 0.266661 0.397723
O O10 0.617775 0.188726 0.223450
O O11 0.500000 0.262549 0.000000
O O12 0.419806 0.736183 0.242084
O O13 0.623007 0.660496 0.422726
O O14 0.902947 0.316096 0.627080
O O15 0.377237 0.095576 0.675961
O O16 0.426805 0.000000 0.654043
#
# Coordination Sequence:
#
# PCOD9168558 Si02
#       7
#     8   8   8   8   8   8   8
#     4  10  16  24  43  65  87 113 141 169 199 238
#     4   8  15  26  38  57  84 109 136 170 201 231
#     4   9  17  29  44  62  85 110 137 171 208 244
#     4   9  17  27  41  63  89 114 139 167 199 244
#     4   8  16  29  42  60  88 116 139 164 200 246
#     4   9  17  30  45  58  79 113 145 173 208 246
#     4   8  16  31  45  58  81 112 141 171 206 243
#
# _framework density 18.329664000000001
#
# number of rings (size 3 to 8) (size 9 to 14) (size 15 to 20)
#    0.000    3.286    0.000    3.429    0.000    5.714 
#    0.000    1.429    0.000    2.143    0.000    0.000 
#    0.000    5.143    0.000    0.000    0.000    0.000 
#
# Total GULP energy -155979.229097 kJ/mol
# GULP energy per Si atom -5570.686753 kJ/mol
# Density = 1.828795 g / cm^3
# Si number density = 18.329664 Si / 1000 Ang^3
#
#
#
# Elastic Constant Matrix: (Units=GPa)
#
#
# Indices 1 2 3 4 5 6 
#
# 1 8.7007 8.0504 -5.6461 0.0000 -0.9448 0.0000
# 2 8.0504 92.9688 18.3091 0.0000 2.2252 0.0000
# 3 -5.6461 18.3091 64.0725 0.0000 -7.5301 0.0000
# 4 0.0000 0.0000 0.0000 22.0790 0.0000 -8.7314
# 5 -0.9448 2.2252 -7.5301 0.0000 7.2552 0.0000
# 6 0.0000 0.0000 0.0000 -8.7314 0.0000 15.0842
#
#
#
# Elastic Compliance Matrix: (Units=1/GPa)
#
#
# Indices 1 2 3 4 5 6 
#
# 1 0.155559 -0.019771 0.025570 0.000000 0.052861 0.000000
# 2 -0.019771 0.014315 -0.007576 0.000000 -0.014828 0.000000
# 3 0.025570 -0.007576 0.023564 0.000000 0.030110 0.000000
# 4 0.000000 0.000000 0.000000 0.058738 0.000000 0.034000
# 5 0.052861 -0.014828 0.030110 0.000000 0.180515 0.000000
# 6 0.000000 0.000000 0.000000 0.034000 0.000000 0.085975
#
#
# Mechanical properties :
#
#
# Convention : Reuss Voigt Hill
#
# Bulk Modulus (GPa) = 5.26634 23.01878 14.14256
# Shear Modulus (GPa) = 8.53949 18.55225 13.54587
#
# Velocity S-wave (km/s) = 2.16078 3.18487 2.72143
# Velocity P-wave (km/s) = 3.01739 5.10980 4.19611
#
# Compressibility (1/GPa) = 0.18988515
#
# Stress axis : x y z
#
# Youngs Moduli (GPa) = 6.42842 69.85603 42.43758
#
# Poissons Ratio (x) = 1.38114 -1.08513
# Poissons Ratio (y) = 0.12710 0.32149
# Poissons Ratio (z) = -0.16438 0.52920
#
# Static dielectric constant tensor:
#      x y z
#    x 1.677670 0.000000 0.016570 
#    y 0.000000 1.654780 0.000000 
#    z 0.016570 0.000000 1.671550 
# 
# From -- ./inp_files/291035.got.cif
#   From: 2010.05.17/outbox.cif.g08.bks.cpg/sg12_146_cif.got.tgz:291035.got - 2010.06.03 13:09:07.
