data_PCOD9168803
_publ_section_title
;
Structure prediction by ZEFSAII (Michael W. Deem and Ramdas Pophale) SiO2 
 PCOD9168803
Probable space group: C 2/M
;
_chemical_formula_sum "Si O2"
_cell_formula_units_Z 46
_cell_length_a 16.480579
_cell_length_b 19.004347
_cell_length_c 10.931058
_cell_angle_alpha 90.000000
_cell_angle_beta 142.842976
_cell_angle_gamma 90.000000
_cell_volume 2067.881392
_symmetry_space_group_name_H-M "C 2/M"
_symmetry_group_IT_number 12
_symmetry_cell_setting 'monoclinic'
loop_
_space_group_symop_operation_xyz
x,y,z
-x,y,-z
-x,-y,-z
x,-y,z
1/2+x,1/2+y,z
1/2-x,1/2+y,-z
1/2-x,1/2-y,-z
1/2+x,1/2-y,z
loop_
_atom_site_type_symbol
_atom_site_label
_atom_site_fract_x
_atom_site_fract_y
_atom_site_fract_z
Si Si1 0.383449 0.208561 0.109135
Si Si2 0.880434 0.580766 0.436410
Si Si3 0.979761 0.166903 0.618939
Si Si4 0.000000 0.243337 0.000000
Si Si5 0.664160 0.625599 0.337146
Si Si6 0.500000 0.500000 0.000000
Si Si7 0.765459 0.919539 0.984631
O O1 0.497617 0.251512 0.319078
O O2 0.352721 0.127578 0.100175
O O3 0.250000 0.250000 0.000000
O O4 0.415533 0.217868 0.004592
O O5 0.919815 0.500000 0.511699
O O6 0.816743 0.615007 0.477760
O O7 0.759756 0.578579 0.191286
O O8 0.000000 0.613037 0.500000
O O9 0.000000 0.158046 0.500000
O O10 0.851175 0.137546 0.536028
O O11 0.098540 0.120982 0.823184
O O12 0.103374 0.194046 0.198156
O O13 0.575437 0.561173 0.176869
O O14 0.767978 0.000000 0.029850
#
# Coordination Sequence:
#
# PCOD9168803 Si02
#       7
#     8   8   8   4   8   2   8
#     4   9  18  37  59  83 119 157 201 256 306 372
#     4  10  20  34  55  85 121 159 202 253 307 365
#     4  10  22  37  60  94 129 165 200 252 324 380
#     4   9  18  33  61  88 107 146 210 260 309 354
#     4  10  18  31  57  89 120 151 204 266 308 354
#     4  10  16  28  56  88 118 152 194 268 318 336
#     4  10  21  37  61  89 122 163 208 258 315 373
#
# _framework density 22.244989
#
# number of rings (size 3 to 8) (size 9 to 14) (size 15 to 20)
#    0.000    2.261    0.870    4.174    3.652    1.043 
#    0.000    3.913    0.000   13.565    0.000    0.000 
#    0.000    0.000    0.000    0.000    0.000   10.435 
#
# Total GULP energy -128107.366975 kJ/mol
# GULP energy per Si atom -5569.885521 kJ/mol
# Density = 2.219436 g / cm^3
# Si number density = 22.244989 Si / 1000 Ang^3
#
#
#
# Elastic Constant Matrix: (Units=GPa)
#
#
# Indices 1 2 3 4 5 6 
#
# 1 222.7760 51.6334 17.9145 0.0000 -11.1536 0.0000
# 2 51.6334 125.5123 -5.6699 0.0000 0.3086 0.0000
# 3 17.9145 -5.6699 22.6162 0.0000 -3.4647 0.0000
# 4 0.0000 0.0000 0.0000 11.6893 0.0000 1.1258
# 5 -11.1536 0.3086 -3.4647 0.0000 33.0703 0.0000
# 6 0.0000 0.0000 0.0000 1.1258 0.0000 -14.2574
#
#
#
# Elastic Compliance Matrix: (Units=1/GPa)
#
#
# Indices 1 2 3 4 5 6 
#
# 1 0.005520 -0.002490 -0.004785 0.000000 0.001384 0.000000
# 2 -0.002490 0.009183 0.004200 0.000000 -0.000486 0.000000
# 3 -0.004785 0.004200 0.049602 0.000000 0.003544 0.000000
# 4 0.000000 0.000000 0.000000 0.084902 0.000000 0.006704
# 5 0.001384 -0.000486 0.003544 0.000000 0.031081 0.000000
# 6 0.000000 0.000000 0.000000 0.006704 0.000000 -0.069610
#
#
# Mechanical properties :
#
#
# Convention : Reuss Voigt Hill
#
# Bulk Modulus (GPa) = 17.19533 55.40672 36.30102
# Shear Modulus (GPa) = 36.70708 26.56889 31.63798
#
# Velocity S-wave (km/s) = 4.06658 3.45972 3.77537
# Velocity P-wave (km/s) = 5.45859 6.39697 5.94632
#
# Compressibility (1/GPa) = 0.05815533
#
# Stress axis : x y z
#
# Youngs Moduli (GPa) = 181.15698 108.89920 20.16042
#
# Poissons Ratio (x) = 0.27120 0.09647
# Poissons Ratio (y) = 0.45116 -0.08468
# Poissons Ratio (z) = 0.86681 -0.45742
#
# Static dielectric constant tensor:
#      x y z
#    x 1.936780 0.000000 0.085920 
#    y 0.000000 1.825650 0.000000 
#    z 0.085920 0.000000 1.917790 
# 
# From -- ./inp_files/159342.got.cif
#   From: 2010.05.17/outbox.cif.g08.bks.cpg/sg12_80_cif.got.tgz:159342.got - 2010.06.03 13:09:07.
