data_PCOD9168800
_publ_section_title
;
Structure prediction by ZEFSAII (Michael W. Deem and Ramdas Pophale) SiO2 
 PCOD9168800
Probable space group: C 2/M
;
_chemical_formula_sum "Si O2"
_cell_formula_units_Z 56
_cell_length_a 18.831572
_cell_length_b 29.887051
_cell_length_c 7.492804
_cell_angle_alpha 90.000000
_cell_angle_beta 144.919678
_cell_angle_gamma 90.000000
_cell_volume 2423.670169
_symmetry_space_group_name_H-M "C 2/M"
_symmetry_group_IT_number 12
_symmetry_cell_setting 'monoclinic'
loop_
_space_group_symop_operation_xyz
x,y,z
-x,y,-z
-x,-y,-z
x,-y,z
1/2+x,1/2+y,z
1/2-x,1/2+y,-z
1/2-x,1/2-y,-z
1/2+x,1/2-y,z
loop_
_atom_site_type_symbol
_atom_site_label
_atom_site_fract_x
_atom_site_fract_y
_atom_site_fract_z
Si Si1 0.591700 0.174066 0.848582
Si Si2 0.517533 0.594277 0.819634
Si Si3 0.405575 0.500000 0.976674
Si Si4 0.766080 0.838429 0.713637
Si Si5 0.538165 0.097329 0.283383
Si Si6 0.607360 0.000000 0.377483
Si Si7 0.161178 0.166317 0.546546
Si Si8 0.950139 0.231923 0.191697
O O1 0.500000 0.179470 0.500000
O O2 0.578637 0.121719 0.869310
O O3 0.554425 0.217305 0.889730
O O4 0.734779 0.182188 0.104293
O O5 0.395042 0.619197 0.504555
O O6 0.500000 0.594234 0.000000
O O7 0.556069 0.545021 0.843579
O O8 0.629211 0.627019 0.007876
O O9 0.255715 0.500000 0.627823
O O10 0.500000 0.500000 0.000000
O O11 0.640291 0.863279 0.507196
O O12 0.773906 0.837546 0.513195
O O13 0.815734 0.790891 0.885937
O O14 0.583119 0.047577 0.427918
O O15 0.500000 0.093428 0.000000
O O16 0.500000 0.000000 0.000000
O O17 0.049890 0.200955 0.298090
O O18 0.000000 0.229838 0.500000
#
# Coordination Sequence:
#
# PCOD9168800 Si02
#       8
#     8   8   4   8   8   4   8   8
#     4  11  26  41  60  87 123 167 213 256 311 385
#     4   8  16  29  53  79 114 149 185 242 297 357
#     4  10  16  28  54  90 121 157 196 251 317 374
#     4  10  19  37  59  85 124 153 199 250 308 363
#     4  11  22  39  62  93 122 163 208 257 311 369
#     4  10  22  36  61  96 132 163 210 268 318 375
#     4  10  21  40  56  87 125 156 207 252 314 374
#     4  10  24  39  61  89 118 166 206 258 309 373
#
# _framework density 23.105454999999999
#
# number of rings (size 3 to 8) (size 9 to 14) (size 15 to 20)
#    0.000    2.000    2.857    1.286    4.000    2.857 
#    0.000    0.357    0.000    0.000    0.000    3.500 
#    0.000    0.000    0.000    0.000    0.000    0.000 
#
# Total GULP energy -155941.157732 kJ/mol
# GULP energy per Si atom -5569.327062 kJ/mol
# Density = 2.305287 g / cm^3
# Si number density = 23.105455 Si / 1000 Ang^3
#
#
#
# Elastic Constant Matrix: (Units=GPa)
#
#
# Indices 1 2 3 4 5 6 
#
# 1 39.6053 16.4708 9.0518 0.0000 11.4990 0.0000
# 2 16.4708 184.3149 36.3557 0.0000 16.6410 0.0000
# 3 9.0518 36.3557 115.6047 0.0000 15.5907 0.0000
# 4 0.0000 0.0000 0.0000 24.3979 0.0000 -3.7182
# 5 11.4990 16.6410 15.5907 0.0000 25.1449 0.0000
# 6 0.0000 0.0000 0.0000 -3.7182 0.0000 -48.0867
#
#
#
# Elastic Compliance Matrix: (Units=1/GPa)
#
#
# Indices 1 2 3 4 5 6 
#
# 1 0.029507 -0.001483 -0.000171 0.000000 -0.012406 0.000000
# 2 -0.001483 0.006066 -0.001464 0.000000 -0.002429 0.000000
# 3 -0.000171 -0.001464 0.009802 0.000000 -0.005031 0.000000
# 4 0.000000 0.000000 0.000000 0.040510 0.000000 -0.003132
# 5 -0.012406 -0.002429 -0.005031 0.000000 0.050170 0.000000
# 6 0.000000 0.000000 0.000000 -0.003132 0.000000 -0.020554
#
#
# Mechanical properties :
#
#
# Convention : Reuss Voigt Hill
#
# Bulk Modulus (GPa) = 25.54947 51.47573 38.51260
# Shear Modulus (GPa) = 37.09646 18.80098 27.94872
#
# Velocity S-wave (km/s) = 4.01125 2.85564 3.48173
# Velocity P-wave (km/s) = 5.70397 5.76194 5.73303
#
# Compressibility (1/GPa) = 0.03913975
#
# Stress axis : x y z
#
# Youngs Moduli (GPa) = 33.89026 164.85146 102.01564
#
# Poissons Ratio (x) = 0.24447 0.01743
# Poissons Ratio (y) = 0.05026 0.14935
# Poissons Ratio (z) = 0.00579 0.24135
#
# Static dielectric constant tensor:
#      x y z
#    x 1.945140 0.000000 -0.008470 
#    y 0.000000 1.942330 0.000000 
#    z -0.008470 0.000000 1.904610 
# 
# From -- ./inp_files/91681.got.cif
#   From: 2010.05.17/outbox.cif.g08.bks.cpg/sg12_46_cif.got.tgz:91681.got - 2010.06.03 13:09:07.
