data_PCOD9168722
_publ_section_title
;
Structure prediction by ZEFSAII (Michael W. Deem and Ramdas Pophale) SiO2 
 PCOD9168722
Probable space group: C 2/M
;
_chemical_formula_sum "Si O2"
_cell_formula_units_Z 48
_cell_length_a 15.433222
_cell_length_b 18.401598
_cell_length_c 11.697115
_cell_angle_alpha 90.000000
_cell_angle_beta 142.012516
_cell_angle_gamma 90.000000
_cell_volume 2044.614450
_symmetry_space_group_name_H-M "C 2/M"
_symmetry_group_IT_number 12
_symmetry_cell_setting 'monoclinic'
loop_
_space_group_symop_operation_xyz
x,y,z
-x,y,-z
-x,-y,-z
x,-y,z
1/2+x,1/2+y,z
1/2-x,1/2+y,-z
1/2-x,1/2-y,-z
1/2+x,1/2-y,z
loop_
_atom_site_type_symbol
_atom_site_label
_atom_site_fract_x
_atom_site_fract_y
_atom_site_fract_z
Si Si1 0.356462 0.415778 0.005542
Si Si2 0.697973 0.774744 0.816923
Si Si3 0.056590 0.316427 0.317484
Si Si4 0.636322 0.339951 0.335923
Si Si5 0.366084 0.422717 0.443482
Si Si6 0.298445 0.876414 0.917613
O O1 0.332653 0.500000 0.949796
O O2 0.518928 0.392161 0.161012
O O3 0.300740 0.404554 0.080040
O O4 0.272750 0.349125 0.858531
O O5 0.536333 0.790603 0.671610
O O6 0.743925 0.700775 0.807515
O O7 0.750000 0.750000 0.000000
O O8 0.198965 0.350341 0.513795
O O9 0.093947 0.244575 0.282120
O O10 0.952367 0.365996 0.132620
O O11 0.627648 0.358823 0.460914
O O12 0.500000 0.417933 0.500000
O O13 0.376295 0.500000 0.517932
O O14 0.228907 0.424111 0.221162
#
# Coordination Sequence:
#
# PCOD9168722 Si02
#       6
#     8   8   8   8   8   8
#     4  10  16  27  47  69  94 124 162 203 241 290
#     4   8  14  30  47  67  84 127 168 212 231 278
#     4   9  18  31  49  63  91 130 175 215 234 271
#     4  11  18  30  46  71  96 131 166 206 246 293
#     4  11  21  31  47  73 107 139 162 196 251 312
#     4  10  17  33  49  68  95 138 169 204 236 301
#
# _framework density 23.476309000000001
#
# number of rings (size 3 to 8) (size 9 to 14) (size 15 to 20)
#    0.000    2.500    6.667    1.000    0.000    0.667 
#    0.000    9.167    0.000    0.000    0.000    0.000 
#    0.000   34.000    0.000    0.000    0.000    0.000 
#
# Total GULP energy -133788.919516 kJ/mol
# GULP energy per Si atom -5574.538313 kJ/mol
# Density = 2.342288 g / cm^3
# Si number density = 23.476309 Si / 1000 Ang^3
#
#
#
# Elastic Constant Matrix: (Units=GPa)
#
#
# Indices 1 2 3 4 5 6 
#
# 1 28.1089 12.0685 38.6034 0.0000 13.6059 0.0000
# 2 12.0685 141.7286 30.7561 0.0000 19.4613 0.0000
# 3 38.6034 30.7561 112.2179 0.0000 38.4409 0.0000
# 4 0.0000 0.0000 0.0000 24.8750 0.0000 0.9949
# 5 13.6059 19.4613 38.4409 0.0000 45.8673 0.0000
# 6 0.0000 0.0000 0.0000 0.9949 0.0000 8.5118
#
#
#
# Elastic Compliance Matrix: (Units=1/GPa)
#
#
# Indices 1 2 3 4 5 6 
#
# 1 0.067521 -0.000714 -0.022828 0.000000 -0.000594 0.000000
# 2 -0.000714 0.007649 -0.001138 0.000000 -0.002080 0.000000
# 3 -0.022828 -0.001138 0.020467 0.000000 -0.009899 0.000000
# 4 0.000000 0.000000 0.000000 0.040390 0.000000 -0.004721
# 5 -0.000594 -0.002080 -0.009899 0.000000 0.031156 0.000000
# 6 0.000000 0.000000 0.000000 -0.004721 0.000000 0.118035
#
#
# Mechanical properties :
#
#
# Convention : Reuss Voigt Hill
#
# Bulk Modulus (GPa) = 21.60956 49.43457 35.52206
# Shear Modulus (GPa) = 14.28547 29.22600 21.75573
#
# Velocity S-wave (km/s) = 2.46947 3.53216 3.04749
# Velocity P-wave (km/s) = 4.16603 6.14311 5.24851
#
# Compressibility (1/GPa) = 0.04627582
#
# Stress axis : x y z
#
# Youngs Moduli (GPa) = 14.81013 130.73359 48.85892
#
# Poissons Ratio (x) = 0.09335 1.11537
# Poissons Ratio (y) = 0.01058 0.05562
# Poissons Ratio (z) = 0.33809 0.14883
#
# Static dielectric constant tensor:
#      x y z
#    x 1.984980 0.000000 -0.001120 
#    y 0.000000 1.949090 0.000000 
#    z -0.001120 0.000000 1.932490 
# 
# From -- ./inp_files/284868.got.cif
#   From: 2010.05.17/outbox.cif.g08.bks.cpg/sg12_143_cif.got.tgz:284868.got - 2010.06.03 13:09:07.
