data_PCOD9168826
_publ_section_title
;
Structure prediction by ZEFSAII (Michael W. Deem and Ramdas Pophale) SiO2 
 PCOD9168826
Probable space group: C 2/M
;
_chemical_formula_sum "Si O2"
_cell_formula_units_Z 64
_cell_length_a 23.042889
_cell_length_b 18.747986
_cell_length_c 20.359749
_cell_angle_alpha 90.000000
_cell_angle_beta 163.076285
_cell_angle_gamma 90.000000
_cell_volume 2560.374455
_symmetry_space_group_name_H-M "C 2/M"
_symmetry_group_IT_number 12
_symmetry_cell_setting 'monoclinic'
loop_
_space_group_symop_operation_xyz
x,y,z
-x,y,-z
-x,-y,-z
x,-y,z
1/2+x,1/2+y,z
1/2-x,1/2+y,-z
1/2-x,1/2-y,-z
1/2+x,1/2-y,z
loop_
_atom_site_type_symbol
_atom_site_label
_atom_site_fract_x
_atom_site_fract_y
_atom_site_fract_z
Si Si1 0.748365 0.216393 0.196620
Si Si2 0.178751 0.335883 0.492964
Si Si3 0.769340 0.702793 0.671316
Si Si4 0.219053 0.920314 0.852042
Si Si5 0.794880 0.581593 0.609940
Si Si6 0.733491 0.082481 0.953325
Si Si7 0.761230 0.581054 0.316981
Si Si8 0.722717 0.124836 0.807440
O O1 0.801275 0.219815 0.331243
O O2 0.823979 0.145142 0.242502
O O3 0.804351 0.290181 0.222258
O O4 0.508056 0.213206 0.931849
O O5 0.189780 0.253864 0.526948
O O6 0.252430 0.368036 0.503854
O O7 0.286604 0.371699 0.672163
O O8 0.950305 0.362730 0.245685
O O9 0.735155 0.621435 0.612347
O O10 0.156729 0.000000 0.763267
O O11 0.461811 0.921844 0.122235
O O12 0.151399 0.907481 0.854168
O O13 0.725985 0.500000 0.526855
O O14 0.833854 0.096948 0.992178
O O15 0.661993 0.000000 0.876662
O O16 0.709340 0.500000 0.273144
O O17 0.687403 0.605172 0.165718
O O18 0.003582 0.588725 0.573636
#
# Coordination Sequence:
#
# PCOD9168826 Si02
#       8
#     8   8   8   8   8   8   8   8
#     4  10  20  32  45  67 101 131 154 182 225 289
#     4  10  16  29  49  74  96 118 149 197 241 274
#     4  10  20  32  45  67 101 131 154 185 231 279
#     4   8  16  31  49  70  93 120 156 196 236 271
#     4   9  17  30  50  71  90 119 162 204 232 263
#     4   9  17  30  52  76  93 113 154 207 240 263
#     4  10  18  29  50  73  92 118 153 196 235 266
#     4  10  17  28  45  71  97 119 150 190 235 272
#
# _framework density 24.996344000000001
#
# number of rings (size 3 to 8) (size 9 to 14) (size 15 to 20)
#    0.000    2.500    1.250    4.500    0.000    1.000 
#    0.000    2.500    0.000    7.500    0.000    8.750 
#    0.000    0.000    0.000    0.000    0.000    0.000 
#
# Total GULP energy -178991.309565 kJ/mol
# GULP energy per Si atom -5593.478424 kJ/mol
# Density = 2.493945 g / cm^3
# Si number density = 24.996344 Si / 1000 Ang^3
#
#
#
# Elastic Constant Matrix: (Units=GPa)
#
#
# Indices 1 2 3 4 5 6 
#
# 1 104.0816 64.5830 -9.0409 0.2684 -5.9797 0.0648
# 2 64.5830 178.9197 7.1993 -1.0487 -26.0988 -0.1816
# 3 -9.0409 7.1993 84.7877 -0.5987 -0.2128 -0.0707
# 4 0.2684 -1.0487 -0.5987 138.3440 -0.4364 20.1134
# 5 -5.9797 -26.0988 -0.2128 -0.4364 20.0072 -0.0780
# 6 0.0648 -0.1816 -0.0707 20.1134 -0.0780 47.6731
#
#
#
# Elastic Compliance Matrix: (Units=1/GPa)
#
#
# Indices 1 2 3 4 5 6 
#
# 1 0.012758 -0.005086 0.001785 -0.000063 -0.002804 -0.000012
# 2 -0.005086 0.008958 -0.001277 0.000102 0.010154 0.000013
# 3 0.001785 -0.001277 0.012091 0.000037 -0.001003 -0.000007
# 4 -0.000063 0.000102 0.000037 0.007703 0.000271 -0.003249
# 5 -0.002804 0.010154 -0.001003 0.000271 0.062385 0.000029
# 6 -0.000012 0.000013 -0.000007 -0.003249 0.000029 0.022347
#
#
# Mechanical properties :
#
#
# Convention : Reuss Voigt Hill
#
# Bulk Modulus (GPa) = 40.56780 54.80799 47.68789
# Shear Modulus (GPa) = 34.81520 61.54136 48.17828
#
# Velocity S-wave (km/s) = 3.73609 4.96725 4.39499
# Velocity P-wave (km/s) = 5.90558 7.40757 6.69881
#
# Compressibility (1/GPa) = 0.02465009
#
# Stress axis : x y z
#
# Youngs Moduli (GPa) = 78.38169 111.62832 82.70873
#
# Poissons Ratio (x) = 0.56779 -0.14762
# Poissons Ratio (y) = 0.39868 0.10560
# Poissons Ratio (z) = -0.13989 0.14253
#
# Static dielectric constant tensor:
#      x y z
#    x 1.998030 -0.000020 0.056230 
#    y -0.000020 1.893830 -0.000070 
#    z 0.056230 -0.000070 2.048510 
# 
# From -- ./inp_files/326155.got.cif
#   From: 2010.05.17/outbox.cif.g08.bks.cpg/sg12_164_cif.got.tgz:326155.got - 2010.06.03 13:09:07.
