data_PCOD9168453
_publ_section_title
;
Structure prediction by ZEFSAII (Michael W. Deem and Ramdas Pophale) SiO2 
 PCOD9168453
Probable space group: C 2/M
;
_chemical_formula_sum "Si O2"
_cell_formula_units_Z 44
_cell_length_a 12.567886
_cell_length_b 19.985846
_cell_length_c 9.789795
_cell_angle_alpha 90.000000
_cell_angle_beta 76.171488
_cell_angle_gamma 90.000000
_cell_volume 2387.726124
_symmetry_space_group_name_H-M "C 2/M"
_symmetry_group_IT_number 12
_symmetry_cell_setting 'monoclinic'
loop_
_space_group_symop_operation_xyz
x,y,z
-x,y,-z
-x,-y,-z
x,-y,z
1/2+x,1/2+y,z
1/2-x,1/2+y,-z
1/2-x,1/2-y,-z
1/2+x,1/2-y,z
loop_
_atom_site_type_symbol
_atom_site_label
_atom_site_fract_x
_atom_site_fract_y
_atom_site_fract_z
Si Si1 0.223835 0.323105 0.853113
Si Si2 0.000000 0.391769 0.000000
Si Si3 0.273291 0.420448 0.285031
Si Si4 0.626300 0.685770 0.929510
Si Si5 0.967561 0.574412 0.705378
Si Si6 0.211389 0.580317 0.606291
O O1 0.191688 0.246174 0.834361
O O2 0.249050 0.371347 0.717198
O O3 0.314757 0.325064 0.942691
O O4 0.110796 0.350362 0.951258
O O5 0.012814 0.429265 0.138421
O O6 0.280171 0.500000 0.251928
O O7 0.358981 0.378915 0.170323
O O8 0.150936 0.394058 0.282512
O O9 0.279592 0.412362 0.446488
O O10 0.500000 0.701462 0.000000
O O11 0.955230 0.500000 0.652042
O O12 0.083821 0.600830 0.615280
O O13 0.209885 0.500000 0.642313
#
# Coordination Sequence:
#
# PCOD9168453 Si02
#       6
#     8   4   8   8   8   8
#     4  10  21  36  58  82 111 140 182 228 277 327
#     4  10  15  30  52  82 107 140 168 226 272 330
#     4  10  20  35  54  80 113 149 188 227 271 326
#     4  11  23  39  57  78 112 149 188 227 268 324
#     4   9  16  27  50  83 114 139 171 220 281 331
#     4   9  19  34  56  85 114 141 178 230 283 331
#
# _framework density 18.427572999999999
#
# number of rings (size 3 to 8) (size 9 to 14) (size 15 to 20)
#    0.000    2.182    2.727    0.818    0.000    4.727 
#    0.000    0.909    0.000    2.182    0.000    0.000 
#    0.000    0.000    0.000    0.000    0.000    0.000 
#
# Total GULP energy -122482.211272 kJ/mol
# GULP energy per Si atom -5567.373240 kJ/mol
# Density = 1.838563 g / cm^3
# Si number density = 18.427573 Si / 1000 Ang^3
#
#
#
# Elastic Constant Matrix: (Units=GPa)
#
#
# Indices 1 2 3 4 5 6 
#
# 1 64.3287 22.4218 26.8214 0.0000 12.9060 0.0000
# 2 22.4218 90.1758 50.2970 0.0000 4.6687 0.0000
# 3 26.8214 50.2970 90.5662 0.0000 -0.8182 0.0000
# 4 0.0000 0.0000 0.0000 18.6611 0.0000 11.3679
# 5 12.9060 4.6687 -0.8182 0.0000 17.6444 0.0000
# 6 0.0000 0.0000 0.0000 11.3679 0.0000 3.7012
#
#
#
# Elastic Compliance Matrix: (Units=1/GPa)
#
#
# Indices 1 2 3 4 5 6 
#
# 1 0.021572 -0.001316 -0.005799 0.000000 -0.015699 0.000000
# 2 -0.001316 0.016540 -0.008830 0.000000 -0.003823 0.000000
# 3 -0.005799 -0.008830 0.017730 0.000000 0.007401 0.000000
# 4 0.000000 0.000000 0.000000 -0.061521 0.000000 0.188958
# 5 -0.015699 -0.003823 0.007401 0.000000 0.069513 0.000000
# 6 0.000000 0.000000 0.000000 0.188958 0.000000 -0.310184
#
#
# Mechanical properties :
#
#
# Convention : Reuss Voigt Hill
#
# Bulk Modulus (GPa) = 41.75421 49.35013 45.55217
# Shear Modulus (GPa) = -24.21588 17.70337 -3.25626
#
# Velocity S-wave (km/s) = -3.62900 3.10288 -1.33075
# Velocity P-wave (km/s) = 2.26897 6.29888 4.73414
#
# Compressibility (1/GPa) = 0.02394968
#
# Stress axis : x y z
#
# Youngs Moduli (GPa) = 46.35737 60.45962 56.40134
#
# Poissons Ratio (x) = 0.07958 0.32709
# Poissons Ratio (y) = 0.06102 0.49805
# Poissons Ratio (z) = 0.26884 0.53388
#
# Static dielectric constant tensor:
#      x y z
#    x 1.637270 0.000000 0.007300 
#    y 0.000000 1.669340 0.000000 
#    z 0.007300 0.000000 1.655660 
# 
# From -- ./inp_files/49301.got.cif
#   From: 2010.05.17/outbox.cif.g08.bks.cpg/sg12_25_cif.got.tgz:49301.got - 2010.06.03 13:09:07.
