data_PCOD9168559
_publ_section_title
;
Structure prediction by ZEFSAII (Michael W. Deem and Ramdas Pophale) SiO2 
 PCOD9168559
Probable space group: C 2/M
;
_chemical_formula_sum "Si O2"
_cell_formula_units_Z 48
_cell_length_a 17.056415
_cell_length_b 14.113073
_cell_length_c 17.870048
_cell_angle_alpha 90.000000
_cell_angle_beta 148.603387
_cell_angle_gamma 90.000000
_cell_volume 2240.983978
_symmetry_space_group_name_H-M "C 2/M"
_symmetry_group_IT_number 12
_symmetry_cell_setting 'monoclinic'
loop_
_space_group_symop_operation_xyz
x,y,z
-x,y,-z
-x,-y,-z
x,-y,z
1/2+x,1/2+y,z
1/2-x,1/2+y,-z
1/2-x,1/2-y,-z
1/2+x,1/2-y,z
loop_
_atom_site_type_symbol
_atom_site_label
_atom_site_fract_x
_atom_site_fract_y
_atom_site_fract_z
Si Si1 0.279413 0.791144 0.128540
Si Si2 0.179882 0.393813 0.133050
Si Si3 0.017533 0.648255 0.432599
Si Si4 0.766653 0.134808 0.520853
Si Si5 0.769594 0.823176 0.364292
Si Si6 0.007808 0.802586 0.815061
O O1 0.227309 0.687930 0.114731
O O2 0.358768 0.842310 0.262086
O O3 0.405337 0.771849 0.167976
O O4 0.134919 0.840118 0.974207
O O5 0.214023 0.500000 0.134224
O O6 0.262888 0.374349 0.279644
O O7 0.000000 0.387855 0.000000
O O8 0.133684 0.604239 0.467541
O O9 0.089939 0.752789 0.507510
O O10 0.000000 0.604596 0.500000
O O11 0.750000 0.250000 0.500000
O O12 0.761967 0.108262 0.430384
O O13 0.923091 0.123552 0.692018
O O14 0.623074 0.753800 0.247897
#
# Coordination Sequence:
#
# PCOD9168559 Si02
#       6
#     8   8   8   8   8   8
#     4  11  17  28  45  65  84 116 163 195 224 273
#     4  11  23  33  43  64  99 138 163 184 223 280
#     4  10  16  24  43  65  89 110 148 194 238 272
#     4   8  15  28  40  61  86 110 144 189 243 281
#     4  10  16  31  44  59  88 124 152 192 233 272
#     4   9  17  27  46  64  79 114 156 198 241 264
#
# _framework density 21.419162
#
# number of rings (size 3 to 8) (size 9 to 14) (size 15 to 20)
#    0.000    2.500    8.333    0.000    0.000    0.000 
#    0.000    1.667    0.000    0.000    0.000    0.000 
#    0.000    0.667    0.000   18.667    0.333    5.000 
#
# Total GULP energy -133801.335881 kJ/mol
# GULP energy per Si atom -5575.055662 kJ/mol
# Density = 2.137041 g / cm^3
# Si number density = 21.419162 Si / 1000 Ang^3
#
#
#
# Elastic Constant Matrix: (Units=GPa)
#
#
# Indices 1 2 3 4 5 6 
#
# 1 80.0424 4.4140 15.3071 -0.0005 -10.6971 -0.0001
# 2 4.4140 49.1230 5.8668 -0.0006 -3.9771 -0.0003
# 3 15.3071 5.8668 172.2581 -0.0011 -14.3315 -0.0005
# 4 -0.0005 -0.0006 -0.0011 -12.5828 -0.0009 -0.9136
# 5 -10.6971 -3.9771 -14.3315 -0.0009 33.1803 -0.0003
# 6 -0.0001 -0.0003 -0.0005 -0.9136 -0.0003 -18.0931
#
#
#
# Elastic Compliance Matrix: (Units=1/GPa)
#
#
# Indices 1 2 3 4 5 6 
#
# 1 0.013204 -0.000779 -0.000830 -0.000001 0.003805 0.000000
# 2 -0.000779 0.020646 -0.000466 -0.000001 0.002022 0.000000
# 3 -0.000830 -0.000466 0.006087 -0.000001 0.002306 0.000000
# 4 -0.000001 -0.000001 -0.000001 -0.079766 -0.000003 0.004028
# 5 0.003805 0.002022 0.002306 -0.000003 0.032603 0.000000
# 6 0.000000 0.000000 0.000000 0.004028 0.000000 -0.055473
#
#
# Mechanical properties :
#
#
# Convention : Reuss Voigt Hill
#
# Bulk Modulus (GPa) = 27.94350 39.17770 33.56060
# Shear Modulus (GPa) = -107.25044 18.88992 -44.18026
#
# Velocity S-wave (km/s) = -7.08385 2.97293 -4.54657
# Velocity P-wave (km/s) = 7.33713 5.48772 3.44372
#
# Compressibility (1/GPa) = 0.03578650
#
# Stress axis : x y z
#
# Youngs Moduli (GPa) = 75.73700 48.43450 164.29290
#
# Poissons Ratio (x) = 0.03774 0.13640
# Poissons Ratio (y) = 0.05902 0.07651
# Poissons Ratio (z) = 0.06288 0.02256
#
# Static dielectric constant tensor:
#      x y z
#    x 1.829930 0.000000 -0.020170 
#    y 0.000000 1.775670 0.000000 
#    z -0.020170 0.000000 1.828000 
# 
# From -- ./inp_files/278614.got.cif
#   From: 2010.05.17/outbox.cif.g08.bks.cpg/sg12_140_cif.got.tgz:278614.got - 2010.06.03 13:09:07.
