data_PCOD9168168
_publ_section_title
;
Structure prediction by ZEFSAII (Michael W. Deem and Ramdas Pophale) SiO2 
 PCOD9168168
Probable space group: P 21/M
;
_chemical_formula_sum "Si O2"
_cell_formula_units_Z 32
_cell_length_a 15.000000
_cell_length_b 9.000000
_cell_length_c 12.000000
_cell_angle_alpha 90.000000
_cell_angle_beta 90.000000
_cell_angle_gamma 90.000000
_cell_volume 1620.000000
_symmetry_space_group_name_H-M "P 21/M"
_symmetry_group_IT_number 11
_symmetry_cell_setting 'monoclinic'
loop_
_space_group_symop_operation_xyz
x,y,z
-x,1/2+y,-z
-x,-y,-z
x,1/2-y,z
loop_
_atom_site_type_symbol
_atom_site_label
_atom_site_fract_x
_atom_site_fract_y
_atom_site_fract_z
Si Si1 0.188849 0.078924 0.486287
Si Si2 0.635015 0.074771 0.519522
Si Si3 0.240296 0.925294 0.089971
Si Si4 0.579591 0.069988 0.284492
Si Si5 0.923701 0.923640 0.303451
Si Si6 0.894413 0.577458 0.755662
Si Si7 0.610972 0.572624 0.759095
Si Si8 0.236711 0.928616 0.827615
O O1 0.221307 0.250000 0.502667
O O2 0.105285 0.059881 0.567761
O O3 0.162319 0.061454 0.357994
O O4 0.263414 0.959475 0.517073
O O5 0.620868 0.250000 0.537959
O O6 0.577838 0.020594 0.413577
O O7 0.626168 0.986026 0.633859
O O8 0.248931 0.750000 0.106690
O O9 0.150939 0.983190 0.147955
O O10 0.320755 0.004026 0.154490
O O11 0.239257 0.956070 0.959204
O O12 0.581126 0.250000 0.289556
O O13 0.491237 0.028344 0.218235
O O14 0.669635 0.022995 0.225470
O O15 0.941205 0.750000 0.282879
O O16 0.841394 0.981625 0.230977
O O17 0.008366 0.019937 0.272631
O O18 0.894712 0.750000 0.786432
O O19 0.620339 0.750000 0.759602
O O20 0.225411 0.750000 0.810164
#
# Coordination Sequence:
#
# PCOD9168168 Si02
#       8
#     4   4   4   4   4   4   4   4
#     4  10  21  37  59  90 123 156 190 237 295 352
#     4  11  20  34  61  90 120 157 197 239 291 353
#     4  11  24  41  62  87 116 154 204 254 295 345
#     4   9  20  38  61  89 119 158 197 241 297 353
#     4  11  23  39  62  93 124 152 195 245 294 354
#     4  11  23  40  63  88 121 161 196 236 297 358
#     4  11  22  38  60  87 124 159 195 242 298 357
#     4  10  22  43  64  84 116 157 203 250 297 348
#
# _framework density 19.753086
#
# number of rings (size 3 to 8) (size 9 to 14) (size 15 to 20)
#    0.000    1.500    2.500    2.625    0.000    3.000 
#    0.000    3.125    0.000    0.000    0.000    0.000 
#    0.000    0.000    0.000    0.000    0.000    0.000 
#
# Total GULP energy -178734.466908 kJ/mol
# GULP energy per Si atom -5585.452091 kJ/mol
# Density = 1.970813 g / cm^3
# Si number density = 19.753086 Si / 1000 Ang^3
#
#
#
# Elastic Constant Matrix: (Units=GPa)
#
#
# Indices 1 2 3 4 5 6 
#
# 1 41.6001 0.8436 -4.0361 0.0000 -7.5927 0.0000
# 2 0.8436 29.7907 33.3607 0.0000 -5.4027 0.0000
# 3 -4.0361 33.3607 62.2346 0.0000 -16.4880 0.0000
# 4 0.0000 0.0000 0.0000 20.7624 0.0000 -2.9531
# 5 -7.5927 -5.4027 -16.4880 0.0000 0.5556 0.0000
# 6 0.0000 0.0000 0.0000 -2.9531 0.0000 11.4637
#
#
#
# Elastic Compliance Matrix: (Units=1/GPa)
#
#
# Indices 1 2 3 4 5 6 
#
# 1 0.016811 0.005377 -0.010627 0.000000 -0.033350 0.000000
# 2 0.005377 0.068370 -0.023215 0.000000 0.049394 0.000000
# 3 -0.010627 -0.023215 0.010268 0.000000 -0.066263 0.000000
# 4 0.000000 0.000000 0.000000 0.049996 0.000000 0.012879
# 5 -0.033350 0.049394 -0.066263 0.000000 -0.142009 0.000000
# 6 0.000000 0.000000 0.000000 0.012879 0.000000 0.090550
#
#
# Mechanical properties :
#
#
# Convention : Reuss Voigt Hill
#
# Bulk Modulus (GPa) = 25.96155 21.55131 23.75643
# Shear Modulus (GPa) = 30.53315 13.45348 21.99331
#
# Velocity S-wave (km/s) = 3.93586 2.61259 3.34040
# Velocity P-wave (km/s) = 5.81603 4.47603 5.18946
#
# Compressibility (1/GPa) = 0.03851851
#
# Stress axis : x y z
#
# Youngs Moduli (GPa) = 59.48335 14.62631 97.39082
#
# Poissons Ratio (x) = -0.07864 1.03499
# Poissons Ratio (y) = -0.31982 2.26090
# Poissons Ratio (z) = 0.63214 0.33955
#
# Static dielectric constant tensor:
#      x y z
#    x 1.732630 0.000000 -0.014180 
#    y 0.000000 1.663570 0.000000 
#    z -0.014180 0.000000 1.670070 
# 
# From -- ./inp_files/38181.got.cif
#   From: 2010.05.17/outbox.ucp.g08.bks.cvg/sg11_20_cif.got.tgz:38181.got - 2010.06.11 11:38:39.
