data_PCOD9168812
_publ_section_title
;
Structure prediction by ZEFSAII (Michael W. Deem and Ramdas Pophale) SiO2 
 PCOD9168812
Probable space group: C 2/M
;
_chemical_formula_sum "Si O2"
_cell_formula_units_Z 64
_cell_length_a 18.019990
_cell_length_b 12.791948
_cell_length_c 12.403368
_cell_angle_alpha 90.000000
_cell_angle_beta 85.039005
_cell_angle_gamma 90.000000
_cell_volume 2848.399173
_symmetry_space_group_name_H-M "C 2/M"
_symmetry_group_IT_number 12
_symmetry_cell_setting 'monoclinic'
loop_
_space_group_symop_operation_xyz
x,y,z
-x,y,-z
-x,-y,-z
x,-y,z
1/2+x,1/2+y,z
1/2-x,1/2+y,-z
1/2-x,1/2-y,-z
1/2+x,1/2-y,z
loop_
_atom_site_type_symbol
_atom_site_label
_atom_site_fract_x
_atom_site_fract_y
_atom_site_fract_z
Si Si1 0.742401 0.610525 0.897886
Si Si2 0.567204 0.626026 0.418282
Si Si3 0.333949 0.381883 0.865910
Si Si4 0.906096 0.336051 0.903489
Si Si5 0.285350 0.790051 0.261377
Si Si6 0.530866 0.617025 0.763699
Si Si7 0.432772 0.829659 0.148979
Si Si8 0.173513 0.879535 0.584556
O O1 0.711086 0.500000 0.861747
O O2 0.830766 0.613473 0.869648
O O3 0.710543 0.706760 0.837358
O O4 0.724067 0.618910 0.026004
O O5 0.500000 0.669855 0.500000
O O6 0.564506 0.500000 0.425060
O O7 0.541510 0.647583 0.299939
O O8 0.643124 0.652233 0.470326
O O9 0.363510 0.500000 0.857604
O O10 0.388561 0.287782 0.891593
O O11 0.285937 0.357904 0.764272
O O12 0.983609 0.370966 0.840107
O O13 0.912201 0.359545 0.030095
O O14 0.364321 0.850702 0.239063
O O15 0.280842 0.714223 0.365420
O O16 0.524368 0.500000 0.807645
O O17 0.551091 0.705062 0.846086
O O18 0.599059 0.615291 0.668890
O O19 0.203802 0.000000 0.578454
#
# Coordination Sequence:
#
# PCOD9168812 Si02
#       8
#     8   8   8   8   8   8   8   8
#     4  10  18  31  47  59  77 110 146 177 213 243
#     4   7  10  19  32  52  83 110 130 158 202 252
#     4  10  19  31  44  57  80 116 147 171 204 243
#     4  10  19  32  41  59  88 113 141 174 203 243
#     4  10  16  29  44  64  86 106 139 175 207 245
#     4   8  14  22  34  54  84 116 137 158 202 256
#     4  10  18  27  42  60  87 112 136 173 208 239
#     4   8  13  20  37  62  84 106 132 168 209 245
#
# _framework density 22.46876
#
# number of rings (size 3 to 8) (size 9 to 14) (size 15 to 20)
#    0.000    2.875    2.500    2.625    0.000    1.500 
#    0.000    3.125    0.000    0.000    0.000    3.500 
#    0.000   16.500    0.000    0.000    0.000    0.000 
#
# Total GULP energy -178375.350427 kJ/mol
# GULP energy per Si atom -5574.229701 kJ/mol
# Density = 2.241762 g / cm^3
# Si number density = 22.468760 Si / 1000 Ang^3
#
#
#
# Elastic Constant Matrix: (Units=GPa)
#
#
# Indices 1 2 3 4 5 6 
#
# 1 105.5590 2.5607 3.4010 0.0000 5.1166 0.0000
# 2 2.5607 60.5401 5.9776 0.0000 2.2238 0.0000
# 3 3.4010 5.9776 51.7487 0.0000 9.5282 0.0000
# 4 0.0000 0.0000 0.0000 15.1857 0.0000 8.4994
# 5 5.1166 2.2238 9.5282 0.0000 28.7678 0.0000
# 6 0.0000 0.0000 0.0000 8.4994 0.0000 -6.9312
#
#
#
# Elastic Compliance Matrix: (Units=1/GPa)
#
#
# Indices 1 2 3 4 5 6 
#
# 1 0.009567 -0.000317 -0.000302 0.000000 -0.001577 0.000000
# 2 -0.000317 0.016732 -0.001794 0.000000 -0.000643 0.000000
# 3 -0.000302 -0.001794 0.020783 0.000000 -0.006691 0.000000
# 4 0.000000 0.000000 0.000000 0.039050 0.000000 0.047885
# 5 -0.001577 -0.000643 -0.006691 0.000000 0.037308 0.000000
# 6 0.000000 0.000000 0.000000 0.047885 0.000000 -0.085555
#
#
# Mechanical properties :
#
#
# Convention : Reuss Voigt Hill
#
# Bulk Modulus (GPa) = 23.66413 26.85847 25.26130
# Shear Modulus (GPa) = 88.03550 21.13170 54.58360
#
# Velocity S-wave (km/s) = 6.26629 3.07007 4.93415
# Velocity P-wave (km/s) = 7.93158 4.95447 6.61274
#
# Compressibility (1/GPa) = 0.04225805
#
# Stress axis : x y z
#
# Youngs Moduli (GPa) = 104.52340 59.76544 48.11584
#
# Poissons Ratio (x) = 0.01894 0.01452
# Poissons Ratio (y) = 0.03313 0.08630
# Poissons Ratio (z) = 0.03154 0.10719
#
# Static dielectric constant tensor:
#      x y z
#    x 1.928480 0.000000 -0.018320 
#    y 0.000000 1.847720 0.000000 
#    z -0.018320 0.000000 1.844240 
# 
# From -- ./inp_files/224763.got.cif
#   From: 2010.05.17/outbox.cif.g08.bks.cpg/sg12_113_cif.got.tgz:224763.got - 2010.06.03 13:09:07.
