data_PCOD9168701
_publ_section_title
;
Structure prediction by ZEFSAII (Michael W. Deem and Ramdas Pophale) SiO2 
 PCOD9168701
Probable space group: C 2/M
;
_chemical_formula_sum "Si O2"
_cell_formula_units_Z 52
_cell_length_a 23.298448
_cell_length_b 19.148397
_cell_length_c 7.183211
_cell_angle_alpha 90.000000
_cell_angle_beta 83.285186
_cell_angle_gamma 90.000000
_cell_volume 3182.648742
_symmetry_space_group_name_H-M "C 2/M"
_symmetry_group_IT_number 12
_symmetry_cell_setting 'monoclinic'
loop_
_space_group_symop_operation_xyz
x,y,z
-x,y,-z
-x,-y,-z
x,-y,z
1/2+x,1/2+y,z
1/2-x,1/2+y,-z
1/2-x,1/2-y,-z
1/2+x,1/2-y,z
loop_
_atom_site_type_symbol
_atom_site_label
_atom_site_fract_x
_atom_site_fract_y
_atom_site_fract_z
Si Si1 0.852149 0.000000 0.463388
Si Si2 0.238969 0.650545 0.404844
Si Si3 0.568294 0.379455 0.441563
Si Si4 0.238432 0.500000 0.278131
Si Si5 0.172287 0.785145 0.355124
Si Si6 0.208671 0.000000 0.109054
Si Si7 0.826385 0.848241 0.034683
Si Si8 0.566263 0.580603 0.014777
O O1 0.895763 0.934762 0.449416
O O2 0.806958 0.000000 0.311073
O O3 0.809768 0.000000 0.664143
O O4 0.217151 0.571893 0.378904
O O5 0.189573 0.708819 0.419244
O O6 0.280008 0.663251 0.567952
O O7 0.281529 0.665643 0.214255
O O8 0.500000 0.371089 0.500000
O O9 0.608006 0.310616 0.429556
O O10 0.427603 0.412510 0.765593
O O11 0.234399 0.500000 0.053402
O O12 0.177319 0.793320 0.130695
O O13 0.185491 0.924558 0.051564
O O14 0.891246 0.860737 0.082821
O O15 0.577726 0.500000 0.955995
O O16 0.500000 0.595636 0.000000
#
# Coordination Sequence:
#
# PCOD9168701 Si02
#       8
#     4   8   8   4   8   4   8   8
#     4  12  17  34  43  66 100 127 155 189 216 265
#     4  10  20  31  50  68  87 121 155 195 232 275
#     4  11  21  31  44  64  92 131 158 186 223 268
#     4  10  20  29  51  72  89 120 159 189 236 269
#     4  10  20  34  45  65  94 121 157 189 232 274
#     4  10  16  27  44  64  89 121 155 183 217 262
#     4  10  17  31  45  63  89 124 155 189 227 262
#     4  10  19  28  40  62  94 126 160 190 210 254
#
# _framework density 16.338592999999999
#
# number of rings (size 3 to 8) (size 9 to 14) (size 15 to 20)
#    0.000    1.692    6.154    0.692    2.154    0.000 
#    0.000    0.000    0.000    0.000    0.000    0.538 
#    0.000    0.000    0.000    5.538    0.000    6.462 
#
# Total GULP energy -144787.198840 kJ/mol
# GULP energy per Si atom -5568.738417 kJ/mol
# Density = 1.630141 g / cm^3
# Si number density = 16.338593 Si / 1000 Ang^3
#
#
#
# Elastic Constant Matrix: (Units=GPa)
#
#
# Indices 1 2 3 4 5 6 
#
# 1 62.5145 32.6939 17.1004 0.0000 -1.2351 0.0000
# 2 32.6939 78.3030 7.4112 0.0000 -4.7090 0.0000
# 3 17.1004 7.4112 64.5504 0.0000 5.9731 0.0000
# 4 0.0000 0.0000 0.0000 18.5883 0.0000 -1.0693
# 5 -1.2351 -4.7090 5.9731 0.0000 20.5013 0.0000
# 6 0.0000 0.0000 0.0000 -1.0693 0.0000 21.2489
#
#
#
# Elastic Compliance Matrix: (Units=1/GPa)
#
#
# Indices 1 2 3 4 5 6 
#
# 1 0.021849 -0.008616 -0.004869 0.000000 0.000756 0.000000
# 2 -0.008616 0.016557 0.000080 0.000000 0.003261 0.000000
# 3 -0.004869 0.000080 0.017263 0.000000 -0.005305 0.000000
# 4 0.000000 0.000000 0.000000 0.053953 0.000000 0.002715
# 5 0.000756 0.003261 -0.005305 0.000000 0.051117 0.000000
# 6 0.000000 0.000000 0.000000 0.002715 0.000000 0.047198
#
#
# Mechanical properties :
#
#
# Convention : Reuss Voigt Hill
#
# Bulk Modulus (GPa) = 34.65137 35.53098 35.09118
# Shear Modulus (GPa) = 20.46089 21.94520 21.20305
#
# Velocity S-wave (km/s) = 3.54263 3.66888 3.60631
# Velocity P-wave (km/s) = 6.16344 6.30408 6.23416
#
# Compressibility (1/GPa) = 0.02885889
#
# Stress axis : x y z
#
# Youngs Moduli (GPa) = 45.76800 60.39721 57.92640
#
# Poissons Ratio (x) = 0.52041 0.28204
# Poissons Ratio (y) = 0.39436 -0.00463
# Poissons Ratio (z) = 0.22284 -0.00483
#
# Static dielectric constant tensor:
#      x y z
#    x 1.574620 0.000000 0.006020 
#    y 0.000000 1.567570 0.000000 
#    z 0.006020 0.000000 1.638690 
# 
# From -- ./inp_files/87413.got.cif
#   From: 2010.05.17/outbox.cif.g08.bks.cpg/sg12_44_cif.got.tgz:87413.got - 2010.06.03 13:09:07.
