data_PCOD9168067
_publ_section_title
;
Structure prediction by ZEFSAII (Michael W. Deem and Ramdas Pophale) SiO2 
 PCOD9168067
Probable space group: P 21/M
;
_chemical_formula_sum "Si O2"
_cell_formula_units_Z 28
_cell_length_a 9.000000
_cell_length_b 9.000000
_cell_length_c 27.000000
_cell_angle_alpha 90.000000
_cell_angle_beta 140.000000
_cell_angle_gamma 90.000000
_cell_volume 1405.776502
_symmetry_space_group_name_H-M "P 21/M"
_symmetry_group_IT_number 11
_symmetry_cell_setting 'monoclinic'
loop_
_space_group_symop_operation_xyz
x,y,z
-x,1/2+y,-z
-x,-y,-z
x,1/2-y,z
loop_
_atom_site_type_symbol
_atom_site_label
_atom_site_fract_x
_atom_site_fract_y
_atom_site_fract_z
Si Si1 0.396639 0.072168 0.788318
Si Si2 0.818356 0.425306 0.488470
Si Si3 0.903845 0.082295 0.928471
Si Si4 0.020211 0.418709 0.375871
Si Si5 0.684553 0.579856 0.643563
Si Si6 0.741917 0.578831 0.069520
Si Si7 0.856082 0.427179 0.192884
O O1 0.361012 0.250000 0.773438
O O2 0.659996 0.028549 0.844102
O O3 0.210013 0.979579 0.709202
O O4 0.346089 0.016631 0.831295
O O5 0.810763 0.250000 0.479746
O O6 0.563504 0.489906 0.414283
O O7 0.000000 0.500000 0.500000
O O8 0.901921 0.465692 0.563892
O O9 0.850295 0.250000 0.930705
O O10 0.104555 0.083543 0.939832
O O11 0.000000 0.000000 0.000000
O O12 0.981734 0.250000 0.384575
O O13 0.231410 0.411909 0.391242
O O14 0.671556 0.750000 0.659088
O O15 0.903088 0.509347 0.725274
O O16 0.718163 0.750000 0.081207
O O17 0.862140 0.468146 0.138037
O O18 0.500000 0.500000 0.000000
O O19 0.834201 0.250000 0.197256
#
# Coordination Sequence:
#
# PCOD9168067 Si02
#       7
#     4   4   4   4   4   4   4
#     4  10  20  37  59  85 113 145 181 224 274 328
#     4  11  22  37  55  80 113 149 185 228 276 327
#     4  10  23  39  57  81 112 145 183 225 272 326
#     4  10  20  37  59  84 110 143 185 230 275 327
#     4   8  18  36  58  81 109 143 183 225 272 326
#     4  11  23  39  57  82 112 146 184 227 273 324
#     4  10  20  37  59  85 112 143 182 227 273 326
#
# _framework density 19.917818
#
# number of rings (size 3 to 8) (size 9 to 14) (size 15 to 20)
#    0.000    2.000    0.000    4.286    0.000    5.714 
#    0.000   10.714    0.000    0.000    0.000    0.000 
#    0.000    0.000    0.000    0.000    0.000    0.000 
#
# Total GULP energy -155879.782871 kJ/mol
# GULP energy per Si atom -5567.135103 kJ/mol
# Density = 1.987248 g / cm^3
# Si number density = 19.917818 Si / 1000 Ang^3
#
#
#
# Elastic Constant Matrix: (Units=GPa)
#
#
# Indices 1 2 3 4 5 6 
#
# 1 57.0996 23.7259 50.6960 0.0000 29.5638 0.0000
# 2 23.7259 39.7975 10.2673 0.0000 20.9205 0.0000
# 3 50.6960 10.2673 33.7749 0.0000 19.9820 0.0000
# 4 0.0000 0.0000 0.0000 22.8179 0.0000 -3.6857
# 5 29.5638 20.9205 19.9820 0.0000 27.4116 0.0000
# 6 0.0000 0.0000 0.0000 -3.6857 0.0000 26.7026
#
#
#
# Elastic Compliance Matrix: (Units=1/GPa)
#
#
# Indices 1 2 3 4 5 6 
#
# 1 -0.044676 0.017292 0.072272 0.000000 -0.017697 0.000000
# 2 0.017292 0.037676 -0.016463 0.000000 -0.035403 0.000000
# 3 0.072272 -0.016463 -0.061869 0.000000 -0.020282 0.000000
# 4 0.000000 0.000000 0.000000 0.044825 0.000000 0.006187
# 5 -0.017697 -0.035403 -0.020282 0.000000 0.097371 0.000000
# 6 0.000000 0.000000 0.000000 0.006187 0.000000 0.038304
#
#
# Mechanical properties :
#
#
# Convention : Reuss Voigt Hill
#
# Bulk Modulus (GPa) = 12.93117 33.33892 23.13504
# Shear Modulus (GPa) = -568.50396 18.45194 -275.02601
#
# Velocity S-wave (km/s) = -16.91285 3.04699 -11.76351
# Velocity P-wave (km/s) = 19.36198 5.39939 13.14787
#
# Compressibility (1/GPa) = 0.07733255
#
# Stress axis : x y z
#
# Youngs Moduli (GPa) = -22.38323 26.54222 -16.16314
#
# Poissons Ratio (x) = -0.45897 1.16815
# Poissons Ratio (y) = 0.38705 -0.26610
# Poissons Ratio (z) = 1.61769 0.43698
#
# Static dielectric constant tensor:
#      x y z
#    x 1.722700 0.000000 0.047780 
#    y 0.000000 1.799600 0.000000 
#    z 0.047780 0.000000 1.755240 
# 
# From -- ./inp_files/70911.got.cif
#   From: 2010.05.17/outbox.ucp.g08.bks.cvg/sg11_36_cif.got.tgz:70911.got - 2010.06.11 11:38:39.
