data_PCOD9168370
_publ_section_title
;
Structure prediction by ZEFSAII (Michael W. Deem and Ramdas Pophale) SiO2 
 PCOD9168370
Probable space group: C 2/M
;
_chemical_formula_sum "Si O2"
_cell_formula_units_Z 64
_cell_length_a 21.236680
_cell_length_b 18.750291
_cell_length_c 16.724584
_cell_angle_alpha 90.000000
_cell_angle_beta 28.010988
_cell_angle_gamma 90.000000
_cell_volume 3127.633494
_symmetry_space_group_name_H-M "C 2/M"
_symmetry_group_IT_number 12
_symmetry_cell_setting 'monoclinic'
loop_
_space_group_symop_operation_xyz
x,y,z
-x,y,-z
-x,-y,-z
x,-y,z
1/2+x,1/2+y,z
1/2-x,1/2+y,-z
1/2-x,1/2-y,-z
1/2+x,1/2-y,z
loop_
_atom_site_type_symbol
_atom_site_label
_atom_site_fract_x
_atom_site_fract_y
_atom_site_fract_z
Si Si1 0.511810 0.579066 0.344082
Si Si2 0.188124 0.669427 0.205590
Si Si3 0.822574 0.581704 0.941670
Si Si4 0.602756 0.422157 0.701982
Si Si5 0.195320 0.224743 0.647197
Si Si6 0.570994 0.771487 0.118710
Si Si7 0.040515 0.767508 0.578615
Si Si8 0.879969 0.081770 0.076893
O O1 0.487868 0.500000 0.406073
O O2 0.420173 0.584735 0.366630
O O3 0.480689 0.651491 0.425148
O O4 0.667280 0.582240 0.143339
O O5 0.171243 0.608629 0.156739
O O6 0.050508 0.711652 0.365736
O O7 0.296461 0.727549 0.052320
O O8 0.252978 0.631737 0.209671
O O9 0.871295 0.500000 0.895747
O O10 0.898831 0.644736 0.904071
O O11 0.658691 0.500000 0.657372
O O12 0.687185 0.360202 0.647305
O O13 0.454917 0.418749 0.906979
O O14 0.250000 0.250000 0.500000
O O15 0.044339 0.254851 0.816993
O O16 0.302475 0.250011 0.591405
O O17 0.518398 0.741346 0.263584
O O18 0.847454 0.000000 0.134662
O O19 0.000000 0.106539 0.000000
#
# Coordination Sequence:
#
# PCOD9168370 Si02
#       8
#     8   8   8   8   8   8   8   8
#     4  10  15  23  40  62  88 118 149 173 206 263
#     4  11  16  28  44  61  83 114 149 187 223 257
#     4  10  16  23  38  61  87 117 146 175 214 257
#     4  10  17  28  44  61  87 126 155 177 219 267
#     4  10  17  28  40  61  89 120 152 174 207 263
#     4  10  16  26  40  59  84 115 147 178 215 259
#     4  10  17  26  40  62  86 115 147 178 215 264
#     4  10  19  30  47  69  87 110 155 204 231 251
#
# _framework density 20.462755999999999
#
# number of rings (size 3 to 8) (size 9 to 14) (size 15 to 20)
#    0.000    1.875    7.500    1.125    0.000    0.000 
#    0.000    6.875    0.000    0.750    0.000    2.625 
#    0.000    2.000    0.000    1.125    0.000    0.000 
#
# Total GULP energy -178537.282922 kJ/mol
# GULP energy per Si atom -5579.290091 kJ/mol
# Density = 2.041618 g / cm^3
# Si number density = 20.462756 Si / 1000 Ang^3
#
#
#
# Elastic Constant Matrix: (Units=GPa)
#
#
# Indices 1 2 3 4 5 6 
#
# 1 67.5348 40.8053 30.1155 -0.0003 -26.8811 0.0001
# 2 40.8053 199.2699 29.2071 -0.0006 -30.2455 0.0002
# 3 30.1155 29.2071 43.8843 -0.0011 -23.8742 0.0005
# 4 -0.0003 -0.0006 -0.0011 20.1353 0.0006 -13.9272
# 5 -26.8811 -30.2455 -23.8742 0.0006 32.7639 -0.0002
# 6 0.0001 0.0002 0.0005 -13.9272 -0.0002 14.0527
#
#
#
# Elastic Compliance Matrix: (Units=1/GPa)
#
#
# Indices 1 2 3 4 5 6 
#
# 1 0.024829 -0.001926 -0.009347 -0.000001 0.011781 0.000000
# 2 -0.001926 0.006052 -0.000872 0.000000 0.003371 0.000000
# 3 -0.009347 -0.000872 0.041705 0.000002 0.021915 0.000001
# 4 -0.000001 0.000000 0.000002 0.157916 -0.000001 0.156506
# 5 0.011781 0.003371 0.021915 -0.000001 0.059268 -0.000001
# 6 0.000000 0.000000 0.000001 0.156506 -0.000001 0.226269
#
#
# Mechanical properties :
#
#
# Convention : Reuss Voigt Hill
#
# Bulk Modulus (GPa) = 20.70644 56.77165 38.73905
# Shear Modulus (GPa) = 8.98589 27.42777 18.20683
#
# Velocity S-wave (km/s) = 2.09783 3.66509 2.98611
# Velocity P-wave (km/s) = 4.00111 6.76126 5.55533
#
# Compressibility (1/GPa) = 0.04829415
#
# Stress axis : x y z
#
# Youngs Moduli (GPa) = 40.27627 165.22754 23.97822
#
# Poissons Ratio (x) = 0.31823 0.22413
# Poissons Ratio (y) = 0.07757 0.02092
# Poissons Ratio (z) = 0.37647 0.14413
#
# Static dielectric constant tensor:
#      x y z
#    x 1.836540 0.000000 0.029990 
#    y 0.000000 1.770530 0.000000 
#    z 0.029990 0.000000 1.748270 
# 
# From -- ./inp_files/322433.got.cif
#   From: 2010.05.17/outbox.cif.g08.bks.cpg/sg12_162_cif.got.tgz:322433.got - 2010.06.03 13:09:07.
