data_PCOD9168339
_publ_section_title
;
Structure prediction by ZEFSAII (Michael W. Deem and Ramdas Pophale) SiO2 
 PCOD9168339
Probable space group: C 2/M
;
_chemical_formula_sum "Si O2"
_cell_formula_units_Z 40
_cell_length_a 21.667541
_cell_length_b 11.278535
_cell_length_c 9.496870
_cell_angle_alpha 90.000000
_cell_angle_beta 40.641903
_cell_angle_gamma 90.000000
_cell_volume 1511.622852
_symmetry_space_group_name_H-M "C 2/M"
_symmetry_group_IT_number 12
_symmetry_cell_setting 'monoclinic'
loop_
_space_group_symop_operation_xyz
x,y,z
-x,y,-z
-x,-y,-z
x,-y,z
1/2+x,1/2+y,z
1/2-x,1/2+y,-z
1/2-x,1/2-y,-z
1/2+x,1/2-y,z
loop_
_atom_site_type_symbol
_atom_site_label
_atom_site_fract_x
_atom_site_fract_y
_atom_site_fract_z
Si Si1 0.494257 0.235376 0.852075
Si Si2 0.638821 0.500000 0.279015
Si Si3 0.258294 0.500000 0.616463
Si Si4 0.681241 0.138251 0.379664
Si Si5 0.103477 0.743486 0.245804
Si Si6 0.250000 0.750000 0.500000
Si Si7 0.973184 0.000000 0.247384
O O1 0.600990 0.214928 0.604125
O O2 0.420254 0.188846 0.864819
O O3 0.481261 0.377126 0.873848
O O4 0.500000 0.189276 0.000000
O O5 0.725325 0.500000 0.242487
O O6 0.634804 0.380518 0.196810
O O7 0.448831 0.500000 0.456801
O O8 0.218599 0.621858 0.626578
O O9 0.367005 0.500000 0.370931
O O10 0.671883 0.175814 0.234586
O O11 0.770553 0.180679 0.312930
O O12 0.662433 0.000000 0.423581
O O13 0.000000 0.739395 0.500000
#
# Coordination Sequence:
#
# PCOD9168339 Si02
#       7
#     8   4   4   8   8   4   4
#     4  11  22  34  52  80 114 144 171 212 268 329
#     4  10  14  29  52  82 104 130 174 223 263 309
#     4  10  18  29  55  85 108 131 179 230 273 310
#     4  11  22  34  56  82 102 142 179 224 267 313
#     4  10  17  31  52  76 107 135 176 220 259 317
#     4  12  18  34  56  84 110 130 182 234 272 310
#     4  10  16  33  51  85 107 133 179 213 268 318
#
# _framework density 26.461628000000001
#
# number of rings (size 3 to 8) (size 9 to 14) (size 15 to 20)
#    0.600    0.800    9.000    1.200    0.000    4.000 
#    0.000    0.000    0.000    1.200    0.000    0.000 
#    0.000    0.000    0.000    0.000    0.000    0.000 
#
# Total GULP energy -111384.936350 kJ/mol
# GULP energy per Si atom -5569.246817 kJ/mol
# Density = 2.640140 g / cm^3
# Si number density = 26.461628 Si / 1000 Ang^3
#
#
#
# Elastic Constant Matrix: (Units=GPa)
#
#
# Indices 1 2 3 4 5 6 
#
# 1 84.7660 31.6991 66.8764 0.0000 29.1842 0.0000
# 2 31.6991 143.6777 19.3714 0.0000 19.8983 0.0000
# 3 66.8764 19.3714 131.2477 0.0000 26.8371 0.0000
# 4 0.0000 0.0000 0.0000 23.4028 0.0000 11.6087
# 5 29.1842 19.8983 26.8371 0.0000 60.5017 0.0000
# 6 0.0000 0.0000 0.0000 11.6087 0.0000 32.9708
#
#
#
# Elastic Compliance Matrix: (Units=1/GPa)
#
#
# Indices 1 2 3 4 5 6 
#
# 1 0.022670 -0.002885 -0.009990 0.000000 -0.005555 0.000000
# 2 -0.002885 0.007709 0.000623 0.000000 -0.001420 0.000000
# 3 -0.009990 0.000623 0.012838 0.000000 -0.001081 0.000000
# 4 0.000000 0.000000 0.000000 0.051772 0.000000 -0.018229
# 5 -0.005555 -0.001420 -0.001081 0.000000 0.020155 0.000000
# 6 0.000000 0.000000 0.000000 -0.018229 0.000000 0.036748
#
#
# Mechanical properties :
#
#
# Convention : Reuss Voigt Hill
#
# Bulk Modulus (GPa) = 53.43796 66.17612 59.80704
# Shear Modulus (GPa) = 27.37699 39.49137 33.43418
#
# Velocity S-wave (km/s) = 3.22000 3.86735 3.55843
# Velocity P-wave (km/s) = 5.83634 6.70854 6.28758
#
# Compressibility (1/GPa) = 0.01871329
#
# Stress axis : x y z
#
# Youngs Moduli (GPa) = 44.11070 129.71336 77.89095
#
# Poissons Ratio (x) = 0.37428 0.77810
# Poissons Ratio (y) = 0.12728 -0.04851
# Poissons Ratio (z) = 0.44065 -0.08078
#
# Static dielectric constant tensor:
#      x y z
#    x 3.210450 0.000000 0.058580 
#    y 0.000000 2.346030 0.000000 
#    z 0.058580 0.000000 2.161980 
# 
# From -- ./inp_files/83621.got.cif
#   From: 2010.05.17/outbox.cif.g08.bks.cpg/sg12_42_cif.got.tgz:83621.got - 2010.06.03 13:09:07.
