data_PCOD9168366
_publ_section_title
;
Structure prediction by ZEFSAII (Michael W. Deem and Ramdas Pophale) SiO2 
 PCOD9168366
Probable space group: C 2/M
;
_chemical_formula_sum "Si O2"
_cell_formula_units_Z 64
_cell_length_a 19.569310
_cell_length_b 22.552026
_cell_length_c 18.745609
_cell_angle_alpha 90.000000
_cell_angle_beta 25.665612
_cell_angle_gamma 90.000000
_cell_volume 3583.167076
_symmetry_space_group_name_H-M "C 2/M"
_symmetry_group_IT_number 12
_symmetry_cell_setting 'monoclinic'
loop_
_space_group_symop_operation_xyz
x,y,z
-x,y,-z
-x,-y,-z
x,-y,z
1/2+x,1/2+y,z
1/2-x,1/2+y,-z
1/2-x,1/2-y,-z
1/2+x,1/2-y,z
loop_
_atom_site_type_symbol
_atom_site_label
_atom_site_fract_x
_atom_site_fract_y
_atom_site_fract_z
Si Si1 0.091496 0.565689 0.312301
Si Si2 0.492862 0.736712 0.288569
Si Si3 0.781075 0.932886 0.985010
Si Si4 0.931348 0.145698 0.243551
Si Si5 0.158140 0.676334 0.028763
Si Si6 0.350990 0.568212 0.190472
Si Si7 0.966465 0.303204 0.613798
Si Si8 0.896393 0.232892 0.027430
O O1 0.011927 0.500000 0.387225
O O2 0.200995 0.568409 0.279647
O O3 0.002103 0.628064 0.397115
O O4 0.201185 0.567557 0.138700
O O5 0.377118 0.689533 0.358711
O O6 0.664620 0.703748 0.130113
O O7 0.450886 0.759977 0.406748
O O8 0.538848 0.793874 0.197792
O O9 0.678971 0.891809 0.028703
O O10 0.952048 0.903417 0.833467
O O11 0.791437 0.000000 0.950813
O O12 0.835545 0.110446 0.273163
O O13 0.032076 0.191940 0.101595
O O14 0.106288 0.700296 0.000717
O O15 0.382332 0.500000 0.183279
O O16 0.500000 0.586207 0.000000
O O17 0.779693 0.291105 0.797036
O O18 0.000000 0.291494 0.500000
O O19 0.000000 0.228214 0.000000
#
# Coordination Sequence:
#
# PCOD9168366 Si02
#       8
#     8   8   8   8   8   8   8   8
#     4  10  18  26  38  58  89 121 148 171 205 260
#     4   8  15  26  39  60  80 113 147 179 215 251
#     4  10  15  22  39  62  88 113 142 178 216 250
#     4  10  15  24  42  61  91 114 144 176 217 261
#     4   8  14  26  42  58  84 108 145 181 210 259
#     4  10  16  22  36  63  93 116 139 169 211 260
#     4  11  19  30  45  63  92 115 149 184 215 252
#     4  10  18  29  46  66  85 115 146 175 224 264
#
# _framework density 17.861294000000001
#
# number of rings (size 3 to 8) (size 9 to 14) (size 15 to 20)
#    0.000    2.375    3.750    3.000    0.000    0.250 
#    0.000    0.000    0.000    7.125    0.000    0.000 
#    0.000   50.000    0.000    0.000    0.000    0.000 
#
# Total GULP energy -178387.345997 kJ/mol
# GULP energy per Si atom -5574.604562 kJ/mol
# Density = 1.782064 g / cm^3
# Si number density = 17.861294 Si / 1000 Ang^3
#
#
#
# Elastic Constant Matrix: (Units=GPa)
#
#
# Indices 1 2 3 4 5 6 
#
# 1 60.1959 60.5230 19.3789 -0.0103 8.5476 0.0065
# 2 60.5230 147.2864 22.0550 -0.0202 16.8197 0.0066
# 3 19.3789 22.0550 29.2127 -0.0250 10.1426 0.0096
# 4 -0.0103 -0.0202 -0.0250 1.0462 -0.0011 8.8110
# 5 8.5476 16.8197 10.1426 -0.0011 21.6775 -0.0011
# 6 0.0065 0.0066 0.0096 8.8110 -0.0011 31.9434
#
#
#
# Elastic Compliance Matrix: (Units=1/GPa)
#
#
# Indices 1 2 3 4 5 6 
#
# 1 0.032147 -0.011474 -0.013555 0.000172 0.002569 -0.000047
# 2 -0.011474 0.012031 0.000237 -0.000094 -0.004921 0.000025
# 3 -0.013555 0.000237 0.049253 -0.000858 -0.017884 0.000224
# 4 0.000172 -0.000094 -0.000858 -0.722481 0.000381 0.199283
# 5 0.002569 -0.004921 -0.017884 0.000381 0.057304 -0.000097
# 6 -0.000047 0.000025 0.000224 0.199283 -0.000097 -0.023663
#
#
# Mechanical properties :
#
#
# Convention : Reuss Voigt Hill
#
# Bulk Modulus (GPa) = 22.80608 48.95654 35.88131
# Shear Modulus (GPa) = -9.41248 19.91597 5.25175
#
# Velocity S-wave (km/s) = -2.29809 3.34284 1.71659
# Velocity P-wave (km/s) = 2.39886 6.50909 4.90524
#
# Compressibility (1/GPa) = 0.04384796
#
# Stress axis : x y z
#
# Youngs Moduli (GPa) = 31.10670 83.12023 20.30327
#
# Poissons Ratio (x) = 0.95369 0.27521
# Poissons Ratio (y) = 0.35691 -0.00481
# Poissons Ratio (z) = 0.42165 -0.01969
#
# Static dielectric constant tensor:
#      x y z
#    x 1.646410 0.000000 -0.018240 
#    y 0.000000 1.652110 0.000010 
#    z -0.018240 0.000010 1.651770 
# 
# From -- ./inp_files/285763.got.cif
#   From: 2010.05.17/outbox.cif.g08.bks.cpg/sg12_143_cif.got.tgz:285763.got - 2010.06.03 13:09:07.
