data_PCOD9168600
_publ_section_title
;
Structure prediction by ZEFSAII (Michael W. Deem and Ramdas Pophale) SiO2 
 PCOD9168600
Probable space group: C 2/M
;
_chemical_formula_sum "Si O2"
_cell_formula_units_Z 36
_cell_length_a 27.123466
_cell_length_b 7.788086
_cell_length_c 7.344347
_cell_angle_alpha 90.000000
_cell_angle_beta 69.372268
_cell_angle_gamma 90.000000
_cell_volume 1451.956198
_symmetry_space_group_name_H-M "C 2/M"
_symmetry_group_IT_number 12
_symmetry_cell_setting 'monoclinic'
loop_
_space_group_symop_operation_xyz
x,y,z
-x,y,-z
-x,-y,-z
x,-y,z
1/2+x,1/2+y,z
1/2-x,1/2+y,-z
1/2-x,1/2-y,-z
1/2+x,1/2-y,z
loop_
_atom_site_type_symbol
_atom_site_label
_atom_site_fract_x
_atom_site_fract_y
_atom_site_fract_z
Si Si1 0.866436 0.500000 0.707960
Si Si2 0.938617 0.193815 0.541751
Si Si3 0.169320 0.802996 0.842248
Si Si4 0.748705 0.500000 0.897453
Si Si5 0.557484 0.698067 0.897022
Si Si6 0.302014 0.000000 0.446485
O O1 0.901113 0.331145 0.683227
O O2 0.809287 0.500000 0.884212
O O3 0.853157 0.500000 0.508122
O O4 0.932069 0.198724 0.332392
O O5 0.000000 0.228998 0.500000
O O6 0.926634 0.000000 0.619856
O O7 0.109791 0.730977 0.925251
O O8 0.199079 0.668843 0.674617
O O9 0.159437 0.000000 0.782981
O O10 0.207204 0.842318 0.966656
O O11 0.759966 0.500000 0.663338
O O12 0.551521 0.500000 0.970506
O O13 0.500000 0.780822 0.000000
#
# Coordination Sequence:
#
# PCOD9168600 Si02
#       6
#     4   8   8   4   8   4
#     4  10  19  30  46  71  96 123 161 194 236 278
#     4  10  20  34  50  69  99 127 158 194 234 280
#     4   9  17  28  40  64  97 120 152 188 233 281
#     4   8  18  27  41  66  93 126 150 187 238 279
#     4   9  16  29  49  70  97 124 154 195 237 277
#     4  10  16  25  42  63  92 125 148 183 239 273
#
# _framework density 24.794136000000002
#
# number of rings (size 3 to 8) (size 9 to 14) (size 15 to 20)
#    1.333    1.333    2.222    1.000    0.000    0.000 
#    2.000    2.222    0.000    0.000    0.000    1.556 
#    0.000    0.000    0.000    0.000    0.000    0.000 
#
# Total GULP energy -100235.695626 kJ/mol
# GULP energy per Si atom -5568.649757 kJ/mol
# Density = 2.473770 g / cm^3
# Si number density = 24.794136 Si / 1000 Ang^3
#
#
#
# Elastic Constant Matrix: (Units=GPa)
#
#
# Indices 1 2 3 4 5 6 
#
# 1 208.1524 52.9508 20.5699 0.0000 -37.5660 0.0000
# 2 52.9508 112.9893 32.2044 0.0000 -16.6266 0.0000
# 3 20.5699 32.2044 63.9719 0.0000 6.8570 0.0000
# 4 0.0000 0.0000 0.0000 109.5363 0.0000 -48.3478
# 5 -37.5660 -16.6266 6.8570 0.0000 45.2247 0.0000
# 6 0.0000 0.0000 0.0000 -48.3478 0.0000 45.3374
#
#
#
# Elastic Compliance Matrix: (Units=1/GPa)
#
#
# Indices 1 2 3 4 5 6 
#
# 1 0.006287 -0.001767 -0.001649 0.000000 0.004823 0.000000
# 2 -0.001767 0.011897 -0.005827 0.000000 0.003790 0.000000
# 3 -0.001649 -0.005827 0.019794 0.000000 -0.006513 0.000000
# 4 0.000000 0.000000 0.000000 0.017248 0.000000 0.018393
# 5 0.004823 0.003790 -0.006513 0.000000 0.028499 0.000000
# 6 0.000000 0.000000 0.000000 0.018393 0.000000 0.041671
#
#
# Mechanical properties :
#
#
# Convention : Reuss Voigt Hill
#
# Bulk Modulus (GPa) = 51.30402 66.28485 58.79443
# Shear Modulus (GPa) = 33.24937 58.64559 45.94748
#
# Velocity S-wave (km/s) = 3.66596 4.86871 4.30950
# Velocity P-wave (km/s) = 6.21739 7.64185 6.96613
#
# Compressibility (1/GPa) = 0.01949165
#
# Stress axis : x y z
#
# Youngs Moduli (GPa) = 159.06039 84.05585 50.52075
#
# Poissons Ratio (x) = 0.14849 0.08332
# Poissons Ratio (y) = 0.28099 0.29440
# Poissons Ratio (z) = 0.26232 0.48982
#
# Static dielectric constant tensor:
#      x y z
#    x 2.072040 0.000000 0.018900 
#    y 0.000000 1.981380 0.000000 
#    z 0.018900 0.000000 2.023120 
# 
# From -- ./inp_files/107431.got.cif
#   From: 2010.05.17/outbox.cif.g08.bks.cpg/sg12_54_cif.got.tgz:107431.got - 2010.06.03 13:09:07.
