data_PCOD9168746
_publ_section_title
;
Structure prediction by ZEFSAII (Michael W. Deem and Ramdas Pophale) SiO2 
 PCOD9168746
Probable space group: C 2/M
;
_chemical_formula_sum "Si O2"
_cell_formula_units_Z 56
_cell_length_a 18.925490
_cell_length_b 24.333186
_cell_length_c 12.360581
_cell_angle_alpha 90.000000
_cell_angle_beta 141.825973
_cell_angle_gamma 90.000000
_cell_volume 3518.115343
_symmetry_space_group_name_H-M "C 2/M"
_symmetry_group_IT_number 12
_symmetry_cell_setting 'monoclinic'
loop_
_space_group_symop_operation_xyz
x,y,z
-x,y,-z
-x,-y,-z
x,-y,z
1/2+x,1/2+y,z
1/2-x,1/2+y,-z
1/2-x,1/2-y,-z
1/2+x,1/2-y,z
loop_
_atom_site_type_symbol
_atom_site_label
_atom_site_fract_x
_atom_site_fract_y
_atom_site_fract_z
Si Si1 0.600954 0.223737 0.189854
Si Si2 0.743904 0.813158 0.956586
Si Si3 0.049662 0.562292 0.234043
Si Si4 0.479956 0.829821 0.686389
Si Si5 0.160359 0.603490 0.165478
Si Si6 0.871233 0.847190 0.310517
Si Si7 0.806587 0.727025 0.328835
O O1 0.555265 0.207866 0.252859
O O2 0.625128 0.165566 0.158050
O O3 0.715094 0.259202 0.312912
O O4 0.500000 0.251336 0.000000
O O5 0.616176 0.832027 0.835552
O O6 0.750204 0.809415 0.834572
O O7 0.750000 0.750000 0.000000
O O8 0.838034 0.843999 0.143092
O O9 0.043493 0.500000 0.264691
O O10 0.064311 0.609068 0.341037
O O11 0.147054 0.569186 0.259437
O O12 0.932905 0.579226 0.029748
O O13 0.416180 0.803219 0.508736
O O14 0.283075 0.610532 0.259671
O O15 0.843858 0.785867 0.323892
O O16 0.000000 0.859720 0.500000
#
# Coordination Sequence:
#
# PCOD9168746 Si02
#       7
#     8   8   8   8   8   8   8
#     4  10  16  28  44  67 102 130 159 197 246 290
#     4  10  18  30  46  65  96 137 163 190 236 295
#     4  10  18  30  52  72  91 124 167 211 255 284
#     4  11  18  31  46  70 100 127 165 207 241 285
#     4   9  15  29  47  71  96 122 154 207 253 289
#     4  10  18  29  45  72 101 130 157 187 241 304
#     4  10  20  28  44  69  99 141 165 187 233 297
#
# _framework density 15.917612999999999
#
# number of rings (size 3 to 8) (size 9 to 14) (size 15 to 20)
#    0.000    2.000    4.286    5.143    0.000    0.000 
#    0.000    0.000    0.000    3.429    0.000    0.000 
#    0.000    1.714    0.000    0.000    0.000    0.000 
#
# Total GULP energy -155944.914004 kJ/mol
# GULP energy per Si atom -5569.461214 kJ/mol
# Density = 1.588138 g / cm^3
# Si number density = 15.917613 Si / 1000 Ang^3
#
#
#
# Elastic Constant Matrix: (Units=GPa)
#
#
# Indices 1 2 3 4 5 6 
#
# 1 54.5495 17.8377 21.0701 0.0000 2.7979 0.0000
# 2 17.8377 50.6286 15.0251 0.0000 -4.1568 0.0000
# 3 21.0701 15.0251 82.5115 0.0000 1.3170 0.0000
# 4 0.0000 0.0000 0.0000 6.0076 0.0000 3.5881
# 5 2.7979 -4.1568 1.3170 0.0000 23.5018 0.0000
# 6 0.0000 0.0000 0.0000 3.5881 0.0000 8.8216
#
#
#
# Elastic Compliance Matrix: (Units=1/GPa)
#
#
# Indices 1 2 3 4 5 6 
#
# 1 0.022488 -0.006909 -0.004426 0.000000 -0.003651 0.000000
# 2 -0.006909 0.023368 -0.002572 0.000000 0.005100 0.000000
# 3 -0.004426 -0.002572 0.013729 0.000000 -0.000697 0.000000
# 4 0.000000 0.000000 0.000000 0.219866 0.000000 -0.089428
# 5 -0.003651 0.005100 -0.000697 0.000000 0.043926 0.000000
# 6 0.000000 0.000000 0.000000 -0.089428 0.000000 0.149731
#
#
# Mechanical properties :
#
#
# Convention : Reuss Voigt Hill
#
# Bulk Modulus (GPa) = 31.47619 32.83951 32.15785
# Shear Modulus (GPa) = 9.77489 16.58332 13.17910
#
# Velocity S-wave (km/s) = 2.48078 3.23123 2.88055
# Velocity P-wave (km/s) = 5.29368 5.88191 5.59553
#
# Compressibility (1/GPa) = 0.03177005
#
# Stress axis : x y z
#
# Youngs Moduli (GPa) = 44.46765 42.79329 72.83687
#
# Poissons Ratio (x) = 0.29568 0.32238
# Poissons Ratio (y) = 0.30725 0.18736
# Poissons Ratio (z) = 0.19682 0.11008
#
# Static dielectric constant tensor:
#      x y z
#    x 1.583940 0.000000 -0.001920 
#    y 0.000000 1.529500 0.000000 
#    z -0.001920 0.000000 1.560500 
# 
# From -- ./inp_files/160360.got.cif
#   From: 2010.05.17/outbox.cif.g08.bks.cpg/sg12_81_cif.got.tgz:160360.got - 2010.06.03 13:09:07.
