data_PCOD9168797
_publ_section_title
;
Structure prediction by ZEFSAII (Michael W. Deem and Ramdas Pophale) SiO2 
 PCOD9168797
Probable space group: C 2/M
;
_chemical_formula_sum "Si O2"
_cell_formula_units_Z 56
_cell_length_a 24.909373
_cell_length_b 18.315577
_cell_length_c 10.192155
_cell_angle_alpha 90.000000
_cell_angle_beta 43.360105
_cell_angle_gamma 90.000000
_cell_volume 3192.577687
_symmetry_space_group_name_H-M "C 2/M"
_symmetry_group_IT_number 12
_symmetry_cell_setting 'monoclinic'
loop_
_space_group_symop_operation_xyz
x,y,z
-x,y,-z
-x,-y,-z
x,-y,z
1/2+x,1/2+y,z
1/2-x,1/2+y,-z
1/2-x,1/2-y,-z
1/2+x,1/2-y,z
loop_
_atom_site_type_symbol
_atom_site_label
_atom_site_fract_x
_atom_site_fract_y
_atom_site_fract_z
Si Si1 0.304544 0.194819 0.086789
Si Si2 0.640654 0.642243 0.095235
Si Si3 0.056020 0.651438 0.523694
Si Si4 0.695446 0.081618 0.151583
Si Si5 0.379080 0.316482 0.574807
Si Si6 0.996903 0.150472 0.854407
Si Si7 0.959606 0.323979 0.941192
O O1 0.213644 0.191364 0.286435
O O2 0.328747 0.275713 0.994595
O O3 0.314816 0.140593 0.945792
O O4 0.366455 0.171831 0.088182
O O5 0.611858 0.645935 0.297994
O O6 0.573548 0.621410 0.111582
O O7 0.716566 0.591789 0.954122
O O8 0.131811 0.601605 0.373744
O O9 0.085076 0.735434 0.474355
O O10 0.000000 0.640776 0.500000
O O11 0.002994 0.638587 0.743529
O O12 0.683354 0.000000 0.123990
O O13 0.424859 0.354909 0.373622
O O14 0.979389 0.237432 0.897065
O O15 0.000000 0.123017 0.000000
O O16 0.000000 0.351836 0.000000
#
# Coordination Sequence:
#
# PCOD9168797 Si02
#       7
#     8   8   8   8   8   8   8
#     4  10  17  33  53  75 103 135 168 209 257 296
#     4  10  17  33  54  74 103 133 168 207 254 303
#     4  11  17  31  50  74 102 135 168 205 250 298
#     4  11  21  32  51  80 103 128 172 218 248 291
#     4  10  16  28  54  77 100 132 169 204 253 303
#     4   9  18  30  47  80 108 128 160 213 259 297
#     4   9  18  31  47  75 109 134 167 209 246 298
#
# _framework density 17.540685
#
# number of rings (size 3 to 8) (size 9 to 14) (size 15 to 20)
#    0.000    2.000    4.286    3.000    0.000    0.286 
#    2.571    2.857    0.000    9.000    0.000    0.000 
#    0.000    0.000    0.000    0.000    0.000    0.000 
#
# Total GULP energy -156044.277606 kJ/mol
# GULP energy per Si atom -5573.009914 kJ/mol
# Density = 1.750076 g / cm^3
# Si number density = 17.540685 Si / 1000 Ang^3
#
#
#
# Elastic Constant Matrix: (Units=GPa)
#
#
# Indices 1 2 3 4 5 6 
#
# 1 127.7396 -10.7722 73.8622 0.0000 10.5317 0.0000
# 2 -10.7722 16.6382 -7.5215 0.0000 2.0844 0.0000
# 3 73.8622 -7.5215 104.0656 0.0000 2.3932 0.0000
# 4 0.0000 0.0000 0.0000 0.9220 0.0000 1.5378
# 5 10.5317 2.0844 2.3932 0.0000 25.0969 0.0000
# 6 0.0000 0.0000 0.0000 1.5378 0.0000 -1.7110
#
#
#
# Elastic Compliance Matrix: (Units=1/GPa)
#
#
# Indices 1 2 3 4 5 6 
#
# 1 0.014336 0.005620 -0.009641 0.000000 -0.005563 0.000000
# 2 0.005620 0.065132 0.000899 0.000000 -0.007854 0.000000
# 3 -0.009641 0.000899 0.016462 0.000000 0.002401 0.000000
# 4 0.000000 0.000000 0.000000 0.433990 0.000000 0.390070
# 5 -0.005563 -0.007854 0.002401 0.000000 0.042603 0.000000
# 6 0.000000 0.000000 0.000000 0.390070 0.000000 -0.233875
#
#
# Mechanical properties :
#
#
# Convention : Reuss Voigt Hill
#
# Bulk Modulus (GPa) = 11.15002 39.95337 25.55170
# Shear Modulus (GPa) = 13.34098 17.71994 15.53046
#
# Velocity S-wave (km/s) = 2.76084 3.18184 2.97879
# Velocity P-wave (km/s) = 4.06614 6.02709 5.14098
#
# Compressibility (1/GPa) = 0.08968594
#
# Stress axis : x y z
#
# Youngs Moduli (GPa) = 69.75672 15.35353 60.74691
#
# Poissons Ratio (x) = -0.08629 0.58564
# Poissons Ratio (y) = -0.39204 -0.05462
# Poissons Ratio (z) = 0.67251 -0.01381
#
# Static dielectric constant tensor:
#      x y z
#    x 1.622940 0.000000 -0.003330 
#    y 0.000000 1.574770 0.000000 
#    z -0.003330 0.000000 1.614450 
# 
# From -- ./inp_files/98796.got.cif
#   From: 2010.05.17/outbox.cif.g08.bks.cpg/sg12_50_cif.got.tgz:98796.got - 2010.06.03 13:09:07.
