data_PCOD9168328
_publ_section_title
;
Structure prediction by ZEFSAII (Michael W. Deem and Ramdas Pophale) SiO2 
 PCOD9168328
Probable space group: C 2/M
;
_chemical_formula_sum "Si O2"
_cell_formula_units_Z 48
_cell_length_a 9.567402
_cell_length_b 30.658890
_cell_length_c 7.256626
_cell_angle_alpha 90.000000
_cell_angle_beta 104.742183
_cell_angle_gamma 90.000000
_cell_volume 2058.485874
_symmetry_space_group_name_H-M "C 2/M"
_symmetry_group_IT_number 12
_symmetry_cell_setting 'monoclinic'
loop_
_space_group_symop_operation_xyz
x,y,z
-x,y,-z
-x,-y,-z
x,-y,z
1/2+x,1/2+y,z
1/2-x,1/2+y,-z
1/2-x,1/2-y,-z
1/2+x,1/2-y,z
loop_
_atom_site_type_symbol
_atom_site_label
_atom_site_fract_x
_atom_site_fract_y
_atom_site_fract_z
Si Si1 0.426589 0.832647 0.178708
Si Si2 0.121564 0.500000 0.199239
Si Si3 0.965225 0.000000 0.268161
Si Si4 0.855645 0.404592 0.640884
Si Si5 0.599797 0.261632 0.855966
Si Si6 0.419223 0.410051 0.672931
Si Si7 0.839241 0.853310 0.135222
O O1 0.512072 0.870869 0.309386
O O2 0.444851 0.783224 0.259638
O O3 0.500000 0.829380 0.000000
O O4 0.260583 0.844188 0.076257
O O5 0.291088 0.500000 0.189540
O O6 0.103802 0.454793 0.305906
O O7 0.000000 0.500000 0.000000
O O8 0.000000 0.000000 0.500000
O O9 0.043780 0.043370 0.226196
O O10 0.747730 0.403766 0.431138
O O11 0.757668 0.386623 0.777689
O O12 0.632191 0.306194 0.759398
O O13 0.500000 0.271872 0.000000
O O14 0.750000 0.250000 0.000000
O O15 0.500000 0.409512 0.500000
O O16 0.503483 0.374124 0.814716
#
# Coordination Sequence:
#
# PCOD9168328 Si02
#       7
#     8   4   4   8   8   8   8
#     4   8  15  26  39  57  83 111 145 186 226 268
#     4  12  18  22  38  64  94 125 155 192 238 286
#     4  10  14  26  34  54  90 125 155 181 233 284
#     4  10  17  26  39  63  94 122 152 192 237 281
#     4   9  17  30  48  68  91 122 159 201 244 286
#     4   9  15  24  38  56  86 121 152 184 228 281
#     4   9  15  25  41  60  81 115 153 183 228 279
#
# _framework density 23.318110000000001
#
# number of rings (size 3 to 8) (size 9 to 14) (size 15 to 20)
#    0.000    2.667    5.000    2.500    0.000    0.000 
#    0.000    0.833    0.000    0.000    0.000    5.833 
#    0.000    0.000    0.000   15.500    0.000    0.000 
#
# Total GULP energy -133784.268982 kJ/mol
# GULP energy per Si atom -5574.344541 kJ/mol
# Density = 2.326504 g / cm^3
# Si number density = 23.318110 Si / 1000 Ang^3
#
#
#
# Elastic Constant Matrix: (Units=GPa)
#
#
# Indices 1 2 3 4 5 6 
#
# 1 78.8459 24.8775 36.0660 0.0000 30.4726 0.0000
# 2 24.8775 236.5581 67.5461 0.0000 39.2404 0.0000
# 3 36.0660 67.5461 108.9119 0.0000 37.2982 0.0000
# 4 0.0000 0.0000 0.0000 24.9559 0.0000 33.3557
# 5 30.4726 39.2404 37.2982 0.0000 52.4603 0.0000
# 6 0.0000 0.0000 0.0000 33.3557 0.0000 22.2289
#
#
#
# Elastic Compliance Matrix: (Units=1/GPa)
#
#
# Indices 1 2 3 4 5 6 
#
# 1 0.017093 0.000440 -0.003199 0.000000 -0.007983 0.000000
# 2 0.000440 0.005327 -0.002640 0.000000 -0.002363 0.000000
# 3 -0.003199 -0.002640 0.013966 0.000000 -0.006097 0.000000
# 4 0.000000 0.000000 0.000000 -0.039846 0.000000 0.059792
# 5 -0.007983 -0.002363 -0.006097 0.000000 0.029802 0.000000
# 6 0.000000 0.000000 0.000000 0.059792 0.000000 -0.044735
#
#
# Mechanical properties :
#
#
# Convention : Reuss Voigt Hill
#
# Bulk Modulus (GPa) = 39.08112 75.69944 57.39028
# Shear Modulus (GPa) = 5350.19431 39.65076 2694.92254
#
# Velocity S-wave (km/s) = 47.95225 4.12810 34.03278
# Velocity P-wave (km/s) = 55.52196 7.43343 39.61025
#
# Compressibility (1/GPa) = 0.02558781
#
# Stress axis : x y z
#
# Youngs Moduli (GPa) = 58.50358 187.72795 71.60019
#
# Poissons Ratio (x) = -0.08265 0.22907
# Poissons Ratio (y) = -0.02576 0.18904
# Poissons Ratio (z) = 0.18717 0.49563
#
# Static dielectric constant tensor:
#      x y z
#    x 1.913040 0.000000 -0.043780 
#    y 0.000000 1.967820 0.000000 
#    z -0.043780 0.000000 1.924350 
# 
# From -- ./inp_files/136385.got.cif
#   From: 2010.05.17/outbox.cif.g08.bks.cpg/sg12_69_cif.got.tgz:136385.got - 2010.06.03 13:09:07.
