data_PCOD9168015
_publ_section_title
;
Structure prediction by ZEFSAII (Michael W. Deem and Ramdas Pophale) SiO2 
 PCOD9168015
Probable space group: P 21/M
;
_chemical_formula_sum "Si O2"
_cell_formula_units_Z 28
_cell_length_a 9.000000
_cell_length_b 9.000000
_cell_length_c 27.000000
_cell_angle_alpha 90.000000
_cell_angle_beta 140.000000
_cell_angle_gamma 90.000000
_cell_volume 1405.776502
_symmetry_space_group_name_H-M "P 21/M"
_symmetry_group_IT_number 11
_symmetry_cell_setting 'monoclinic'
loop_
_space_group_symop_operation_xyz
x,y,z
-x,1/2+y,-z
-x,-y,-z
x,1/2-y,z
loop_
_atom_site_type_symbol
_atom_site_label
_atom_site_fract_x
_atom_site_fract_y
_atom_site_fract_z
Si Si1 0.740129 0.579952 0.070968
Si Si2 0.864840 0.574243 0.511450
Si Si3 0.590095 0.072373 0.650450
Si Si4 0.428064 0.920580 0.789694
Si Si5 0.065438 0.578161 0.784504
Si Si6 0.100758 0.575666 0.073807
Si Si7 0.747734 0.920952 0.345242
O O1 0.691387 0.750000 0.070777
O O2 0.871321 0.505938 0.149688
O O3 0.906958 0.574246 0.066506
O O4 0.500000 0.500000 0.000000
O O5 0.884016 0.750000 0.512346
O O6 0.597205 0.535739 0.439616
O O7 0.000000 0.500000 0.500000
O O8 0.015550 0.512744 0.593811
O O9 0.626911 0.250000 0.661720
O O10 0.449962 0.031555 0.665405
O O11 0.829227 0.991336 0.704189
O O12 0.399826 0.750000 0.764000
O O13 0.279850 0.932162 0.801737
O O14 0.692082 0.964281 0.861653
O O15 0.344549 0.048270 0.731889
O O16 0.024811 0.750000 0.784838
O O17 0.170656 0.750000 0.084961
O O18 0.000000 0.500000 0.000000
O O19 0.796272 0.750000 0.368824
#
# Coordination Sequence:
#
# PCOD9168015 Si02
#       7
#     4   4   4   4   4   4   4
#     4  11  24  41  62  88 117 147 185 229 275 330
#     4   9  17  31  53  82 114 147 186 234 284 337
#     4   9  19  35  56  83 113 145 186 233 281 335
#     4  11  24  40  57  82 115 150 190 235 280 333
#     4  11  24  39  57  83 114 149 191 233 278 333
#     4  11  24  41  62  89 117 148 187 230 276 332
#     4  10  20  35  57  85 113 146 190 236 284 340
#
# _framework density 19.917818
#
# number of rings (size 3 to 8) (size 9 to 14) (size 15 to 20)
#    0.000    1.714    0.000    5.143    0.000   14.857 
#    0.000    0.714    0.000    0.000    0.000    0.000 
#    0.000    0.000    0.000    0.000    0.000    0.000 
#
# Total GULP energy -156066.031922 kJ/mol
# GULP energy per Si atom -5573.786854 kJ/mol
# Density = 1.987248 g / cm^3
# Si number density = 19.917818 Si / 1000 Ang^3
#
#
#
# Elastic Constant Matrix: (Units=GPa)
#
#
# Indices 1 2 3 4 5 6 
#
# 1 31.0862 30.1464 8.5963 0.0000 14.5545 0.0000
# 2 30.1464 57.9816 18.3553 0.0000 26.7449 0.0000
# 3 8.5963 18.3553 77.9842 0.0000 19.4386 0.0000
# 4 0.0000 0.0000 0.0000 32.1330 0.0000 4.4391
# 5 14.5545 26.7449 19.4386 0.0000 19.1864 0.0000
# 6 0.0000 0.0000 0.0000 4.4391 0.0000 28.4949
#
#
#
# Elastic Compliance Matrix: (Units=1/GPa)
#
#
# Indices 1 2 3 4 5 6 
#
# 1 0.065452 -0.030165 0.002382 0.000000 -0.010016 0.000000
# 2 -0.030165 0.065475 0.006636 0.000000 -0.075110 0.000000
# 3 0.002382 0.006636 0.018402 0.000000 -0.029701 0.000000
# 4 0.000000 0.000000 0.000000 0.031805 0.000000 -0.004955
# 5 -0.010016 -0.075110 -0.029701 0.000000 0.194509 0.000000
# 6 0.000000 0.000000 0.000000 -0.004955 0.000000 0.035866
#
#
# Mechanical properties :
#
#
# Convention : Reuss Voigt Hill
#
# Bulk Modulus (GPa) = 9.34267 31.24978 20.29622
# Shear Modulus (GPa) = 10.21490 23.29310 16.75400
#
# Velocity S-wave (km/s) = 2.26708 3.42345 2.90342
# Velocity P-wave (km/s) = 3.39907 5.59911 4.63162
#
# Compressibility (1/GPa) = 0.10703582
#
# Stress axis : x y z
#
# Youngs Moduli (GPa) = 15.27832 15.27298 54.34208
#
# Poissons Ratio (x) = 0.46070 -0.12942
# Poissons Ratio (y) = 0.46086 -0.36062
# Poissons Ratio (z) = -0.03639 -0.10135
#
# Static dielectric constant tensor:
#      x y z
#    x 1.733410 0.000000 -0.061630 
#    y 0.000000 1.686550 0.000000 
#    z -0.061630 0.000000 1.461190 
# 
# From -- ./inp_files/70895.got.cif
#   From: 2010.05.17/outbox.ucp.g08.bks.cvg/sg11_36_cif.got.tgz:70895.got - 2010.06.11 11:38:39.
