data_PCOD9168216
_publ_section_title
;
Structure prediction by ZEFSAII (Michael W. Deem and Ramdas Pophale) SiO2 
 PCOD9168216
Probable space group: P 21/M
;
_chemical_formula_sum "Si O2"
_cell_formula_units_Z 32
_cell_length_a 15.000000
_cell_length_b 9.000000
_cell_length_c 24.000000
_cell_angle_alpha 90.000000
_cell_angle_beta 30.000000
_cell_angle_gamma 90.000000
_cell_volume 1620.000000
_symmetry_space_group_name_H-M "P 21/M"
_symmetry_group_IT_number 11
_symmetry_cell_setting 'monoclinic'
loop_
_space_group_symop_operation_xyz
x,y,z
-x,1/2+y,-z
-x,-y,-z
x,1/2-y,z
loop_
_atom_site_type_symbol
_atom_site_label
_atom_site_fract_x
_atom_site_fract_y
_atom_site_fract_z
Si Si1 0.086369 0.420188 0.659507
Si Si2 0.069208 0.575259 0.135338
Si Si3 0.442107 0.922778 0.475076
Si Si4 0.031701 0.077034 0.559794
Si Si5 0.184237 0.083330 0.898534
Si Si6 0.382947 0.083611 0.906530
Si Si7 0.285018 0.076916 0.330050
Si Si8 0.737138 0.075387 0.247812
O O1 0.160340 0.250000 0.625200
O O2 0.235337 0.545875 0.581034
O O3 0.014284 0.428994 0.635761
O O4 0.965726 0.441700 0.779502
O O5 0.066535 0.750000 0.123554
O O6 0.906307 0.500121 0.188328
O O7 0.260564 0.507716 0.015349
O O8 0.486616 0.750000 0.448966
O O9 0.500000 0.000000 0.500000
O O10 0.555853 0.016394 0.371000
O O11 0.993856 0.250000 0.563988
O O12 0.224524 0.042680 0.426868
O O13 0.892434 0.964815 0.608129
O O14 0.172192 0.250000 0.881585
O O15 0.258892 0.093658 0.919318
O O16 0.287951 0.976403 0.801743
O O17 0.000000 0.000000 0.000000
O O18 0.419681 0.250000 0.907784
O O19 0.559976 0.011891 0.785032
O O20 0.329362 0.250000 0.303325
O O21 0.761514 0.250000 0.239411
#
# Coordination Sequence:
#
# PCOD9168216 Si02
#       8
#     4   4   4   4   4   4   4   4
#     4  10  22  40  62  90 120 157 201 247 302 359
#     4  11  22  38  61  85 119 159 203 250 296 355
#     4  12  24  38  57  84 119 160 205 250 296 353
#     4   9  20  41  66  92 122 153 188 240 303 362
#     4  11  23  38  57  84 118 158 203 249 298 354
#     4  11  24  40  60  87 121 159 202 248 300 358
#     4  10  21  39  65  94 121 153 193 241 300 361
#     4  12  24  38  56  80 117 161 204 251 302 353
#
# _framework density 19.753086
#
# number of rings (size 3 to 8) (size 9 to 14) (size 15 to 20)
#    0.000    1.250    2.500    3.750    1.750    3.000 
#    0.000    0.625    0.000    0.000    0.000    0.000 
#    0.000    0.000    0.000    0.000    0.000    0.000 
#
# Total GULP energy -178329.860502 kJ/mol
# GULP energy per Si atom -5572.808141 kJ/mol
# Density = 1.970813 g / cm^3
# Si number density = 19.753086 Si / 1000 Ang^3
#
#
#
# Elastic Constant Matrix: (Units=GPa)
#
#
# Indices 1 2 3 4 5 6 
#
# 1 35.6258 14.8544 10.7791 0.0000 16.7220 0.0000
# 2 14.8544 117.0880 48.1429 0.0000 6.7027 0.0000
# 3 10.7791 48.1429 115.1669 0.0000 15.9548 0.0000
# 4 0.0000 0.0000 0.0000 28.9350 0.0000 -3.8828
# 5 16.7220 6.7027 15.9548 0.0000 29.3563 0.0000
# 6 0.0000 0.0000 0.0000 -3.8828 0.0000 23.0813
#
#
#
# Elastic Compliance Matrix: (Units=1/GPa)
#
#
# Indices 1 2 3 4 5 6 
#
# 1 0.040043 -0.004266 0.001147 0.000000 -0.022459 0.000000
# 2 -0.004266 0.010768 -0.004432 0.000000 0.002380 0.000000
# 3 0.001147 -0.004432 0.011224 0.000000 -0.005741 0.000000
# 4 0.000000 0.000000 0.000000 0.035358 0.000000 0.005948
# 5 -0.022459 0.002380 -0.005741 0.000000 0.049434 0.000000
# 6 0.000000 0.000000 0.000000 0.005948 0.000000 0.044326
#
#
# Mechanical properties :
#
#
# Convention : Reuss Voigt Hill
#
# Bulk Modulus (GPa) = 21.30716 46.15928 33.73322
# Shear Modulus (GPa) = 22.53286 29.21480 25.87383
#
# Velocity S-wave (km/s) = 3.38113 3.84995 3.62313
# Velocity P-wave (km/s) = 5.10420 6.57128 5.88364
#
# Compressibility (1/GPa) = 0.04693259
#
# Stress axis : x y z
#
# Youngs Moduli (GPa) = 24.97327 92.87046 89.09761
#
# Poissons Ratio (x) = 0.39618 -0.10217
# Poissons Ratio (y) = 0.10653 0.39485
# Poissons Ratio (z) = -0.02864 0.41157
#
# Static dielectric constant tensor:
#      x y z
#    x 1.678610 0.000000 0.015630 
#    y 0.000000 2.095640 0.000000 
#    z 0.015630 0.000000 1.722340 
# 
# From -- ./inp_files/69041.got.cif
#   From: 2010.05.17/outbox.ucp.g08.bks.cvg/sg11_35_cif.got.tgz:69041.got - 2010.06.11 11:38:39.
