data_PCOD9168900
_publ_section_title
;
Structure prediction by ZEFSAII (Michael W. Deem and Ramdas Pophale) SiO2 
 PCOD9168900
Probable space group: C 2/M
;
_chemical_formula_sum "Si O2"
_cell_formula_units_Z 48
_cell_length_a 5.394265
_cell_length_b 29.033571
_cell_length_c 15.598251
_cell_angle_alpha 90.000000
_cell_angle_beta 66.108464
_cell_angle_gamma 90.000000
_cell_volume 2233.592332
_symmetry_space_group_name_H-M "C 2/M"
_symmetry_group_IT_number 12
_symmetry_cell_setting 'monoclinic'
loop_
_space_group_symop_operation_xyz
x,y,z
-x,y,-z
-x,-y,-z
x,-y,z
1/2+x,1/2+y,z
1/2-x,1/2+y,-z
1/2-x,1/2-y,-z
1/2+x,1/2-y,z
loop_
_atom_site_type_symbol
_atom_site_label
_atom_site_fract_x
_atom_site_fract_y
_atom_site_fract_z
Si Si1 0.021199 0.356172 0.252343
Si Si2 0.706850 0.446632 0.040088
Si Si3 0.359839 0.722717 0.111589
Si Si4 0.472568 0.585032 0.755434
Si Si5 0.193410 0.931570 0.546762
Si Si6 0.284993 0.173440 0.467610
O O1 0.195213 0.319959 0.173257
O O2 0.247543 0.391237 0.255121
O O3 0.776065 0.380458 0.234347
O O4 0.897173 0.334877 0.356807
O O5 0.742959 0.500000 0.007851
O O6 0.607655 0.444500 0.151073
O O7 0.500000 0.425657 0.000000
O O8 0.000000 0.423280 0.000000
O O9 0.617656 0.739624 0.131903
O O10 0.500000 0.712872 0.000000
O O11 0.549383 0.560023 0.656867
O O12 0.500000 0.948467 0.500000
O O13 0.219288 0.876013 0.524495
O O14 0.000000 0.949209 0.500000
O O15 0.500000 0.196004 0.500000
O O16 0.000000 0.198019 0.500000
#
# Coordination Sequence:
#
# PCOD9168900 Si02
#       6
#     8   8   8   8   8   8
#     4  12  21  33  61  92 110 143 196 244 277 330
#     4  10  23  43  60  79 119 164 190 228 295 350
#     4  10  23  43  59  75 110 156 188 227 296 355
#     4  12  21  33  60  93 111 145 197 244 276 329
#     4  10  16  30  49  80 115 150 174 221 283 349
#     4  10  16  30  49  80 113 149 172 220 283 350
#
# _framework density 21.490046
#
# number of rings (size 3 to 8) (size 9 to 14) (size 15 to 20)
#    0.000    1.333    6.667    2.000    0.000    2.000 
#    0.000    0.000    0.000    4.000    0.000    0.000 
#    0.000    0.000    0.000    0.000    0.000    0.000 
#
# Total GULP energy -133915.623081 kJ/mol
# GULP energy per Si atom -5579.817628 kJ/mol
# Density = 2.144113 g / cm^3
# Si number density = 21.490046 Si / 1000 Ang^3
#
#
#
# Elastic Constant Matrix: (Units=GPa)
#
#
# Indices 1 2 3 4 5 6 
#
# 1 189.2904 7.5313 44.2308 0.0000 -11.6984 0.0000
# 2 7.5313 34.4555 7.4891 0.0000 -2.8450 0.0000
# 3 44.2308 7.4891 101.1504 0.0000 -8.6452 0.0000
# 4 0.0000 0.0000 0.0000 27.4807 0.0000 16.0386
# 5 -11.6984 -2.8450 -8.6452 0.0000 37.8159 0.0000
# 6 0.0000 0.0000 0.0000 16.0386 0.0000 -18.0569
#
#
#
# Elastic Compliance Matrix: (Units=1/GPa)
#
#
# Indices 1 2 3 4 5 6 
#
# 1 0.005958 -0.000668 -0.002451 0.000000 0.001233 0.000000
# 2 -0.000668 0.029687 -0.001767 0.000000 0.001623 0.000000
# 3 -0.002451 -0.001767 0.011232 0.000000 0.001677 0.000000
# 4 0.000000 0.000000 0.000000 0.023966 0.000000 0.021287
# 5 0.001233 0.001623 0.001677 0.000000 0.027331 0.000000
# 6 0.000000 0.000000 0.000000 0.021287 0.000000 -0.036473
#
#
# Mechanical properties :
#
#
# Convention : Reuss Voigt Hill
#
# Bulk Modulus (GPa) = 26.94999 49.26652 38.10825
# Shear Modulus (GPa) = 59.63693 27.15760 43.39726
#
# Velocity S-wave (km/s) = 5.27363 3.55875 4.49866
# Velocity P-wave (km/s) = 7.04624 6.31358 6.68995
#
# Compressibility (1/GPa) = 0.03710577
#
# Stress axis : x y z
#
# Youngs Moduli (GPa) = 167.83398 33.68475 89.03118
#
# Poissons Ratio (x) = 0.02250 0.21818
# Poissons Ratio (y) = 0.11210 0.15734
# Poissons Ratio (z) = 0.41129 0.05953
#
# Static dielectric constant tensor:
#      x y z
#    x 1.805530 0.000000 0.044010 
#    y 0.000000 1.799450 0.000000 
#    z 0.044010 0.000000 1.813350 
# 
# From -- ./inp_files/192516.got.cif
#   From: 2010.05.17/outbox.cif.g08.bks.cpg/sg12_97_cif.got.tgz:192516.got - 2010.06.03 13:09:07.
