data_PCOD9168326
_publ_section_title
;
Structure prediction by ZEFSAII (Michael W. Deem and Ramdas Pophale) SiO2 
 PCOD9168326
Probable space group: C 2/M
;
_chemical_formula_sum "Si O2"
_cell_formula_units_Z 44
_cell_length_a 5.378157
_cell_length_b 13.983227
_cell_length_c 26.243224
_cell_angle_alpha 90.000000
_cell_angle_beta 83.272191
_cell_angle_gamma 90.000000
_cell_volume 1960.004797
_symmetry_space_group_name_H-M "C 2/M"
_symmetry_group_IT_number 12
_symmetry_cell_setting 'monoclinic'
loop_
_space_group_symop_operation_xyz
x,y,z
-x,y,-z
-x,-y,-z
x,-y,z
1/2+x,1/2+y,z
1/2-x,1/2+y,-z
1/2-x,1/2-y,-z
1/2+x,1/2-y,z
loop_
_atom_site_type_symbol
_atom_site_label
_atom_site_fract_x
_atom_site_fract_y
_atom_site_fract_z
Si Si1 0.235279 0.789278 0.057811
Si Si2 0.268569 0.500000 0.148313
Si Si3 0.000000 0.184796 0.500000
Si Si4 0.627206 0.311104 0.390623
Si Si5 0.804832 0.500000 0.085483
Si Si6 0.942695 0.143702 0.722867
Si Si7 0.081188 0.637467 0.236378
O O1 0.461053 0.740720 0.083347
O O2 0.275043 0.902055 0.055577
O O3 0.250000 0.750000 0.000000
O O4 0.561569 0.500000 0.128175
O O5 0.201232 0.595253 0.182344
O O6 0.075591 0.500000 0.105790
O O7 0.250000 0.250000 0.500000
O O8 0.047732 0.134350 0.444465
O O9 0.408648 0.229714 0.390803
O O10 0.612561 0.358114 0.335781
O O11 0.954264 0.250290 0.748458
O O12 0.700240 0.099578 0.754571
O O13 0.217357 0.104344 0.726601
#
# Coordination Sequence:
#
# PCOD9168326 Si02
#       7
#     8   4   4   8   4   8   8
#     4  10  23  45  75 109 135 178 223 259 315 381
#     4  12  26  44  59  88 136 169 200 254 326 365
#     4   8  16  20  34  62 102 136 158 226 306 382
#     4  10  14  25  41  68 103 133 179 231 310 359
#     4  12  26  48  67 104 146 172 210 279 316 369
#     4  10  17  33  55  78 101 146 198 253 288 357
#     4  10  20  35  53  77 105 154 196 241 294 351
#
# _framework density 22.448924000000002
#
# number of rings (size 3 to 8) (size 9 to 14) (size 15 to 20)
#    0.000    1.818    3.636    2.182    0.000    2.909 
#   19.636    0.000    0.000    0.000    0.000    0.000 
#    0.000    8.000    0.000    0.000    0.000    0.000 
#
# Total GULP energy -122511.702906 kJ/mol
# GULP energy per Si atom -5568.713768 kJ/mol
# Density = 2.239783 g / cm^3
# Si number density = 22.448924 Si / 1000 Ang^3
#
#
#
# Elastic Constant Matrix: (Units=GPa)
#
#
# Indices 1 2 3 4 5 6 
#
# 1 139.7929 1.4135 -15.8496 0.0000 3.1296 0.0000
# 2 1.4135 117.6324 20.6519 0.0000 18.8397 0.0000
# 3 -15.8496 20.6519 60.5493 0.0000 -0.1308 0.0000
# 4 0.0000 0.0000 0.0000 -21.5869 0.0000 -16.1846
# 5 3.1296 18.8397 -0.1308 0.0000 26.4528 0.0000
# 6 0.0000 0.0000 0.0000 -16.1846 0.0000 36.4123
#
#
#
# Elastic Compliance Matrix: (Units=1/GPa)
#
#
# Indices 1 2 3 4 5 6 
#
# 1 0.007404 -0.000351 0.002057 0.000000 -0.000615 0.000000
# 2 -0.000351 0.010315 -0.003626 0.000000 -0.007322 0.000000
# 3 0.002057 -0.003626 0.018296 0.000000 0.002430 0.000000
# 4 0.000000 0.000000 0.000000 -0.034746 0.000000 -0.015444
# 5 -0.000615 -0.007322 0.002430 0.000000 0.043103 0.000000
# 6 0.000000 0.000000 0.000000 -0.015444 0.000000 0.020599
#
#
# Mechanical properties :
#
#
# Convention : Reuss Voigt Hill
#
# Bulk Modulus (GPa) = 31.08208 36.71181 33.89694
# Shear Modulus (GPa) = 62.86433 29.03955 45.95194
#
# Velocity S-wave (km/s) = 5.29755 3.60054 4.52924
# Velocity P-wave (km/s) = 7.16202 5.80295 6.51800
#
# Compressibility (1/GPa) = 0.03217288
#
# Stress axis : x y z
#
# Youngs Moduli (GPa) = 135.06307 96.95000 54.65744
#
# Poissons Ratio (x) = 0.03407 -0.11241
# Poissons Ratio (y) = 0.04747 0.19818
# Poissons Ratio (z) = -0.27777 0.35153
#
# Static dielectric constant tensor:
#      x y z
#    x 1.906900 0.000000 -0.015710 
#    y 0.000000 1.791960 0.000000 
#    z -0.015710 0.000000 1.860980 
# 
# From -- ./inp_files/354778.got.cif
#   From: 2010.05.17/outbox.cif.g08.bks.cpg/sg12_178_cif.got.tgz:354778.got - 2010.06.03 13:09:07.
