data_PCOD9168338
_publ_section_title
;
Structure prediction by ZEFSAII (Michael W. Deem and Ramdas Pophale) SiO2 
 PCOD9168338
Probable space group: C 2/M
;
_chemical_formula_sum "Si O2"
_cell_formula_units_Z 28
_cell_length_a 15.533593
_cell_length_b 10.930521
_cell_length_c 10.652082
_cell_angle_alpha 90.000000
_cell_angle_beta 138.741652
_cell_angle_gamma 90.000000
_cell_volume 1192.704019
_symmetry_space_group_name_H-M "C 2/M"
_symmetry_group_IT_number 12
_symmetry_cell_setting 'monoclinic'
loop_
_space_group_symop_operation_xyz
x,y,z
-x,y,-z
-x,-y,-z
x,-y,z
1/2+x,1/2+y,z
1/2-x,1/2+y,-z
1/2-x,1/2-y,-z
1/2+x,1/2-y,z
loop_
_atom_site_type_symbol
_atom_site_label
_atom_site_fract_x
_atom_site_fract_y
_atom_site_fract_z
Si Si1 0.351859 0.356023 0.360633
Si Si2 0.114491 0.246770 0.231920
Si Si3 0.246264 0.000000 0.967128
Si Si4 0.491304 0.500000 0.840849
Si Si5 0.026111 0.500000 0.184783
O O1 0.500000 0.317686 0.500000
O O2 0.353493 0.500000 0.411387
O O3 0.255818 0.262694 0.324014
O O4 0.288449 0.381264 0.154974
O O5 0.097882 0.373512 0.286740
O O6 0.084015 0.124708 0.275938
O O7 0.000000 0.248616 0.000000
O O8 0.140439 0.000000 0.959326
O O9 0.400520 0.000000 0.136482
O O10 0.500000 0.500000 0.000000
O O11 0.000000 0.500000 0.000000
#
# Coordination Sequence:
#
# PCOD9168338 Si02
#       5
#     8   8   4   4   4
#     4   9  16  30  59  80  94 129 185 216 247 297
#     4  10  16  34  51  78 106 134 161 223 254 300
#     4  10  17  33  53  81 102 140 166 218 254 309
#     4  10  24  33  47  77 119 137 163 206 275 304
#     4  10  14  28  58  78  98 125 179 214 253 284
#
# _framework density 23.476068000000001
#
# number of rings (size 3 to 8) (size 9 to 14) (size 15 to 20)
#    0.857    1.429    7.143    0.000    0.000    1.143 
#    0.000    2.143    0.000    0.000    0.000    0.000 
#    0.000    0.000    0.000    0.000    0.000    0.000 
#
# Total GULP energy -78034.082939 kJ/mol
# GULP energy per Si atom -5573.863067 kJ/mol
# Density = 2.342264 g / cm^3
# Si number density = 23.476068 Si / 1000 Ang^3
#
#
#
# Elastic Constant Matrix: (Units=GPa)
#
#
# Indices 1 2 3 4 5 6 
#
# 1 148.1918 55.2303 35.9023 0.0000 55.8937 0.0000
# 2 55.2303 150.0970 18.7415 0.0000 25.0420 0.0000
# 3 35.9023 18.7415 79.8149 0.0000 33.8606 0.0000
# 4 0.0000 0.0000 0.0000 0.3600 0.0000 6.2653
# 5 55.8937 25.0420 33.8606 0.0000 57.5458 0.0000
# 6 0.0000 0.0000 0.0000 6.2653 0.0000 43.6708
#
#
#
# Elastic Compliance Matrix: (Units=1/GPa)
#
#
# Indices 1 2 3 4 5 6 
#
# 1 0.011499 -0.002541 -0.000409 0.000000 -0.009822 0.000000
# 2 -0.002541 0.007759 -0.000391 0.000000 -0.000678 0.000000
# 3 -0.000409 -0.000391 0.016744 0.000000 -0.009285 0.000000
# 4 0.000000 0.000000 0.000000 -1.855891 0.000000 0.266258
# 5 -0.009822 -0.000678 -0.009285 0.000000 0.032676 0.000000
# 6 0.000000 0.000000 0.000000 0.266258 0.000000 -0.015300
#
#
# Mechanical properties :
#
#
# Convention : Reuss Voigt Hill
#
# Bulk Modulus (GPa) = 34.10678 66.42798 50.26738
# Shear Modulus (GPa) = -2.79946 38.19729 17.69892
#
# Velocity S-wave (km/s) = -1.09319 4.03808 2.74873
# Velocity P-wave (km/s) = 3.60089 7.07806 5.61540
#
# Compressibility (1/GPa) = 0.02931968
#
# Stress axis : x y z
#
# Youngs Moduli (GPa) = 86.96474 128.87475 59.72379
#
# Poissons Ratio (x) = 0.32752 0.02440
# Poissons Ratio (y) = 0.22101 0.02336
# Poissons Ratio (z) = 0.03554 0.05042
#
# Static dielectric constant tensor:
#      x y z
#    x 0.433350 0.000000 -0.277700 
#    y 0.000000 1.939820 0.000000 
#    z -0.277700 0.000000 2.057150 
# 
# From -- ./inp_files/83099.got.cif
#   From: 2010.05.17/outbox.cif.g08.bks.cpg/sg12_42_cif.got.tgz:83099.got - 2010.06.03 13:09:07.
