data_PCOD9168833
_publ_section_title
;
Structure prediction by ZEFSAII (Michael W. Deem and Ramdas Pophale) SiO2 
 PCOD9168833
Probable space group: C 2/M
;
_chemical_formula_sum "Si O2"
_cell_formula_units_Z 48
_cell_length_a 11.125958
_cell_length_b 18.100518
_cell_length_c 13.270374
_cell_angle_alpha 90.000000
_cell_angle_beta 87.398893
_cell_angle_gamma 90.000000
_cell_volume 2669.708814
_symmetry_space_group_name_H-M "C 2/M"
_symmetry_group_IT_number 12
_symmetry_cell_setting 'monoclinic'
loop_
_space_group_symop_operation_xyz
x,y,z
-x,y,-z
-x,-y,-z
x,-y,z
1/2+x,1/2+y,z
1/2-x,1/2+y,-z
1/2-x,1/2-y,-z
1/2+x,1/2-y,z
loop_
_atom_site_type_symbol
_atom_site_label
_atom_site_fract_x
_atom_site_fract_y
_atom_site_fract_z
Si Si1 0.150850 0.358994 0.419465
Si Si2 0.342155 0.316965 0.257024
Si Si3 0.108373 0.413995 0.636266
Si Si4 0.026087 0.913083 0.117598
Si Si5 0.951308 0.198926 0.601856
Si Si6 0.769654 0.835998 0.775992
O O1 0.255222 0.364028 0.333088
O O2 0.174538 0.386540 0.531316
O O3 0.117031 0.272558 0.430116
O O4 0.031414 0.398187 0.381946
O O5 0.421326 0.367414 0.179853
O O6 0.436447 0.279905 0.331539
O O7 0.265496 0.250410 0.209465
O O8 0.129836 0.500000 0.644796
O O9 0.152425 0.376217 0.737372
O O10 0.154336 0.874311 0.138731
O O11 0.028213 0.000000 0.147653
O O12 0.000000 0.909433 0.000000
O O13 0.861892 0.156880 0.678361
O O14 0.000000 0.160077 0.500000
#
# Coordination Sequence:
#
# PCOD9168833 Si02
#       6
#     8   8   8   8   8   8
#     4  10  18  30  47  76 112 144 179 206 246 306
#     4  10  20  34  58  80 105 139 180 222 264 316
#     4  11  20  31  47  75 115 152 179 206 249 310
#     4  10  23  42  61  80 103 134 176 231 288 327
#     4  10  16  29  50  77 109 140 178 217 252 297
#     4  10  20  34  56  81 105 140 181 221 264 315
#
# _framework density 17.979489000000001
#
# number of rings (size 3 to 8) (size 9 to 14) (size 15 to 20)
#    0.000    1.833    3.333    2.500    0.000    4.667 
#    0.000    0.000    0.000    5.500    0.000    3.500 
#    0.000    0.000    0.000    0.000    0.000    0.000 
#
# Total GULP energy -133754.981780 kJ/mol
# GULP energy per Si atom -5573.124241 kJ/mol
# Density = 1.793857 g / cm^3
# Si number density = 17.979489 Si / 1000 Ang^3
#
#
#
# Elastic Constant Matrix: (Units=GPa)
#
#
# Indices 1 2 3 4 5 6 
#
# 1 67.1553 18.5819 32.2779 0.0000 5.9771 0.0000
# 2 18.5819 67.5841 34.0637 0.0000 9.1439 0.0000
# 3 32.2779 34.0637 63.5168 0.0000 12.0253 0.0000
# 4 0.0000 0.0000 0.0000 21.1871 0.0000 -0.2983
# 5 5.9771 9.1439 12.0253 0.0000 27.8454 0.0000
# 6 0.0000 0.0000 0.0000 -0.2983 0.0000 16.8810
#
#
#
# Elastic Compliance Matrix: (Units=1/GPa)
#
#
# Indices 1 2 3 4 5 6 
#
# 1 0.019717 -0.000517 -0.009772 0.000000 0.000158 0.000000
# 2 -0.000517 0.020408 -0.010274 0.000000 -0.002154 0.000000
# 3 -0.009772 -0.010274 0.027427 0.000000 -0.006373 0.000000
# 4 0.000000 0.000000 0.000000 0.047210 0.000000 0.000834
# 5 0.000158 -0.002154 -0.006373 0.000000 0.039338 0.000000
# 6 0.000000 0.000000 0.000000 0.000834 0.000000 0.059253
#
#
# Mechanical properties :
#
#
# Convention : Reuss Voigt Hill
#
# Bulk Modulus (GPa) = 37.84377 40.90036 39.37207
# Shear Modulus (GPa) = 18.99054 20.73821 19.86437
#
# Velocity S-wave (km/s) = 3.25350 3.39991 3.32751
# Velocity P-wave (km/s) = 5.93361 6.18145 6.05879
#
# Compressibility (1/GPa) = 0.02642443
#
# Stress axis : x y z
#
# Youngs Moduli (GPa) = 50.71797 48.99935 36.46084
#
# Poissons Ratio (x) = 0.02533 0.35631
# Poissons Ratio (y) = 0.02622 0.37462
# Poissons Ratio (z) = 0.49563 0.50344
#
# Static dielectric constant tensor:
#      x y z
#    x 1.682620 0.000000 0.007580 
#    y 0.000000 1.623540 0.000000 
#    z 0.007580 0.000000 1.614320 
# 
# From -- ./inp_files/131086.got.cif
#   From: 2010.05.17/outbox.cif.g08.bks.cpg/sg12_66_cif.got.tgz:131086.got - 2010.06.03 13:09:07.
