data_PCOD9168805
_publ_section_title
;
Structure prediction by ZEFSAII (Michael W. Deem and Ramdas Pophale) SiO2 
 PCOD9168805
Probable space group: C 2/M
;
_chemical_formula_sum "Si O2"
_cell_formula_units_Z 46
_cell_length_a 22.781717
_cell_length_b 13.032555
_cell_length_c 16.411598
_cell_angle_alpha 90.000000
_cell_angle_beta 21.769329
_cell_angle_gamma 90.000000
_cell_volume 1807.130341
_symmetry_space_group_name_H-M "C 2/M"
_symmetry_group_IT_number 12
_symmetry_cell_setting 'monoclinic'
loop_
_space_group_symop_operation_xyz
x,y,z
-x,y,-z
-x,-y,-z
x,-y,z
1/2+x,1/2+y,z
1/2-x,1/2+y,-z
1/2-x,1/2-y,-z
1/2+x,1/2-y,z
loop_
_atom_site_type_symbol
_atom_site_label
_atom_site_fract_x
_atom_site_fract_y
_atom_site_fract_z
Si Si1 0.644418 0.203038 0.439171
Si Si2 0.436665 0.500000 0.881336
Si Si3 0.000000 0.000000 0.000000
Si Si4 0.699524 0.287665 0.928706
Si Si5 0.305819 0.000000 0.367243
Si Si6 0.125205 0.500000 0.532980
Si Si7 0.927503 0.881274 0.685817
Si Si8 0.127083 0.276327 0.731255
O O1 0.676716 0.188448 0.302955
O O2 0.553869 0.309685 0.570035
O O3 0.810873 0.211732 0.272606
O O4 0.554126 0.105392 0.591108
O O5 0.346236 0.395919 0.972925
O O6 0.457736 0.500000 0.953415
O O7 0.616263 0.500000 0.617414
O O8 0.191694 0.000000 0.732565
O O9 0.773096 0.191571 0.881522
O O10 0.541277 0.250986 0.087244
O O11 0.364055 0.105568 0.254734
O O12 0.373322 0.000000 0.372056
O O13 0.000000 0.886406 0.500000
O O14 0.906206 0.000000 0.737267
O O15 0.250000 0.250000 0.500000
#
# Coordination Sequence:
#
# PCOD9168805 Si02
#       8
#     8   4   2   8   4   4   8   8
#     4  11  22  39  65  93 121 158 207 253 306 361
#     4  11  19  33  63  90 127 155 193 255 316 359
#     4  10  16  28  56  98 120 148 178 254 322 338
#     4  11  22  39  65  93 121 158 207 253 306 361
#     4  11  24  37  53  88 135 164 190 248 311 364
#     4  11  19  33  63  90 127 155 193 255 316 359
#     4   9  22  43  60  83 127 169 199 247 306 361
#     4  12  23  38  62  92 126 161 204 247 306 366
#
# _framework density 25.454723000000001
#
# number of rings (size 3 to 8) (size 9 to 14) (size 15 to 20)
#    0.000    1.217    5.217    1.565    2.435    0.696 
#    0.000    4.348    0.000    0.000    0.000    0.000 
#    0.000    0.000    0.000    0.000    0.000    0.000 
#
# Total GULP energy -128608.292550 kJ/mol
# GULP energy per Si atom -5591.664893 kJ/mol
# Density = 2.539679 g / cm^3
# Si number density = 25.454723 Si / 1000 Ang^3
#
#
#
# Elastic Constant Matrix: (Units=GPa)
#
#
# Indices 1 2 3 4 5 6 
#
# 1 63.4063 41.2833 28.2919 0.0000 -7.9230 0.0000
# 2 41.2833 286.5955 43.9833 0.0000 -22.0599 -0.0001
# 3 28.2919 43.9833 87.5490 0.0002 -21.2423 -0.0003
# 4 0.0000 0.0000 0.0002 20.5923 -0.0001 -8.5170
# 5 -7.9230 -22.0599 -21.2423 -0.0001 46.6647 0.0002
# 6 0.0000 -0.0001 -0.0003 -8.5170 0.0002 38.3842
#
#
#
# Elastic Compliance Matrix: (Units=1/GPa)
#
#
# Indices 1 2 3 4 5 6 
#
# 1 0.019420 -0.001990 -0.005288 0.000000 -0.000051 0.000000
# 2 -0.001990 0.004030 -0.001126 0.000000 0.001055 0.000000
# 3 -0.005288 -0.001126 0.015007 0.000000 0.005401 0.000000
# 4 0.000000 0.000000 0.000000 0.053469 0.000000 0.011864
# 5 -0.000051 0.001055 0.005401 0.000000 0.024378 0.000000
# 6 0.000000 0.000000 0.000000 0.011864 0.000000 0.028685
#
#
# Mechanical properties :
#
#
# Convention : Reuss Voigt Hill
#
# Bulk Modulus (GPa) = 46.19001 73.85199 60.02100
# Shear Modulus (GPa) = 29.58346 42.72771 36.15558
#
# Velocity S-wave (km/s) = 3.41280 4.10149 3.77289
# Velocity P-wave (km/s) = 5.80646 7.17675 6.52766
#
# Compressibility (1/GPa) = 0.02164970
#
# Stress axis : x y z
#
# Youngs Moduli (GPa) = 51.49293 248.15227 66.63470
#
# Poissons Ratio (x) = 0.49375 0.35239
# Poissons Ratio (y) = 0.10246 0.07500
# Poissons Ratio (z) = 0.27232 0.27932
#
# Static dielectric constant tensor:
#      x y z
#    x 2.018100 0.000000 0.030080 
#    y 0.000000 1.832040 0.000000 
#    z 0.030080 0.000000 1.999710 
# 
# From -- ./inp_files/327999.got.cif
#   From: 2010.05.17/outbox.cif.g08.bks.cpg/sg12_164_cif.got.tgz:327999.got - 2010.06.03 13:09:07.
