data_PCOD9168576
_publ_section_title
;
Structure prediction by ZEFSAII (Michael W. Deem and Ramdas Pophale) SiO2 
 PCOD9168576
Probable space group: C 2/M
;
_chemical_formula_sum "Si O2"
_cell_formula_units_Z 58
_cell_length_a 5.299432
_cell_length_b 21.865771
_cell_length_c 28.889381
_cell_angle_alpha 90.000000
_cell_angle_beta 68.899956
_cell_angle_gamma 90.000000
_cell_volume 3123.145674
_symmetry_space_group_name_H-M "C 2/M"
_symmetry_group_IT_number 12
_symmetry_cell_setting 'monoclinic'
loop_
_space_group_symop_operation_xyz
x,y,z
-x,y,-z
-x,-y,-z
x,-y,z
1/2+x,1/2+y,z
1/2-x,1/2+y,-z
1/2-x,1/2-y,-z
1/2+x,1/2-y,z
loop_
_atom_site_type_symbol
_atom_site_label
_atom_site_fract_x
_atom_site_fract_y
_atom_site_fract_z
Si Si1 0.000000 0.000000 0.500000
Si Si2 0.368495 0.143849 0.315796
Si Si3 0.258812 0.178411 0.163253
Si Si4 0.823095 0.318818 0.795111
Si Si5 0.734336 0.612514 0.541831
Si Si6 0.813480 0.785298 0.584778
Si Si7 0.550872 0.790148 0.947588
Si Si8 0.804946 0.073930 0.349565
O O1 0.155130 0.052324 0.519921
O O2 0.499880 0.175529 0.262448
O O3 0.280973 0.196187 0.357539
O O4 0.588088 0.101622 0.327912
O O5 0.101390 0.103860 0.321979
O O6 0.242285 0.249231 0.183358
O O7 0.505994 0.150973 0.175194
O O8 0.315960 0.177298 0.105028
O O9 0.967667 0.151276 0.193427
O O10 0.476739 0.656741 0.555981
O O11 0.778523 0.595521 0.593037
O O12 0.000000 0.638639 0.500000
O O13 0.549003 0.765225 0.574569
O O14 0.268832 0.762214 0.947508
O O15 0.500000 0.823461 0.000000
O O16 0.811975 0.000000 0.347402
#
# Coordination Sequence:
#
# PCOD9168576 Si02
#       8
#     2   8   8   8   8   8   8   8
#     4  12  26  44  76  94 116 140 194 242 290 324
#     4  11  24  39  61  87 112 153 190 224 286 330
#     4  10  17  29  44  71  99 149 189 237 266 306
#     4  10  19  29  48  69 103 134 191 228 261 312
#     4  11  27  43  70  95 116 148 187 233 288 339
#     4  11  26  44  62  88 125 155 184 218 273 349
#     4  10  16  25  38  60  95 139 197 238 277 321
#     4  11  24  44  65  89 115 137 179 236 287 345
#
# _framework density 18.571021999999999
#
# number of rings (size 3 to 8) (size 9 to 14) (size 15 to 20)
#    0.000    1.379    3.448    3.103    9.655    0.552 
#    0.000    0.000    0.000    0.000    0.000    0.000 
#    0.000    0.000    0.000    0.000    0.000   80.000 
#
# Total GULP energy -161585.650467 kJ/mol
# GULP energy per Si atom -5571.918982 kJ/mol
# Density = 1.852875 g / cm^3
# Si number density = 18.571022 Si / 1000 Ang^3
#
#
#
# Elastic Constant Matrix: (Units=GPa)
#
#
# Indices 1 2 3 4 5 6 
#
# 1 96.6319 13.8958 -0.9371 0.0000 1.1124 0.0000
# 2 13.8958 52.9739 13.0607 0.0000 -2.6044 0.0000
# 3 -0.9371 13.0607 89.7728 0.0000 -7.7720 0.0000
# 4 0.0000 0.0000 0.0000 4.0905 0.0000 11.5791
# 5 1.1124 -2.6044 -7.7720 0.0000 29.9897 0.0000
# 6 0.0000 0.0000 0.0000 11.5791 0.0000 17.9007
#
#
#
# Elastic Compliance Matrix: (Units=1/GPa)
#
#
# Indices 1 2 3 4 5 6 
#
# 1 0.010788 -0.002979 0.000500 0.000000 -0.000529 0.000000
# 2 -0.002979 0.020431 -0.002906 0.000000 0.001132 0.000000
# 3 0.000500 -0.002906 0.011809 0.000000 0.002789 0.000000
# 4 0.000000 0.000000 0.000000 -0.294164 0.000000 0.190281
# 5 -0.000529 0.001132 0.002789 0.000000 0.034186 0.000000
# 6 0.000000 0.000000 0.000000 0.190281 0.000000 -0.067220
#
#
# Mechanical properties :
#
#
# Convention : Reuss Voigt Hill
#
# Bulk Modulus (GPa) = 30.99971 32.37969 31.68970
# Shear Modulus (GPa) = -19.03682 24.62013 2.79166
#
# Velocity S-wave (km/s) = -3.20516 3.64501 1.22739
# Velocity P-wave (km/s) = 1.74107 5.93196 4.37147
#
# Compressibility (1/GPa) = 0.03225837
#
# Stress axis : x y z
#
# Youngs Moduli (GPa) = 92.69645 48.94595 84.68365
#
# Poissons Ratio (x) = 0.14582 -0.04236
# Poissons Ratio (y) = 0.27616 0.24605
# Poissons Ratio (z) = -0.04637 0.14221
#
# Static dielectric constant tensor:
#      x y z
#    x 1.710200 0.000000 -0.002410 
#    y 0.000000 1.540230 0.000000 
#    z -0.002410 0.000000 1.676160 
# 
# From -- ./inp_files/355053.got.cif
#   From: 2010.05.17/outbox.cif.g08.bks.cpg/sg12_178_cif.got.tgz:355053.got - 2010.06.03 13:09:07.
