data_PCOD9168473
_publ_section_title
;
Structure prediction by ZEFSAII (Michael W. Deem and Ramdas Pophale) SiO2 
 PCOD9168473
Probable space group: C 2/M
;
_chemical_formula_sum "Si O2"
_cell_formula_units_Z 56
_cell_length_a 22.297512
_cell_length_b 14.733036
_cell_length_c 8.164291
_cell_angle_alpha 90.000000
_cell_angle_beta 67.025913
_cell_angle_gamma 90.000000
_cell_volume 2469.315239
_symmetry_space_group_name_H-M "C 2/M"
_symmetry_group_IT_number 12
_symmetry_cell_setting 'monoclinic'
loop_
_space_group_symop_operation_xyz
x,y,z
-x,y,-z
-x,-y,-z
x,-y,z
1/2+x,1/2+y,z
1/2-x,1/2+y,-z
1/2-x,1/2-y,-z
1/2+x,1/2-y,z
loop_
_atom_site_type_symbol
_atom_site_label
_atom_site_fract_x
_atom_site_fract_y
_atom_site_fract_z
Si Si1 0.187633 0.098597 0.653336
Si Si2 0.962973 0.854413 0.193264
Si Si3 0.920891 0.352041 0.169771
Si Si4 0.083177 0.213257 0.247845
Si Si5 0.968649 0.597515 0.753999
Si Si6 0.691010 0.769040 0.860392
Si Si7 0.697314 0.394943 0.265650
O O1 0.108630 0.104768 0.715754
O O2 0.212857 0.180386 0.738148
O O3 0.212275 0.104634 0.442268
O O4 0.203352 0.000000 0.707982
O O5 0.948466 0.749492 0.164178
O O6 0.018911 0.844919 0.270885
O O7 0.000000 0.896844 0.000000
O O8 0.845060 0.335608 0.230969
O O9 0.954267 0.400400 0.287277
O O10 0.941560 0.392986 0.971085
O O11 0.057521 0.314785 0.313990
O O12 0.128087 0.155829 0.320198
O O13 0.133893 0.233362 0.043194
O O14 0.949353 0.500000 0.706854
O O15 0.748012 0.830458 0.875315
O O16 0.695525 0.500000 0.210059
#
# Coordination Sequence:
#
# PCOD9168473 Si02
#       7
#     8   8   8   8   8   8   8
#     4  10  22  38  59  87 112 147 192 230 280 344
#     4  10  15  34  58  84 114 140 184 237 282 324
#     4   8  13  25  48  81 107 131 176 227 275 319
#     4  10  20  36  56  84 116 146 187 236 285 336
#     4   9  14  24  47  80 112 136 171 228 283 330
#     4  10  19  38  60  79 109 149 192 234 275 325
#     4  11  25  40  54  79 117 156 193 229 278 339
#
# _framework density 22.678353999999999
#
# number of rings (size 3 to 8) (size 9 to 14) (size 15 to 20)
#    0.000    2.286    5.714    1.714    0.000    4.857 
#    0.000    2.143    0.000    0.857    0.000    9.000 
#    0.000    0.000    0.000    0.000    0.000    0.000 
#
# Total GULP energy -155950.824285 kJ/mol
# GULP energy per Si atom -5569.672296 kJ/mol
# Density = 2.262674 g / cm^3
# Si number density = 22.678354 Si / 1000 Ang^3
#
#
#
# Elastic Constant Matrix: (Units=GPa)
#
#
# Indices 1 2 3 4 5 6 
#
# 1 95.3260 34.0664 -10.0957 0.0000 -0.6718 0.0000
# 2 34.0664 149.0763 14.9271 0.0000 12.2292 0.0000
# 3 -10.0957 14.9271 44.0997 0.0000 -3.4620 0.0000
# 4 0.0000 0.0000 0.0000 6.8703 0.0000 5.0856
# 5 -0.6718 12.2292 -3.4620 0.0000 21.6587 0.0000
# 6 0.0000 0.0000 0.0000 5.0856 0.0000 33.0112
#
#
#
# Elastic Compliance Matrix: (Units=1/GPa)
#
#
# Indices 1 2 3 4 5 6 
#
# 1 0.012189 -0.003451 0.004194 0.000000 0.002997 0.000000
# 2 -0.003451 0.008350 -0.004046 0.000000 -0.005469 0.000000
# 3 0.004194 -0.004046 0.025515 0.000000 0.006493 0.000000
# 4 0.000000 0.000000 0.000000 0.164289 0.000000 -0.025310
# 5 0.002997 -0.005469 0.006493 0.000000 0.050389 0.000000
# 6 0.000000 0.000000 0.000000 -0.025310 0.000000 0.034192
#
#
# Mechanical properties :
#
#
# Convention : Reuss Voigt Hill
#
# Bulk Modulus (GPa) = 25.34976 40.69972 33.02474
# Shear Modulus (GPa) = 15.88915 28.94833 22.41874
#
# Velocity S-wave (km/s) = 2.64981 3.57665 3.14754
# Velocity P-wave (km/s) = 4.53478 5.91963 5.27287
#
# Compressibility (1/GPa) = 0.03944811
#
# Stress axis : x y z
#
# Youngs Moduli (GPa) = 82.04164 119.75561 39.19242
#
# Poissons Ratio (x) = 0.41330 -0.16437
# Poissons Ratio (y) = 0.28314 0.15857
# Poissons Ratio (z) = -0.34407 0.48451
#
# Static dielectric constant tensor:
#      x y z
#    x 1.929570 0.000000 0.005260 
#    y 0.000000 1.877390 0.000000 
#    z 0.005260 0.000000 1.899960 
# 
# From -- ./inp_files/96242.got.cif
#   From: 2010.05.17/outbox.cif.g08.bks.cpg/sg12_49_cif.got.tgz:96242.got - 2010.06.03 13:09:07.
