data_PCOD9168603
_publ_section_title
;
Structure prediction by ZEFSAII (Michael W. Deem and Ramdas Pophale) SiO2 
 PCOD9168603
Probable space group: C 2/M
;
_chemical_formula_sum "Si O2"
_cell_formula_units_Z 48
_cell_length_a 28.280725
_cell_length_b 7.283906
_cell_length_c 11.802836
_cell_angle_alpha 90.000000
_cell_angle_beta 44.763194
_cell_angle_gamma 90.000000
_cell_volume 1712.079190
_symmetry_space_group_name_H-M "C 2/M"
_symmetry_group_IT_number 12
_symmetry_cell_setting 'monoclinic'
loop_
_space_group_symop_operation_xyz
x,y,z
-x,y,-z
-x,-y,-z
x,-y,z
1/2+x,1/2+y,z
1/2-x,1/2+y,-z
1/2-x,1/2-y,-z
1/2+x,1/2-y,z
loop_
_atom_site_type_symbol
_atom_site_label
_atom_site_fract_x
_atom_site_fract_y
_atom_site_fract_z
Si Si1 0.646203 0.212698 0.523932
Si Si2 0.313275 0.718490 0.974782
Si Si3 0.066053 0.224174 0.950838
Si Si4 0.594716 0.277286 0.375968
Si Si5 0.001787 0.792405 0.719405
Si Si6 0.789819 0.776150 0.272793
O O1 0.649274 0.226739 0.380166
O O2 0.573199 0.300853 0.668258
O O3 0.717806 0.290035 0.440314
O O4 0.639748 0.000000 0.563176
O O5 0.321948 0.500000 0.971439
O O6 0.377615 0.785316 0.791616
O O7 0.250000 0.750000 0.000000
O O8 0.300012 0.784435 0.124536
O O9 0.052271 0.285177 0.103626
O O10 0.064871 0.000000 0.952989
O O11 0.140400 0.278050 0.785904
O O12 0.000000 0.289847 0.000000
O O13 0.590236 0.500000 0.382049
O O14 0.528019 0.211415 0.557028
O O15 0.980915 0.000000 0.730600
O O16 0.786016 0.000000 0.280499
#
# Coordination Sequence:
#
# PCOD9168603 Si02
#       6
#     8   8   8   8   8   8
#     4   9  15  26  46  67  93 122 150 186 228 272
#     4  10  16  25  42  67 100 126 151 185 227 276
#     4   9  17  31  50  68  90 122 158 197 237 273
#     4   8  15  25  41  65  92 121 150 180 223 269
#     4   8  15  29  47  67  91 119 153 189 229 277
#     4   9  17  27  43  71  96 119 158 198 226 266
#
# _framework density 28.036085
#
# number of rings (size 3 to 8) (size 9 to 14) (size 15 to 20)
#    1.000    2.167    1.667    0.000    0.000    0.000 
#    0.000    1.667    0.000    8.500    0.000    1.167 
#    0.000    0.000    0.000    0.000    0.000    0.000 
#
# Total GULP energy -134032.807415 kJ/mol
# GULP energy per Si atom -5584.700309 kJ/mol
# Density = 2.797227 g / cm^3
# Si number density = 28.036085 Si / 1000 Ang^3
#
#
#
# Elastic Constant Matrix: (Units=GPa)
#
#
# Indices 1 2 3 4 5 6 
#
# 1 132.3680 3.9298 41.7727 0.0000 -22.0124 -0.0001
# 2 3.9298 142.0662 8.3736 0.0001 0.8718 -0.0002
# 3 41.7727 8.3736 200.7267 0.0000 -20.2957 0.0000
# 4 0.0000 0.0001 0.0000 -27.5613 0.0000 58.6708
# 5 -22.0124 0.8718 -20.2957 0.0000 57.0552 0.0000
# 6 -0.0001 -0.0002 0.0000 58.6708 0.0000 -116.8123
#
#
#
# Elastic Compliance Matrix: (Units=1/GPa)
#
#
# Indices 1 2 3 4 5 6 
#
# 1 0.008484 -0.000164 -0.001481 0.000000 0.002749 0.000000
# 2 -0.000164 0.007062 -0.000288 0.000000 -0.000274 0.000000
# 3 -0.001481 -0.000288 0.005440 0.000000 0.001368 0.000000
# 4 0.000000 0.000000 0.000000 0.524373 0.000000 0.263375
# 5 0.002749 -0.000274 0.001368 0.000000 0.019078 0.000000
# 6 0.000000 0.000000 0.000000 0.263375 0.000000 0.123723
#
#
# Mechanical properties :
#
#
# Convention : Reuss Voigt Hill
#
# Bulk Modulus (GPa) = 58.41012 64.81256 61.61134
# Shear Modulus (GPa) = 7.16605 10.60865 8.88735
#
# Velocity S-wave (km/s) = 1.60049 1.94734 1.78237
# Velocity P-wave (km/s) = 4.92895 5.31262 5.12438
#
# Compressibility (1/GPa) = 0.01712032
#
# Stress axis : x y z
#
# Youngs Moduli (GPa) = 117.86860 141.59937 183.80875
#
# Poissons Ratio (x) = 0.02326 0.27218
# Poissons Ratio (y) = 0.01936 0.05296
# Poissons Ratio (z) = 0.17454 0.04080
#
# Static dielectric constant tensor:
#      x y z
#    x 2.380310 0.000000 -0.008470 
#    y 0.000000 1.778680 0.000000 
#    z -0.008470 0.000000 2.163580 
# 
# From -- ./inp_files/250365.got.cif
#   From: 2010.05.17/outbox.cif.g08.bks.cpg/sg12_126_cif.got.tgz:250365.got - 2010.06.03 13:09:07.
