data_PCOD9168402
_publ_section_title
;
Structure prediction by ZEFSAII (Michael W. Deem and Ramdas Pophale) SiO2 
 PCOD9168402
Probable space group: C 2/M
;
_chemical_formula_sum "Si O2"
_cell_formula_units_Z 32
_cell_length_a 5.416671
_cell_length_b 30.504821
_cell_length_c 10.911384
_cell_angle_alpha 90.000000
_cell_angle_beta 57.883935
_cell_angle_gamma 90.000000
_cell_volume 1527.039563
_symmetry_space_group_name_H-M "C 2/M"
_symmetry_group_IT_number 12
_symmetry_cell_setting 'monoclinic'
loop_
_space_group_symop_operation_xyz
x,y,z
-x,y,-z
-x,-y,-z
x,-y,z
1/2+x,1/2+y,z
1/2-x,1/2+y,-z
1/2-x,1/2-y,-z
1/2+x,1/2-y,z
loop_
_atom_site_type_symbol
_atom_site_label
_atom_site_fract_x
_atom_site_fract_y
_atom_site_fract_z
Si Si1 0.664327 0.552600 0.076006
Si Si2 0.355429 0.867561 0.405707
Si Si3 0.560275 0.231754 0.667684
Si Si4 0.783762 0.951346 0.672178
O O1 0.672319 0.500000 0.058819
O O2 0.548769 0.558746 0.245337
O O3 0.500000 0.570385 0.000000
O O4 0.000000 0.567726 0.000000
O O5 0.500000 0.874360 0.500000
O O6 0.463007 0.820416 0.332538
O O7 0.417000 0.910139 0.306781
O O8 0.000000 0.863430 0.500000
O O9 0.750000 0.250000 0.500000
O O10 0.246772 0.253302 0.734140
O O11 0.000000 0.954268 0.500000
O O12 0.643480 0.000000 0.721272
#
# Coordination Sequence:
#
# PCOD9168402 Si02
#       4
#     8   8   8   8
#     4   9  18  34  54  71  93 133 180 214 243 291
#     4  11  19  29  45  68  98 135 163 199 252 309
#     4  10  15  26  43  62  89 128 158 201 246 298
#     4   9  20  35  51  76 110 141 169 210 260 306
#
# _framework density 20.955579
#
# number of rings (size 3 to 8) (size 9 to 14) (size 15 to 20)
#    0.000    2.250    5.000    0.000    0.000    4.500 
#    0.000    7.500    0.000    0.000    0.000    0.000 
#    0.000    6.000    0.000    0.000    0.000    0.000 
#
# Total GULP energy -89128.900691 kJ/mol
# GULP energy per Si atom -5570.556293 kJ/mol
# Density = 2.090788 g / cm^3
# Si number density = 20.955579 Si / 1000 Ang^3
#
#
#
# Elastic Constant Matrix: (Units=GPa)
#
#
# Indices 1 2 3 4 5 6 
#
# 1 133.1286 26.3755 64.2990 0.0000 57.0579 0.0000
# 2 26.3755 170.3181 26.6729 0.0000 33.1669 0.0000
# 3 64.2990 26.6729 124.8384 0.0000 31.8231 0.0000
# 4 0.0000 0.0000 0.0000 7.4210 0.0000 13.9458
# 5 57.0579 33.1669 31.8231 0.0000 43.4765 0.0000
# 6 0.0000 0.0000 0.0000 13.9458 0.0000 18.0518
#
#
#
# Elastic Compliance Matrix: (Units=1/GPa)
#
#
# Indices 1 2 3 4 5 6 
#
# 1 0.019574 0.002388 -0.004400 0.000000 -0.024289 0.000000
# 2 0.002388 0.007190 -0.000700 0.000000 -0.008107 0.000000
# 3 -0.004400 -0.000700 0.010841 0.000000 -0.001627 0.000000
# 4 0.000000 0.000000 0.000000 -0.298263 0.000000 0.230421
# 5 -0.024289 -0.008107 -0.001627 0.000000 0.062253 0.000000
# 6 0.000000 0.000000 0.000000 0.230421 0.000000 -0.122614
#
#
# Mechanical properties :
#
#
# Convention : Reuss Voigt Hill
#
# Bulk Modulus (GPa) = 31.07438 73.66443 52.36940
# Shear Modulus (GPa) = -16.40047 34.51903 9.05928
#
# Velocity S-wave (km/s) = -2.80059 4.06303 2.08146
# Velocity P-wave (km/s) = 2.09837 7.56571 5.55172
#
# Compressibility (1/GPa) = 0.03218085
#
# Stress axis : x y z
#
# Youngs Moduli (GPa) = 51.08843 139.08619 92.24384
#
# Poissons Ratio (x) = -0.33212 0.40589
# Poissons Ratio (y) = -0.12199 0.06453
# Poissons Ratio (z) = 0.22480 0.09730
#
# Static dielectric constant tensor:
#      x y z
#    x 1.909370 0.000000 -0.088700 
#    y 0.000000 1.776350 0.000000 
#    z -0.088700 0.000000 1.814180 
# 
# From -- ./inp_files/34301.got.cif
#   From: 2010.05.17/outbox.cif.g08.bks.cpg/sg12_18_cif.got.tgz:34301.got - 2010.06.03 13:09:07.
