data_PCOD9168959
_publ_section_title
;
Structure prediction by ZEFSAII (Michael W. Deem and Ramdas Pophale) SiO2 
 PCOD9168959
Probable space group: C 2/M
;
_chemical_formula_sum "Si O2"
_cell_formula_units_Z 40
_cell_length_a 12.138308
_cell_length_b 14.836705
_cell_length_c 10.501505
_cell_angle_alpha 90.000000
_cell_angle_beta 76.647831
_cell_angle_gamma 90.000000
_cell_volume 1840.120076
_symmetry_space_group_name_H-M "C 2/M"
_symmetry_group_IT_number 12
_symmetry_cell_setting 'monoclinic'
loop_
_space_group_symop_operation_xyz
x,y,z
-x,y,-z
-x,-y,-z
x,-y,z
1/2+x,1/2+y,z
1/2-x,1/2+y,-z
1/2-x,1/2-y,-z
1/2+x,1/2-y,z
loop_
_atom_site_type_symbol
_atom_site_label
_atom_site_fract_x
_atom_site_fract_y
_atom_site_fract_z
Si Si1 0.731050 0.596664 0.398559
Si Si2 0.683904 0.247092 0.218241
Si Si3 0.370519 0.656449 0.320508
Si Si4 0.575707 0.600644 0.104932
Si Si5 0.530129 0.156553 0.633966
O O1 0.684971 0.500000 0.368408
O O2 0.680174 0.681119 0.336840
O O3 0.706679 0.606818 0.555482
O O4 0.866131 0.599514 0.339754
O O5 0.797850 0.192599 0.219614
O O6 0.661649 0.316447 0.108275
O O7 0.582518 0.174645 0.254720
O O8 0.480239 0.605111 0.241331
O O9 0.414985 0.744045 0.383240
O O10 0.626867 0.500000 0.084967
O O11 0.500000 0.614479 0.000000
O O12 0.500000 0.126338 0.500000
#
# Coordination Sequence:
#
# PCOD9168959 Si02
#       5
#     8   8   8   8   8
#     4  11  20  29  48  80 105 128 160 195 242 291
#     4  10  19  35  54  69 101 136 163 191 241 300
#     4  10  19  32  52  74  98 131 166 196 236 298
#     4  10  22  37  52  73  97 124 166 216 250 275
#     4  10  16  31  48  70 102 134 157 191 233 286
#
# _framework density 21.737712999999999
#
# number of rings (size 3 to 8) (size 9 to 14) (size 15 to 20)
#    0.000    1.800    4.000    2.400    0.000    1.200 
#    0.000    3.000    0.000    0.000    0.000    0.000 
#    0.000   20.800    0.000    0.000    0.000    0.000 
#
# Total GULP energy -111458.509870 kJ/mol
# GULP energy per Si atom -5572.925494 kJ/mol
# Density = 2.168824 g / cm^3
# Si number density = 21.737713 Si / 1000 Ang^3
#
#
#
# Elastic Constant Matrix: (Units=GPa)
#
#
# Indices 1 2 3 4 5 6 
#
# 1 97.5486 8.1583 5.3763 0.0000 6.3789 0.0000
# 2 8.1583 56.1117 3.4905 0.0000 -6.4820 0.0000
# 3 5.3763 3.4905 32.0923 0.0000 16.5988 0.0000
# 4 0.0000 0.0000 0.0000 9.7471 0.0000 3.2485
# 5 6.3789 -6.4820 16.5988 0.0000 31.7559 0.0000
# 6 0.0000 0.0000 0.0000 3.2485 0.0000 13.4655
#
#
#
# Elastic Compliance Matrix: (Units=1/GPa)
#
#
# Indices 1 2 3 4 5 6 
#
# 1 0.010571 -0.001775 -0.000400 0.000000 -0.002276 0.000000
# 2 -0.001775 0.019249 -0.005500 0.000000 0.007160 0.000000
# 3 -0.000400 -0.005500 0.044356 0.000000 -0.024227 0.000000
# 4 0.000000 0.000000 0.000000 0.111565 0.000000 -0.026915
# 5 -0.002276 0.007160 -0.024227 0.000000 0.046073 0.000000
# 6 0.000000 0.000000 0.000000 -0.026915 0.000000 0.080757
#
#
# Mechanical properties :
#
#
# Convention : Reuss Voigt Hill
#
# Bulk Modulus (GPa) = 16.99943 24.42253 20.71098
# Shear Modulus (GPa) = 14.38727 22.24220 18.31474
#
# Velocity S-wave (km/s) = 2.57545 3.20223 2.90579
# Velocity P-wave (km/s) = 4.08426 4.99318 4.56142
#
# Compressibility (1/GPa) = 0.05882550
#
# Stress axis : x y z
#
# Youngs Moduli (GPa) = 94.60134 51.95091 22.54480
#
# Poissons Ratio (x) = 0.09221 0.00903
# Poissons Ratio (y) = 0.16791 0.12399
# Poissons Ratio (z) = 0.03788 0.28572
#
# Static dielectric constant tensor:
#      x y z
#    x 1.817550 0.000000 0.017240 
#    y 0.000000 1.792410 0.000000 
#    z 0.017240 0.000000 1.796930 
# 
# From -- ./inp_files/47052.got.cif
#   From: 2010.05.17/outbox.cif.g08.bks.cpg/sg12_24_cif.got.tgz:47052.got - 2010.06.03 13:09:07.
