data_PCOD9168592
_publ_section_title
;
Structure prediction by ZEFSAII (Michael W. Deem and Ramdas Pophale) SiO2 
 PCOD9168592
Probable space group: C 2/M
;
_chemical_formula_sum "Si O2"
_cell_formula_units_Z 48
_cell_length_a 5.527019
_cell_length_b 18.409682
_cell_length_c 26.780707
_cell_angle_alpha 90.000000
_cell_angle_beta 52.501958
_cell_angle_gamma 90.000000
_cell_volume 2161.908578
_symmetry_space_group_name_H-M "C 2/M"
_symmetry_group_IT_number 12
_symmetry_cell_setting 'monoclinic'
loop_
_space_group_symop_operation_xyz
x,y,z
-x,y,-z
-x,-y,-z
x,-y,z
1/2+x,1/2+y,z
1/2-x,1/2+y,-z
1/2-x,1/2-y,-z
1/2+x,1/2-y,z
loop_
_atom_site_type_symbol
_atom_site_label
_atom_site_fract_x
_atom_site_fract_y
_atom_site_fract_z
Si Si1 0.241424 0.157478 0.893104
Si Si2 0.292268 0.703170 0.570458
Si Si3 0.298629 0.675230 0.753270
Si Si4 0.617298 0.500000 0.169413
Si Si5 0.370926 0.000000 0.833758
Si Si6 0.624155 0.872495 0.932835
Si Si7 0.056490 0.659984 0.295311
O O1 0.519197 0.189680 0.825814
O O2 0.345439 0.163006 0.937299
O O3 0.907439 0.177969 0.914574
O O4 0.250199 0.071137 0.877675
O O5 0.500000 0.671003 0.500000
O O6 0.528348 0.750005 0.575309
O O7 0.118941 0.650879 0.630667
O O8 0.589424 0.638485 0.743354
O O9 0.420714 0.752689 0.718237
O O10 0.143576 0.633885 0.726316
O O11 0.261227 0.500000 0.204771
O O12 0.747203 0.431333 0.122081
O O13 0.770393 0.500000 0.203572
O O14 0.500000 0.905059 0.000000
#
# Coordination Sequence:
#
# PCOD9168592 Si02
#       7
#     8   8   8   4   4   8   8
#     4  10  19  30  43  64  81 111 135 166 211 251
#     4  10  16  25  41  63  91 118 134 158 204 248
#     4  10  18  28  44  60  85 109 144 172 199 235
#     4   8  15  26  42  60  80 104 124 154 205 264
#     4   8  16  28  41  58  88 104 131 162 198 252
#     4  10  18  29  43  61  82 102 131 169 213 264
#     4  10  17  30  43  65  84 113 142 174 194 232
#
# _framework density 22.202605999999999
#
# number of rings (size 3 to 8) (size 9 to 14) (size 15 to 20)
#    0.000    2.333    3.333    1.750    0.000    0.000 
#    0.000    5.000    0.000    0.000    0.000   46.667 
#    0.000    0.000    0.000    8.250    0.000    0.000 
#
# Total GULP energy -133793.449665 kJ/mol
# GULP energy per Si atom -5574.727069 kJ/mol
# Density = 2.215207 g / cm^3
# Si number density = 22.202606 Si / 1000 Ang^3
#
#
#
# Elastic Constant Matrix: (Units=GPa)
#
#
# Indices 1 2 3 4 5 6 
#
# 1 258.8538 -2.7489 26.5278 0.0000 13.8516 0.0000
# 2 -2.7489 58.7940 -8.4765 0.0000 -3.1802 0.0000
# 3 26.5278 -8.4765 103.4185 0.0000 2.3840 0.0000
# 4 0.0000 0.0000 0.0000 -2.0966 0.0000 -7.6002
# 5 13.8516 -3.1802 2.3840 0.0000 38.6047 0.0000
# 6 0.0000 0.0000 0.0000 -7.6002 0.0000 0.4568
#
#
#
# Elastic Compliance Matrix: (Units=1/GPa)
#
#
# Indices 1 2 3 4 5 6 
#
# 1 0.004040 -0.000031 -0.001007 0.000000 -0.001390 0.000000
# 2 -0.000031 0.017281 0.001393 0.000000 0.001349 0.000000
# 3 -0.001007 0.001393 0.010045 0.000000 -0.000144 0.000000
# 4 0.000000 0.000000 0.000000 -0.007779 0.000000 -0.129430
# 5 -0.001390 0.001349 -0.000144 0.000000 0.026522 0.000000
# 6 0.000000 0.000000 0.000000 -0.129430 0.000000 0.035704
#
#
# Mechanical properties :
#
#
# Convention : Reuss Voigt Hill
#
# Bulk Modulus (GPa) = 31.17541 50.18567 40.68054
# Shear Modulus (GPa) = 52.19394 34.44392 43.31893
#
# Velocity S-wave (km/s) = 4.85377 3.94299 4.42189
# Velocity P-wave (km/s) = 6.74417 6.58651 6.66581
#
# Compressibility (1/GPa) = 0.03207656
#
# Stress axis : x y z
#
# Youngs Moduli (GPa) = 247.49830 57.86736 99.54935
#
# Poissons Ratio (x) = 0.00182 0.10024
# Poissons Ratio (y) = 0.00779 -0.13871
# Poissons Ratio (z) = 0.24922 -0.08063
#
# Static dielectric constant tensor:
#      x y z
#    x 1.959610 0.000000 0.000410 
#    y 0.000000 1.876020 0.000000 
#    z 0.000410 0.000000 1.796180 
# 
# From -- ./inp_files/298248.got.cif
#   From: 2010.05.17/outbox.cif.g08.bks.cpg/sg12_150_cif.got.tgz:298248.got - 2010.06.03 13:09:07.
