data_PCOD9168267
_publ_section_title
;
Structure prediction by ZEFSAII (Michael W. Deem and Ramdas Pophale) SiO2 
 PCOD9168267
Probable space group: P 21/M
;
_chemical_formula_sum "Si O2"
_cell_formula_units_Z 20
_cell_length_a 21.000000
_cell_length_b 9.000000
_cell_length_c 9.000000
_cell_angle_alpha 90.000000
_cell_angle_beta 40.000000
_cell_angle_gamma 90.000000
_cell_volume 1093.381724
_symmetry_space_group_name_H-M "P 21/M"
_symmetry_group_IT_number 11
_symmetry_cell_setting 'monoclinic'
loop_
_space_group_symop_operation_xyz
x,y,z
-x,1/2+y,-z
-x,-y,-z
x,1/2-y,z
loop_
_atom_site_type_symbol
_atom_site_label
_atom_site_fract_x
_atom_site_fract_y
_atom_site_fract_z
Si Si1 0.570888 0.422949 0.662497
Si Si2 0.625546 0.077454 0.917451
Si Si3 0.840485 0.069694 0.455679
Si Si4 0.216647 0.930161 0.780989
Si Si5 0.022542 0.929374 0.300845
O O1 0.559886 0.250000 0.644325
O O2 0.599240 0.431229 0.787896
O O3 0.669773 0.484500 0.405062
O O4 0.464319 0.498949 0.836977
O O5 0.625173 0.250000 0.959640
O O6 0.739402 0.024274 0.723645
O O7 0.849503 0.250000 0.451605
O O8 0.821741 0.033030 0.316175
O O9 0.937596 0.990436 0.343083
O O10 0.223047 0.750000 0.773841
O O11 0.131863 0.974992 0.047629
O O12 0.019328 0.750000 0.312164
O O13 0.000000 0.000000 0.500000
#
# Coordination Sequence:
#
# PCOD9168267 Si02
#       5
#     4   4   4   4   4
#     4   8  13  24  43  67  95 124 152 183 225 278
#     4   8  14  24  41  68  99 124 146 182 232 278
#     4   9  17  32  52  73  98 126 157 194 237 283
#     4   8  16  31  51  73  97 126 158 195 238 281
#     4  11  22  35  50  69  95 127 163 200 240 284
#
# _framework density 18.291872999999999
#
# number of rings (size 3 to 8) (size 9 to 14) (size 15 to 20)
#    0.000    3.200    0.000    3.600    0.000    0.800 
#    0.000    6.000    0.000    1.200    0.000    0.000 
#    0.000    0.000    0.000    0.000    0.000    0.000 
#
# Total GULP energy -111366.222236 kJ/mol
# GULP energy per Si atom -5568.311112 kJ/mol
# Density = 1.825024 g / cm^3
# Si number density = 18.291873 Si / 1000 Ang^3
#
#
#
# Elastic Constant Matrix: (Units=GPa)
#
#
# Indices 1 2 3 4 5 6 
#
# 1 0.2355 7.5815 34.7278 0.0000 -5.9818 0.0000
# 2 7.5815 31.7709 43.9659 0.0000 -9.6283 0.0000
# 3 34.7278 43.9659 193.1384 0.0000 -33.2471 0.0000
# 4 0.0000 0.0000 0.0000 28.5368 0.0000 -8.1852
# 5 -5.9818 -9.6283 -33.2471 0.0000 23.1639 0.0000
# 6 0.0000 0.0000 0.0000 -8.1852 0.0000 22.8699
#
#
#
# Elastic Compliance Matrix: (Units=1/GPa)
#
#
# Indices 1 2 3 4 5 6 
#
# 1 -0.166286 -0.002506 0.030413 0.000000 -0.000332 0.000000
# 2 -0.002506 0.046432 -0.009175 0.000000 0.005484 0.000000
# 3 0.030413 -0.009175 0.003311 0.000000 0.008793 0.000000
# 4 0.000000 0.000000 0.000000 0.039051 0.000000 0.013977
# 5 -0.000332 0.005484 0.008793 0.000000 0.057985 0.000000
# 6 0.000000 0.000000 0.000000 0.013977 0.000000 0.048728
#
#
# Mechanical properties :
#
#
# Convention : Reuss Voigt Hill
#
# Bulk Modulus (GPa) = -12.64555 44.18835 15.77140
# Shear Modulus (GPa) = -144.50526 24.17208 -60.16659
#
# Velocity S-wave (km/s) = -8.89782 3.63914 -5.74142
# Velocity P-wave (km/s) = 10.60612 6.47052 5.94231
#
# Compressibility (1/GPa) = -0.07907922
#
# Stress axis : x y z
#
# Youngs Moduli (GPa) = -6.01374 21.53671 301.98896
#
# Poissons Ratio (x) = 0.05398 -9.18440
# Poissons Ratio (y) = -0.01507 2.77080
# Poissons Ratio (z) = 0.18290 0.19760
#
# Static dielectric constant tensor:
#      x y z
#    x 1.622410 0.000000 -0.010590 
#    y 0.000000 1.618650 0.000000 
#    z -0.010590 0.000000 1.672490 
# 
# From -- ./inp_files/16391.got.cif
#   From: 2010.05.17/outbox.ucp.g08.bks.cvg/sg11_9_cif.got.tgz:16391.got - 2010.06.11 11:38:39.
