data_PCOD9168519
_publ_section_title
;
Structure prediction by ZEFSAII (Michael W. Deem and Ramdas Pophale) SiO2 
 PCOD9168519
Probable space group: C 2/M
;
_chemical_formula_sum "Si O2"
_cell_formula_units_Z 48
_cell_length_a 15.873800
_cell_length_b 7.923860
_cell_length_c 17.205615
_cell_angle_alpha 90.000000
_cell_angle_beta 57.154001
_cell_angle_gamma 90.000000
_cell_volume 1818.172695
_symmetry_space_group_name_H-M "C 2/M"
_symmetry_group_IT_number 12
_symmetry_cell_setting 'monoclinic'
loop_
_space_group_symop_operation_xyz
x,y,z
-x,y,-z
-x,-y,-z
x,-y,z
1/2+x,1/2+y,z
1/2-x,1/2+y,-z
1/2-x,1/2-y,-z
1/2+x,1/2-y,z
loop_
_atom_site_type_symbol
_atom_site_label
_atom_site_fract_x
_atom_site_fract_y
_atom_site_fract_z
Si Si1 0.503425 0.195589 0.601515
Si Si2 0.093160 0.196396 0.719782
Si Si3 0.404076 0.800703 0.895951
Si Si4 0.188912 0.706652 0.225213
Si Si5 0.108816 0.803656 0.934817
Si Si6 0.292329 0.697468 0.564062
O O1 0.554428 0.208462 0.661898
O O2 0.392850 0.272466 0.672060
O O3 0.589466 0.262810 0.501161
O O4 0.489612 0.000000 0.590661
O O5 0.213700 0.215271 0.661815
O O6 0.022559 0.258546 0.824523
O O7 0.072311 0.000000 0.718291
O O8 0.357115 0.754168 0.836583
O O9 0.391631 0.000000 0.914119
O O10 0.357786 0.701527 0.991306
O O11 0.191793 0.500000 0.229718
O O12 0.302331 0.769864 0.161353
O O13 0.095354 0.000000 0.917665
O O14 0.000000 0.720197 0.000000
O O15 0.279802 0.500000 0.579891
O O16 0.250000 0.750000 0.500000
#
# Coordination Sequence:
#
# PCOD9168519 Si02
#       6
#     8   8   8   8   8   8
#     4   9  15  25  40  61  91 124 157 191 230 274
#     4  10  17  26  41  63  91 122 156 191 232 278
#     4  10  19  32  49  69  95 125 159 197 236 279
#     4   8  16  30  48  70  95 125 159 196 235 275
#     4  10  20  34  51  71  95 123 157 196 238 284
#     4  10  16  23  36  59  92 125 155 187 229 276
#
# _framework density 26.400130999999998
#
# number of rings (size 3 to 8) (size 9 to 14) (size 15 to 20)
#    0.000    2.500    0.000    7.500    0.000    0.333 
#    0.000    4.167    0.000    0.000    0.000    1.167 
#    0.000    9.333    0.000    0.000    0.000    0.000 
#
# Total GULP energy -134223.869468 kJ/mol
# GULP energy per Si atom -5592.661228 kJ/mol
# Density = 2.634004 g / cm^3
# Si number density = 26.400131 Si / 1000 Ang^3
#
#
#
# Elastic Constant Matrix: (Units=GPa)
#
#
# Indices 1 2 3 4 5 6 
#
# 1 98.1583 -6.4360 60.7205 0.0000 -34.2678 0.0001
# 2 -6.4360 73.0603 -5.5466 -0.0001 -0.2433 0.0004
# 3 60.7205 -5.5466 256.2623 0.0000 -32.2119 0.0000
# 4 0.0000 -0.0001 0.0000 28.4682 0.0000 -1.9041
# 5 -34.2678 -0.2433 -32.2119 0.0000 65.8260 0.0000
# 6 0.0001 0.0004 0.0000 -1.9041 0.0000 9.4697
#
#
#
# Elastic Compliance Matrix: (Units=1/GPa)
#
#
# Indices 1 2 3 4 5 6 
#
# 1 0.013914 0.001055 -0.002518 0.000000 0.006015 0.000000
# 2 0.001055 0.013792 0.000132 0.000000 0.000665 -0.000001
# 3 -0.002518 0.000132 0.004621 0.000000 0.000951 0.000000
# 4 0.000000 0.000000 0.000000 0.035606 0.000000 0.007159
# 5 0.006015 0.000665 0.000951 0.000000 0.018791 0.000000
# 6 0.000000 -0.000001 0.000000 0.007159 0.000000 0.107039
#
#
# Mechanical properties :
#
#
# Convention : Reuss Voigt Hill
#
# Bulk Modulus (GPa) = 33.70896 58.32855 46.01876
# Shear Modulus (GPa) = 24.23480 46.00231 35.11856
#
# Velocity S-wave (km/s) = 3.03311 4.17886 3.65120
# Velocity P-wave (km/s) = 5.00625 6.73987 5.93668
#
# Compressibility (1/GPa) = 0.02966570
#
# Stress axis : x y z
#
# Youngs Moduli (GPa) = 71.86798 72.50330 216.38924
#
# Poissons Ratio (x) = -0.07646 0.54488
# Poissons Ratio (y) = -0.07579 -0.02860
# Poissons Ratio (z) = 0.18097 -0.00958
#
# Static dielectric constant tensor:
#      x y z
#    x 2.176930 0.000000 -0.021370 
#    y 0.000000 1.892590 0.000000 
#    z -0.021370 0.000000 2.076790 
# 
# From -- ./inp_files/345379.got.cif
#   From: 2010.05.17/outbox.cif.g08.bks.cpg/sg12_173_cif.got.tgz:345379.got - 2010.06.03 13:09:07.
