data_PCOD9168991
_publ_section_title
;
Structure prediction by ZEFSAII (Michael W. Deem and Ramdas Pophale) SiO2 
 PCOD9168991
Probable space group: C 2/M
;
_chemical_formula_sum "Si O2"
_cell_formula_units_Z 56
_cell_length_a 22.894014
_cell_length_b 14.918466
_cell_length_c 20.213876
_cell_angle_alpha 90.000000
_cell_angle_beta 25.687158
_cell_angle_gamma 90.000000
_cell_volume 2992.552939
_symmetry_space_group_name_H-M "C 2/M"
_symmetry_group_IT_number 12
_symmetry_cell_setting 'monoclinic'
loop_
_space_group_symop_operation_xyz
x,y,z
-x,y,-z
-x,-y,-z
x,-y,z
1/2+x,1/2+y,z
1/2-x,1/2+y,-z
1/2-x,1/2-y,-z
1/2+x,1/2-y,z
loop_
_atom_site_type_symbol
_atom_site_label
_atom_site_fract_x
_atom_site_fract_y
_atom_site_fract_z
Si Si1 0.324067 0.397364 0.898756
Si Si2 0.125342 0.861508 0.596410
Si Si3 0.951973 0.334719 0.370889
Si Si4 0.746013 0.780959 0.104057
Si Si5 0.321167 0.397679 0.303582
Si Si6 0.010788 0.253200 0.061876
Si Si7 0.926009 0.597949 0.253647
O O1 0.273443 0.500000 0.949833
O O2 0.482731 0.400645 0.719379
O O3 0.257673 0.321812 0.919484
O O4 0.311565 0.347922 0.982775
O O5 0.113250 0.757086 0.590527
O O6 0.136477 0.879536 0.663243
O O7 0.263234 0.897453 0.425033
O O8 0.839399 0.380749 0.530756
O O9 0.977507 0.388432 0.276584
O O10 0.091107 0.312324 0.265238
O O11 0.839999 0.781433 0.071970
O O12 0.350835 0.500000 0.256457
O O13 0.404847 0.328046 0.175159
O O14 0.972375 0.323847 0.158003
O O15 0.000000 0.293059 0.000000
O O16 0.967350 0.500000 0.187526
#
# Coordination Sequence:
#
# PCOD9168991 Si02
#       7
#     8   8   8   8   8   8   8
#     4  10  18  31  56  88 122 143 171 232 296 344
#     4  10  16  31  58  90 117 144 173 228 297 344
#     4  10  18  35  61  88 119 137 173 238 300 341
#     4  10  22  35  53  86 115 149 186 223 287 344
#     4  11  20  36  60  86 113 147 187 229 285 340
#     4  12  25  42  56  76 115 161 200 233 264 325
#     4  11  20  34  59  90 117 147 188 231 285 340
#
# _framework density 18.71312
#
# number of rings (size 3 to 8) (size 9 to 14) (size 15 to 20)
#    0.000    1.429    4.286    5.143    0.000    3.429 
#    0.000    0.714    0.000    0.857    0.000    3.000 
#    0.000    0.000    0.000    0.000    0.000    0.000 
#
# Total GULP energy -156254.285104 kJ/mol
# GULP energy per Si atom -5580.510182 kJ/mol
# Density = 1.867053 g / cm^3
# Si number density = 18.713120 Si / 1000 Ang^3
#
#
#
# Elastic Constant Matrix: (Units=GPa)
#
#
# Indices 1 2 3 4 5 6 
#
# 1 70.4299 0.2237 36.5857 -0.0005 -19.5261 0.0003
# 2 0.2237 118.5608 16.4096 -0.0006 -8.3949 0.0005
# 3 36.5857 16.4096 62.9999 -0.0007 -29.0748 0.0006
# 4 -0.0005 -0.0006 -0.0007 5.6740 0.0005 -4.1285
# 5 -19.5261 -8.3949 -29.0748 0.0005 21.0837 -0.0004
# 6 0.0003 0.0005 0.0006 -4.1285 -0.0004 0.7205
#
#
#
# Elastic Compliance Matrix: (Units=1/GPa)
#
#
# Indices 1 2 3 4 5 6 
#
# 1 0.021067 0.001769 -0.009257 0.000000 0.007449 0.000000
# 2 0.001769 0.008905 -0.002625 0.000001 0.001564 0.000000
# 3 -0.009257 -0.002625 0.048115 0.000002 0.056734 0.000003
# 4 0.000000 0.000001 0.000002 -0.055606 -0.000002 -0.318637
# 5 0.007449 0.001564 0.056734 -0.000002 0.133189 0.000004
# 6 0.000000 0.000000 0.000003 -0.318637 0.000004 -0.437912
#
#
# Mechanical properties :
#
#
# Convention : Reuss Voigt Hill
#
# Bulk Modulus (GPa) = 17.28258 39.82539 28.55399
# Shear Modulus (GPa) = -20.59909 18.74706 -0.92601
#
# Velocity S-wave (km/s) = -3.32141 3.16858 -0.70422
# Velocity P-wave (km/s) = 2.33525 5.89193 3.82501
#
# Compressibility (1/GPa) = 0.05786172
#
# Stress axis : x y z
#
# Youngs Moduli (GPa) = 47.46812 112.29373 20.78338
#
# Poissons Ratio (x) = -0.19864 0.19239
# Poissons Ratio (y) = -0.08397 0.05455
# Poissons Ratio (z) = 0.43941 0.29476
#
# Static dielectric constant tensor:
#      x y z
#    x 1.621360 0.000000 -0.051330 
#    y 0.000000 1.679800 0.000000 
#    z -0.051330 0.000000 1.682300 
# 
# From -- ./inp_files/284480.got.cif
#   From: 2010.05.17/outbox.cif.g08.bks.cpg/sg12_143_cif.got.tgz:284480.got - 2010.06.03 13:09:07.
