data_PCOD9168379
_publ_section_title
;
Structure prediction by ZEFSAII (Michael W. Deem and Ramdas Pophale) SiO2 
 PCOD9168379
Probable space group: C 2/M
;
_chemical_formula_sum "Si O2"
_cell_formula_units_Z 44
_cell_length_a 22.101037
_cell_length_b 7.454312
_cell_length_c 12.298823
_cell_angle_alpha 90.000000
_cell_angle_beta 73.738904
_cell_angle_gamma 90.000000
_cell_volume 1945.149705
_symmetry_space_group_name_H-M "C 2/M"
_symmetry_group_IT_number 12
_symmetry_cell_setting 'monoclinic'
loop_
_space_group_symop_operation_xyz
x,y,z
-x,y,-z
-x,-y,-z
x,-y,z
1/2+x,1/2+y,z
1/2-x,1/2+y,-z
1/2-x,1/2-y,-z
1/2+x,1/2-y,z
loop_
_atom_site_type_symbol
_atom_site_label
_atom_site_fract_x
_atom_site_fract_y
_atom_site_fract_z
Si Si1 0.000000 0.744050 0.500000
Si Si2 0.869209 0.795656 0.441918
Si Si3 0.708545 0.283695 0.319413
Si Si4 0.851958 0.206601 0.215221
Si Si5 0.566137 0.282165 0.021219
Si Si6 0.917924 0.219323 0.739377
O O1 0.935775 0.808163 0.470748
O O2 0.963599 0.688703 0.628896
O O3 0.818721 0.715370 0.551251
O O4 0.873708 0.712437 0.320059
O O5 0.847585 0.000000 0.434310
O O6 0.713552 0.500000 0.323613
O O7 0.776635 0.212517 0.255020
O O8 0.653823 0.245361 0.260099
O O9 0.874844 0.000000 0.204485
O O10 0.880548 0.282257 0.089773
O O11 0.569424 0.500000 0.027885
O O12 0.570930 0.222886 0.143166
O O13 0.500000 0.234812 0.000000
O O14 0.928843 0.000000 0.722419
#
# Coordination Sequence:
#
# PCOD9168379 Si02
#       6
#     4   8   8   8   8   8
#     4  10  15  24  44  68  93 118 145 186 233 266
#     4   9  16  26  43  68  93 116 148 188 226 263
#     4   9  18  31  46  66  92 121 152 185 219 259
#     4  10  19  30  46  68  93 120 149 182 223 269
#     4   9  17  28  43  66  93 116 143 186 233 268
#     4   9  16  26  42  65  91 118 150 185 222 266
#
# _framework density 22.620366000000001
#
# number of rings (size 3 to 8) (size 9 to 14) (size 15 to 20)
#    0.000    2.727    0.000    4.364    0.000    3.636 
#    0.000    0.000    0.000    0.545    0.000   21.000 
#    0.000    0.000    0.000    0.000    0.000    0.000 
#
# Total GULP energy -122499.223559 kJ/mol
# GULP energy per Si atom -5568.146525 kJ/mol
# Density = 2.256888 g / cm^3
# Si number density = 22.620366 Si / 1000 Ang^3
#
#
#
# Elastic Constant Matrix: (Units=GPa)
#
#
# Indices 1 2 3 4 5 6 
#
# 1 102.6818 5.8318 101.5078 0.0000 -0.3477 0.0000
# 2 5.8318 66.6894 21.6673 0.0000 4.5437 0.0000
# 3 101.5078 21.6673 259.5366 0.0000 18.9447 0.0000
# 4 0.0000 0.0000 0.0000 -30.8783 0.0000 -6.5603
# 5 -0.3477 4.5437 18.9447 0.0000 44.9618 0.0000
# 6 0.0000 0.0000 0.0000 -6.5603 0.0000 45.1630
#
#
#
# Elastic Compliance Matrix: (Units=1/GPa)
#
#
# Indices 1 2 3 4 5 6 
#
# 1 0.016252 0.000532 -0.006609 0.000000 0.002857 0.000000
# 2 0.000532 0.015478 -0.001430 0.000000 -0.000957 0.000000
# 3 -0.006609 -0.001430 0.006758 0.000000 -0.002754 0.000000
# 4 0.000000 0.000000 0.000000 -0.031416 0.000000 -0.004563
# 5 0.002857 -0.000957 -0.002754 0.000000 0.023520 0.000000
# 6 0.000000 0.000000 0.000000 -0.004563 0.000000 0.021479
#
#
# Mechanical properties :
#
#
# Convention : Reuss Voigt Hill
#
# Bulk Modulus (GPa) = 42.60236 76.32463 59.46350
# Shear Modulus (GPa) = 66.74431 31.84270 49.29350
#
# Velocity S-wave (km/s) = 5.43786 3.75600 4.67322
# Velocity P-wave (km/s) = 7.63555 7.25430 7.44737
#
# Compressibility (1/GPa) = 0.02347288
#
# Stress axis : x y z
#
# Youngs Moduli (GPa) = 61.53090 64.60649 147.96358
#
# Poissons Ratio (x) = -0.03434 0.97793
# Poissons Ratio (y) = -0.03270 0.21162
# Poissons Ratio (z) = 0.40667 0.09240
#
# Static dielectric constant tensor:
#      x y z
#    x 1.771460 0.000000 0.009820 
#    y 0.000000 1.911570 0.000000 
#    z 0.009820 0.000000 1.842600 
# 
# From -- ./inp_files/153430.got.cif
#   From: 2010.05.17/outbox.cif.g08.bks.cpg/sg12_77_cif.got.tgz:153430.got - 2010.06.03 13:09:07.
