data_PCOD9168039
_publ_section_title
;
Structure prediction by ZEFSAII (Michael W. Deem and Ramdas Pophale) SiO2 
 PCOD9168039
Probable space group: P 21/M
;
_chemical_formula_sum "Si O2"
_cell_formula_units_Z 32
_cell_length_a 24.000000
_cell_length_b 9.000000
_cell_length_c 15.000000
_cell_angle_alpha 90.000000
_cell_angle_beta 30.000000
_cell_angle_gamma 90.000000
_cell_volume 1620.000000
_symmetry_space_group_name_H-M "P 21/M"
_symmetry_group_IT_number 11
_symmetry_cell_setting 'monoclinic'
loop_
_space_group_symop_operation_xyz
x,y,z
-x,1/2+y,-z
-x,-y,-z
x,1/2-y,z
loop_
_atom_site_type_symbol
_atom_site_label
_atom_site_fract_x
_atom_site_fract_y
_atom_site_fract_z
Si Si1 0.776001 0.570187 0.272516
Si Si2 0.773988 0.929749 0.760957
Si Si3 0.381141 0.926067 0.173975
Si Si4 0.318592 0.070411 0.922596
Si Si5 0.957658 0.580088 0.375436
Si Si6 0.455741 0.570641 0.468895
Si Si7 0.230044 0.077540 0.518147
Si Si8 0.151524 0.427042 0.011196
O O1 0.769742 0.750000 0.279374
O O2 0.657840 0.502122 0.407467
O O3 0.804427 0.529434 0.334694
O O4 0.856403 0.520113 0.079953
O O5 0.759269 0.750000 0.775018
O O6 0.896327 0.960493 0.552143
O O7 0.692519 0.008150 0.804172
O O8 0.744759 0.979757 0.900938
O O9 0.386645 0.750000 0.160975
O O10 0.325572 0.976205 0.343899
O O11 0.500000 0.000000 0.000000
O O12 0.309882 0.250000 0.934370
O O13 0.448472 0.036083 0.736882
O O14 0.261057 0.016795 0.911143
O O15 0.997722 0.750000 0.325910
O O16 0.868099 0.573756 0.418800
O O17 0.053496 0.472883 0.211781
O O18 0.500000 0.500000 0.500000
O O19 0.446258 0.750000 0.491261
O O20 0.267781 0.250000 0.469970
O O21 0.156717 0.250000 0.999835
#
# Coordination Sequence:
#
# PCOD9168039 Si02
#       8
#     4   4   4   4   4   4   4   4
#     4  10  21  38  58  83 114 149 188 232 282 334
#     4   9  19  38  59  79 110 148 184 230 284 333
#     4  11  22  36  55  81 112 146 187 231 277 332
#     4   9  19  36  57  81 111 148 186 224 278 337
#     4   9  19  36  56  80 111 146 186 233 284 331
#     4  11  21  36  57  82 114 151 188 230 279 334
#     4   9  20  39  59  80 112 149 184 229 286 335
#     4  10  20  36  57  81 111 149 189 229 276 332
#
# _framework density 19.753086
#
# number of rings (size 3 to 8) (size 9 to 14) (size 15 to 20)
#    0.000    2.250    1.250    2.250    1.750    4.000 
#    0.000    1.250    0.000    0.000    0.000    0.000 
#    0.000    0.000    0.000    0.000    0.000    0.000 
#
# Total GULP energy -178361.566136 kJ/mol
# GULP energy per Si atom -5573.798942 kJ/mol
# Density = 1.970813 g / cm^3
# Si number density = 19.753086 Si / 1000 Ang^3
#
#
#
# Elastic Constant Matrix: (Units=GPa)
#
#
# Indices 1 2 3 4 5 6 
#
# 1 34.7473 -1.2838 16.7147 0.0000 26.4277 0.0000
# 2 -1.2838 2.8623 8.3173 0.0000 0.3327 0.0000
# 3 16.7147 8.3173 79.6738 0.0000 28.2139 0.0000
# 4 0.0000 0.0000 0.0000 29.9200 0.0000 0.0617
# 5 26.4277 0.3327 28.2139 0.0000 31.8195 0.0000
# 6 0.0000 0.0000 0.0000 0.0617 0.0000 19.0966
#
#
#
# Elastic Compliance Matrix: (Units=1/GPa)
#
#
# Indices 1 2 3 4 5 6 
#
# 1 0.084920 0.028992 0.006183 0.000000 -0.076316 0.000000
# 2 0.028992 0.604652 -0.085185 0.000000 0.045132 0.000000
# 3 0.006183 -0.085185 0.031559 0.000000 -0.032228 0.000000
# 4 0.000000 0.000000 0.000000 0.033423 0.000000 -0.000108
# 5 -0.076316 0.045132 -0.032228 0.000000 0.122915 0.000000
# 6 0.000000 0.000000 0.000000 -0.000108 0.000000 0.052366
#
#
# Mechanical properties :
#
#
# Convention : Reuss Voigt Hill
#
# Bulk Modulus (GPa) = 1.61002 18.30887 9.95945
# Shear Modulus (GPa) = 4.04239 22.40289 13.22264
#
# Velocity S-wave (km/s) = 1.43210 3.37136 2.59008
# Velocity P-wave (km/s) = 1.88451 4.94406 3.74133
#
# Compressibility (1/GPa) = 0.62111014
#
# Stress axis : x y z
#
# Youngs Moduli (GPa) = 11.77584 1.65384 31.68651
#
# Poissons Ratio (x) = -0.04795 -0.19591
# Poissons Ratio (y) = -0.34141 2.69922
# Poissons Ratio (z) = -0.07281 0.14088
#
# Static dielectric constant tensor:
#      x y z
#    x 1.689190 0.000000 0.016830 
#    y 0.000000 1.659100 0.000000 
#    z 0.016830 0.000000 1.711200 
# 
# From -- ./inp_files/51642.got.cif
#   From: 2010.05.17/outbox.ucp.g08.bks.cvg/sg11_26_cif.got.tgz:51642.got - 2010.06.11 11:38:39.
