data_PCOD9168814
_publ_section_title
;
Structure prediction by ZEFSAII (Michael W. Deem and Ramdas Pophale) SiO2 
 PCOD9168814
Probable space group: C 2/M
;
_chemical_formula_sum "Si O2"
_cell_formula_units_Z 42
_cell_length_a 9.988463
_cell_length_b 29.555438
_cell_length_c 6.787574
_cell_angle_alpha 90.000000
_cell_angle_beta 47.993041
_cell_angle_gamma 90.000000
_cell_volume 1488.937952
_symmetry_space_group_name_H-M "C 2/M"
_symmetry_group_IT_number 12
_symmetry_cell_setting 'monoclinic'
loop_
_space_group_symop_operation_xyz
x,y,z
-x,y,-z
-x,-y,-z
x,-y,z
1/2+x,1/2+y,z
1/2-x,1/2+y,-z
1/2-x,1/2-y,-z
1/2+x,1/2-y,z
loop_
_atom_site_type_symbol
_atom_site_label
_atom_site_fract_x
_atom_site_fract_y
_atom_site_fract_z
Si Si1 0.747627 0.432311 0.597755
Si Si2 0.363897 0.450224 0.836379
Si Si3 0.000000 0.500000 0.500000
Si Si4 0.218052 0.834139 0.747010
Si Si5 0.285101 0.237533 0.193136
Si Si6 0.195670 0.642493 0.897375
O O1 0.580769 0.449544 0.633886
O O2 0.758713 0.378086 0.576490
O O3 0.929981 0.460263 0.410678
O O4 0.690857 0.444716 0.879228
O O5 0.299306 0.500000 0.842001
O O6 0.293518 0.405244 0.803098
O O7 0.274360 0.783028 0.632834
O O8 0.312347 0.844408 0.862929
O O9 0.000000 0.834182 0.000000
O O10 0.210924 0.186818 0.292906
O O11 0.500000 0.233746 0.000000
O O12 0.250000 0.250000 0.000000
O O13 0.000000 0.636847 0.000000
#
# Coordination Sequence:
#
# PCOD9168814 Si02
#       6
#     8   8   2   8   8   8
#     4  10  17  28  44  68  88 117 141 191 231 267
#     4  10  16  29  45  60  95 122 145 173 237 268
#     4  12  20  26  44  72  94 102 156 200 224 250
#     4   9  14  26  45  62  90 120 141 177 240 267
#     4   8  14  22  36  61  92 114 140 178 218 259
#     4   9  16  24  38  67  97 115 148 181 212 263
#
# _framework density 28.208026
#
# number of rings (size 3 to 8) (size 9 to 14) (size 15 to 20)
#    0.000    2.667    5.714    0.571    0.000    0.381 
#    0.000    0.000    0.000    0.000    0.000   12.000 
#    0.000    0.000    0.000    0.000    0.000    0.000 
#
# Total GULP energy -117397.001937 kJ/mol
# GULP energy per Si atom -5590.333426 kJ/mol
# Density = 2.814382 g / cm^3
# Si number density = 28.208026 Si / 1000 Ang^3
#
#
#
# Elastic Constant Matrix: (Units=GPa)
#
#
# Indices 1 2 3 4 5 6 
#
# 1 214.1317 81.5699 4.6744 0.0000 -21.5122 0.0000
# 2 81.5699 400.0126 43.9605 0.0000 3.0964 0.0000
# 3 4.6744 43.9605 68.3832 0.0000 4.1440 0.0000
# 4 0.0000 0.0000 0.0000 33.8580 0.0000 8.2522
# 5 -21.5122 3.0964 4.1440 0.0000 33.7445 0.0000
# 6 0.0000 0.0000 0.0000 8.2522 0.0000 42.0785
#
#
#
# Elastic Compliance Matrix: (Units=1/GPa)
#
#
# Indices 1 2 3 4 5 6 
#
# 1 0.005467 -0.001160 0.000155 0.000000 0.003573 0.000000
# 2 -0.001160 0.002936 -0.001760 0.000000 -0.000792 0.000000
# 3 0.000155 -0.001760 0.015847 0.000000 -0.001686 0.000000
# 4 0.000000 0.000000 0.000000 0.031018 0.000000 -0.006083
# 5 0.003573 -0.000792 -0.001686 0.000000 0.032192 0.000000
# 6 0.000000 0.000000 0.000000 -0.006083 0.000000 0.024958
#
#
# Mechanical properties :
#
#
# Convention : Reuss Voigt Hill
#
# Bulk Modulus (GPa) = 53.41651 104.77078 79.09364
# Shear Modulus (GPa) = 40.26198 58.75769 49.50984
#
# Velocity S-wave (km/s) = 3.78209 4.56896 4.19402
# Velocity P-wave (km/s) = 6.16847 8.06577 7.18006
#
# Compressibility (1/GPa) = 0.01872080
#
# Stress axis : x y z
#
# Youngs Moduli (GPa) = 182.90585 340.60519 63.10538
#
# Poissons Ratio (x) = 0.39496 -0.00980
# Poissons Ratio (y) = 0.21210 0.11107
# Poissons Ratio (z) = -0.02839 0.59950
#
# Static dielectric constant tensor:
#      x y z
#    x 2.181690 0.000000 -0.014580 
#    y 0.000000 2.186150 0.000000 
#    z -0.014580 0.000000 2.371820 
# 
# From -- ./inp_files/41555.got.cif
#   From: 2010.05.17/outbox.cif.g08.bks.cpg/sg12_21_cif.got.tgz:41555.got - 2010.06.03 13:09:07.
