data_PCOD9168679
_publ_section_title
;
Structure prediction by ZEFSAII (Michael W. Deem and Ramdas Pophale) SiO2 
 PCOD9168679
Probable space group: C 2/M
;
_chemical_formula_sum "Si O2"
_cell_formula_units_Z 60
_cell_length_a 17.387560
_cell_length_b 25.595071
_cell_length_c 11.411252
_cell_angle_alpha 90.000000
_cell_angle_beta 140.154600
_cell_angle_gamma 90.000000
_cell_volume 3253.833940
_symmetry_space_group_name_H-M "C 2/M"
_symmetry_group_IT_number 12
_symmetry_cell_setting 'monoclinic'
loop_
_space_group_symop_operation_xyz
x,y,z
-x,y,-z
-x,-y,-z
x,-y,z
1/2+x,1/2+y,z
1/2-x,1/2+y,-z
1/2-x,1/2-y,-z
1/2+x,1/2-y,z
loop_
_atom_site_type_symbol
_atom_site_label
_atom_site_fract_x
_atom_site_fract_y
_atom_site_fract_z
Si Si1 0.792676 0.061862 0.128580
Si Si2 0.859180 0.727402 0.367236
Si Si3 0.176596 0.180274 0.524027
Si Si4 0.248914 0.359984 0.884624
Si Si5 0.127885 0.380451 0.122137
Si Si6 0.844421 0.712061 0.014064
Si Si7 0.492316 0.693797 0.126936
Si Si8 0.000000 0.123030 0.500000
O O1 0.747492 0.084668 0.950105
O O2 0.704210 0.081254 0.128830
O O3 0.917310 0.088945 0.316014
O O4 0.803313 0.000000 0.137849
O O5 0.819271 0.757900 0.438739
O O6 0.773796 0.760591 0.178241
O O7 0.000000 0.731607 0.500000
O O8 0.821527 0.666328 0.307855
O O9 0.293340 0.144385 0.680233
O O10 0.114812 0.174891 0.326736
O O11 0.085043 0.157882 0.516728
O O12 0.197129 0.322690 0.926960
O O13 0.387642 0.348618 0.019289
O O14 0.103706 0.328695 0.017412
O O15 0.000000 0.404647 0.000000
O O16 0.941871 0.757150 0.142466
O O17 0.500000 0.708580 0.000000
#
# Coordination Sequence:
#
# PCOD9168679 Si02
#       8
#     8   8   8   8   8   8   8   4
#     4  10  20  34  57  82 104 136 182 238 284 312
#     4  10  16  26  49  78 103 137 183 208 257 314
#     4  10  18  30  53  79 112 148 172 218 271 326
#     4  10  19  33  50  76 109 143 181 228 264 323
#     4   9  19  34  49  75 112 142 177 221 276 331
#     4   9  18  30  49  72 108 145 179 217 256 319
#     4  11  20  32  50  78 114 148 177 215 276 334
#     4  10  17  32  56  88 110 126 173 230 284 324
#
# _framework density 18.439785000000001
#
# number of rings (size 3 to 8) (size 9 to 14) (size 15 to 20)
#    0.000    2.133    2.000    4.600    0.000    0.267 
#    0.000   16.000    0.000    0.800    0.000    0.000 
#    0.000    0.000    0.000    0.000    0.000    0.133 
#
# Total GULP energy -167010.058363 kJ/mol
# GULP energy per Si atom -5567.001945 kJ/mol
# Density = 1.839781 g / cm^3
# Si number density = 18.439785 Si / 1000 Ang^3
#
#
#
# Elastic Constant Matrix: (Units=GPa)
#
#
# Indices 1 2 3 4 5 6 
#
# 1 43.8889 8.2795 18.9912 0.0000 6.8137 0.0000
# 2 8.2795 68.2850 24.7730 0.0000 1.7614 0.0000
# 3 18.9912 24.7730 65.9075 0.0000 8.0078 0.0000
# 4 0.0000 0.0000 0.0000 16.7121 0.0000 -1.9970
# 5 6.8137 1.7614 8.0078 0.0000 24.1802 0.0000
# 6 0.0000 0.0000 0.0000 -1.9970 0.0000 6.8539
#
#
#
# Elastic Compliance Matrix: (Units=1/GPa)
#
#
# Indices 1 2 3 4 5 6 
#
# 1 0.026660 -0.000626 -0.006814 0.000000 -0.005210 0.000000
# 2 -0.000626 0.016991 -0.006332 0.000000 0.001036 0.000000
# 3 -0.006814 -0.006332 0.020033 0.000000 -0.004253 0.000000
# 4 0.000000 0.000000 0.000000 0.061995 0.000000 0.018063
# 5 -0.005210 0.001036 -0.004253 0.000000 0.044157 0.000000
# 6 0.000000 0.000000 0.000000 0.018063 0.000000 0.151166
#
#
# Mechanical properties :
#
#
# Convention : Reuss Voigt Hill
#
# Bulk Modulus (GPa) = 27.66979 31.35209 29.51094
# Shear Modulus (GPa) = 13.86605 17.95174 15.90889
#
# Velocity S-wave (km/s) = 2.74517 3.12353 2.94044
# Velocity P-wave (km/s) = 5.00859 5.48160 5.25043
#
# Compressibility (1/GPa) = 0.03614050
#
# Stress axis : x y z
#
# Youngs Moduli (GPa) = 37.50908 58.85523 49.91794
#
# Poissons Ratio (x) = 0.03685 0.34012
# Poissons Ratio (y) = 0.02349 0.31607
# Poissons Ratio (z) = 0.25557 0.37266
#
# Static dielectric constant tensor:
#      x y z
#    x 1.716670 0.000000 -0.036870 
#    y 0.000000 1.635190 0.000000 
#    z -0.036870 0.000000 1.720800 
# 
# From -- ./inp_files/160734.got.cif
#   From: 2010.05.17/outbox.cif.g08.bks.cpg/sg12_81_cif.got.tgz:160734.got - 2010.06.03 13:09:07.
