data_PCOD9168014
_publ_section_title
;
Structure prediction by ZEFSAII (Michael W. Deem and Ramdas Pophale) SiO2 
 PCOD9168014
Probable space group: P 21/M
;
_chemical_formula_sum "Si O2"
_cell_formula_units_Z 28
_cell_length_a 27.000000
_cell_length_b 9.000000
_cell_length_c 9.000000
_cell_angle_alpha 90.000000
_cell_angle_beta 140.000000
_cell_angle_gamma 90.000000
_cell_volume 1405.776502
_symmetry_space_group_name_H-M "P 21/M"
_symmetry_group_IT_number 11
_symmetry_cell_setting 'monoclinic'
loop_
_space_group_symop_operation_xyz
x,y,z
-x,1/2+y,-z
-x,-y,-z
x,1/2-y,z
loop_
_atom_site_type_symbol
_atom_site_label
_atom_site_fract_x
_atom_site_fract_y
_atom_site_fract_z
Si Si1 0.053599 0.572882 0.407759
Si Si2 0.671214 0.572262 0.033775
Si Si3 0.619153 0.928071 0.575049
Si Si4 0.475318 0.071289 0.101744
Si Si5 0.247443 0.927155 0.310596
Si Si6 0.815105 0.428355 0.509110
Si Si7 0.890438 0.924537 0.162086
O O1 0.067859 0.750000 0.468074
O O2 0.101081 0.531168 0.367875
O O3 0.083182 0.474483 0.613566
O O4 0.961233 0.555366 0.208245
O O5 0.682330 0.750000 0.071001
O O6 0.645585 0.541609 0.805225
O O7 0.606969 0.530818 0.011461
O O8 0.750463 0.489141 0.249244
O O9 0.611174 0.750000 0.539775
O O10 0.539409 0.011519 0.362431
O O11 0.678567 0.988979 0.586783
O O12 0.477503 0.250000 0.092758
O O13 0.500000 0.000000 0.000000
O O14 0.262178 0.750000 0.349190
O O15 0.214433 0.978345 0.395694
O O16 0.178956 0.969910 0.042330
O O17 0.813794 0.250000 0.511573
O O18 0.868683 0.750000 0.111785
#
# Coordination Sequence:
#
# PCOD9168014 Si02
#       7
#     4   4   4   4   4   4   4
#     4   9  19  37  58  81 111 147 187 232 281 333
#     4  10  23  40  59  84 114 147 186 231 278 330
#     4  11  23  40  61  86 114 147 189 233 278 331
#     4  11  23  40  61  87 118 151 186 228 279 331
#     4  11  23  38  56  82 115 150 188 231 281 334
#     4  10  22  38  57  81 111 148 189 231 278 333
#     4  10  20  35  57  84 112 145 187 233 281 334
#
# _framework density 19.917818
#
# number of rings (size 3 to 8) (size 9 to 14) (size 15 to 20)
#    0.000    1.714    0.000    3.857    0.000    9.714 
#    0.000    0.000    0.000    0.000    0.000    0.000 
#    0.000    0.000    0.000    0.000    0.000    0.000 
#
# Total GULP energy -156335.298129 kJ/mol
# GULP energy per Si atom -5583.403505 kJ/mol
# Density = 1.987248 g / cm^3
# Si number density = 19.917818 Si / 1000 Ang^3
#
#
#
# Elastic Constant Matrix: (Units=GPa)
#
#
# Indices 1 2 3 4 5 6 
#
# 1 108.0031 13.8169 -21.2816 0.0000 8.4575 0.0000
# 2 13.8169 31.7224 -7.2063 0.0000 1.3251 0.0000
# 3 -21.2816 -7.2063 14.7726 0.0000 2.4375 0.0000
# 4 0.0000 0.0000 0.0000 27.2423 0.0000 -2.7476
# 5 8.4575 1.3251 2.4375 0.0000 31.0597 0.0000
# 6 0.0000 0.0000 0.0000 -2.7476 0.0000 33.1775
#
#
#
# Elastic Compliance Matrix: (Units=1/GPa)
#
#
# Indices 1 2 3 4 5 6 
#
# 1 0.013801 -0.001209 0.020165 0.000000 -0.005289 0.000000
# 2 -0.001209 0.035819 0.016138 0.000000 -0.002465 0.000000
# 3 0.020165 0.016138 0.107021 0.000000 -0.014578 0.000000
# 4 0.000000 0.000000 0.000000 0.037017 0.000000 0.003066
# 5 -0.005289 -0.002465 -0.014578 0.000000 0.034886 0.000000
# 6 0.000000 0.000000 0.000000 0.003066 0.000000 0.030395
#
#
# Mechanical properties :
#
#
# Convention : Reuss Voigt Hill
#
# Bulk Modulus (GPa) = 4.40862 13.90622 9.15742
# Shear Modulus (GPa) = 18.91350 29.57384 24.24367
#
# Velocity S-wave (km/s) = 3.08486 3.85748 3.49260
# Velocity P-wave (km/s) = 3.86092 5.18046 4.56858
#
# Compressibility (1/GPa) = 0.22682839
#
# Stress axis : x y z
#
# Youngs Moduli (GPa) = 72.45650 27.91804 9.34395
#
# Poissons Ratio (x) = 0.03377 -0.18842
# Poissons Ratio (y) = 0.08763 -0.15079
# Poissons Ratio (z) = -1.46110 -0.45053
#
# Static dielectric constant tensor:
#      x y z
#    x 1.717180 0.000000 0.004160 
#    y 0.000000 1.659590 0.000000 
#    z 0.004160 0.000000 1.721520 
# 
# From -- ./inp_files/28623.got.cif
#   From: 2010.05.17/outbox.ucp.g08.bks.cvg/sg11_15_cif.got.tgz:28623.got - 2010.06.11 11:38:39.
