data_PCOD9168024
_publ_section_title
;
Structure prediction by ZEFSAII (Michael W. Deem and Ramdas Pophale) SiO2 
 PCOD9168024
Probable space group: P 21/M
;
_chemical_formula_sum "Si O2"
_cell_formula_units_Z 32
_cell_length_a 30.000000
_cell_length_b 9.000000
_cell_length_c 12.000000
_cell_angle_alpha 90.000000
_cell_angle_beta 30.000000
_cell_angle_gamma 90.000000
_cell_volume 1620.000000
_symmetry_space_group_name_H-M "P 21/M"
_symmetry_group_IT_number 11
_symmetry_cell_setting 'monoclinic'
loop_
_space_group_symop_operation_xyz
x,y,z
-x,1/2+y,-z
-x,-y,-z
x,1/2-y,z
loop_
_atom_site_type_symbol
_atom_site_label
_atom_site_fract_x
_atom_site_fract_y
_atom_site_fract_z
Si Si1 0.279026 0.417720 0.843761
Si Si2 0.122572 0.075777 0.689168
Si Si3 0.073332 0.071956 0.258437
Si Si4 0.544710 0.076370 0.005119
Si Si5 0.064789 0.926306 0.031076
Si Si6 0.438176 0.582922 0.420262
Si Si7 0.286537 0.924301 0.240370
Si Si8 0.612422 0.913238 0.161568
O O1 0.282789 0.250000 0.787048
O O2 0.335810 0.537784 0.653651
O O3 0.337721 0.413032 0.829235
O O4 0.174873 0.454214 0.082470
O O5 0.127999 0.250000 0.700493
O O6 0.031507 0.048556 0.818155
O O7 0.199233 0.019642 0.442095
O O8 0.127388 0.990465 0.797107
O O9 0.059269 0.250000 0.285284
O O10 0.069279 0.005593 0.141529
O O11 0.000000 0.000000 0.500000
O O12 0.547151 0.250000 0.984990
O O13 0.645208 0.026921 0.810932
O O14 0.500000 0.000000 0.000000
O O15 0.485200 0.033753 0.239105
O O16 0.078614 0.750000 0.015614
O O17 0.444393 0.750000 0.362078
O O18 0.504743 0.578947 0.383799
O O19 0.267003 0.750000 0.290919
O O20 0.340930 0.959484 0.010951
O O21 0.633291 0.750000 0.064460
#
# Coordination Sequence:
#
# PCOD9168024 Si02
#       8
#     4   4   4   4   4   4   4   4
#     4  10  22  39  59  83 114 155 195 235 290 346
#     4  10  21  38  63  90 116 151 193 243 301 356
#     4  11  25  43  62  87 121 160 202 247 298 355
#     4  10  21  37  56  80 114 152 189 231 282 340
#     4  10  22  41  63  87 117 151 194 247 300 354
#     4  10  20  35  58  86 115 148 190 238 287 342
#     4  10  21  35  55  86 117 148 190 238 288 345
#     4   9  19  36  57  84 118 153 192 239 288 344
#
# _framework density 19.753086
#
# number of rings (size 3 to 8) (size 9 to 14) (size 15 to 20)
#    0.000    2.000    0.000    2.625    1.750    6.000 
#    0.000    0.000    0.000    0.000    0.000    0.000 
#    0.000    0.000    0.000    0.000    0.000    0.000 
#
# Total GULP energy -178252.887951 kJ/mol
# GULP energy per Si atom -5570.402748 kJ/mol
# Density = 1.970813 g / cm^3
# Si number density = 19.753086 Si / 1000 Ang^3
#
#
#
# Elastic Constant Matrix: (Units=GPa)
#
#
# Indices 1 2 3 4 5 6 
#
# 1 32.9840 39.1746 -4.0461 0.0000 -3.2843 0.0000
# 2 39.1746 15.8424 23.4972 0.0000 -13.4090 0.0000
# 3 -4.0461 23.4972 65.7793 0.0000 -23.5771 0.0000
# 4 0.0000 0.0000 0.0000 34.9799 0.0000 2.9545
# 5 -3.2843 -13.4090 -23.5771 0.0000 21.6336 0.0000
# 6 0.0000 0.0000 0.0000 2.9545 0.0000 28.6804
#
#
#
# Elastic Compliance Matrix: (Units=1/GPa)
#
#
# Indices 1 2 3 4 5 6 
#
# 1 -0.004166 0.029084 -0.007238 0.000000 0.009506 0.000000
# 2 0.029084 -0.023246 0.010685 0.000000 0.001652 0.000000
# 3 -0.007238 0.010685 0.021202 0.000000 0.028631 0.000000
# 4 0.000000 0.000000 0.000000 0.028839 0.000000 -0.002971
# 5 0.009506 0.001652 0.028631 0.000000 0.079894 0.000000
# 6 0.000000 0.000000 0.000000 -0.002971 0.000000 0.035173
#
#
# Mechanical properties :
#
#
# Convention : Reuss Voigt Hill
#
# Bulk Modulus (GPa) = 16.99207 25.76191 21.37699
# Shear Modulus (GPa) = 54.19917 20.79077 37.49497
#
# Velocity S-wave (km/s) = 5.24384 3.24780 4.36154
# Velocity P-wave (km/s) = 6.72940 5.20908 6.01744
#
# Compressibility (1/GPa) = 0.05885097
#
# Stress axis : x y z
#
# Youngs Moduli (GPa) = -240.01708 -43.01814 47.16426
#
# Poissons Ratio (x) = 1.25114 0.34139
# Poissons Ratio (y) = 6.98067 -0.50394
# Poissons Ratio (z) = -1.73733 0.45964
#
# Static dielectric constant tensor:
#      x y z
#    x 1.725450 0.000000 0.030760 
#    y 0.000000 1.697290 0.000000 
#    z 0.030760 0.000000 1.683680 
# 
# From -- ./inp_files/45221.got.cif
#   From: 2010.05.17/outbox.ucp.g08.bks.cvg/sg11_23_cif.got.tgz:45221.got - 2010.06.11 11:38:39.
