data_PCOD9168897
_publ_section_title
;
Structure prediction by ZEFSAII (Michael W. Deem and Ramdas Pophale) SiO2 
 PCOD9168897
Probable space group: C 2/M
;
_chemical_formula_sum "Si O2"
_cell_formula_units_Z 48
_cell_length_a 5.329199
_cell_length_b 14.259909
_cell_length_c 29.039507
_cell_angle_alpha 90.000000
_cell_angle_beta 73.988409
_cell_angle_gamma 90.000000
_cell_volume 2121.213417
_symmetry_space_group_name_H-M "C 2/M"
_symmetry_group_IT_number 12
_symmetry_cell_setting 'monoclinic'
loop_
_space_group_symop_operation_xyz
x,y,z
-x,y,-z
-x,-y,-z
x,-y,z
1/2+x,1/2+y,z
1/2-x,1/2+y,-z
1/2-x,1/2-y,-z
1/2+x,1/2-y,z
loop_
_atom_site_type_symbol
_atom_site_label
_atom_site_fract_x
_atom_site_fract_y
_atom_site_fract_z
Si Si1 0.006236 0.807717 0.128671
Si Si2 0.718503 0.642404 0.020948
Si Si3 0.468805 0.611882 0.231486
Si Si4 0.888878 0.614747 0.284049
Si Si5 0.394330 0.385611 0.608414
Si Si6 0.523762 0.114480 0.446191
O O1 0.217760 0.726088 0.128771
O O2 0.128239 0.857979 0.078117
O O3 0.989735 0.863203 0.177009
O O4 0.500000 0.600122 0.000000
O O5 0.750000 0.750000 0.000000
O O6 0.000000 0.600315 0.000000
O O7 0.467062 0.500000 0.235929
O O8 0.716613 0.644415 0.248779
O O9 0.189332 0.644785 0.265168
O O10 0.891124 0.500000 0.284768
O O11 0.745010 0.646144 0.337758
O O12 0.394247 0.500000 0.609369
O O13 0.695808 0.357574 0.588632
O O14 0.218331 0.357770 0.573623
O O15 0.500000 0.146837 0.500000
O O16 0.521561 0.000000 0.447240
#
# Coordination Sequence:
#
# PCOD9168897 Si02
#       6
#     8   8   8   8   8   8
#     4  12  21  33  55  81 101 129 168 206 247 297
#     4  10  16  30  49  75  97 124 159 201 232 281
#     4  10  21  35  50  71 102 132 164 211 256 289
#     4   9  17  31  47  63  87 127 172 206 238 292
#     4   9  15  23  37  53  73 111 161 198 229 285
#     4   9  15  21  30  50  79 108 146 202 250 278
#
# _framework density 22.628557000000001
#
# number of rings (size 3 to 8) (size 9 to 14) (size 15 to 20)
#    0.000    2.167    3.333    2.500    0.000    6.000 
#    0.000    0.000    0.000    1.000    0.000    0.000 
#    0.000    0.000    0.000    0.000    0.000  210.000 
#
# Total GULP energy -134171.560308 kJ/mol
# GULP energy per Si atom -5590.481680 kJ/mol
# Density = 2.257705 g / cm^3
# Si number density = 22.628557 Si / 1000 Ang^3
#
#
#
# Elastic Constant Matrix: (Units=GPa)
#
#
# Indices 1 2 3 4 5 6 
#
# 1 93.1139 -11.2836 -21.6682 0.0000 -0.9262 0.0000
# 2 -11.2836 67.8330 -7.5771 0.0000 -4.2363 0.0000
# 3 -21.6682 -7.5771 70.4335 0.0000 1.4531 0.0000
# 4 0.0000 0.0000 0.0000 14.8481 0.0000 4.4909
# 5 -0.9262 -4.2363 1.4531 0.0000 45.8177 0.0000
# 6 0.0000 0.0000 0.0000 4.4909 0.0000 -20.6166
#
#
#
# Elastic Compliance Matrix: (Units=1/GPa)
#
#
# Indices 1 2 3 4 5 6 
#
# 1 0.011955 0.002450 0.003934 0.000000 0.000343 0.000000
# 2 0.002450 0.015505 0.002393 0.000000 0.001407 0.000000
# 3 0.003934 0.002393 0.015670 0.000000 -0.000196 0.000000
# 4 0.000000 0.000000 0.000000 0.063186 0.000000 0.013764
# 5 0.000343 0.001407 -0.000196 0.000000 0.021969 0.000000
# 6 0.000000 0.000000 0.000000 0.013764 0.000000 -0.045506
#
#
# Mechanical properties :
#
#
# Convention : Reuss Voigt Hill
#
# Bulk Modulus (GPa) = 16.47914 16.70251 16.59082
# Shear Modulus (GPa) = 58.51202 26.13711 42.32457
#
# Velocity S-wave (km/s) = 5.09055 3.40229 4.32951
# Velocity P-wave (km/s) = 6.46915 4.77821 5.68688
#
# Compressibility (1/GPa) = 0.06068279
#
# Stress axis : x y z
#
# Youngs Moduli (GPa) = 83.64449 64.49657 63.81778
#
# Poissons Ratio (x) = -0.15799 -0.25108
# Poissons Ratio (y) = -0.20490 -0.15269
# Poissons Ratio (z) = -0.32909 -0.15431
#
# Static dielectric constant tensor:
#      x y z
#    x 1.807720 0.000000 0.015570 
#    y 0.000000 1.862380 0.000000 
#    z 0.015570 0.000000 1.812860 
# 
# From -- ./inp_files/331057.got.cif
#   From: 2010.05.17/outbox.cif.g08.bks.cpg/sg12_166_cif.got.tgz:331057.got - 2010.06.03 13:09:07.
