data_PCOD9168834
_publ_section_title
;
Structure prediction by ZEFSAII (Michael W. Deem and Ramdas Pophale) SiO2 
 PCOD9168834
Probable space group: C 2/M
;
_chemical_formula_sum "Si O2"
_cell_formula_units_Z 56
_cell_length_a 15.615749
_cell_length_b 18.694593
_cell_length_c 16.492068
_cell_angle_alpha 90.000000
_cell_angle_beta 32.518713
_cell_angle_gamma 90.000000
_cell_volume 2588.171451
_symmetry_space_group_name_H-M "C 2/M"
_symmetry_group_IT_number 12
_symmetry_cell_setting 'monoclinic'
loop_
_space_group_symop_operation_xyz
x,y,z
-x,y,-z
-x,-y,-z
x,-y,z
1/2+x,1/2+y,z
1/2-x,1/2+y,-z
1/2-x,1/2-y,-z
1/2+x,1/2-y,z
loop_
_atom_site_type_symbol
_atom_site_label
_atom_site_fract_x
_atom_site_fract_y
_atom_site_fract_z
Si Si1 0.063225 0.675522 0.315807
Si Si2 0.133372 0.814990 0.170027
Si Si3 0.400249 0.922840 0.219203
Si Si4 0.295380 0.785053 0.622124
Si Si5 0.923223 0.127399 0.477272
Si Si6 0.001807 0.724849 0.086648
Si Si7 0.774170 0.419330 0.935958
O O1 0.055551 0.737201 0.252457
O O2 0.152615 0.701249 0.326557
O O3 0.162939 0.611363 0.198904
O O4 0.883890 0.660786 0.490931
O O5 0.051619 0.866380 0.303045
O O6 0.318007 0.791685 0.035717
O O7 0.153219 0.863779 0.074403
O O8 0.243605 0.913532 0.400186
O O9 0.410857 0.852131 0.155399
O O10 0.563178 0.921246 0.140099
O O11 0.389867 0.000000 0.185320
O O12 0.369673 0.709057 0.536853
O O13 0.107231 0.773723 0.769017
O O14 0.000000 0.100154 0.500000
O O15 0.000000 0.758733 0.000000
O O16 0.711920 0.500000 0.981274
#
# Coordination Sequence:
#
# PCOD9168834 Si02
#       7
#     8   8   8   8   8   8   8
#     4  10  17  34  56  76 102 136 171 217 263 308
#     4  10  18  31  54  80 103 135 173 213 261 312
#     4   9  20  33  45  68 103 145 178 201 246 314
#     4   9  17  31  54  78 101 124 167 222 264 304
#     4  10  16  32  54  73 104 130 168 220 257 294
#     4  10  16  29  51  75 105 128 158 221 271 297
#     4  10  22  37  50  72 109 143 175 214 253 306
#
# _framework density 21.636897000000001
#
# number of rings (size 3 to 8) (size 9 to 14) (size 15 to 20)
#    0.000    2.286    4.286    1.286    0.000    1.143 
#    0.000   17.143    0.000    0.000    0.000    2.000 
#    0.000    0.000    0.000    0.000    0.000    0.000 
#
# Total GULP energy -155968.876274 kJ/mol
# GULP energy per Si atom -5570.317010 kJ/mol
# Density = 2.158765 g / cm^3
# Si number density = 21.636897 Si / 1000 Ang^3
#
#
#
# Elastic Constant Matrix: (Units=GPa)
#
#
# Indices 1 2 3 4 5 6 
#
# 1 29.1141 14.6520 28.4234 -0.0015 5.1911 0.0004
# 2 14.6520 62.7471 33.7549 -0.0057 4.2072 0.0023
# 3 28.4234 33.7549 166.4665 -0.0095 5.1380 0.0028
# 4 -0.0015 -0.0057 -0.0095 16.7568 0.0036 -1.3089
# 5 5.1911 4.2072 5.1380 0.0036 28.5714 -0.0009
# 6 0.0004 0.0023 0.0028 -1.3089 -0.0009 13.7305
#
#
#
# Elastic Compliance Matrix: (Units=1/GPa)
#
#
# Indices 1 2 3 4 5 6 
#
# 1 0.044776 -0.006777 -0.006085 0.000000 -0.006043 0.000001
# 2 -0.006777 0.019028 -0.002667 0.000004 -0.001091 -0.000002
# 3 -0.006085 -0.002667 0.007583 0.000003 0.000135 -0.000001
# 4 0.000000 0.000004 0.000003 0.060125 -0.000009 0.005731
# 5 -0.006043 -0.001091 0.000135 -0.000009 0.036234 0.000002
# 6 0.000001 -0.000002 -0.000001 0.005731 0.000002 0.073377
#
#
# Mechanical properties :
#
#
# Convention : Reuss Voigt Hill
#
# Bulk Modulus (GPa) = 24.79660 45.77647 35.28654
# Shear Modulus (GPa) = 17.50555 23.91157 20.70856
#
# Velocity S-wave (km/s) = 2.84748 3.32796 3.09705
# Velocity P-wave (km/s) = 4.72187 5.99747 5.39749
#
# Compressibility (1/GPa) = 0.04032811
#
# Stress axis : x y z
#
# Youngs Moduli (GPa) = 22.33334 52.55515 131.87650
#
# Poissons Ratio (x) = 0.35618 0.80241
# Poissons Ratio (y) = 0.15136 0.35177
# Poissons Ratio (z) = 0.13589 0.14019
#
# Static dielectric constant tensor:
#      x y z
#    x 1.882590 0.000000 -0.004030 
#    y 0.000000 1.807210 0.000000 
#    z -0.004030 0.000000 1.853370 
# 
# From -- ./inp_files/279001.got.cif
#   From: 2010.05.17/outbox.cif.g08.bks.cpg/sg12_140_cif.got.tgz:279001.got - 2010.06.03 13:09:07.
