data_PCOD9168252
_publ_section_title
;
Structure prediction by ZEFSAII (Michael W. Deem and Ramdas Pophale) SiO2 
 PCOD9168252
Probable space group: P 21/M
;
_chemical_formula_sum "Si O2"
_cell_formula_units_Z 20
_cell_length_a 27.000000
_cell_length_b 9.000000
_cell_length_c 12.000000
_cell_angle_alpha 90.000000
_cell_angle_beta 160.000000
_cell_angle_gamma 90.000000
_cell_volume 997.330738
_symmetry_space_group_name_H-M "P 21/M"
_symmetry_group_IT_number 11
_symmetry_cell_setting 'monoclinic'
loop_
_space_group_symop_operation_xyz
x,y,z
-x,1/2+y,-z
-x,-y,-z
x,1/2-y,z
loop_
_atom_site_type_symbol
_atom_site_label
_atom_site_fract_x
_atom_site_fract_y
_atom_site_fract_z
Si Si1 0.840684 0.429722 0.680012
Si Si2 0.538114 0.929942 0.459218
Si Si3 0.771354 0.919109 0.766653
Si Si4 0.939703 0.077604 0.485364
Si Si5 0.728899 0.928133 0.215082
O O1 0.845762 0.250000 0.690258
O O2 0.771834 0.485147 0.653068
O O3 0.765834 0.492880 0.410146
O O4 0.000000 0.500000 0.000000
O O5 0.521485 0.750000 0.432312
O O6 0.685998 0.958498 0.701629
O O7 0.500000 0.000000 0.500000
O O8 0.428352 0.012462 0.145808
O O9 0.725595 0.750000 0.640579
O O10 0.934653 0.916862 0.156343
O O11 0.895532 0.250000 0.368655
O O12 0.819121 0.983997 0.296875
O O13 0.000000 0.000000 0.500000
O O14 0.741938 0.750000 0.252157
#
# Coordination Sequence:
#
# PCOD9168252 Si02
#       5
#     4   4   4   4   4
#     4  12  24  41  67  97 130 168 214 271 329 388
#     4  11  24  44  68  97 134 173 217 269 326 389
#     4  10  23  42  65  93 128 170 215 266 324 387
#     4  11  22  38  63  94 128 165 215 271 325 386
#     4  12  25  42  65  94 130 174 219 266 323 386
#
# _framework density 20.053528
#
# number of rings (size 3 to 8) (size 9 to 14) (size 15 to 20)
#    0.000    0.800    2.000    6.000    0.000    4.800 
#    0.000    0.000    0.000    0.000    0.000    0.000 
#    0.000    0.000    0.000    0.000    0.000    0.000 
#
# Total GULP energy -111516.008846 kJ/mol
# GULP energy per Si atom -5575.800442 kJ/mol
# Density = 2.000789 g / cm^3
# Si number density = 20.053528 Si / 1000 Ang^3
#
#
#
# Elastic Constant Matrix: (Units=GPa)
#
#
# Indices 1 2 3 4 5 6 
#
# 1 126.2169 55.6063 -2.1120 0.0000 -8.8317 0.0000
# 2 55.6063 165.1365 18.2012 0.0000 -4.1620 0.0000
# 3 -2.1120 18.2012 51.4568 0.0000 -6.0214 0.0000
# 4 0.0000 0.0000 0.0000 22.8633 0.0000 -4.5756
# 5 -8.8317 -4.1620 -6.0214 0.0000 45.4311 0.0000
# 6 0.0000 0.0000 0.0000 -4.5756 0.0000 53.2682
#
#
#
# Elastic Compliance Matrix: (Units=1/GPa)
#
#
# Indices 1 2 3 4 5 6 
#
# 1 0.009564 -0.003373 0.001795 0.000000 0.001788 0.000000
# 2 -0.003373 0.007495 -0.002830 0.000000 -0.000344 0.000000
# 3 0.001795 -0.002830 0.020842 0.000000 0.002852 0.000000
# 4 0.000000 0.000000 0.000000 0.044503 0.000000 0.003823
# 5 0.001788 -0.000344 0.002852 0.000000 0.022705 0.000000
# 6 0.000000 0.000000 0.000000 0.003823 0.000000 0.019101
#
#
# Mechanical properties :
#
#
# Convention : Reuss Voigt Hill
#
# Bulk Modulus (GPa) = 34.38211 54.02235 44.20223
# Shear Modulus (GPa) = 35.03310 42.38683 38.70996
#
# Velocity S-wave (km/s) = 4.18422 4.60247 4.39832
# Velocity P-wave (km/s) = 6.36600 7.43244 6.91980
#
# Compressibility (1/GPa) = 0.02908489
#
# Stress axis : x y z
#
# Youngs Moduli (GPa) = 104.55687 133.42751 47.97971
#
# Poissons Ratio (x) = 0.45009 -0.08612
# Poissons Ratio (y) = 0.35270 0.13577
# Poissons Ratio (z) = -0.18768 0.37757
#
# Static dielectric constant tensor:
#      x y z
#    x 1.691390 0.000000 0.025840 
#    y 0.000000 1.697380 0.000000 
#    z 0.025840 0.000000 1.678450 
# 
# From -- ./inp_files/15869.got.cif
#   From: 2010.05.17/outbox.ucp.g08.bks.cvg/sg11_8_cif.got.tgz:15869.got - 2010.06.11 11:38:39.
