data_PCOD9168474
_publ_section_title
;
Structure prediction by ZEFSAII (Michael W. Deem and Ramdas Pophale) SiO2 
 PCOD9168474
Probable space group: C 2/M
;
_chemical_formula_sum "Si O2"
_cell_formula_units_Z 36
_cell_length_a 16.996672
_cell_length_b 12.920807
_cell_length_c 6.917493
_cell_angle_alpha 90.000000
_cell_angle_beta 63.294879
_cell_angle_gamma 90.000000
_cell_volume 1357.109141
_symmetry_space_group_name_H-M "C 2/M"
_symmetry_group_IT_number 12
_symmetry_cell_setting 'monoclinic'
loop_
_space_group_symop_operation_xyz
x,y,z
-x,y,-z
-x,-y,-z
x,-y,z
1/2+x,1/2+y,z
1/2-x,1/2+y,-z
1/2-x,1/2-y,-z
1/2+x,1/2-y,z
loop_
_atom_site_type_symbol
_atom_site_label
_atom_site_fract_x
_atom_site_fract_y
_atom_site_fract_z
Si Si1 0.097862 0.304231 0.899638
Si Si2 0.324126 0.000000 0.326277
Si Si3 0.841865 0.109320 0.674640
Si Si4 0.208484 0.111063 0.816173
Si Si5 0.598403 0.164784 0.352760
O O1 0.102341 0.406786 0.767864
O O2 0.163708 0.211028 0.779432
O O3 0.112336 0.336817 0.106424
O O4 0.000000 0.258314 0.000000
O O5 0.246894 0.088938 0.349686
O O6 0.810146 0.116812 0.933678
O O7 0.892125 0.216152 0.584987
O O8 0.892603 0.000000 0.599794
O O9 0.313694 0.107777 0.667585
O O10 0.173351 0.000000 0.787179
O O11 0.500000 0.127132 0.500000
#
# Coordination Sequence:
#
# PCOD9168474 Si02
#       5
#     8   4   8   8   8
#     4  11  21  35  56  81 104 135 176 216 260 307
#     4  10  15  34  60  76  98 134 185 216 247 298
#     4   8  14  30  56  76  94 135 185 211 240 296
#     4  10  17  35  57  72 104 143 181 208 245 313
#     4  11  20  33  54  82 107 134 173 219 260 305
#
# _framework density 26.526973999999999
#
# number of rings (size 3 to 8) (size 9 to 14) (size 15 to 20)
#    0.667    1.333    4.444    1.667    0.000    1.333 
#    0.000    1.111    0.000    0.000    0.000    0.000 
#    0.000    0.000    0.000    0.000    0.000    0.000 
#
# Total GULP energy -100265.515400 kJ/mol
# GULP energy per Si atom -5570.306411 kJ/mol
# Density = 2.646660 g / cm^3
# Si number density = 26.526974 Si / 1000 Ang^3
#
#
#
# Elastic Constant Matrix: (Units=GPa)
#
#
# Indices 1 2 3 4 5 6 
#
# 1 99.3666 43.1919 16.5398 0.0000 -23.5552 0.0000
# 2 43.1919 190.8854 -4.3076 0.0000 -45.0441 0.0000
# 3 16.5398 -4.3076 99.5048 0.0000 6.2893 0.0000
# 4 0.0000 0.0000 0.0000 -128.9154 0.0000 -47.2597
# 5 -23.5552 -45.0441 6.2893 0.0000 48.4675 0.0000
# 6 0.0000 0.0000 0.0000 -47.2597 0.0000 -11.2373
#
#
#
# Elastic Compliance Matrix: (Units=1/GPa)
#
#
# Indices 1 2 3 4 5 6 
#
# 1 0.012335 -0.001738 -0.002422 0.000000 0.004694 0.000000
# 2 -0.001738 0.006956 0.000237 0.000000 0.005590 0.000000
# 3 -0.002422 0.000237 0.010610 0.000000 -0.002334 0.000000
# 4 0.000000 0.000000 0.000000 0.014318 0.000000 -0.060217
# 5 0.004694 0.005590 -0.002334 0.000000 0.028411 0.000000
# 6 0.000000 0.000000 0.000000 -0.060217 0.000000 0.164261
#
#
# Mechanical properties :
#
#
# Convention : Reuss Voigt Hill
#
# Bulk Modulus (GPa) = 45.34243 55.62279 50.48261
# Shear Modulus (GPa) = 19.83411 3.95182 11.89296
#
# Velocity S-wave (km/s) = 2.73737 1.22187 2.11969
# Velocity P-wave (km/s) = 5.20778 4.79630 5.00627
#
# Compressibility (1/GPa) = 0.02205440
#
# Stress axis : x y z
#
# Youngs Moduli (GPa) = 81.06911 143.75310 94.24920
#
# Poissons Ratio (x) = 0.24986 0.22830
# Poissons Ratio (y) = 0.14091 -0.02231
# Poissons Ratio (z) = 0.19637 -0.03404
#
# Static dielectric constant tensor:
#      x y z
#    x 2.089150 0.000000 0.095350 
#    y 0.000000 2.064750 0.000000 
#    z 0.095350 0.000000 2.313660 
# 
# From -- ./inp_files/71116.got.cif
#   From: 2010.05.17/outbox.cif.g08.bks.cpg/sg12_36_cif.got.tgz:71116.got - 2010.06.03 13:09:07.
