data_PCOD9168487
_publ_section_title
;
Structure prediction by ZEFSAII (Michael W. Deem and Ramdas Pophale) SiO2 
 PCOD9168487
Probable space group: C 2/M
;
_chemical_formula_sum "Si O2"
_cell_formula_units_Z 48
_cell_length_a 14.330269
_cell_length_b 9.028715
_cell_length_c 19.890813
_cell_angle_alpha 90.000000
_cell_angle_beta 124.501210
_cell_angle_gamma 90.000000
_cell_volume 2120.900200
_symmetry_space_group_name_H-M "C 2/M"
_symmetry_group_IT_number 12
_symmetry_cell_setting 'monoclinic'
loop_
_space_group_symop_operation_xyz
x,y,z
-x,y,-z
-x,-y,-z
x,-y,z
1/2+x,1/2+y,z
1/2-x,1/2+y,-z
1/2-x,1/2-y,-z
1/2+x,1/2-y,z
loop_
_atom_site_type_symbol
_atom_site_label
_atom_site_fract_x
_atom_site_fract_y
_atom_site_fract_z
Si Si1 0.164221 0.823022 0.587137
Si Si2 0.710981 0.331338 0.249943
Si Si3 0.912929 0.667270 0.910411
Si Si4 0.552433 0.820037 0.425376
Si Si5 0.806028 0.835699 0.085117
Si Si6 0.437736 0.830995 0.247640
O O1 0.265029 0.772467 0.676775
O O2 0.155232 0.744779 0.511024
O O3 0.055462 0.757346 0.582819
O O4 0.159147 0.000000 0.578579
O O5 0.692229 0.500000 0.263578
O O6 0.612280 0.267354 0.163406
O O7 0.824002 0.331315 0.248482
O O8 0.951365 0.500000 0.907754
O O9 0.795541 0.653512 0.902464
O O10 0.000000 0.731042 0.000000
O O11 0.535463 0.782483 0.339894
O O12 0.547189 0.000000 0.429337
O O13 0.905747 0.759828 0.168517
O O14 0.839136 0.000000 0.076522
O O15 0.750000 0.750000 0.000000
O O16 0.460408 0.000000 0.237344
#
# Coordination Sequence:
#
# PCOD9168487 Si02
#       6
#     8   8   8   8   8   8
#     4  10  16  21  32  51  76 107 141 174 209 255
#     4   9  16  26  39  56  80 110 142 176 216 260
#     4   9  18  32  48  66  88 115 148 185 224 263
#     4   9  15  23  34  50  75 106 138 174 214 257
#     4  10  19  30  46  65  88 117 147 182 220 261
#     4   8  15  26  39  55  78 108 141 176 214 257
#
# _framework density 22.631899000000001
#
# number of rings (size 3 to 8) (size 9 to 14) (size 15 to 20)
#    0.000    2.833    0.000    5.000    0.000    5.667 
#    0.000    0.000    0.000    0.000    0.000    0.000 
#    0.000    1.333    0.000    4.000    0.000   11.000 
#
# Total GULP energy -133930.676260 kJ/mol
# GULP energy per Si atom -5580.444844 kJ/mol
# Density = 2.258039 g / cm^3
# Si number density = 22.631899 Si / 1000 Ang^3
#
#
#
# Elastic Constant Matrix: (Units=GPa)
#
#
# Indices 1 2 3 4 5 6 
#
# 1 59.5600 1.4295 -3.5462 0.0000 -15.5074 0.0000
# 2 1.4295 149.0405 112.5013 0.0000 -10.5526 0.0000
# 3 -3.5462 112.5013 242.4169 0.0000 1.8943 0.0000
# 4 0.0000 0.0000 0.0000 43.5826 0.0000 -0.3845
# 5 -15.5074 -10.5526 1.8943 0.0000 10.0461 0.0000
# 6 0.0000 0.0000 0.0000 -0.3845 0.0000 -7.8990
#
#
#
# Elastic Compliance Matrix: (Units=1/GPa)
#
#
# Indices 1 2 3 4 5 6 
#
# 1 0.030221 0.005253 -0.002407 0.000000 0.052621 0.000000
# 2 0.005253 0.012846 -0.006062 0.000000 0.022745 0.000000
# 3 -0.002407 -0.006062 0.006992 0.000000 -0.011402 0.000000
# 4 0.000000 0.000000 0.000000 0.022935 0.000000 -0.001116
# 5 0.052621 0.022745 -0.011402 0.000000 0.206809 0.000000
# 6 0.000000 0.000000 0.000000 -0.001116 0.000000 -0.126544
#
#
# Mechanical properties :
#
#
# Convention : Reuss Voigt Hill
#
# Bulk Modulus (GPa) = 22.92191 74.64296 48.78244
# Shear Modulus (GPa) = 28.69707 31.85480 30.27593
#
# Velocity S-wave (km/s) = 3.56475 3.75576 3.66150
# Velocity P-wave (km/s) = 5.20513 7.20143 6.28307
#
# Compressibility (1/GPa) = 0.04362637
#
# Stress axis : x y z
#
# Youngs Moduli (GPa) = 33.08938 77.84709 143.01161
#
# Poissons Ratio (x) = -0.40890 0.34419
# Poissons Ratio (y) = -0.17381 0.86699
# Poissons Ratio (z) = 0.07964 0.47194
#
# Static dielectric constant tensor:
#      x y z
#    x 2.217840 0.000000 0.072050 
#    y 0.000000 1.791610 0.000000 
#    z 0.072050 0.000000 1.863850 
# 
# From -- ./inp_files/242614.got.cif
#   From: 2010.05.17/outbox.cif.g08.bks.cpg/sg12_122_cif.got.tgz:242614.got - 2010.06.03 13:09:07.
