data_PCOD9168354
_publ_section_title
;
Structure prediction by ZEFSAII (Michael W. Deem and Ramdas Pophale) SiO2 
 PCOD9168354
Probable space group: C 2/M
;
_chemical_formula_sum "Si O2"
_cell_formula_units_Z 28
_cell_length_a 15.785068
_cell_length_b 10.641859
_cell_length_c 16.637025
_cell_angle_alpha 90.000000
_cell_angle_beta 25.071943
_cell_angle_gamma 90.000000
_cell_volume 1184.282773
_symmetry_space_group_name_H-M "C 2/M"
_symmetry_group_IT_number 12
_symmetry_cell_setting 'monoclinic'
loop_
_space_group_symop_operation_xyz
x,y,z
-x,y,-z
-x,-y,-z
x,-y,z
1/2+x,1/2+y,z
1/2-x,1/2+y,-z
1/2-x,1/2-y,-z
1/2+x,1/2-y,z
loop_
_atom_site_type_symbol
_atom_site_label
_atom_site_fract_x
_atom_site_fract_y
_atom_site_fract_z
Si Si1 0.304619 0.350097 0.384557
Si Si2 0.317861 0.500000 0.935315
Si Si3 0.727126 0.252832 0.768444
Si Si4 0.235173 0.000000 0.833732
Si Si5 0.223594 0.500000 0.839374
O O1 0.229613 0.500000 0.451786
O O2 0.250000 0.250000 0.500000
O O3 0.540427 0.378117 0.191545
O O4 0.278076 0.283507 0.321100
O O5 0.196015 0.500000 0.958804
O O6 0.244034 0.500000 0.089057
O O7 0.828499 0.373341 0.721022
O O8 0.822544 0.124895 0.718528
O O9 0.500000 0.250496 0.000000
O O10 0.000000 0.000000 0.000000
O O11 0.000000 0.500000 0.000000
#
# Coordination Sequence:
#
# PCOD9168354 Si02
#       5
#     8   4   8   4   4
#     4  10  20  36  63  89 117 165 206 243 301 368
#     4  10  20  39  62  90 121 168 195 247 317 361
#     4  10  17  37  58  87 121 157 194 261 303 352
#     4  10  14  34  64  83 118 155 198 246 314 359
#     4  10  24  35  58  97 128 150 202 256 311 354
#
# _framework density 23.643001999999999
#
# number of rings (size 3 to 8) (size 9 to 14) (size 15 to 20)
#    0.857    1.143    7.143    0.000    2.000    1.143 
#    0.000    2.857    3.143    1.714    0.000    0.000 
#    0.000    0.000    0.000    0.000    0.000    0.000 
#
# Total GULP energy -78028.055653 kJ/mol
# GULP energy per Si atom -5573.432547 kJ/mol
# Density = 2.358919 g / cm^3
# Si number density = 23.643002 Si / 1000 Ang^3
#
#
#
# Elastic Constant Matrix: (Units=GPa)
#
#
# Indices 1 2 3 4 5 6 
#
# 1 196.8914 66.3635 61.7506 -0.0010 74.0319 0.0002
# 2 66.3635 229.0246 38.0888 -0.0020 53.8276 0.0020
# 3 61.7506 38.0888 101.9002 -0.0019 44.0658 0.0020
# 4 -0.0010 -0.0020 -0.0019 15.3850 0.0013 16.2550
# 5 74.0319 53.8276 44.0658 0.0013 63.8244 -0.0007
# 6 0.0002 0.0020 0.0020 16.2550 -0.0007 22.4034
#
#
#
# Elastic Compliance Matrix: (Units=1/GPa)
#
#
# Indices 1 2 3 4 5 6 
#
# 1 0.009144 -0.000189 -0.001358 0.000006 -0.009510 -0.000005
# 2 -0.000189 0.005450 -0.000042 0.000007 -0.004348 -0.000006
# 3 -0.001358 -0.000042 0.014193 0.000017 -0.008188 -0.000014
# 4 0.000006 0.000007 0.000017 0.278477 -0.000033 -0.202052
# 5 -0.009510 -0.004348 -0.008188 -0.000033 0.036019 0.000026
# 6 -0.000005 -0.000006 -0.000014 -0.202052 0.000026 0.191237
#
#
# Mechanical properties :
#
#
# Convention : Reuss Voigt Hill
#
# Bulk Modulus (GPa) = 39.04959 95.58021 67.31490
# Shear Modulus (GPa) = 9.15357 44.43011 26.79184
#
# Velocity S-wave (km/s) = 1.96977 4.33969 3.36993
# Velocity P-wave (km/s) = 4.66106 8.10091 6.60871
#
# Compressibility (1/GPa) = 0.02560846
#
# Stress axis : x y z
#
# Youngs Moduli (GPa) = 109.35828 183.48473 70.45538
#
# Poissons Ratio (x) = 0.03463 0.09571
# Poissons Ratio (y) = 0.02064 0.00299
# Poissons Ratio (z) = 0.14856 0.00779
#
# Static dielectric constant tensor:
#      x y z
#    x 1.778800 -0.000020 0.086850 
#    y -0.000020 1.986970 0.000050 
#    z 0.086850 0.000050 2.062040 
# 
# From -- ./inp_files/83100.got.cif
#   From: 2010.05.17/outbox.cif.g08.bks.cpg/sg12_42_cif.got.tgz:83100.got - 2010.06.03 13:09:07.
