data_PCOD9168520
_publ_section_title
;
Structure prediction by ZEFSAII (Michael W. Deem and Ramdas Pophale) SiO2 
 PCOD9168520
Probable space group: C 2/M
;
_chemical_formula_sum "Si O2"
_cell_formula_units_Z 60
_cell_length_a 27.912070
_cell_length_b 31.638202
_cell_length_c 5.549257
_cell_angle_alpha 90.000000
_cell_angle_beta 119.094265
_cell_angle_gamma 90.000000
_cell_volume 4282.142403
_symmetry_space_group_name_H-M "C 2/M"
_symmetry_group_IT_number 12
_symmetry_cell_setting 'monoclinic'
loop_
_space_group_symop_operation_xyz
x,y,z
-x,y,-z
-x,-y,-z
x,-y,z
1/2+x,1/2+y,z
1/2-x,1/2+y,-z
1/2-x,1/2-y,-z
1/2+x,1/2-y,z
loop_
_atom_site_type_symbol
_atom_site_label
_atom_site_fract_x
_atom_site_fract_y
_atom_site_fract_z
Si Si1 0.147063 0.888675 0.766405
Si Si2 0.716841 0.205537 0.402708
Si Si3 0.590925 0.702656 0.580933
Si Si4 0.811683 0.731142 0.166941
Si Si5 0.815092 0.859742 0.644713
Si Si6 0.000000 0.109973 0.000000
Si Si7 0.067569 0.814786 0.017796
Si Si8 0.555798 0.451001 0.479817
O O1 0.108512 0.846712 0.650787
O O2 0.176146 0.887934 0.574716
O O3 0.108918 0.929151 0.722399
O O4 0.184612 0.882271 0.093728
O O5 0.750000 0.250000 0.500000
O O6 0.686418 0.203403 0.585525
O O7 0.761564 0.168861 0.486418
O O8 0.680894 0.208371 0.072396
O O9 0.645231 0.730991 0.700754
O O10 0.556906 0.706088 0.251863
O O11 0.562220 0.712072 0.764417
O O12 0.750000 0.750000 0.000000
O O13 0.868455 0.828887 0.795982
O O14 0.032410 0.142213 0.907703
O O15 0.043718 0.079050 0.224495
O O16 0.500000 0.448177 0.500000
O O17 0.564193 0.500000 0.440817
#
# Coordination Sequence:
#
# PCOD9168520 Si02
#       8
#     8   8   8   8   8   4   8   8
#     4  10  18  31  42  55  69  94 111 135 180 227
#     4  10  16  23  37  59  76  95 112 130 150 188
#     4  10  17  29  39  56  75  96 112 133 169 213
#     4  10  16  23  37  56  79  94 112 130 151 190
#     4  10  17  29  42  56  76  94 113 132 166 213
#     4  12  21  34  46  58  70  88 124 160 204 242
#     4  10  19  27  43  52  70  91 117 143 175 222
#     4  11  23  35  47  59  71  87 116 163 210 247
#
# _framework density 14.011679000000001
#
# number of rings (size 3 to 8) (size 9 to 14) (size 15 to 20)
#    0.000    1.733    2.667    9.800    0.000    0.000 
#    0.000    0.000    0.000    0.000    0.000    0.000 
#    0.000    0.000    0.000    0.000    0.000    0.000 
#
# Total GULP energy -167101.812369 kJ/mol
# GULP energy per Si atom -5570.060412 kJ/mol
# Density = 1.397979 g / cm^3
# Si number density = 14.011679 Si / 1000 Ang^3
#
#
#
# Elastic Constant Matrix: (Units=GPa)
#
#
# Indices 1 2 3 4 5 6 
#
# 1 56.6888 30.1121 31.2029 0.0000 -19.2388 0.0000
# 2 30.1121 51.0966 28.0388 0.0000 7.7845 0.0000
# 3 31.2029 28.0388 87.2303 0.0000 -25.7133 0.0000
# 4 0.0000 0.0000 0.0000 10.1415 0.0000 6.0678
# 5 -19.2388 7.7845 -25.7133 0.0000 31.4672 0.0000
# 6 0.0000 0.0000 0.0000 6.0678 0.0000 13.0868
#
#
#
# Elastic Compliance Matrix: (Units=1/GPa)
#
#
# Indices 1 2 3 4 5 6 
#
# 1 0.054612 -0.046810 0.011549 0.000000 0.054407 0.000000
# 2 -0.046810 0.072071 -0.026496 0.000000 -0.068099 0.000000
# 3 0.011549 -0.026496 0.026165 0.000000 0.034996 0.000000
# 4 0.000000 0.000000 0.000000 0.136462 0.000000 -0.063272
# 5 0.054407 -0.068099 0.034996 0.000000 0.110486 0.000000
# 6 0.000000 0.000000 0.000000 -0.063272 0.000000 0.105750
#
#
# Mechanical properties :
#
#
# Convention : Reuss Voigt Hill
#
# Bulk Modulus (GPa) = 34.08913 41.52482 37.80697
# Shear Modulus (GPa) = 7.82670 17.98322 12.90496
#
# Velocity S-wave (km/s) = 2.36600 3.58641 3.03811
# Velocity P-wave (km/s) = 5.64321 6.84470 6.27279
#
# Compressibility (1/GPa) = 0.02933487
#
# Stress axis : x y z
#
# Youngs Moduli (GPa) = 18.31084 13.87526 38.21835
#
# Poissons Ratio (x) = 0.64950 -0.44138
# Poissons Ratio (y) = 0.85713 1.01262
# Poissons Ratio (z) = -0.21147 0.36763
#
# Static dielectric constant tensor:
#      x y z
#    x 1.530880 0.000000 -0.064980 
#    y 0.000000 1.421370 0.000000 
#    z -0.064980 0.000000 1.543390 
# 
# From -- ./inp_files/29865.got.cif
#   From: 2010.05.17/outbox.cif.g08.bks.cpg/sg12_15_cif.got.tgz:29865.got - 2010.06.03 13:09:07.
