data_PCOD9168184
_publ_section_title
;
Structure prediction by ZEFSAII (Michael W. Deem and Ramdas Pophale) SiO2 
 PCOD9168184
Probable space group: P 21/M
;
_chemical_formula_sum "Si O2"
_cell_formula_units_Z 32
_cell_length_a 15.000000
_cell_length_b 21.000000
_cell_length_c 15.000000
_cell_angle_alpha 90.000000
_cell_angle_beta 160.000000
_cell_angle_gamma 90.000000
_cell_volume 1616.045177
_symmetry_space_group_name_H-M "P 21/M"
_symmetry_group_IT_number 11
_symmetry_cell_setting 'monoclinic'
loop_
_space_group_symop_operation_xyz
x,y,z
-x,1/2+y,-z
-x,-y,-z
x,1/2-y,z
loop_
_atom_site_type_symbol
_atom_site_label
_atom_site_fract_x
_atom_site_fract_y
_atom_site_fract_z
Si Si1 0.865281 0.675355 0.280145
Si Si2 0.849534 0.134868 0.633494
Si Si3 0.709869 0.009465 0.406348
Si Si4 0.233018 0.568372 0.907040
Si Si5 0.149622 0.825986 0.963390
Si Si6 0.322679 0.601399 0.792111
Si Si7 0.412242 0.326786 0.488531
Si Si8 0.699651 0.824562 0.815112
O O1 0.821716 0.750000 0.252456
O O2 0.003255 0.663171 0.314459
O O3 0.071784 0.647271 0.545192
O O4 0.591859 0.638107 0.025259
O O5 0.769650 0.062668 0.536338
O O6 0.574429 0.169853 0.390568
O O7 0.057342 0.142014 0.908329
O O8 0.718754 0.046957 0.320612
O O9 0.941764 0.958887 0.629222
O O10 0.426949 0.977602 0.143724
O O11 0.334355 0.573655 0.901740
O O12 0.235114 0.636360 0.956641
O O13 0.177944 0.750000 0.979906
O O14 0.331862 0.847186 0.217432
O O15 0.848946 0.840428 0.701782
O O16 0.434294 0.250000 0.501134
O O17 0.366348 0.350518 0.345299
O O18 0.773818 0.750000 0.878342
#
# Coordination Sequence:
#
# PCOD9168184 Si02
#       8
#     4   4   4   4   4   4   4   4
#     4  11  22  37  56  85 127 157 180 229 298 346
#     4  11  22  36  56  86 119 154 191 233 275 335
#     4  11  23  40  59  83 116 152 198 240 280 325
#     4  12  23  40  64  83 108 153 199 240 283 341
#     4  10  21  38  60  87 115 142 183 240 298 343
#     4  11  23  39  59  86 114 155 201 242 276 326
#     4   9  19  36  58  86 117 147 181 232 288 341
#     4  11  20  34  61  90 116 150 191 229 280 345
#
# _framework density 19.801427
#
# number of rings (size 3 to 8) (size 9 to 14) (size 15 to 20)
#    0.000    1.250    0.000    8.250    0.000    3.000 
#    0.000    1.250    0.000   15.000    0.000    0.000 
#    0.000    0.000    0.000    0.000    0.000    0.000 
#
# Total GULP energy -178843.096594 kJ/mol
# GULP energy per Si atom -5588.846769 kJ/mol
# Density = 1.975636 g / cm^3
# Si number density = 19.801427 Si / 1000 Ang^3
#
#
#
# Elastic Constant Matrix: (Units=GPa)
#
#
# Indices 1 2 3 4 5 6 
#
# 1 25.0122 19.3069 7.9739 0.0000 -8.7397 0.0000
# 2 19.3069 54.0777 31.3550 0.0000 -13.1223 0.0000
# 3 7.9739 31.3550 114.5700 0.0000 1.8133 0.0000
# 4 0.0000 0.0000 0.0000 35.2965 0.0000 -4.7423
# 5 -8.7397 -13.1223 1.8133 0.0000 -4.0210 0.0000
# 6 0.0000 0.0000 0.0000 -4.7423 0.0000 10.5838
#
#
#
# Elastic Compliance Matrix: (Units=1/GPa)
#
#
# Indices 1 2 3 4 5 6 
#
# 1 0.050677 -0.026056 0.003973 0.000000 -0.023323 0.000000
# 2 -0.026056 0.024350 -0.004457 0.000000 -0.024844 0.000000
# 3 0.003973 -0.004457 0.009510 0.000000 0.010200 0.000000
# 4 0.000000 0.000000 0.000000 0.030146 0.000000 0.013508
# 5 -0.023323 -0.024844 0.010200 0.000000 -0.112325 0.000000
# 6 0.000000 0.000000 0.000000 0.013508 0.000000 0.100536
#
#
# Mechanical properties :
#
#
# Convention : Reuss Voigt Hill
#
# Bulk Modulus (GPa) = 31.78966 34.54795 33.16880
# Shear Modulus (GPa) = 30.03698 17.37347 23.70522
#
# Velocity S-wave (km/s) = 3.89898 2.96528 3.46373
# Velocity P-wave (km/s) = 6.02980 5.40453 5.72570
#
# Compressibility (1/GPa) = 0.03145677
#
# Stress axis : x y z
#
# Youngs Moduli (GPa) = 19.73288 41.06700 105.14991
#
# Poissons Ratio (x) = 1.07004 -0.41776
# Poissons Ratio (y) = 0.51416 0.46870
# Poissons Ratio (z) = -0.07840 0.18305
#
# Static dielectric constant tensor:
#      x y z
#    x 1.708650 0.000000 -0.009530 
#    y 0.000000 1.696760 0.000000 
#    z -0.009530 0.000000 1.680620 
# 
# From -- ./inp_files/52682.got.cif
#   From: 2010.05.17/outbox.ucp.g08.bks.cvg/sg11_27_cif.got.tgz:52682.got - 2010.06.11 11:38:39.
