data_PCOD9168564
_publ_section_title
;
Structure prediction by ZEFSAII (Michael W. Deem and Ramdas Pophale) SiO2 
 PCOD9168564
Probable space group: C 2/M
;
_chemical_formula_sum "Si O2"
_cell_formula_units_Z 56
_cell_length_a 29.540267
_cell_length_b 17.674807
_cell_length_c 15.418356
_cell_angle_alpha 90.000000
_cell_angle_beta 162.353309
_cell_angle_gamma 90.000000
_cell_volume 2440.393193
_symmetry_space_group_name_H-M "C 2/M"
_symmetry_group_IT_number 12
_symmetry_cell_setting 'monoclinic'
loop_
_space_group_symop_operation_xyz
x,y,z
-x,y,-z
-x,-y,-z
x,-y,z
1/2+x,1/2+y,z
1/2-x,1/2+y,-z
1/2-x,1/2-y,-z
1/2+x,1/2-y,z
loop_
_atom_site_type_symbol
_atom_site_label
_atom_site_fract_x
_atom_site_fract_y
_atom_site_fract_z
Si Si1 0.911041 0.585981 0.155723
Si Si2 0.552428 0.585151 0.929461
Si Si3 0.101416 0.855920 0.515243
Si Si4 0.264139 0.086586 0.564139
Si Si5 0.807753 0.234301 0.837406
Si Si6 0.615954 0.756261 0.821983
Si Si7 0.504213 0.135340 0.141568
O O1 0.930002 0.500000 0.222030
O O2 0.739384 0.600644 0.810771
O O3 0.943899 0.657069 0.279599
O O4 0.002980 0.598932 0.234693
O O5 0.601996 0.500000 0.038123
O O6 0.492699 0.591688 0.720884
O O7 0.406045 0.602282 0.720598
O O8 0.677310 0.649110 0.165268
O O9 0.165180 0.788511 0.568724
O O10 0.006896 0.809128 0.412852
O O11 0.374485 0.093665 0.848556
O O12 0.269960 0.000000 0.544926
O O13 0.345217 0.134360 0.638319
O O14 0.828085 0.237549 0.978441
O O15 0.940853 0.280639 0.036643
O O16 0.750000 0.750000 0.000000
#
# Coordination Sequence:
#
# PCOD9168564 Si02
#       7
#     8   8   8   8   8   8   8
#     4  10  18  31  52  77  99 125 162 203 240 284
#     4  10  18  30  48  73 100 130 164 202 239 279
#     4   9  17  33  52  70  98 130 159 195 244 294
#     4  10  16  24  46  74 101 129 160 202 242 275
#     4   9  19  31  48  70  96 128 165 197 240 293
#     4   9  19  34  50  71  99 127 156 197 248 299
#     4   9  16  27  44  73 102 127 161 199 241 286
#
# _framework density 22.947123000000001
#
# number of rings (size 3 to 8) (size 9 to 14) (size 15 to 20)
#    0.000    2.857    2.857    2.143    0.000    2.857 
#    0.000    5.000    0.000    0.000    0.000   10.000 
#    0.000    0.000    0.000    0.000    0.000    0.000 
#
# Total GULP energy -156301.106968 kJ/mol
# GULP energy per Si atom -5582.182392 kJ/mol
# Density = 2.289489 g / cm^3
# Si number density = 22.947123 Si / 1000 Ang^3
#
#
#
# Elastic Constant Matrix: (Units=GPa)
#
#
# Indices 1 2 3 4 5 6 
#
# 1 94.3825 47.9124 29.1045 0.0000 33.9263 0.0000
# 2 47.9124 141.7758 39.1676 0.0000 31.6979 0.0000
# 3 29.1045 39.1676 36.1044 0.0000 11.9587 0.0000
# 4 0.0000 0.0000 0.0000 0.6269 0.0000 -7.0979
# 5 33.9263 31.6979 11.9587 0.0000 43.7503 0.0000
# 6 0.0000 0.0000 0.0000 -7.0979 0.0000 9.0692
#
#
#
# Elastic Compliance Matrix: (Units=1/GPa)
#
#
# Indices 1 2 3 4 5 6 
#
# 1 0.017911 -0.000972 -0.009915 0.000000 -0.010475 0.000000
# 2 -0.000972 0.011106 -0.009730 0.000000 -0.004633 0.000000
# 3 -0.009915 -0.009730 0.045481 0.000000 0.002306 0.000000
# 4 0.000000 0.000000 0.000000 -0.202918 0.000000 -0.158810
# 5 -0.010475 -0.004633 0.002306 0.000000 0.033706 0.000000
# 6 0.000000 0.000000 0.000000 -0.158810 0.000000 -0.014027
#
#
# Mechanical properties :
#
#
# Convention : Reuss Voigt Hill
#
# Bulk Modulus (GPa) = 30.06108 56.07019 43.06563
# Shear Modulus (GPa) = -88.62319 21.09450 -33.76435
#
# Velocity S-wave (km/s) = -6.22129 3.03523 -3.84004
# Velocity P-wave (km/s) = 6.20301 6.06391 0.92366
#
# Compressibility (1/GPa) = 0.03326561
#
# Stress axis : x y z
#
# Youngs Moduli (GPa) = 55.83075 90.04379 21.98699
#
# Poissons Ratio (x) = 0.08752 0.21799
# Poissons Ratio (y) = 0.05427 0.21393
# Poissons Ratio (z) = 0.55354 0.87611
#
# Static dielectric constant tensor:
#      x y z
#    x 1.844930 0.000000 -0.021890 
#    y 0.000000 1.862710 0.000000 
#    z -0.021890 0.000000 1.945960 
# 
# From -- ./inp_files/296955.got.cif
#   From: 2010.05.17/outbox.cif.g08.bks.cpg/sg12_149_cif.got.tgz:296955.got - 2010.06.03 13:09:07.
