data_PCOD9168851
_publ_section_title
;
Structure prediction by ZEFSAII (Michael W. Deem and Ramdas Pophale) SiO2 
 PCOD9168851
Probable space group: C 2/M
;
_chemical_formula_sum "Si O2"
_cell_formula_units_Z 48
_cell_length_a 13.521140
_cell_length_b 25.524932
_cell_length_c 14.506118
_cell_angle_alpha 90.000000
_cell_angle_beta 150.389153
_cell_angle_gamma 90.000000
_cell_volume 2473.714913
_symmetry_space_group_name_H-M "C 2/M"
_symmetry_group_IT_number 12
_symmetry_cell_setting 'monoclinic'
loop_
_space_group_symop_operation_xyz
x,y,z
-x,y,-z
-x,-y,-z
x,-y,z
1/2+x,1/2+y,z
1/2-x,1/2+y,-z
1/2-x,1/2-y,-z
1/2+x,1/2-y,z
loop_
_atom_site_type_symbol
_atom_site_label
_atom_site_fract_x
_atom_site_fract_y
_atom_site_fract_z
Si Si1 0.934365 0.000000 0.054811
Si Si2 0.635394 0.385912 0.937340
Si Si3 0.126378 0.500000 0.508839
Si Si4 0.808537 0.610936 0.451759
Si Si5 0.143552 0.295831 0.975513
Si Si6 0.211437 0.345824 0.757038
Si Si7 0.725666 0.271634 0.710907
O O1 0.831507 0.053803 0.005331
O O2 0.000000 0.000000 0.000000
O O3 0.142652 0.000000 0.276914
O O4 0.639530 0.355909 0.038985
O O5 0.422658 0.380338 0.711806
O O6 0.797205 0.353337 0.011887
O O7 0.103712 0.555792 0.441996
O O8 0.000000 0.500000 0.500000
O O9 0.787389 0.610136 0.321797
O O10 0.983383 0.652425 0.612012
O O11 0.224802 0.290193 0.145508
O O12 0.250000 0.250000 0.000000
O O13 0.904059 0.289009 0.787808
O O14 0.240760 0.291234 0.730821
O O15 0.500000 0.285957 0.500000
#
# Coordination Sequence:
#
# PCOD9168851 Si02
#       7
#     4   8   4   8   8   8   8
#     4  10  22  34  60  87 121 158 189 238 296 380
#     4  11  22  37  54  86 120 154 196 235 302 355
#     4  10  16  30  42  72 113 148 187 226 274 339
#     4  10  20  29  50  76 111 154 193 233 277 349
#     4  11  24  39  61  86 124 163 201 260 303 358
#     4  11  19  30  54  77 111 152 192 235 284 350
#     4  11  24  40  59  86 118 161 212 252 305 356
#
# _framework density 19.404014
#
# number of rings (size 3 to 8) (size 9 to 14) (size 15 to 20)
#    0.000    1.333    5.000    3.500    2.333    2.000 
#    0.000    0.000    0.000    2.000    0.000    1.167 
#    0.000    0.000    0.000    0.000    0.000    0.000 
#
# Total GULP energy -133784.956482 kJ/mol
# GULP energy per Si atom -5574.373187 kJ/mol
# Density = 1.935985 g / cm^3
# Si number density = 19.404014 Si / 1000 Ang^3
#
#
#
# Elastic Constant Matrix: (Units=GPa)
#
#
# Indices 1 2 3 4 5 6 
#
# 1 72.1910 42.7934 27.7657 -0.0001 23.9169 0.0000
# 2 42.7934 123.1247 31.3786 0.0000 30.2944 0.0000
# 3 27.7657 31.3786 118.7981 -0.0002 30.9707 0.0000
# 4 -0.0001 0.0000 -0.0002 22.8288 -0.0001 12.1985
# 5 23.9169 30.2944 30.9707 -0.0001 31.8228 -0.0001
# 6 0.0000 0.0000 0.0000 12.1985 -0.0001 20.1211
#
#
#
# Elastic Compliance Matrix: (Units=1/GPa)
#
#
# Indices 1 2 3 4 5 6 
#
# 1 0.020091 -0.004248 -0.000926 0.000000 -0.010153 0.000000
# 2 -0.004248 0.011509 -0.000031 0.000000 -0.007733 0.000000
# 3 -0.000926 -0.000031 0.011327 0.000000 -0.010298 0.000000
# 4 0.000000 0.000000 0.000000 0.064795 0.000000 -0.039282
# 5 -0.010153 -0.007733 -0.010298 0.000000 0.056439 0.000000
# 6 0.000000 0.000000 0.000000 -0.039282 0.000000 0.073514
#
#
# Mechanical properties :
#
#
# Convention : Reuss Voigt Hill
#
# Bulk Modulus (GPa) = 30.75498 57.55435 44.15466
# Shear Modulus (GPa) = 19.31069 29.09963 24.20516
#
# Velocity S-wave (km/s) = 3.15809 3.87676 3.53573
# Velocity P-wave (km/s) = 5.40206 7.05439 6.28278
#
# Compressibility (1/GPa) = 0.03251506
#
# Stress axis : x y z
#
# Youngs Moduli (GPa) = 49.77426 86.88819 88.28441
#
# Poissons Ratio (x) = 0.36914 0.08179
# Poissons Ratio (y) = 0.21146 0.00273
# Poissons Ratio (z) = 0.04612 0.00269
#
# Static dielectric constant tensor:
#      x y z
#    x 1.707110 0.000000 0.004990 
#    y 0.000000 1.765320 0.000000 
#    z 0.004990 0.000000 1.922270 
# 
# From -- ./inp_files/209496.got.cif
#   From: 2010.05.17/outbox.cif.g08.bks.cpg/sg12_105_cif.got.tgz:209496.got - 2010.06.03 13:09:07.
