data_PCOD9168562
_publ_section_title
;
Structure prediction by ZEFSAII (Michael W. Deem and Ramdas Pophale) SiO2 
 PCOD9168562
Probable space group: C 2/M
;
_chemical_formula_sum "Si O2"
_cell_formula_units_Z 42
_cell_length_a 22.157289
_cell_length_b 10.537982
_cell_length_c 7.514780
_cell_angle_alpha 90.000000
_cell_angle_beta 111.563164
_cell_angle_gamma 90.000000
_cell_volume 1631.846665
_symmetry_space_group_name_H-M "C 2/M"
_symmetry_group_IT_number 12
_symmetry_cell_setting 'monoclinic'
loop_
_space_group_symop_operation_xyz
x,y,z
-x,y,-z
-x,-y,-z
x,-y,z
1/2+x,1/2+y,z
1/2-x,1/2+y,-z
1/2-x,1/2-y,-z
1/2+x,1/2-y,z
loop_
_atom_site_type_symbol
_atom_site_label
_atom_site_fract_x
_atom_site_fract_y
_atom_site_fract_z
Si Si1 0.665311 0.235202 0.172354
Si Si2 0.062161 0.211910 0.339092
Si Si3 0.717782 0.500000 0.348931
Si Si4 0.069672 0.355230 0.781598
Si Si5 0.627841 0.500000 0.601974
Si Si6 0.000000 0.000000 0.000000
Si Si7 0.257788 0.000000 0.890902
Si Si8 0.844338 0.500000 0.344647
O O1 0.622164 0.221423 0.302842
O O2 0.699123 0.370522 0.229720
O O3 0.717300 0.126198 0.183809
O O4 0.614438 0.228929 0.955684
O O5 0.001630 0.302543 0.306508
O O6 0.035083 0.109896 0.163542
O O7 0.084084 0.124161 0.529748
O O8 0.675844 0.500000 0.482689
O O9 0.795306 0.500000 0.452265
O O10 0.067130 0.500000 0.856670
O O11 0.108336 0.381854 0.640033
O O12 0.679727 0.500000 0.816375
O O13 0.295923 0.000000 0.119542
#
# Coordination Sequence:
#
# PCOD9168562 Si02
#       8
#     8   8   4   8   4   2   4   4
#     4  10  19  31  56  82 116 150 183 239 283 345
#     4  10  18  29  51  80 116 138 184 242 298 321
#     4  10  21  35  54  85 121 149 194 225 291 338
#     4   9  18  30  50  85 112 141 187 244 294 323
#     4   9  22  36  55  87 115 152 182 237 292 353
#     4  10  16  24  46  72 118 134 170 234 300 326
#     4  10  21  37  53  83 120 150 195 220 292 349
#     4   8  20  37  55  86 112 153 192 230 281 351
#
# _framework density 25.737712999999999
#
# number of rings (size 3 to 8) (size 9 to 14) (size 15 to 20)
#    0.571    1.905    2.857    0.571    1.333    6.857 
#    0.000    0.000    2.095    1.143    0.000   33.333 
#    0.000    0.000    0.000    0.000    0.000    0.000 
#
# Total GULP energy -117313.130943 kJ/mol
# GULP energy per Si atom -5586.339569 kJ/mol
# Density = 2.567913 g / cm^3
# Si number density = 25.737713 Si / 1000 Ang^3
#
#
#
# Elastic Constant Matrix: (Units=GPa)
#
#
# Indices 1 2 3 4 5 6 
#
# 1 112.4815 40.5741 7.2739 0.0000 21.2505 0.0000
# 2 40.5741 112.7584 21.9873 0.0000 14.4918 0.0000
# 3 7.2739 21.9873 104.6144 0.0000 28.6823 0.0000
# 4 0.0000 0.0000 0.0000 36.1760 0.0000 12.9954
# 5 21.2505 14.4918 28.6823 0.0000 50.0567 0.0000
# 6 0.0000 0.0000 0.0000 12.9954 0.0000 33.4470
#
#
#
# Elastic Compliance Matrix: (Units=1/GPa)
#
#
# Indices 1 2 3 4 5 6 
#
# 1 0.010922 -0.003610 0.001167 0.000000 -0.004260 0.000000
# 2 -0.003610 0.010588 -0.001844 0.000000 -0.000476 0.000000
# 3 0.001167 -0.001844 0.011692 0.000000 -0.006661 0.000000
# 4 0.000000 0.000000 0.000000 0.032127 0.000000 -0.012482
# 5 -0.004260 -0.000476 -0.006661 0.000000 0.025741 0.000000
# 6 0.000000 0.000000 0.000000 -0.012482 0.000000 0.034748
#
#
# Mechanical properties :
#
#
# Convention : Reuss Voigt Hill
#
# Bulk Modulus (GPa) = 40.60282 52.16944 46.38613
# Shear Modulus (GPa) = 35.06317 41.27054 38.16685
#
# Velocity S-wave (km/s) = 3.69497 4.00872 3.85504
# Velocity P-wave (km/s) = 5.83212 6.46066 6.15442
#
# Compressibility (1/GPa) = 0.02462883
#
# Stress axis : x y z
#
# Youngs Moduli (GPa) = 91.55811 94.44371 85.53202
#
# Poissons Ratio (x) = 0.34096 -0.09986
# Poissons Ratio (y) = 0.33054 0.15770
# Poissons Ratio (z) = -0.10689 0.17413
#
# Static dielectric constant tensor:
#      x y z
#    x 2.028730 0.000000 -0.062870 
#    y 0.000000 1.971830 0.000000 
#    z -0.062870 0.000000 2.041700 
# 
# From -- ./inp_files/174148.got.cif
#   From: 2010.05.17/outbox.cif.g08.bks.cpg/sg12_88_cif.got.tgz:174148.got - 2010.06.03 13:09:07.
