data_PCOD9168210
_publ_section_title
;
Structure prediction by ZEFSAII (Michael W. Deem and Ramdas Pophale) SiO2 
 PCOD9168210
Probable space group: P 21/M
;
_chemical_formula_sum "Si O2"
_cell_formula_units_Z 28
_cell_length_a 18.000000
_cell_length_b 9.000000
_cell_length_c 15.000000
_cell_angle_alpha 90.000000
_cell_angle_beta 40.000000
_cell_angle_gamma 90.000000
_cell_volume 1561.973892
_symmetry_space_group_name_H-M "P 21/M"
_symmetry_group_IT_number 11
_symmetry_cell_setting 'monoclinic'
loop_
_space_group_symop_operation_xyz
x,y,z
-x,1/2+y,-z
-x,-y,-z
x,1/2-y,z
loop_
_atom_site_type_symbol
_atom_site_label
_atom_site_fract_x
_atom_site_fract_y
_atom_site_fract_z
Si Si1 0.932944 0.924971 0.447006
Si Si2 0.781066 0.574770 0.410894
Si Si3 0.514981 0.930730 0.713941
Si Si4 0.130598 0.932018 0.848312
Si Si5 0.167593 0.428474 0.270038
Si Si6 0.567929 0.931444 0.022059
Si Si7 0.609751 0.567207 0.338203
O O1 0.958217 0.750000 0.435905
O O2 0.852108 0.941783 0.436346
O O3 0.861396 0.974576 0.600785
O O4 0.055260 0.007141 0.323421
O O5 0.784009 0.750000 0.380869
O O6 0.646563 0.539406 0.557395
O O7 0.845202 0.477121 0.276972
O O8 0.501306 0.750000 0.726984
O O9 0.486280 0.997240 0.838128
O O10 0.429227 0.011716 0.723582
O O11 0.128611 0.750000 0.862675
O O12 0.256899 0.001938 0.769619
O O13 0.000000 0.000000 0.000000
O O14 0.164542 0.250000 0.269424
O O15 0.295087 0.470769 0.117563
O O16 0.558517 0.750000 0.032409
O O17 0.500000 0.000000 0.000000
O O18 0.500000 0.500000 0.500000
O O19 0.611237 0.750000 0.346060
#
# Coordination Sequence:
#
# PCOD9168210 Si02
#       7
#     4   4   4   4   4   4   4
#     4   9  18  34  58  84 112 153 199 246 301 369
#     4  10  21  39  62  88 122 160 205 257 314 382
#     4  11  23  40  65  94 126 168 213 261 320 383
#     4  12  26  44  67  95 129 168 211 266 329 390
#     4   9  19  36  55  80 115 156 196 246 307 365
#     4  11  23  39  59  86 124 163 207 262 318 379
#     4  12  24  43  69  98 130 168 216 268 324 390
#
# _framework density 17.926036
#
# number of rings (size 3 to 8) (size 9 to 14) (size 15 to 20)
#    0.000    1.429    1.429    4.286    0.000    5.714 
#    0.000    5.714    0.000    0.000    0.000    0.000 
#    0.000    0.000    0.000    0.000    0.000    0.000 
#
# Total GULP energy -155978.316509 kJ/mol
# GULP energy per Si atom -5570.654161 kJ/mol
# Density = 1.788524 g / cm^3
# Si number density = 17.926036 Si / 1000 Ang^3
#
#
#
# Elastic Constant Matrix: (Units=GPa)
#
#
# Indices 1 2 3 4 5 6 
#
# 1 107.4722 39.5628 50.5956 0.0000 -9.2901 0.0000
# 2 39.5628 111.3872 53.8978 0.0000 -8.9951 0.0000
# 3 50.5956 53.8978 154.1068 0.0000 -19.0579 0.0000
# 4 0.0000 0.0000 0.0000 43.2830 0.0000 -3.0489
# 5 -9.2901 -8.9951 -19.0579 0.0000 41.5691 0.0000
# 6 0.0000 0.0000 0.0000 -3.0489 0.0000 34.7019
#
#
#
# Elastic Compliance Matrix: (Units=1/GPa)
#
#
# Indices 1 2 3 4 5 6 
#
# 1 0.011691 -0.002744 -0.002787 0.000000 0.000741 0.000000
# 2 -0.002744 0.011467 -0.003052 0.000000 0.000469 0.000000
# 3 -0.002787 -0.003052 0.008812 0.000000 0.002757 0.000000
# 4 0.000000 0.000000 0.000000 0.023248 0.000000 0.002043
# 5 0.000741 0.000469 0.002757 0.000000 0.025587 0.000000
# 6 0.000000 0.000000 0.000000 0.002043 0.000000 0.028996
#
#
# Mechanical properties :
#
#
# Convention : Reuss Voigt Hill
#
# Bulk Modulus (GPa) = 67.54500 73.45319 70.49910
# Shear Modulus (GPa) = 37.90715 39.17147 38.53931
#
# Velocity S-wave (km/s) = 4.60351 4.67965 4.64174
# Velocity P-wave (km/s) = 8.12515 8.38233 8.25474
#
# Compressibility (1/GPa) = 0.01480494
#
# Stress axis : x y z
#
# Youngs Moduli (GPa) = 85.53605 87.20865 113.47914
#
# Poissons Ratio (x) = 0.23930 0.31626
# Poissons Ratio (y) = 0.23471 0.34628
# Poissons Ratio (z) = 0.23838 0.26612
#
# Static dielectric constant tensor:
#      x y z
#    x 1.655290 0.000000 0.008500 
#    y 0.000000 1.625270 0.000000 
#    z 0.008500 0.000000 1.614270 
# 
# From -- ./inp_files/53223.got.cif
#   From: 2010.05.17/outbox.ucp.g08.bks.cvg/sg11_27_cif.got.tgz:53223.got - 2010.06.11 11:38:39.
