data_PCOD9168417
_publ_section_title
;
Structure prediction by ZEFSAII (Michael W. Deem and Ramdas Pophale) SiO2 
 PCOD9168417
Probable space group: C 2/M
;
_chemical_formula_sum "Si O2"
_cell_formula_units_Z 56
_cell_length_a 17.094704
_cell_length_b 26.429022
_cell_length_c 9.136720
_cell_angle_alpha 90.000000
_cell_angle_beta 132.634178
_cell_angle_gamma 90.000000
_cell_volume 3036.894660
_symmetry_space_group_name_H-M "C 2/M"
_symmetry_group_IT_number 12
_symmetry_cell_setting 'monoclinic'
loop_
_space_group_symop_operation_xyz
x,y,z
-x,y,-z
-x,-y,-z
x,-y,z
1/2+x,1/2+y,z
1/2-x,1/2+y,-z
1/2-x,1/2-y,-z
1/2+x,1/2-y,z
loop_
_atom_site_type_symbol
_atom_site_label
_atom_site_fract_x
_atom_site_fract_y
_atom_site_fract_z
Si Si1 0.217262 0.664658 0.715864
Si Si2 0.664076 0.153635 0.984597
Si Si3 0.113709 0.821679 0.669708
Si Si4 0.670771 0.055170 0.635561
Si Si5 0.053854 0.444613 0.803981
Si Si6 0.593796 0.264353 0.953460
Si Si7 0.864959 0.253183 0.574872
O O1 0.164395 0.664332 0.810183
O O2 0.237274 0.606269 0.701826
O O3 0.135092 0.691456 0.500695
O O4 0.326214 0.697129 0.863151
O O5 0.591368 0.106084 0.931403
O O6 0.635196 0.207115 0.020262
O O7 0.786408 0.142432 0.179553
O O8 0.107795 0.784676 0.803174
O O9 0.131809 0.786534 0.553061
O O10 0.000000 0.847288 0.500000
O O11 0.568351 0.058851 0.400372
O O12 0.621868 0.055300 0.738238
O O13 0.721964 0.000000 0.677852
O O14 0.070841 0.500000 0.895876
O O15 0.465767 0.259564 0.804447
O O16 0.750000 0.250000 0.500000
#
# Coordination Sequence:
#
# PCOD9168417 Si02
#       7
#     8   8   8   8   8   8   8
#     4  10  17  29  44  67  96 119 151 185 225 277
#     4  10  15  27  47  65  87 124 155 184 221 276
#     4   9  17  30  44  63  88 117 155 188 218 273
#     4   8  14  24  40  64  93 119 144 185 234 274
#     4   8  14  22  37  66  95 117 143 186 238 268
#     4  10  18  29  48  66  87 122 156 183 224 275
#     4  11  21  30  42  65  96 123 148 187 234 270
#
# _framework density 18.439889000000001
#
# number of rings (size 3 to 8) (size 9 to 14) (size 15 to 20)
#    0.000    2.571    2.857    2.571    0.000    1.714 
#    0.000    0.000    0.000    0.429    0.000    6.000 
#    0.000    3.429    0.000    0.000    0.000    0.000 
#
# Total GULP energy -155948.798329 kJ/mol
# GULP energy per Si atom -5569.599940 kJ/mol
# Density = 1.839792 g / cm^3
# Si number density = 18.439889 Si / 1000 Ang^3
#
#
#
# Elastic Constant Matrix: (Units=GPa)
#
#
# Indices 1 2 3 4 5 6 
#
# 1 30.2726 10.6767 11.6282 0.0000 14.2805 0.0000
# 2 10.6767 153.6249 49.8133 0.0000 13.8111 0.0000
# 3 11.6282 49.8133 78.9290 0.0000 10.3066 0.0000
# 4 0.0000 0.0000 0.0000 28.7313 0.0000 5.6746
# 5 14.2805 13.8111 10.3066 0.0000 19.0339 0.0000
# 6 0.0000 0.0000 0.0000 5.6746 0.0000 2.3498
#
#
#
# Elastic Compliance Matrix: (Units=1/GPa)
#
#
# Indices 1 2 3 4 5 6 
#
# 1 0.051760 0.000840 -0.003234 0.000000 -0.037692 0.000000
# 2 0.000840 0.008405 -0.004896 0.000000 -0.004078 0.000000
# 3 -0.003234 -0.004896 0.016631 0.000000 -0.003027 0.000000
# 4 0.000000 0.000000 0.000000 0.066546 0.000000 -0.160706
# 5 -0.037692 -0.004078 -0.003027 0.000000 0.085415 0.000000
# 6 0.000000 0.000000 0.000000 -0.160706 0.000000 0.813672
#
#
# Mechanical properties :
#
#
# Convention : Reuss Voigt Hill
#
# Bulk Modulus (GPa) = 16.07288 45.22920 30.65104
# Shear Modulus (GPa) = 4.63931 22.73688 13.68809
#
# Velocity S-wave (km/s) = 1.58788 3.51526 2.72749
# Velocity P-wave (km/s) = 3.47809 6.40759 5.15530
#
# Compressibility (1/GPa) = 0.06221659
#
# Stress axis : x y z
#
# Youngs Moduli (GPa) = 19.32007 118.97573 60.12832
#
# Poissons Ratio (x) = -0.09993 0.19444
# Poissons Ratio (y) = -0.01623 0.29438
# Poissons Ratio (z) = 0.06248 0.58248
#
# Static dielectric constant tensor:
#      x y z
#    x 1.675770 0.000000 -0.012760 
#    y 0.000000 1.655760 0.000000 
#    z -0.012760 0.000000 1.682360 
# 
# From -- ./inp_files/160344.got.cif
#   From: 2010.05.17/outbox.cif.g08.bks.cpg/sg12_81_cif.got.tgz:160344.got - 2010.06.03 13:09:07.
