data_PCOD9168533
_publ_section_title
;
Structure prediction by ZEFSAII (Michael W. Deem and Ramdas Pophale) SiO2 
 PCOD9168533
Probable space group: C 2/M
;
_chemical_formula_sum "Si O2"
_cell_formula_units_Z 64
_cell_length_a 24.803617
_cell_length_b 8.634943
_cell_length_c 21.027769
_cell_angle_alpha 90.000000
_cell_angle_beta 115.736987
_cell_angle_gamma 90.000000
_cell_volume 4056.902459
_symmetry_space_group_name_H-M "C 2/M"
_symmetry_group_IT_number 12
_symmetry_cell_setting 'monoclinic'
loop_
_space_group_symop_operation_xyz
x,y,z
-x,y,-z
-x,-y,-z
x,-y,z
1/2+x,1/2+y,z
1/2-x,1/2+y,-z
1/2-x,1/2-y,-z
1/2+x,1/2-y,z
loop_
_atom_site_type_symbol
_atom_site_label
_atom_site_fract_x
_atom_site_fract_y
_atom_site_fract_z
Si Si1 0.836891 0.685154 0.662201
Si Si2 0.839523 0.185176 0.010504
Si Si3 0.777888 0.184612 0.242453
Si Si4 0.355567 0.684537 0.802364
Si Si5 0.069767 0.684692 0.043954
Si Si6 0.708196 0.185015 0.886090
Si Si7 0.182597 0.814780 0.477265
Si Si8 0.297552 0.185166 0.383232
O O1 0.835767 0.500000 0.659703
O O2 0.872033 0.745587 0.741828
O O3 0.854178 0.752323 0.602121
O O4 0.769693 0.748776 0.640781
O O5 0.832506 0.251066 0.077806
O O6 0.845874 0.000000 0.015294
O O7 0.892581 0.260233 0.997683
O O8 0.776750 0.220899 0.942352
O O9 0.709611 0.248233 0.211580
O O10 0.803052 0.237630 0.187571
O O11 0.812977 0.255871 0.320719
O O12 0.776372 0.000000 0.247165
O O13 0.350234 0.500000 0.795009
O O14 0.401881 0.732693 0.880239
O O15 0.076531 0.500000 0.055014
O O16 0.000000 0.721137 0.000000
O O17 0.702804 0.000000 0.878509
O O18 0.250000 0.750000 0.500000
O O19 0.165456 0.751340 0.538059
O O20 0.184327 0.000000 0.478089
O O21 0.296108 0.000000 0.384930
#
# Coordination Sequence:
#
# PCOD9168533 Si02
#       8
#     8   8   8   8   8   8   8   8
#     4  10  17  26  39  55  76 106 142 181 221 260
#     4  10  20  33  50  70  91 117 149 187 230 275
#     4  11  19  28  43  63  88 117 149 186 226 267
#     4  11  20  31  45  63  85 112 148 188 228 270
#     4  11  23  37  52  69  91 120 152 190 234 278
#     4  10  19  31  48  69  93 119 148 188 230 273
#     4  10  16  24  35  51  75 105 142 179 216 258
#     4  10  17  25  36  53  79 110 145 180 217 261
#
# _framework density 15.775584
#
# number of rings (size 3 to 8) (size 9 to 14) (size 15 to 20)
#    0.000    1.625    1.250    9.750    0.000    2.000 
#    0.000    0.000    0.000    0.000    0.000    0.000 
#    0.000    0.000    0.000    1.125    0.000   20.875 
#
# Total GULP energy -178499.824455 kJ/mol
# GULP energy per Si atom -5578.119514 kJ/mol
# Density = 1.573968 g / cm^3
# Si number density = 15.775584 Si / 1000 Ang^3
#
#
#
# Elastic Constant Matrix: (Units=GPa)
#
#
# Indices 1 2 3 4 5 6 
#
# 1 41.7178 29.2831 36.8453 0.0000 -9.0585 0.0000
# 2 29.2831 137.6893 65.8473 0.0000 -14.6520 0.0000
# 3 36.8453 65.8473 151.7804 0.0000 -34.7457 0.0000
# 4 0.0000 0.0000 0.0000 32.1895 0.0000 -6.4648
# 5 -9.0585 -14.6520 -34.7457 0.0000 15.5138 0.0000
# 6 0.0000 0.0000 0.0000 -6.4648 0.0000 11.5018
#
#
#
# Elastic Compliance Matrix: (Units=1/GPa)
#
#
# Indices 1 2 3 4 5 6 
#
# 1 0.032162 -0.003931 -0.005444 0.000000 0.002873 0.000000
# 2 -0.003931 0.009646 -0.003428 0.000000 -0.000863 0.000000
# 3 -0.005444 -0.003428 0.016270 0.000000 0.030024 0.000000
# 4 0.000000 0.000000 0.000000 0.035019 0.000000 0.019683
# 5 0.002873 -0.000863 0.030024 0.000000 0.132565 0.000000
# 6 0.000000 0.000000 0.000000 0.019683 0.000000 0.098006
#
#
# Mechanical properties :
#
#
# Convention : Reuss Voigt Hill
#
# Bulk Modulus (GPa) = 30.79550 66.12655 48.46103
# Shear Modulus (GPa) = 13.88504 25.12179 19.50341
#
# Velocity S-wave (km/s) = 2.96997 3.99488 3.51993
# Velocity P-wave (km/s) = 5.59681 7.95530 6.87790
#
# Compressibility (1/GPa) = 0.03247228
#
# Stress axis : x y z
#
# Youngs Moduli (GPa) = 31.09254 103.66615 61.46121
#
# Poissons Ratio (x) = 0.40747 0.33462
# Poissons Ratio (y) = 0.12221 0.21070
# Poissons Ratio (z) = 0.16928 0.35539
#
# Static dielectric constant tensor:
#      x y z
#    x 1.488540 0.000000 -0.024500 
#    y 0.000000 1.523190 0.000000 
#    z -0.024500 0.000000 1.592370 
# 
# From -- ./inp_files/319265.got.cif
#   From: 2010.05.17/outbox.cif.g08.bks.cpg/sg12_160_cif.got.tgz:319265.got - 2010.06.03 13:09:07.
