data_PCOD9168288
_publ_section_title
;
Structure prediction by ZEFSAII (Michael W. Deem and Ramdas Pophale) SiO2 
 PCOD9168288
Probable space group: C 2/M
;
_chemical_formula_sum "Si O2"
_cell_formula_units_Z 46
_cell_length_a 14.230780
_cell_length_b 16.865858
_cell_length_c 12.245176
_cell_angle_alpha 90.000000
_cell_angle_beta 136.770575
_cell_angle_gamma 90.000000
_cell_volume 2012.995961
_symmetry_space_group_name_H-M "C 2/M"
_symmetry_group_IT_number 12
_symmetry_cell_setting 'monoclinic'
loop_
_space_group_symop_operation_xyz
x,y,z
-x,y,-z
-x,-y,-z
x,-y,z
1/2+x,1/2+y,z
1/2-x,1/2+y,-z
1/2-x,1/2-y,-z
1/2+x,1/2-y,z
loop_
_atom_site_type_symbol
_atom_site_label
_atom_site_fract_x
_atom_site_fract_y
_atom_site_fract_z
Si Si1 0.437049 0.304541 0.181029
Si Si2 0.505669 0.884052 0.763886
Si Si3 0.289813 0.658117 0.515364
Si Si4 0.788405 0.208457 0.280067
Si Si5 0.241858 0.873382 0.164432
Si Si6 0.000000 0.000000 0.000000
Si Si7 0.500000 0.870143 0.000000
O O1 0.472644 0.211489 0.206953
O O2 0.576523 0.356030 0.298579
O O3 0.366676 0.317043 0.238113
O O4 0.333597 0.326710 0.998594
O O5 0.347855 0.893540 0.591633
O O6 0.622110 0.909931 0.777344
O O7 0.521929 0.913525 0.902432
O O8 0.250000 0.750000 0.500000
O O9 0.336041 0.662252 0.427714
O O10 0.792919 0.304371 0.290533
O O11 0.631449 0.183926 0.132653
O O12 0.124035 0.931857 0.104366
#
# Coordination Sequence:
#
# PCOD9168288 Si02
#       7
#     8   8   8   8   8   2   4
#     4  10  17  31  52  86 117 149 174 243 291 354
#     4   9  17  30  52  81 114 142 173 236 296 351
#     4   9  19  27  48  90 119 143 173 219 321 357
#     4  10  17  29  54  83 121 145 175 235 302 357
#     4  11  21  38  54  77 115 155 208 230 279 326
#     4  12  30  36  60  80 102 178 210 250 248 338
#     4  10  13  24  48  86 102 139 162 206 308 350
#
# _framework density 22.851512
#
# number of rings (size 3 to 8) (size 9 to 14) (size 15 to 20)
#    0.000    2.087    3.478    2.087    4.870    0.000 
#    0.000    0.000    0.000    2.609    0.000    2.435 
#    0.000    0.000    0.000    0.000    0.000    0.000 
#
# Total GULP energy -128112.253910 kJ/mol
# GULP energy per Si atom -5570.097996 kJ/mol
# Density = 2.279950 g / cm^3
# Si number density = 22.851512 Si / 1000 Ang^3
#
#
#
# Elastic Constant Matrix: (Units=GPa)
#
#
# Indices 1 2 3 4 5 6 
#
# 1 134.1151 25.1460 26.1085 0.0000 22.1562 0.0000
# 2 25.1460 61.5433 3.4044 0.0000 11.7626 0.0000
# 3 26.1085 3.4044 90.0685 0.0000 20.5851 0.0000
# 4 0.0000 0.0000 0.0000 -6.5106 0.0000 16.1251
# 5 22.1562 11.7626 20.5851 0.0000 33.9546 0.0000
# 6 0.0000 0.0000 0.0000 16.1251 0.0000 -14.9146
#
#
#
# Elastic Compliance Matrix: (Units=1/GPa)
#
#
# Indices 1 2 3 4 5 6 
#
# 1 0.008938 -0.002821 -0.001596 0.000000 -0.003888 0.000000
# 2 -0.002821 0.018345 0.001342 0.000000 -0.005328 0.000000
# 3 -0.001596 0.001342 0.013214 0.000000 -0.007434 0.000000
# 4 0.000000 0.000000 0.000000 0.091548 0.000000 0.098978
# 5 -0.003888 -0.005328 -0.007434 0.000000 0.038341 0.000000
# 6 0.000000 0.000000 0.000000 0.098978 0.000000 0.039963
#
#
# Mechanical properties :
#
#
# Convention : Reuss Voigt Hill
#
# Bulk Modulus (GPa) = 29.11366 43.89387 36.50376
# Shear Modulus (GPa) = 21.93485 17.91041 19.92263
#
# Velocity S-wave (km/s) = 3.10156 2.80263 2.95588
# Velocity P-wave (km/s) = 5.05908 5.45188 5.25915
#
# Compressibility (1/GPa) = 0.03434814
#
# Stress axis : x y z
#
# Youngs Moduli (GPa) = 111.88117 54.50971 75.67942
#
# Poissons Ratio (x) = 0.15375 0.12077
# Poissons Ratio (y) = 0.31558 -0.10156
# Poissons Ratio (z) = 0.17854 -0.07315
#
# Static dielectric constant tensor:
#      x y z
#    x 1.943720 0.000000 -0.018350 
#    y 0.000000 1.812830 0.000000 
#    z -0.018350 0.000000 1.922950 
# 
# From -- ./inp_files/216526.got.cif
#   From: 2010.05.17/outbox.cif.g08.bks.cpg/sg12_109_cif.got.tgz:216526.got - 2010.06.03 13:09:07.
