data_PCOD9168270
_publ_section_title
;
Structure prediction by ZEFSAII (Michael W. Deem and Ramdas Pophale) SiO2 
 PCOD9168270
Probable space group: P 21/M
;
_chemical_formula_sum "Si O2"
_cell_formula_units_Z 32
_cell_length_a 12.000000
_cell_length_b 15.000000
_cell_length_c 18.000000
_cell_angle_alpha 90.000000
_cell_angle_beta 150.000000
_cell_angle_gamma 90.000000
_cell_volume 1620.000000
_symmetry_space_group_name_H-M "P 21/M"
_symmetry_group_IT_number 11
_symmetry_cell_setting 'monoclinic'
loop_
_space_group_symop_operation_xyz
x,y,z
-x,1/2+y,-z
-x,-y,-z
x,1/2-y,z
loop_
_atom_site_type_symbol
_atom_site_label
_atom_site_fract_x
_atom_site_fract_y
_atom_site_fract_z
Si Si1 0.839817 0.142037 0.584469
Si Si2 0.199726 0.359018 0.037285
Si Si3 0.955259 0.144146 0.261708
Si Si4 0.617466 0.644688 0.378961
Si Si5 0.912138 0.485808 0.765531
Si Si6 0.603461 0.542444 0.712110
Si Si7 0.320537 0.856954 0.758985
Si Si8 0.935672 0.857368 0.430112
O O1 0.836275 0.250000 0.593984
O O2 0.860674 0.084245 0.670452
O O3 0.612984 0.106141 0.416317
O O4 0.035369 0.116311 0.638647
O O5 0.155793 0.250000 0.014827
O O6 0.234016 0.405151 0.137483
O O7 0.432402 0.372205 0.126953
O O8 0.030852 0.422430 0.894997
O O9 0.936655 0.250000 0.229269
O O10 0.179550 0.138130 0.443288
O O11 0.753016 0.118424 0.200535
O O12 0.967417 0.071129 0.203499
O O13 0.539328 0.750000 0.337937
O O14 0.458603 0.559631 0.300618
O O15 0.719827 0.628845 0.355814
O O16 0.706198 0.530487 0.689778
O O17 0.289039 0.750000 0.740005
O O18 0.141310 0.895541 0.597227
O O19 0.962836 0.750000 0.443260
#
# Coordination Sequence:
#
# PCOD9168270 Si02
#       8
#     4   4   4   4   4   4   4   4
#     4  11  22  38  62  91 122 152 196 259 307 347
#     4  11  24  44  65  84 117 161 201 254 305 349
#     4   9  19  37  61  90 126 160 193 248 308 355
#     4   9  19  36  61  92 126 158 194 253 306 343
#     4  12  26  41  56  92 126 160 206 242 293 364
#     4  12  24  41  61  90 116 161 215 242 284 369
#     4   8  15  33  61  89 114 152 204 242 295 366
#     4   8  15  32  59  92 119 148 197 247 301 362
#
# _framework density 19.753086
#
# number of rings (size 3 to 8) (size 9 to 14) (size 15 to 20)
#    0.000    2.000    2.500    3.000    0.000    4.000 
#    0.000    0.625    0.000    3.000    0.000    0.000 
#    0.000    0.000    0.000    0.000    0.000    0.000 
#
# Total GULP energy -178348.739518 kJ/mol
# GULP energy per Si atom -5573.398110 kJ/mol
# Density = 1.970813 g / cm^3
# Si number density = 19.753086 Si / 1000 Ang^3
#
#
#
# Elastic Constant Matrix: (Units=GPa)
#
#
# Indices 1 2 3 4 5 6 
#
# 1 500.1376 221.4079 158.1969 0.0000 -108.3440 0.0000
# 2 221.4079 207.0467 86.9221 0.0000 -58.3966 0.0000
# 3 158.1969 86.9221 91.0537 0.0000 -60.5816 0.0000
# 4 0.0000 0.0000 0.0000 32.9355 0.0000 -4.7469
# 5 -108.3440 -58.3966 -60.5816 0.0000 52.0767 0.0000
# 6 0.0000 0.0000 0.0000 -4.7469 0.0000 40.3632
#
#
#
# Elastic Compliance Matrix: (Units=1/GPa)
#
#
# Indices 1 2 3 4 5 6 
#
# 1 0.005414 -0.003066 -0.005632 0.000000 0.001274 0.000000
# 2 -0.003066 0.009798 -0.004250 0.000000 -0.000335 0.000000
# 3 -0.005632 -0.004250 0.061318 0.000000 0.054849 0.000000
# 4 0.000000 0.000000 0.000000 0.030886 0.000000 0.003632
# 5 0.001274 -0.000335 0.054849 0.000000 0.085284 0.000000
# 6 0.000000 0.000000 0.000000 0.003632 0.000000 0.025202
#
#
# Mechanical properties :
#
#
# Convention : Reuss Voigt Hill
#
# Bulk Modulus (GPa) = 19.74937 192.36576 106.05756
# Shear Modulus (GPa) = 19.18093 47.18915 33.18504
#
# Velocity S-wave (km/s) = 3.11952 4.89299 4.10322
# Velocity P-wave (km/s) = 4.79532 11.38062 8.73251
#
# Compressibility (1/GPa) = 0.05063453
#
# Stress axis : x y z
#
# Youngs Moduli (GPa) = 184.69935 102.06231 16.30851
#
# Poissons Ratio (x) = 0.31291 0.09185
# Poissons Ratio (y) = 0.56627 0.06931
# Poissons Ratio (z) = 1.04023 0.43374
#
# Static dielectric constant tensor:
#      x y z
#    x 1.729020 0.000000 0.003230 
#    y 0.000000 1.677910 0.000000 
#    z 0.003230 0.000000 1.726540 
# 
# From -- ./inp_files/59534.got.cif
#   From: 2010.05.17/outbox.ucp.g08.bks.cvg/sg11_30_cif.got.tgz:59534.got - 2010.06.11 11:38:39.
