data_PCOD9168380
_publ_section_title
;
Structure prediction by ZEFSAII (Michael W. Deem and Ramdas Pophale) SiO2 
 PCOD9168380
Probable space group: C 2/M
;
_chemical_formula_sum "Si O2"
_cell_formula_units_Z 40
_cell_length_a 9.756571
_cell_length_b 29.205550
_cell_length_c 16.404543
_cell_angle_alpha 90.000000
_cell_angle_beta 24.767748
_cell_angle_gamma 90.000000
_cell_volume 1958.301811
_symmetry_space_group_name_H-M "C 2/M"
_symmetry_group_IT_number 12
_symmetry_cell_setting 'monoclinic'
loop_
_space_group_symop_operation_xyz
x,y,z
-x,y,-z
-x,-y,-z
x,-y,z
1/2+x,1/2+y,z
1/2-x,1/2+y,-z
1/2-x,1/2-y,-z
1/2+x,1/2-y,z
loop_
_atom_site_type_symbol
_atom_site_label
_atom_site_fract_x
_atom_site_fract_y
_atom_site_fract_z
Si Si1 0.743048 0.615029 0.288199
Si Si2 0.936891 0.284382 0.674446
Si Si3 0.864625 0.386953 0.484044
Si Si4 0.866578 0.712503 0.261420
Si Si5 0.886561 0.448512 0.799032
O O1 0.500000 0.616202 0.500000
O O2 0.521776 0.607913 0.327827
O O3 0.900405 0.665230 0.195190
O O4 0.997951 0.577115 0.180816
O O5 0.651710 0.258919 0.779647
O O6 0.250000 0.250000 0.500000
O O7 0.034991 0.333903 0.587054
O O8 0.884700 0.288463 0.798562
O O9 0.000000 0.399015 0.500000
O O10 0.012861 0.418774 0.333592
O O11 0.500000 0.709893 0.500000
O O12 0.027307 0.500000 0.720651
O O13 0.500000 0.451352 0.000000
#
# Coordination Sequence:
#
# PCOD9168380 Si02
#       5
#     8   8   8   8   8
#     4   9  16  32  52  80 108 139 185 229 267 318
#     4  10  15  24  44  79 114 142 175 220 264 322
#     4  11  20  32  55  91 115 137 180 240 278 313
#     4   9  14  23  40  74 110 140 174 215 260 313
#     4  10  22  41  61  77 104 150 191 226 284 345
#
# _framework density 20.425861999999999
#
# number of rings (size 3 to 8) (size 9 to 14) (size 15 to 20)
#    0.000    2.200    8.000    1.800    0.000    4.000 
#    0.000    1.000    0.000    3.600    0.000    0.000 
#    0.000    0.000    0.000    0.000    0.000    0.000 
#
# Total GULP energy -111406.632061 kJ/mol
# GULP energy per Si atom -5570.331603 kJ/mol
# Density = 2.037937 g / cm^3
# Si number density = 20.425862 Si / 1000 Ang^3
#
#
#
# Elastic Constant Matrix: (Units=GPa)
#
#
# Indices 1 2 3 4 5 6 
#
# 1 173.1102 48.5583 18.6034 0.0000 -38.6177 0.0000
# 2 48.5583 136.9513 20.2409 0.0000 -13.8298 0.0000
# 3 18.6034 20.2409 24.4171 0.0002 -13.2069 0.0000
# 4 0.0000 0.0000 0.0002 19.5333 0.0000 1.4954
# 5 -38.6177 -13.8298 -13.2069 0.0000 22.9509 0.0000
# 6 0.0000 0.0000 0.0000 1.4954 0.0000 32.2025
#
#
#
# Elastic Compliance Matrix: (Units=1/GPa)
#
#
# Indices 1 2 3 4 5 6 
#
# 1 0.009917 -0.002315 0.003825 0.000000 0.017493 0.000000
# 2 -0.002315 0.008898 -0.006997 0.000000 -0.002560 0.000000
# 3 0.003825 -0.006997 0.065396 0.000000 0.039851 0.000000
# 4 0.000000 0.000000 0.000000 0.051377 0.000000 -0.002386
# 5 0.017493 -0.002560 0.039851 0.000000 0.094395 0.000000
# 6 0.000000 0.000000 0.000000 -0.002386 0.000000 0.031164
#
#
# Mechanical properties :
#
#
# Convention : Reuss Voigt Hill
#
# Bulk Modulus (GPa) = 13.65432 56.58708 35.12070
# Shear Modulus (GPa) = 16.86138 31.40908 24.13523
#
# Velocity S-wave (km/s) = 2.87625 3.92562 3.44117
# Velocity P-wave (km/s) = 4.21067 6.95062 5.74634
#
# Compressibility (1/GPa) = 0.07323692
#
# Stress axis : x y z
#
# Youngs Moduli (GPa) = 100.83213 112.37991 15.29148
#
# Poissons Ratio (x) = 0.26018 -0.05849
# Poissons Ratio (y) = 0.23344 0.10700
# Poissons Ratio (z) = -0.38568 0.78634
#
# Static dielectric constant tensor:
#      x y z
#    x 1.781630 0.000000 -0.029200 
#    y 0.000000 1.837910 0.000000 
#    z -0.029200 0.000000 1.824770 
# 
# From -- ./inp_files/80372.got.cif
#   From: 2010.05.17/outbox.cif.g08.bks.cpg/sg12_41_cif.got.tgz:80372.got - 2010.06.03 13:09:07.
