data_PCOD9168190
_publ_section_title
;
Structure prediction by ZEFSAII (Michael W. Deem and Ramdas Pophale) SiO2 
 PCOD9168190
Probable space group: P 21/M
;
_chemical_formula_sum "Si O2"
_cell_formula_units_Z 32
_cell_length_a 24.000000
_cell_length_b 9.000000
_cell_length_c 15.000000
_cell_angle_alpha 90.000000
_cell_angle_beta 30.000000
_cell_angle_gamma 90.000000
_cell_volume 1620.000000
_symmetry_space_group_name_H-M "P 21/M"
_symmetry_group_IT_number 11
_symmetry_cell_setting 'monoclinic'
loop_
_space_group_symop_operation_xyz
x,y,z
-x,1/2+y,-z
-x,-y,-z
x,1/2-y,z
loop_
_atom_site_type_symbol
_atom_site_label
_atom_site_fract_x
_atom_site_fract_y
_atom_site_fract_z
Si Si1 0.620005 0.926776 0.835842
Si Si2 0.762263 0.420627 0.497590
Si Si3 0.760278 0.072374 0.294320
Si Si4 0.472210 0.071616 0.442077
Si Si5 0.152364 0.073894 0.997376
Si Si6 0.952602 0.078476 0.384943
Si Si7 0.778930 0.430994 0.765196
Si Si8 0.680807 0.925217 0.075138
O O1 0.618182 0.750000 0.852076
O O2 0.676928 0.967650 0.662426
O O3 0.687384 0.007222 0.822278
O O4 0.500000 0.000000 0.000000
O O5 0.717960 0.250000 0.559498
O O6 0.791034 0.456643 0.355250
O O7 0.864748 0.421394 0.424957
O O8 0.749596 0.250000 0.298564
O O9 0.644034 0.992019 0.432812
O O10 0.840793 0.008923 0.105950
O O11 0.469569 0.250000 0.453223
O O12 0.500000 0.000000 0.500000
O O13 0.567084 0.016386 0.242307
O O14 0.130925 0.250000 0.010262
O O15 0.262344 0.064798 0.905962
O O16 0.060072 0.007027 0.191970
O O17 0.982618 0.250000 0.363342
O O18 0.893665 0.021857 0.556041
O O19 0.774921 0.250000 0.774310
O O20 0.755597 0.503744 0.893151
O O21 0.662653 0.750000 0.081757
#
# Coordination Sequence:
#
# PCOD9168190 Si02
#       8
#     4   4   4   4   4   4   4   4
#     4  11  22  37  58  84 116 151 194 242 294 354
#     4   9  20  39  60  84 118 155 194 240 293 346
#     4  11  23  38  59  88 121 156 198 244 293 352
#     4  12  24  40  61  84 117 157 197 245 299 353
#     4  10  21  38  61  86 117 157 200 245 295 348
#     4   8  17  38  63  85 115 156 197 243 295 346
#     4  10  21  39  61  85 117 156 198 243 295 349
#     4  11  23  38  58  88 122 157 199 244 294 351
#
# _framework density 19.753086
#
# number of rings (size 3 to 8) (size 9 to 14) (size 15 to 20)
#    0.000    1.750    1.250    4.125    1.750    2.500 
#    0.000    3.125    0.000    0.000    0.000    0.000 
#    0.000    0.000    0.000    0.000    0.000    0.000 
#
# Total GULP energy -178563.155290 kJ/mol
# GULP energy per Si atom -5580.098603 kJ/mol
# Density = 1.970813 g / cm^3
# Si number density = 19.753086 Si / 1000 Ang^3
#
#
#
# Elastic Constant Matrix: (Units=GPa)
#
#
# Indices 1 2 3 4 5 6 
#
# 1 44.0525 17.0430 6.7242 0.0000 32.7306 0.0000
# 2 17.0430 101.1917 26.1704 0.0000 12.5544 0.0000
# 3 6.7242 26.1704 98.0944 0.0000 23.0240 0.0000
# 4 0.0000 0.0000 0.0000 29.5068 0.0000 13.6678
# 5 32.7306 12.5544 23.0240 0.0000 36.0095 0.0000
# 6 0.0000 0.0000 0.0000 13.6678 0.0000 26.5785
#
#
#
# Elastic Compliance Matrix: (Units=1/GPa)
#
#
# Indices 1 2 3 4 5 6 
#
# 1 0.090390 -0.008490 0.017246 0.000000 -0.090227 0.000000
# 2 -0.008490 0.011566 -0.003963 0.000000 0.006219 0.000000
# 3 0.017246 -0.003963 0.015795 0.000000 -0.024393 0.000000
# 4 0.000000 0.000000 0.000000 0.044487 0.000000 -0.022877
# 5 -0.090227 0.006219 -0.024393 0.000000 0.123211 0.000000
# 6 0.000000 0.000000 0.000000 -0.022877 0.000000 0.049389
#
#
# Mechanical properties :
#
#
# Convention : Reuss Voigt Hill
#
# Bulk Modulus (GPa) = 7.85318 38.13486 22.99402
# Shear Modulus (GPa) = 13.59815 31.31236 22.45526
#
# Velocity S-wave (km/s) = 2.62660 3.98576 3.37530
# Velocity P-wave (km/s) = 3.63084 6.36627 5.18230
#
# Compressibility (1/GPa) = 0.12733696
#
# Stress axis : x y z
#
# Youngs Moduli (GPa) = 11.06314 86.46341 63.31186
#
# Poissons Ratio (x) = 0.73408 -1.09190
# Poissons Ratio (y) = 0.09393 0.25092
# Poissons Ratio (z) = -0.19080 0.34267
#
# Static dielectric constant tensor:
#      x y z
#    x 1.672990 0.000000 -0.026890 
#    y 0.000000 1.660580 0.000000 
#    z -0.026890 0.000000 1.777450 
# 
# From -- ./inp_files/55575.got.cif
#   From: 2010.05.17/outbox.ucp.g08.bks.cvg/sg11_28_cif.got.tgz:55575.got - 2010.06.11 11:38:39.
