data_PCOD9168135
_publ_section_title
;
Structure prediction by ZEFSAII (Michael W. Deem and Ramdas Pophale) SiO2 
 PCOD9168135
Probable space group: P 21/M
;
_chemical_formula_sum "Si O2"
_cell_formula_units_Z 28
_cell_length_a 30.000000
_cell_length_b 9.000000
_cell_length_c 30.000000
_cell_angle_alpha 90.000000
_cell_angle_beta 10.000000
_cell_angle_gamma 90.000000
_cell_volume 1406.550239
_symmetry_space_group_name_H-M "P 21/M"
_symmetry_group_IT_number 11
_symmetry_cell_setting 'monoclinic'
loop_
_space_group_symop_operation_xyz
x,y,z
-x,1/2+y,-z
-x,-y,-z
x,1/2-y,z
loop_
_atom_site_type_symbol
_atom_site_label
_atom_site_fract_x
_atom_site_fract_y
_atom_site_fract_z
Si Si1 0.490578 0.428464 0.104094
Si Si2 0.988825 0.582916 0.756543
Si Si3 0.241486 0.927437 0.736192
Si Si4 0.974746 0.930073 0.574081
Si Si5 0.289298 0.078892 0.595204
Si Si6 0.452026 0.578464 0.235510
Si Si7 0.751254 0.417247 0.075425
O O1 0.481435 0.250000 0.105479
O O2 0.239790 0.514885 0.334261
O O3 0.478021 0.466992 0.168771
O O4 0.737693 0.498557 0.835388
O O5 0.059051 0.750000 0.701879
O O6 0.239849 0.528754 0.481592
O O7 0.868781 0.499670 0.917042
O O8 0.741161 0.588104 0.968792
O O9 0.233761 0.750000 0.749507
O O10 0.500000 0.000000 0.500000
O O11 0.260678 0.971987 0.665437
O O12 0.000000 0.000000 0.000000
O O13 0.951837 0.750000 0.595542
O O14 0.000000 0.000000 0.500000
O O15 0.366222 0.250000 0.532016
O O16 0.001176 0.087657 0.860420
O O17 0.502147 0.027167 0.348801
O O18 0.376466 0.750000 0.296975
O O19 0.679003 0.250000 0.132560
#
# Coordination Sequence:
#
# PCOD9168135 Si02
#       7
#     4   4   4   4   4   4   4
#     4  12  25  42  65  96 127 162 209 260 309 366
#     4  10  21  36  57  83 115 153 199 248 297 356
#     4  12  25  42  65  93 124 162 205 254 307 366
#     4  12  25  44  67  93 127 167 207 254 309 370
#     4  10  21  38  58  84 117 155 197 246 299 358
#     4  10  21  38  58  84 117 158 200 246 303 359
#     4  10  21  36  57  83 115 153 195 244 301 355
#
# _framework density 19.906860999999999
#
# number of rings (size 3 to 8) (size 9 to 14) (size 15 to 20)
#    0.000    1.143    0.000    6.857    0.000    4.571 
#    0.000    0.000    0.000    0.000    0.000    0.000 
#    0.000    0.000    0.000    0.000    0.000    0.000 
#
# Total GULP energy -156223.449546 kJ/mol
# GULP energy per Si atom -5579.408912 kJ/mol
# Density = 1.986155 g / cm^3
# Si number density = 19.906861 Si / 1000 Ang^3
#
#
#
# Elastic Constant Matrix: (Units=GPa)
#
#
# Indices 1 2 3 4 5 6 
#
# 1 49.8606 35.5793 6.1813 0.0000 17.6131 0.0000
# 2 35.5793 137.4543 32.0366 0.0000 17.6036 0.0000
# 3 6.1813 32.0366 148.8189 0.0000 30.6146 0.0000
# 4 0.0000 0.0000 0.0000 107.9667 0.0000 41.5044
# 5 17.6131 17.6036 30.6146 0.0000 47.0827 0.0000
# 6 0.0000 0.0000 0.0000 41.5044 0.0000 38.2811
#
#
#
# Elastic Compliance Matrix: (Units=1/GPa)
#
#
# Indices 1 2 3 4 5 6 
#
# 1 0.027717 -0.006482 0.002169 0.000000 -0.009355 0.000000
# 2 -0.006482 0.009354 -0.001759 0.000000 0.000071 0.000000
# 3 0.002169 -0.001759 0.008127 0.000000 -0.005438 0.000000
# 4 0.000000 0.000000 0.000000 0.015881 0.000000 -0.017218
# 5 -0.009355 0.000071 -0.005438 0.000000 0.028248 0.000000
# 6 0.000000 0.000000 0.000000 -0.017218 0.000000 0.044791
#
#
# Mechanical properties :
#
#
# Convention : Reuss Voigt Hill
#
# Bulk Modulus (GPa) = 30.25408 53.74758 42.00083
# Shear Modulus (GPa) = 31.79044 56.15521 43.97283
#
# Velocity S-wave (km/s) = 4.00053 5.31697 4.70502
# Velocity P-wave (km/s) = 6.04730 8.04685 7.11764
#
# Compressibility (1/GPa) = 0.03305339
#
# Stress axis : x y z
#
# Youngs Moduli (GPa) = 36.07887 106.90884 123.04893
#
# Poissons Ratio (x) = 0.69296 -0.26685
# Poissons Ratio (y) = 0.23385 0.21645
# Poissons Ratio (z) = -0.07824 0.18806
#
# Static dielectric constant tensor:
#      x y z
#    x 1.727700 0.000000 -0.044330 
#    y 0.000000 1.726360 0.000000 
#    z -0.044330 0.000000 1.664280 
# 
# From -- ./inp_files/73866.got.cif
#   From: 2010.05.17/outbox.ucp.g08.bks.cvg/sg11_37_cif.got.tgz:73866.got - 2010.06.11 11:38:39.
