data_PCOD9168718
_publ_section_title
;
Structure prediction by ZEFSAII (Michael W. Deem and Ramdas Pophale) SiO2 
 PCOD9168718
Probable space group: C 2/M
;
_chemical_formula_sum "Si O2"
_cell_formula_units_Z 32
_cell_length_a 9.655329
_cell_length_b 17.676092
_cell_length_c 8.351352
_cell_angle_alpha 90.000000
_cell_angle_beta 106.029924
_cell_angle_gamma 90.000000
_cell_volume 1369.893019
_symmetry_space_group_name_H-M "C 2/M"
_symmetry_group_IT_number 12
_symmetry_cell_setting 'monoclinic'
loop_
_space_group_symop_operation_xyz
x,y,z
-x,y,-z
-x,-y,-z
x,-y,z
1/2+x,1/2+y,z
1/2-x,1/2+y,-z
1/2-x,1/2-y,-z
1/2+x,1/2-y,z
loop_
_atom_site_type_symbol
_atom_site_label
_atom_site_fract_x
_atom_site_fract_y
_atom_site_fract_z
Si Si1 0.297199 0.908076 0.343409
Si Si2 0.818851 0.411312 0.705130
Si Si3 0.213493 0.337760 0.985810
Si Si4 0.969918 0.911903 0.226358
O O1 0.360418 0.889937 0.538704
O O2 0.353470 0.868904 0.199850
O O3 0.129549 0.881429 0.298251
O O4 0.306320 0.000000 0.330366
O O5 0.855709 0.500000 0.743436
O O6 0.642610 0.406276 0.660993
O O7 0.862803 0.362235 0.872599
O O8 0.250000 0.250000 0.000000
O O9 0.368737 0.378663 0.055717
O O10 0.988472 0.000000 0.200348
#
# Coordination Sequence:
#
# PCOD9168718 Si02
#       4
#     8   8   8   8
#     4  10  16  27  47  62  77 105 138 170 200 229
#     4   8  16  27  42  62  80 102 137 170 195 230
#     4  10  19  26  34  56  90 117 131 152 194 247
#     4   8  15  28  43  62  82 102 135 170 195 229
#
# _framework density 23.359487000000001
#
# number of rings (size 3 to 8) (size 9 to 14) (size 15 to 20)
#    1.500    1.500    0.000    3.000    0.000    6.000 
#    0.000    0.000    0.000    0.000    0.000    0.000 
#    0.000   36.000    0.000   48.250    0.000    0.000 
#
# Total GULP energy -89170.321883 kJ/mol
# GULP energy per Si atom -5573.145118 kJ/mol
# Density = 2.330632 g / cm^3
# Si number density = 23.359487 Si / 1000 Ang^3
#
#
#
# Elastic Constant Matrix: (Units=GPa)
#
#
# Indices 1 2 3 4 5 6 
#
# 1 97.5140 10.9492 47.7471 0.0000 -15.6756 0.0000
# 2 10.9492 54.1942 93.9926 0.0000 -17.7453 0.0000
# 3 47.7471 93.9926 264.2361 0.0000 -31.8262 0.0000
# 4 0.0000 0.0000 0.0000 7.4014 0.0000 -10.5300
# 5 -15.6756 -17.7453 -31.8262 0.0000 39.0657 0.0000
# 6 0.0000 0.0000 0.0000 -10.5300 0.0000 -11.8630
#
#
#
# Elastic Compliance Matrix: (Units=1/GPa)
#
#
# Indices 1 2 3 4 5 6 
#
# 1 0.012056 0.004828 -0.003381 0.000000 0.004276 0.000000
# 2 0.004828 0.052985 -0.018392 0.000000 0.011021 0.000000
# 3 -0.003381 -0.018392 0.010831 0.000000 -0.000887 0.000000
# 4 0.000000 0.000000 0.000000 0.059708 0.000000 -0.052999
# 5 0.004276 0.011021 -0.000887 0.000000 0.031597 0.000000
# 6 0.000000 0.000000 0.000000 -0.052999 0.000000 -0.037252
#
#
# Mechanical properties :
#
#
# Convention : Reuss Voigt Hill
#
# Bulk Modulus (GPa) = 23.82025 80.14689 51.98357
# Shear Modulus (GPa) = 28.12025 24.47117 26.29571
#
# Velocity S-wave (km/s) = 3.47335 3.24016 3.35878
# Velocity P-wave (km/s) = 5.12884 6.95578 6.11097
#
# Compressibility (1/GPa) = 0.04198108
#
# Stress axis : x y z
#
# Youngs Moduli (GPa) = 82.94872 18.87343 92.32813
#
# Poissons Ratio (x) = -0.09112 0.31214
# Poissons Ratio (y) = -0.40049 1.69813
# Poissons Ratio (z) = 0.28043 0.34713
#
# Static dielectric constant tensor:
#      x y z
#    x 1.921080 0.000000 -0.042400 
#    y 0.000000 1.794950 0.000000 
#    z -0.042400 0.000000 1.914190 
# 
# From -- ./inp_files/59440.got.cif
#   From: 2010.05.17/outbox.cif.g08.bks.cpg/sg12_30_cif.got.tgz:59440.got - 2010.06.03 13:09:07.
