data_PCOD9168988
_publ_section_title
;
Structure prediction by ZEFSAII (Michael W. Deem and Ramdas Pophale) SiO2 
 PCOD9168988
Probable space group: C 2/M
;
_chemical_formula_sum "Si O2"
_cell_formula_units_Z 40
_cell_length_a 23.076365
_cell_length_b 18.916312
_cell_length_c 12.905631
_cell_angle_alpha 90.000000
_cell_angle_beta 16.412258
_cell_angle_gamma 90.000000
_cell_volume 1591.744409
_symmetry_space_group_name_H-M "C 2/M"
_symmetry_group_IT_number 12
_symmetry_cell_setting 'monoclinic'
loop_
_space_group_symop_operation_xyz
x,y,z
-x,y,-z
-x,-y,-z
x,-y,z
1/2+x,1/2+y,z
1/2-x,1/2+y,-z
1/2-x,1/2-y,-z
1/2+x,1/2-y,z
loop_
_atom_site_type_symbol
_atom_site_label
_atom_site_fract_x
_atom_site_fract_y
_atom_site_fract_z
Si Si1 0.708772 0.871828 0.414167
Si Si2 0.404808 0.639004 0.509824
Si Si3 0.965115 0.500000 0.394618
Si Si4 0.319807 0.584975 0.438884
Si Si5 0.811830 0.277751 0.745384
Si Si6 0.356137 0.500000 0.866525
O O1 0.551963 0.930884 0.644845
O O2 0.708574 0.871190 0.538682
O O3 0.677314 0.805089 0.392894
O O4 0.936426 0.903244 0.998506
O O5 0.284858 0.618295 0.611316
O O6 0.288936 0.693063 0.782778
O O7 0.609261 0.684485 0.133647
O O8 0.498034 0.566893 0.390327
O O9 0.770550 0.500000 0.807320
O O10 0.172236 0.500000 0.102205
O O11 0.276685 0.500000 0.507999
O O12 0.000000 0.296816 0.500000
#
# Coordination Sequence:
#
# PCOD9168988 Si02
#       6
#     8   8   4   8   8   4
#     4  10  17  29  53  87 117 144 190 250 292 324
#     4  11  22  39  61  87 119 157 193 244 292 343
#     4  11  16  28  55  86 114 139 203 252 277 327
#     4  10  16  31  56  87 115 144 198 250 282 331
#     4  11  23  38  57  86 126 157 189 239 299 350
#     4  11  20  33  59  87 109 155 207 240 278 347
#
# _framework density 25.129662
#
# number of rings (size 3 to 8) (size 9 to 14) (size 15 to 20)
#    0.000    1.400    7.000    2.400    0.000    0.800 
#    0.000    0.500    0.000    2.400    0.000    1.400 
#    0.000    0.000    0.000    0.000    0.000    0.000 
#
# Total GULP energy -112012.165077 kJ/mol
# GULP energy per Si atom -5600.608254 kJ/mol
# Density = 2.507247 g / cm^3
# Si number density = 25.129662 Si / 1000 Ang^3
#
#
#
# Elastic Constant Matrix: (Units=GPa)
#
#
# Indices 1 2 3 4 5 6 
#
# 1 196.1232 44.8321 41.7227 0.0002 -34.5879 0.0049
# 2 44.8321 165.1423 34.5600 -0.0213 -10.8302 -0.0181
# 3 41.7227 34.5600 79.6895 -0.0145 -4.4969 0.0178
# 4 0.0002 -0.0213 -0.0145 13.8344 -0.0064 9.7234
# 5 -34.5879 -10.8302 -4.4969 -0.0064 36.7156 -0.0084
# 6 0.0049 -0.0181 0.0178 9.7234 -0.0084 5.0757
#
#
#
# Elastic Compliance Matrix: (Units=1/GPa)
#
#
# Indices 1 2 3 4 5 6 
#
# 1 0.006975 -0.000890 -0.002930 0.000026 0.005949 -0.000039
# 2 -0.000890 0.006871 -0.002464 0.000048 0.000886 -0.000056
# 3 -0.002930 -0.002464 0.015058 -0.000157 -0.001643 0.000240
# 4 0.000026 0.000048 -0.000157 -0.208656 0.000074 0.399718
# 5 0.005949 0.000886 -0.001643 0.000074 0.032901 -0.000084
# 6 -0.000039 -0.000056 0.000240 0.399718 -0.000084 -0.568713
#
#
# Mechanical properties :
#
#
# Convention : Reuss Voigt Hill
#
# Bulk Modulus (GPa) = 61.21304 75.90943 68.56124
# Shear Modulus (GPa) = -7.16793 32.44782 12.63994
#
# Velocity S-wave (km/s) = -1.69073 3.59725 2.24517
# Velocity P-wave (km/s) = 4.53876 6.89393 5.83638
#
# Compressibility (1/GPa) = 0.01633639
#
# Stress axis : x y z
#
# Youngs Moduli (GPa) = 143.37256 145.54464 66.40807
#
# Poissons Ratio (x) = 0.12956 0.19458
# Poissons Ratio (y) = 0.12763 0.16360
# Poissons Ratio (z) = 0.42008 0.35857
#
# Static dielectric constant tensor:
#      x y z
#    x 2.016050 0.000000 0.039670 
#    y 0.000000 1.929420 0.000010 
#    z 0.039670 0.000010 2.027060 
# 
# From -- ./inp_files/241237.got.cif
#   From: 2010.05.17/outbox.cif.g08.bks.cpg/sg12_121_cif.got.tgz:241237.got - 2010.06.03 13:09:07.
