data_PCOD9168437
_publ_section_title
;
Structure prediction by ZEFSAII (Michael W. Deem and Ramdas Pophale) SiO2 
 PCOD9168437
Probable space group: C 2/M
;
_chemical_formula_sum "Si O2"
_cell_formula_units_Z 48
_cell_length_a 12.759214
_cell_length_b 14.201417
_cell_length_c 13.342763
_cell_angle_alpha 90.000000
_cell_angle_beta 126.197103
_cell_angle_gamma 90.000000
_cell_volume 1951.055483
_symmetry_space_group_name_H-M "C 2/M"
_symmetry_group_IT_number 12
_symmetry_cell_setting 'monoclinic'
loop_
_space_group_symop_operation_xyz
x,y,z
-x,y,-z
-x,-y,-z
x,-y,z
1/2+x,1/2+y,z
1/2-x,1/2+y,-z
1/2-x,1/2-y,-z
1/2+x,1/2-y,z
loop_
_atom_site_type_symbol
_atom_site_label
_atom_site_fract_x
_atom_site_fract_y
_atom_site_fract_z
Si Si1 0.633050 0.186432 0.124652
Si Si2 0.853161 0.106645 0.114564
Si Si3 0.689687 0.610311 0.617688
Si Si4 0.484715 0.102747 0.370906
Si Si5 0.963020 0.810369 0.634389
Si Si6 0.180024 0.103150 0.142937
O O1 0.743528 0.171865 0.102492
O O2 0.678283 0.131007 0.248625
O O3 0.626345 0.296592 0.147102
O O4 0.500000 0.153939 0.000000
O O5 0.989424 0.138887 0.238676
O O6 0.827337 0.000000 0.135288
O O7 0.841873 0.106763 0.989195
O O8 0.661730 0.500000 0.602314
O O9 0.663628 0.648562 0.491446
O O10 0.582945 0.664087 0.626627
O O11 0.500000 0.108255 0.500000
O O12 0.542552 0.198484 0.360066
O O13 0.332553 0.103804 0.256212
O O14 0.538725 0.000000 0.369490
O O15 0.128691 0.000000 0.148535
#
# Coordination Sequence:
#
# PCOD9168437 Si02
#       6
#     8   8   8   8   8   8
#     4  11  21  33  51  75 110 140 170 208 259 309
#     4  10  20  33  53  79 104 134 172 217 261 303
#     4  10  18  29  46  72 101 131 168 209 256 303
#     4  10  17  27  46  74 103 129 164 212 260 300
#     4  10  15  28  49  73  98 126 166 218 259 292
#     4  10  20  35  53  76 103 136 178 217 255 300
#
# _framework density 24.602069
#
# number of rings (size 3 to 8) (size 9 to 14) (size 15 to 20)
#    0.000    1.833    5.000    4.000    0.000    1.667 
#    0.000    0.000    0.000    1.000    0.000    0.000 
#    0.000    0.000    0.000    0.000    0.000    0.000 
#
# Total GULP energy -134287.472860 kJ/mol
# GULP energy per Si atom -5595.311369 kJ/mol
# Density = 2.454607 g / cm^3
# Si number density = 24.602069 Si / 1000 Ang^3
#
#
#
# Elastic Constant Matrix: (Units=GPa)
#
#
# Indices 1 2 3 4 5 6 
#
# 1 44.6396 14.4606 17.4488 0.0000 -0.8734 0.0000
# 2 14.4606 156.5149 47.8990 0.0000 2.0372 0.0000
# 3 17.4488 47.8990 222.6280 0.0000 17.3600 0.0000
# 4 0.0000 0.0000 0.0000 45.5688 0.0000 1.8731
# 5 -0.8734 2.0372 17.3600 0.0000 25.8056 0.0000
# 6 0.0000 0.0000 0.0000 1.8731 0.0000 19.2555
#
#
#
# Elastic Compliance Matrix: (Units=1/GPa)
#
#
# Indices 1 2 3 4 5 6 
#
# 1 0.023637 -0.001707 -0.001644 0.000000 0.002041 0.000000
# 2 -0.001707 0.006968 -0.001391 0.000000 0.000328 0.000000
# 3 -0.001644 -0.001391 0.005188 0.000000 -0.003436 0.000000
# 4 0.000000 0.000000 0.000000 0.022033 0.000000 -0.002143
# 5 0.002041 0.000328 -0.003436 0.000000 0.041106 0.000000
# 6 0.000000 0.000000 0.000000 -0.002143 0.000000 0.052142
#
#
# Mechanical properties :
#
#
# Convention : Reuss Voigt Hill
#
# Bulk Modulus (GPa) = 38.01091 64.82216 51.41653
# Shear Modulus (GPa) = 29.52836 41.05760 35.29298
#
# Velocity S-wave (km/s) = 3.46820 4.08961 3.79166
# Velocity P-wave (km/s) = 5.61442 6.97892 6.33353
#
# Compressibility (1/GPa) = 0.02630824
#
# Stress axis : x y z
#
# Youngs Moduli (GPa) = 42.30588 143.50639 192.75666
#
# Poissons Ratio (x) = 0.24499 0.31698
# Poissons Ratio (y) = 0.07222 0.26813
# Poissons Ratio (z) = 0.06957 0.19962
#
# Static dielectric constant tensor:
#      x y z
#    x 2.031010 0.000000 -0.003120 
#    y 0.000000 1.904510 0.000000 
#    z -0.003120 0.000000 1.951670 
# 
# From -- ./inp_files/284079.got.cif
#   From: 2010.05.17/outbox.cif.g08.bks.cpg/sg12_143_cif.got.tgz:284079.got - 2010.06.03 13:09:07.
