data_PCOD9168720
_publ_section_title
;
Structure prediction by ZEFSAII (Michael W. Deem and Ramdas Pophale) SiO2 
 PCOD9168720
Probable space group: C 2/M
;
_chemical_formula_sum "Si O2"
_cell_formula_units_Z 64
_cell_length_a 22.210786
_cell_length_b 23.433166
_cell_length_c 7.055375
_cell_angle_alpha 90.000000
_cell_angle_beta 117.523525
_cell_angle_gamma 90.000000
_cell_volume 3256.499760
_symmetry_space_group_name_H-M "C 2/M"
_symmetry_group_IT_number 12
_symmetry_cell_setting 'monoclinic'
loop_
_space_group_symop_operation_xyz
x,y,z
-x,y,-z
-x,-y,-z
x,-y,z
1/2+x,1/2+y,z
1/2-x,1/2+y,-z
1/2-x,1/2-y,-z
1/2+x,1/2-y,z
loop_
_atom_site_type_symbol
_atom_site_label
_atom_site_fract_x
_atom_site_fract_y
_atom_site_fract_z
Si Si1 0.371967 0.228486 0.507163
Si Si2 0.293867 0.343369 0.378015
Si Si3 0.020499 0.264717 0.820434
Si Si4 0.655682 0.435650 0.011537
Si Si5 0.164690 0.718371 0.095907
Si Si6 0.388697 0.563639 0.617554
Si Si7 0.257530 0.666292 0.774577
Si Si8 0.020998 0.865587 0.744685
O O1 0.345795 0.291533 0.413241
O O2 0.452643 0.224382 0.600929
O O3 0.355601 0.223744 0.710006
O O4 0.321304 0.183490 0.336503
O O5 0.223507 0.329020 0.171317
O O6 0.333913 0.402257 0.411880
O O7 0.276196 0.339335 0.577337
O O8 0.032606 0.196304 0.851355
O O9 0.094315 0.290064 0.883962
O O10 0.000000 0.285528 0.000000
O O11 0.666220 0.500000 0.954773
O O12 0.642364 0.440673 0.218495
O O13 0.716991 0.390588 0.086236
O O14 0.586845 0.405318 0.842086
O O15 0.199681 0.778619 0.095403
O O16 0.404626 0.500000 0.571132
O O17 0.456848 0.600827 0.736617
O O18 0.000000 0.853855 0.500000
#
# Coordination Sequence:
#
# PCOD9168720 Si02
#       8
#     8   8   8   8   8   8   8   8
#     4   8  13  21  40  64  84 103 130 174 213 239
#     4   8  13  23  39  63  85 101 131 176 214 237
#     4  10  16  27  47  66  83 111 146 173 200 246
#     4  10  19  31  47  62  79 110 149 179 200 236
#     4   8  13  21  40  64  84 103 130 174 213 239
#     4  10  19  31  47  62  79 110 149 179 200 236
#     4   8  13  23  39  63  85 101 131 176 214 237
#     4  12  23  31  40  59  90 119 139 170 210 246
#
# _framework density 19.653002999999998
#
# number of rings (size 3 to 8) (size 9 to 14) (size 15 to 20)
#    0.000    2.750    2.500    3.000    0.000    2.000 
#    0.000    0.000    0.000    3.000    0.000    0.875 
#    0.000    7.000    0.000    0.000    0.000    4.125 
#
# Total GULP energy -178736.215928 kJ/mol
# GULP energy per Si atom -5585.506748 kJ/mol
# Density = 1.960827 g / cm^3
# Si number density = 19.653003 Si / 1000 Ang^3
#
#
#
# Elastic Constant Matrix: (Units=GPa)
#
#
# Indices 1 2 3 4 5 6 
#
# 1 96.8286 36.9853 43.8746 0.0000 31.1186 0.0000
# 2 36.9853 66.3899 23.6283 0.0000 22.5468 0.0000
# 3 43.8746 23.6283 97.1896 0.0000 35.5680 0.0000
# 4 0.0000 0.0000 0.0000 15.4389 0.0000 6.4782
# 5 31.1186 22.5468 35.5680 0.0000 51.9153 0.0000
# 6 0.0000 0.0000 0.0000 6.4782 0.0000 12.2446
#
#
#
# Elastic Compliance Matrix: (Units=1/GPa)
#
#
# Indices 1 2 3 4 5 6 
#
# 1 0.015793 -0.005939 -0.004224 0.000000 -0.003993 0.000000
# 2 -0.005939 0.020193 -0.000429 0.000000 -0.004916 0.000000
# 3 -0.004224 -0.000429 0.015089 0.000000 -0.007619 0.000000
# 4 0.000000 0.000000 0.000000 0.083254 0.000000 -0.044047
# 5 -0.003993 -0.004916 -0.007619 0.000000 0.029011 0.000000
# 6 0.000000 0.000000 0.000000 -0.044047 0.000000 0.104972
#
#
# Mechanical properties :
#
#
# Convention : Reuss Voigt Hill
#
# Bulk Modulus (GPa) = 33.45514 52.15385 42.80449
# Shear Modulus (GPa) = 16.69667 26.31442 21.50554
#
# Velocity S-wave (km/s) = 2.91791 3.66314 3.31155
# Velocity P-wave (km/s) = 5.33030 6.66981 6.03732
#
# Compressibility (1/GPa) = 0.02989078
#
# Stress axis : x y z
#
# Youngs Moduli (GPa) = 63.31731 49.52131 66.27394
#
# Poissons Ratio (x) = 0.29409 0.27997
# Poissons Ratio (y) = 0.37603 0.02845
# Poissons Ratio (z) = 0.26748 0.02126
#
# Static dielectric constant tensor:
#      x y z
#    x 1.745620 0.000000 -0.058460 
#    y 0.000000 1.690030 0.000000 
#    z -0.058460 0.000000 1.777540 
# 
# From -- ./inp_files/106722.got.cif
#   From: 2010.05.17/outbox.cif.g08.bks.cpg/sg12_54_cif.got.tgz:106722.got - 2010.06.03 13:09:07.
