data_PCOD9168683
_publ_section_title
;
Structure prediction by ZEFSAII (Michael W. Deem and Ramdas Pophale) SiO2 
 PCOD9168683
Probable space group: C 2/M
;
_chemical_formula_sum "Si O2"
_cell_formula_units_Z 40
_cell_length_a 14.277509
_cell_length_b 17.851595
_cell_length_c 15.215031
_cell_angle_alpha 90.000000
_cell_angle_beta 148.798468
_cell_angle_gamma 90.000000
_cell_volume 2008.972016
_symmetry_space_group_name_H-M "C 2/M"
_symmetry_group_IT_number 12
_symmetry_cell_setting 'monoclinic'
loop_
_space_group_symop_operation_xyz
x,y,z
-x,y,-z
-x,-y,-z
x,-y,z
1/2+x,1/2+y,z
1/2-x,1/2+y,-z
1/2-x,1/2-y,-z
1/2+x,1/2-y,z
loop_
_atom_site_type_symbol
_atom_site_label
_atom_site_fract_x
_atom_site_fract_y
_atom_site_fract_z
Si Si1 0.552699 0.206978 0.412124
Si Si2 0.742488 0.768319 0.255794
Si Si3 0.546307 0.726344 0.852536
Si Si4 0.643152 0.413694 0.349515
Si Si5 0.096844 0.080814 0.671336
O O1 0.344612 0.205384 0.279175
O O2 0.648988 0.259349 0.563241
O O3 0.550449 0.242765 0.313919
O O4 0.666050 0.130207 0.502036
O O5 0.540374 0.759418 0.128730
O O6 0.778996 0.846175 0.235750
O O7 0.498270 0.638354 0.817080
O O8 0.750000 0.750000 0.000000
O O9 0.656956 0.500000 0.332959
O O10 0.556287 0.412346 0.377172
O O11 0.000000 0.077835 0.500000
O O12 0.189936 0.000000 0.761171
#
# Coordination Sequence:
#
# PCOD9168683 Si02
#       5
#     8   8   8   8   8
#     4  10  19  34  56  80 107 142 191 228 267 324
#     4  10  18  33  56  79 104 144 192 235 265 322
#     4  11  22  36  54  79 116 155 185 221 275 346
#     4  10  20  36  57  83 112 143 184 241 279 316
#     4  10  16  26  50  83 111 133 167 228 286 319
#
# _framework density 19.910679999999999
#
# number of rings (size 3 to 8) (size 9 to 14) (size 15 to 20)
#    0.000    1.800    4.000    3.600    0.000    0.800 
#    0.000   10.000    0.000    2.400    0.000   14.000 
#    0.000    0.000    0.000    0.000    0.000    0.000 
#
# Total GULP energy -111414.598736 kJ/mol
# GULP energy per Si atom -5570.729937 kJ/mol
# Density = 1.986536 g / cm^3
# Si number density = 19.910680 Si / 1000 Ang^3
#
#
#
# Elastic Constant Matrix: (Units=GPa)
#
#
# Indices 1 2 3 4 5 6 
#
# 1 160.1660 63.1890 28.1180 0.0016 32.2455 -0.0004
# 2 63.1890 187.7205 38.0857 0.0008 30.4225 -0.0003
# 3 28.1180 38.0857 47.0006 0.0032 19.0745 0.0000
# 4 0.0016 0.0008 0.0032 13.3051 0.0019 3.1617
# 5 32.2455 30.4225 19.0745 0.0019 44.1778 -0.0003
# 6 -0.0004 -0.0003 0.0000 3.1617 -0.0003 31.3119
#
#
#
# Elastic Compliance Matrix: (Units=1/GPa)
#
#
# Indices 1 2 3 4 5 6 
#
# 1 0.008019 -0.001695 -0.001846 0.000000 -0.003889 0.000000
# 2 -0.001695 0.006993 -0.003881 0.000001 -0.001903 0.000000
# 3 -0.001846 -0.003881 0.028970 -0.000005 -0.008489 0.000000
# 4 0.000000 0.000001 -0.000005 0.077007 -0.000002 -0.007776
# 5 -0.003889 -0.001903 -0.008489 -0.000002 0.030451 0.000000
# 6 0.000000 0.000000 0.000000 -0.007776 0.000000 0.032722
#
#
# Mechanical properties :
#
#
# Convention : Reuss Voigt Hill
#
# Bulk Modulus (GPa) = 34.31641 72.63028 53.47335
# Shear Modulus (GPa) = 23.95585 35.45859 29.70722
#
# Velocity S-wave (km/s) = 3.47243 4.22463 3.86686
# Velocity P-wave (km/s) = 5.77491 7.76878 6.84483
#
# Compressibility (1/GPa) = 0.02914057
#
# Stress axis : x y z
#
# Youngs Moduli (GPa) = 124.70208 142.99491 34.51828
#
# Poissons Ratio (x) = 0.24231 0.06372
# Poissons Ratio (y) = 0.21131 0.13395
# Poissons Ratio (z) = 0.23019 0.55490
#
# Static dielectric constant tensor:
#      x y z
#    x 1.751810 0.000000 0.032680 
#    y 0.000000 1.743840 0.000000 
#    z 0.032680 0.000000 1.835250 
# 
# From -- ./inp_files/60375.got.cif
#   From: 2010.05.17/outbox.cif.g08.bks.cpg/sg12_31_cif.got.tgz:60375.got - 2010.06.03 13:09:07.
