data_PCOD9168287
_publ_section_title
;
Structure prediction by ZEFSAII (Michael W. Deem and Ramdas Pophale) SiO2 
 PCOD9168287
Probable space group: C 2/M
;
_chemical_formula_sum "Si O2"
_cell_formula_units_Z 52
_cell_length_a 29.219625
_cell_length_b 7.412727
_cell_length_c 13.150789
_cell_angle_alpha 90.000000
_cell_angle_beta 53.194037
_cell_angle_gamma 90.000000
_cell_volume 2280.643904
_symmetry_space_group_name_H-M "C 2/M"
_symmetry_group_IT_number 12
_symmetry_cell_setting 'monoclinic'
loop_
_space_group_symop_operation_xyz
x,y,z
-x,y,-z
-x,-y,-z
x,-y,z
1/2+x,1/2+y,z
1/2-x,1/2+y,-z
1/2-x,1/2-y,-z
1/2+x,1/2-y,z
loop_
_atom_site_type_symbol
_atom_site_label
_atom_site_fract_x
_atom_site_fract_y
_atom_site_fract_z
Si Si1 0.500000 0.753511 0.500000
Si Si2 0.702092 0.283012 0.402699
Si Si3 0.111413 0.777976 0.690873
Si Si4 0.629050 0.721284 0.304408
Si Si5 0.632772 0.279857 0.074573
Si Si6 0.330747 0.289952 0.188290
Si Si7 0.995648 0.796691 0.745829
O O1 0.566783 0.809227 0.402336
O O2 0.495654 0.688855 0.387569
O O3 0.703047 0.500000 0.403702
O O4 0.662768 0.221523 0.548021
O O5 0.671239 0.230092 0.338749
O O6 0.767103 0.221604 0.316850
O O7 0.125778 0.716186 0.785407
O O8 0.051261 0.715429 0.724501
O O9 0.111166 0.000000 0.689172
O O10 0.619186 0.500000 0.321187
O O11 0.652297 0.770795 0.161972
O O12 0.633263 0.500000 0.076546
O O13 0.566837 0.217167 0.152703
O O14 0.665941 0.216100 0.930638
O O15 0.345741 0.500000 0.158743
O O16 0.991743 0.000000 0.791856
#
# Coordination Sequence:
#
# PCOD9168287 Si02
#       7
#     4   8   8   8   8   8   8
#     4  10  13  20  40  66  95 116 135 182 241 274
#     4  10  19  31  48  70  90 116 156 196 223 254
#     4   9  17  28  44  67  92 118 150 190 230 265
#     4   9  15  24  42  67  93 115 144 188 232 267
#     4   8  16  27  41  65  94 122 147 179 229 280
#     4  10  20  33  45  62  96 131 153 177 218 274
#     4   9  14  22  40  66  93 116 142 184 236 274
#
# _framework density 22.80058
#
# number of rings (size 3 to 8) (size 9 to 14) (size 15 to 20)
#    0.000    2.769    1.538    2.769    0.000    1.231 
#    0.000    3.077    0.000    0.000    0.000    3.769 
#    0.000    0.000    0.000    0.000    0.000    0.000 
#
# Total GULP energy -144801.901946 kJ/mol
# GULP energy per Si atom -5569.303921 kJ/mol
# Density = 2.274868 g / cm^3
# Si number density = 22.800580 Si / 1000 Ang^3
#
#
#
# Elastic Constant Matrix: (Units=GPa)
#
#
# Indices 1 2 3 4 5 6 
#
# 1 75.3463 0.0083 -23.2060 0.0000 23.6956 0.0000
# 2 0.0083 71.2708 -2.5994 0.0000 7.4399 0.0000
# 3 -23.2060 -2.5994 27.0212 0.0000 21.6910 0.0000
# 4 0.0000 0.0000 0.0000 1.4616 0.0000 -19.7368
# 5 23.6956 7.4399 21.6910 0.0000 27.8879 0.0000
# 6 0.0000 0.0000 0.0000 -19.7368 0.0000 17.5074
#
#
#
# Elastic Compliance Matrix: (Units=1/GPa)
#
#
# Indices 1 2 3 4 5 6 
#
# 1 -0.007034 -0.004593 -0.032649 0.000000 0.032596 0.000000
# 2 -0.004593 0.013038 -0.008067 0.000000 0.006698 0.000000
# 3 -0.032649 -0.008067 -0.042072 0.000000 0.062616 0.000000
# 4 0.000000 0.000000 0.000000 -0.048103 0.000000 -0.054229
# 5 0.032596 0.006698 0.062616 0.000000 -0.042328 0.000000
# 6 0.000000 0.000000 0.000000 -0.054229 0.000000 -0.004016
#
#
# Mechanical properties :
#
#
# Convention : Reuss Voigt Hill
#
# Bulk Modulus (GPa) = -7.89356 13.56047 2.83345
# Shear Modulus (GPa) = -60.88206 22.66707 -19.10749
#
# Velocity S-wave (km/s) = -5.17300 3.15643 -2.89801
# Velocity P-wave (km/s) = 6.25695 4.38684 3.15476
#
# Compressibility (1/GPa) = -0.12668548
#
# Stress axis : x y z
#
# Youngs Moduli (GPa) = -142.16301 76.69857 -23.76883
#
# Poissons Ratio (x) = 0.35225 -0.77603
# Poissons Ratio (y) = -0.65290 -0.19174
# Poissons Ratio (z) = -4.64148 0.61873
#
# Static dielectric constant tensor:
#      x y z
#    x 1.805990 0.000000 0.018420 
#    y 0.000000 1.903480 0.000000 
#    z 0.018420 0.000000 1.815220 
# 
# From -- ./inp_files/174048.got.cif
#   From: 2010.05.17/outbox.cif.g08.bks.cpg/sg12_88_cif.got.tgz:174048.got - 2010.06.03 13:09:07.
