data_PCOD9168573
_publ_section_title
;
Structure prediction by ZEFSAII (Michael W. Deem and Ramdas Pophale) SiO2 
 PCOD9168573
Probable space group: C 2/M
;
_chemical_formula_sum "Si O2"
_cell_formula_units_Z 60
_cell_length_a 5.506680
_cell_length_b 19.337070
_cell_length_c 30.856217
_cell_angle_alpha 90.000000
_cell_angle_beta 105.527039
_cell_angle_gamma 90.000000
_cell_volume 3165.751456
_symmetry_space_group_name_H-M "C 2/M"
_symmetry_group_IT_number 12
_symmetry_cell_setting 'monoclinic'
loop_
_space_group_symop_operation_xyz
x,y,z
-x,y,-z
-x,-y,-z
x,-y,z
1/2+x,1/2+y,z
1/2-x,1/2+y,-z
1/2-x,1/2-y,-z
1/2+x,1/2-y,z
loop_
_atom_site_type_symbol
_atom_site_label
_atom_site_fract_x
_atom_site_fract_y
_atom_site_fract_z
Si Si1 0.500000 0.205666 0.000000
Si Si2 0.489901 0.081783 0.326598
Si Si3 0.648942 0.204988 0.099295
Si Si4 0.717988 0.615755 0.811990
Si Si5 0.056700 0.084603 0.371130
Si Si6 0.169808 0.394540 0.779869
Si Si7 0.785985 0.084203 0.523990
Si Si8 0.382308 0.254698 0.254876
O O1 0.426109 0.171232 0.950739
O O2 0.750000 0.250000 0.000000
O O3 0.773038 0.108948 0.347181
O O4 0.409473 0.089821 0.272982
O O5 0.268518 0.108948 0.347182
O O6 0.505157 0.000000 0.336767
O O7 0.404690 0.250000 0.103127
O O8 0.709339 0.150814 0.139560
O O9 0.449093 0.579474 0.802828
O O10 0.659999 0.675317 0.773328
O O11 0.959401 0.579475 0.802829
O O12 0.135353 0.103310 0.423568
O O13 0.052654 0.000000 0.368432
O O14 0.170794 0.309643 0.780525
O O15 0.500000 0.106989 0.500000
O O16 0.000000 0.106988 0.500000
O O17 0.783109 0.000000 0.522074
O O18 0.671740 0.250000 0.281164
#
# Coordination Sequence:
#
# PCOD9168573 Si02
#       8
#     4   8   8   8   8   8   8   8
#     4   8  16  24  34  52  76 106 135 152 179 222
#     4  10  19  30  41  53  75 107 138 165 190 225
#     4  10  16  25  38  55  79 107 133 159 185 226
#     4  10  17  26  40  57  76  99 129 162 194 229
#     4   9  17  28  40  54  74 102 133 160 190 227
#     4  10  18  27  39  56  73  98 135 165 193 224
#     4   9  15  23  37  56  74  92 121 160 191 218
#     4   8  14  23  35  52  71  90 118 151 184 220
#
# _framework density 18.952846000000001
#
# number of rings (size 3 to 8) (size 9 to 14) (size 15 to 20)
#    0.000    2.667    0.000    4.800    0.000    3.200 
#    0.000    0.000    0.000    0.000    0.000    0.000 
#    0.000    0.000    0.000    3.600    0.000  421.200 
#
# Total GULP energy -167029.494990 kJ/mol
# GULP energy per Si atom -5567.649833 kJ/mol
# Density = 1.890971 g / cm^3
# Si number density = 18.952846 Si / 1000 Ang^3
#
#
#
# Elastic Constant Matrix: (Units=GPa)
#
#
# Indices 1 2 3 4 5 6 
#
# 1 244.1781 10.2633 97.1753 0.0000 -5.6026 0.0000
# 2 10.2633 32.6427 -2.7390 0.0000 -0.9560 0.0000
# 3 97.1753 -2.7390 157.8703 0.0000 -0.7470 0.0000
# 4 0.0000 0.0000 0.0000 19.5148 0.0000 2.0385
# 5 -5.6026 -0.9560 -0.7470 0.0000 35.7606 0.0000
# 6 0.0000 0.0000 0.0000 2.0385 0.0000 -8.2147
#
#
#
# Elastic Compliance Matrix: (Units=1/GPa)
#
#
# Indices 1 2 3 4 5 6 
#
# 1 0.005576 -0.002022 -0.003464 0.000000 0.000747 0.000000
# 2 -0.002022 0.031437 0.001793 0.000000 0.000561 0.000000
# 3 -0.003464 0.001793 0.008496 0.000000 -0.000317 0.000000
# 4 0.000000 0.000000 0.000000 0.049948 0.000000 0.012395
# 5 0.000747 0.000561 -0.000317 0.000000 0.028089 0.000000
# 6 0.000000 0.000000 0.000000 0.012395 0.000000 -0.118658
#
#
# Mechanical properties :
#
#
# Convention : Reuss Voigt Hill
#
# Bulk Modulus (GPa) = 26.23077 71.56559 48.89818
# Shear Modulus (GPa) = 200.13560 31.41158 115.77359
#
# Velocity S-wave (km/s) = 10.28717 4.07548 7.82417
# Velocity P-wave (km/s) = 12.44874 7.74518 10.36723
#
# Compressibility (1/GPa) = 0.03812316
#
# Stress axis : x y z
#
# Youngs Moduli (GPa) = 179.34085 31.80938 117.70241
#
# Poissons Ratio (x) = 0.06432 0.40769
# Poissons Ratio (y) = 0.36261 -0.21100
# Poissons Ratio (z) = 0.62120 -0.05702
#
# Static dielectric constant tensor:
#      x y z
#    x 1.731750 0.000000 -0.007940 
#    y 0.000000 1.680890 0.000000 
#    z -0.007940 0.000000 1.623700 
# 
# From -- ./inp_files/355207.got.cif
#   From: 2010.05.17/outbox.cif.g08.bks.cpg/sg12_178_cif.got.tgz:355207.got - 2010.06.03 13:09:07.
