data_PCOD9168265
_publ_section_title
;
Structure prediction by ZEFSAII (Michael W. Deem and Ramdas Pophale) SiO2 
 PCOD9168265
Probable space group: P 21/M
;
_chemical_formula_sum "Si O2"
_cell_formula_units_Z 28
_cell_length_a 9.000000
_cell_length_b 9.000000
_cell_length_c 27.000000
_cell_angle_alpha 90.000000
_cell_angle_beta 140.000000
_cell_angle_gamma 90.000000
_cell_volume 1405.776502
_symmetry_space_group_name_H-M "P 21/M"
_symmetry_group_IT_number 11
_symmetry_cell_setting 'monoclinic'
loop_
_space_group_symop_operation_xyz
x,y,z
-x,1/2+y,-z
-x,-y,-z
x,1/2-y,z
loop_
_atom_site_type_symbol
_atom_site_label
_atom_site_fract_x
_atom_site_fract_y
_atom_site_fract_z
Si Si1 0.862425 0.072009 0.511002
Si Si2 0.008388 0.077880 0.806404
Si Si3 0.554415 0.073716 0.642052
Si Si4 0.988051 0.578257 0.079184
Si Si5 0.706144 0.924604 0.318415
Si Si6 0.481340 0.926848 0.071367
Si Si7 0.570427 0.924237 0.839825
O O1 0.858902 0.250000 0.504568
O O2 0.024807 0.039557 0.600100
O O3 0.604035 0.007843 0.438958
O O4 0.000000 0.000000 0.500000
O O5 0.041296 0.250000 0.799272
O O6 0.925983 0.080979 0.841997
O O7 0.264190 0.013792 0.877352
O O8 0.814023 0.015820 0.719903
O O9 0.563731 0.250000 0.633126
O O10 0.426204 0.060477 0.662691
O O11 0.005638 0.750000 0.065537
O O12 0.158479 0.459403 0.098479
O O13 0.727476 0.520343 0.005575
O O14 0.689945 0.750000 0.299813
O O15 0.583495 0.026850 0.246514
O O16 0.457715 0.750000 0.054541
O O17 0.484516 0.962091 0.130285
O O18 0.535952 0.750000 0.842443
#
# Coordination Sequence:
#
# PCOD9168265 Si02
#       7
#     4   4   4   4   4   4   4
#     4   9  17  28  46  76 110 141 173 216 267 314
#     4   9  19  36  59  82 109 144 179 220 271 325
#     4   9  16  31  53  79 109 140 174 215 268 320
#     4  11  21  39  61  81 108 139 179 228 274 320
#     4   9  17  32  53  76 108 143 176 219 270 317
#     4  11  23  39  57  80 109 144 183 221 271 326
#     4  12  24  37  55  81 110 143 184 226 270 319
#
# _framework density 19.917818
#
# number of rings (size 3 to 8) (size 9 to 14) (size 15 to 20)
#    0.000    2.000    1.429    4.286    0.000    2.857 
#    0.000    3.571    0.000    0.857    0.000    0.000 
#    0.000    0.000    0.000    0.000    0.000    0.000 
#
# Total GULP energy -156004.045634 kJ/mol
# GULP energy per Si atom -5571.573058 kJ/mol
# Density = 1.987248 g / cm^3
# Si number density = 19.917818 Si / 1000 Ang^3
#
#
#
# Elastic Constant Matrix: (Units=GPa)
#
#
# Indices 1 2 3 4 5 6 
#
# 1 18.6453 -10.7286 19.7237 0.0000 22.2926 0.0000
# 2 -10.7286 59.2938 24.5317 0.0000 -9.0275 0.0000
# 3 19.7237 24.5317 195.2475 0.0000 84.9055 0.0000
# 4 0.0000 0.0000 0.0000 28.1227 0.0000 -0.9207
# 5 22.2926 -9.0275 84.9055 0.0000 90.3333 0.0000
# 6 0.0000 0.0000 0.0000 -0.9207 0.0000 8.5230
#
#
#
# Elastic Compliance Matrix: (Units=1/GPa)
#
#
# Indices 1 2 3 4 5 6 
#
# 1 0.084932 0.014140 -0.003139 0.000000 -0.016596 0.000000
# 2 0.014140 0.022784 -0.006365 0.000000 0.004770 0.000000
# 3 -0.003139 -0.006365 0.010449 0.000000 -0.009683 0.000000
# 4 0.000000 0.000000 0.000000 0.035685 0.000000 0.003855
# 5 -0.016596 0.004770 -0.009683 0.000000 0.024743 0.000000
# 6 0.000000 0.000000 0.000000 0.003855 0.000000 0.117747
#
#
# Mechanical properties :
#
#
# Convention : Reuss Voigt Hill
#
# Bulk Modulus (GPa) = 7.84716 37.80444 22.82580
# Shear Modulus (GPa) = 15.17230 41.37312 28.27271
#
# Velocity S-wave (km/s) = 2.76297 4.56257 3.77167
# Velocity P-wave (km/s) = 3.75859 6.83940 5.51835
#
# Compressibility (1/GPa) = 0.12743464
#
# Stress axis : x y z
#
# Youngs Moduli (GPa) = 11.77412 43.89138 95.69998
#
# Poissons Ratio (x) = -0.62061 0.30044
# Poissons Ratio (y) = -0.16648 0.60918
# Poissons Ratio (z) = 0.03696 0.27939
#
# Static dielectric constant tensor:
#      x y z
#    x 1.851590 0.000000 0.034970 
#    y 0.000000 1.657810 0.000000 
#    z 0.034970 0.000000 1.729600 
# 
# From -- ./inp_files/70894.got.cif
#   From: 2010.05.17/outbox.ucp.g08.bks.cvg/sg11_36_cif.got.tgz:70894.got - 2010.06.11 11:38:39.
