data_PCOD9168535
_publ_section_title
;
Structure prediction by ZEFSAII (Michael W. Deem and Ramdas Pophale) SiO2 
 PCOD9168535
Probable space group: C 2/M
;
_chemical_formula_sum "Si O2"
_cell_formula_units_Z 56
_cell_length_a 30.204500
_cell_length_b 7.403320
_cell_length_c 14.166564
_cell_angle_alpha 90.000000
_cell_angle_beta 77.411510
_cell_angle_gamma 90.000000
_cell_volume 3091.683086
_symmetry_space_group_name_H-M "C 2/M"
_symmetry_group_IT_number 12
_symmetry_cell_setting 'monoclinic'
loop_
_space_group_symop_operation_xyz
x,y,z
-x,y,-z
-x,-y,-z
x,-y,z
1/2+x,1/2+y,z
1/2-x,1/2+y,-z
1/2-x,1/2-y,-z
1/2+x,1/2-y,z
loop_
_atom_site_type_symbol
_atom_site_label
_atom_site_fract_x
_atom_site_fract_y
_atom_site_fract_z
Si Si1 0.299947 0.711916 0.069169
Si Si2 0.034663 0.279952 0.773475
Si Si3 0.108864 0.717806 0.872464
Si Si4 0.446047 0.780783 0.919896
Si Si5 0.393915 0.779793 0.753678
Si Si6 0.200390 0.707232 0.144791
Si Si7 0.482814 0.779384 0.609830
O O1 0.293685 0.500000 0.052656
O O2 0.339908 0.731988 0.125835
O O3 0.251071 0.786188 0.124798
O O4 0.312232 0.792983 0.961169
O O5 0.034459 0.500000 0.770963
O O6 0.083767 0.222333 0.788482
O O7 0.015732 0.221839 0.680597
O O8 0.996896 0.226047 0.868887
O O9 0.107911 0.500000 0.873304
O O10 0.077623 0.782426 0.974149
O O11 0.415640 0.729784 0.844273
O O12 0.446979 0.000000 0.924509
O O13 0.342158 0.713856 0.778527
O O14 0.431317 0.723928 0.659542
O O15 0.392434 0.000000 0.752328
O O16 0.204610 0.500000 0.174555
O O17 0.500000 0.719734 0.500000
O O18 0.483015 0.000000 0.610117
#
# Coordination Sequence:
#
# PCOD9168535 Si02
#       7
#     8   8   8   8   8   8   8
#     4  10  19  26  36  55  80 105 133 168 197 219
#     4   8  14  21  33  55  76 100 132 158 186 231
#     4  10  16  24  38  54  76 107 137 158 183 227
#     4   8  12  19  33  53  72  94 130 163 177 207
#     4   8  12  20  36  55  74 100 129 153 187 234
#     4   9  16  28  41  54  74 105 140 164 186 225
#     4   8  13  21  34  58  87 100 111 155 212 240
#
# _framework density 18.113109999999999
#
# number of rings (size 3 to 8) (size 9 to 14) (size 15 to 20)
#    0.000    3.286    1.429    2.571    0.000    2.286 
#    0.000    0.000    0.000    1.714    0.000    1.000 
#    0.000    2.286    0.000    0.000    0.000    0.000 
#
# Total GULP energy -155965.847109 kJ/mol
# GULP energy per Si atom -5570.208825 kJ/mol
# Density = 1.807188 g / cm^3
# Si number density = 18.113110 Si / 1000 Ang^3
#
#
#
# Elastic Constant Matrix: (Units=GPa)
#
#
# Indices 1 2 3 4 5 6 
#
# 1 156.7954 -0.6920 66.9322 0.0000 -13.9739 0.0000
# 2 -0.6920 60.2070 2.5130 0.0000 0.1273 0.0000
# 3 66.9322 2.5130 97.7257 0.0000 -16.8589 0.0000
# 4 0.0000 0.0000 0.0000 -3.1033 0.0000 1.9167
# 5 -13.9739 0.1273 -16.8589 0.0000 16.9788 0.0000
# 6 0.0000 0.0000 0.0000 1.9167 0.0000 5.4071
#
#
#
# Elastic Compliance Matrix: (Units=1/GPa)
#
#
# Indices 1 2 3 4 5 6 
#
# 1 0.009054 0.000349 -0.005943 0.000000 0.001548 0.000000
# 2 0.000349 0.016647 -0.000771 0.000000 -0.000603 0.000000
# 3 -0.005943 -0.000771 0.016267 0.000000 0.011266 0.000000
# 4 0.000000 0.000000 0.000000 -0.264356 0.000000 0.093711
# 5 0.001548 -0.000603 0.011266 0.000000 0.071362 0.000000
# 6 0.000000 0.000000 0.000000 0.093711 0.000000 0.151723
#
#
# Mechanical properties :
#
#
# Convention : Reuss Voigt Hill
#
# Bulk Modulus (GPa) = 34.20339 50.24827 42.22583
# Shear Modulus (GPa) = 215.77253 20.25485 118.01369
#
# Velocity S-wave (km/s) = 10.92628 3.34764 8.08054
# Velocity P-wave (km/s) = 13.34550 6.53788 10.50824
#
# Compressibility (1/GPa) = 0.02923686
#
# Stress axis : x y z
#
# Youngs Moduli (GPa) = 110.44572 60.07148 61.47584
#
# Poissons Ratio (x) = -0.02096 0.36536
# Poissons Ratio (y) = -0.03853 0.04740
# Poissons Ratio (z) = 0.65639 0.04632
#
# Static dielectric constant tensor:
#      x y z
#    x 1.665140 0.000000 -0.020500 
#    y 0.000000 1.719550 0.000000 
#    z -0.020500 0.000000 1.591390 
# 
# From -- ./inp_files/247745.got.cif
#   From: 2010.05.17/outbox.cif.g08.bks.cpg/sg12_124_cif.got.tgz:247745.got - 2010.06.03 13:09:07.
