data_PCOD9168967
_publ_section_title
;
Structure prediction by ZEFSAII (Michael W. Deem and Ramdas Pophale) SiO2 
 PCOD9168967
Probable space group: C 2/M
;
_chemical_formula_sum "Si O2"
_cell_formula_units_Z 48
_cell_length_a 18.076817
_cell_length_b 13.870124
_cell_length_c 16.980936
_cell_angle_alpha 90.000000
_cell_angle_beta 153.268121
_cell_angle_gamma 90.000000
_cell_volume 1915.132493
_symmetry_space_group_name_H-M "C 2/M"
_symmetry_group_IT_number 12
_symmetry_cell_setting 'monoclinic'
loop_
_space_group_symop_operation_xyz
x,y,z
-x,y,-z
-x,-y,-z
x,-y,z
1/2+x,1/2+y,z
1/2-x,1/2+y,-z
1/2-x,1/2-y,-z
1/2+x,1/2-y,z
loop_
_atom_site_type_symbol
_atom_site_label
_atom_site_fract_x
_atom_site_fract_y
_atom_site_fract_z
Si Si1 0.090177 0.602610 0.211999
Si Si2 0.935916 0.648196 0.633482
Si Si3 0.593982 0.678401 0.851716
Si Si4 0.710050 0.397965 0.809381
Si Si5 0.644577 0.677121 0.243210
Si Si6 0.847624 0.320708 0.296376
O O1 0.168403 0.500000 0.263701
O O2 0.068887 0.600771 0.286212
O O3 0.168392 0.705727 0.266145
O O4 0.908268 0.605428 0.001551
O O5 0.779089 0.631307 0.429928
O O6 0.949166 0.760791 0.671185
O O7 0.095817 0.629116 0.731026
O O8 0.645649 0.600337 0.838196
O O9 0.527700 0.658484 0.876062
O O10 0.750000 0.750000 0.000000
O O11 0.657587 0.500000 0.723253
O O12 0.658567 0.294527 0.726435
O O13 0.689489 0.648297 0.196972
O O14 0.000000 0.336786 0.500000
#
# Coordination Sequence:
#
# PCOD9168967 Si02
#       6
#     8   8   8   8   8   8
#     4  10  19  32  52  78 104 133 171 216 260 302
#     4   9  18  35  53  72 101 136 176 212 248 302
#     4  10  16  31  52  72  98 132 174 211 242 294
#     4  10  20  33  50  77 110 138 166 211 261 309
#     4  10  19  34  53  77 102 134 175 211 251 308
#     4   9  20  35  52  73 104 142 173 208 254 310
#
# _framework density 25.063538999999999
#
# number of rings (size 3 to 8) (size 9 to 14) (size 15 to 20)
#    0.000    2.333    3.333    2.000    0.000    1.667 
#    0.000   14.167    0.000    5.500    0.000    2.333 
#    0.000    0.000    0.000    0.167    0.000    0.000 
#
# Total GULP energy -133901.787593 kJ/mol
# GULP energy per Si atom -5579.241150 kJ/mol
# Density = 2.500649 g / cm^3
# Si number density = 25.063539 Si / 1000 Ang^3
#
#
#
# Elastic Constant Matrix: (Units=GPa)
#
#
# Indices 1 2 3 4 5 6 
#
# 1 227.8217 -4.0606 9.6664 -0.0005 25.6417 0.0014
# 2 -4.0606 37.1838 -11.1846 0.0014 6.3383 0.0015
# 3 9.6664 -11.1846 54.3348 -0.0001 14.8629 0.0018
# 4 -0.0005 0.0014 -0.0001 -74.5662 -0.0011 91.9504
# 5 25.6417 6.3383 14.8629 -0.0011 31.9524 0.0012
# 6 0.0014 0.0015 0.0018 91.9504 0.0012 -127.4793
#
#
#
# Elastic Compliance Matrix: (Units=1/GPa)
#
#
# Indices 1 2 3 4 5 6 
#
# 1 0.004900 0.001517 0.000686 0.000001 -0.004552 0.000001
# 2 0.001517 0.032001 0.009610 0.000011 -0.012036 0.000008
# 3 0.000686 0.009610 0.023984 0.000007 -0.013613 0.000005
# 4 0.000001 0.000011 0.000007 -0.121321 -0.000007 -0.087508
# 5 -0.004552 -0.012036 -0.013613 -0.000007 0.043669 -0.000005
# 6 0.000001 0.000008 0.000005 -0.087508 -0.000005 -0.070964
#
#
# Mechanical properties :
#
#
# Convention : Reuss Voigt Hill
#
# Bulk Modulus (GPa) = 11.83285 34.24253 23.03769
# Shear Modulus (GPa) = -60.10640 -12.35733 -36.23187
#
# Velocity S-wave (km/s) = -4.90241 -2.22286 -3.80623
# Velocity P-wave (km/s) = 5.22623 2.66530 3.17881
#
# Compressibility (1/GPa) = 0.08451047
#
# Stress axis : x y z
#
# Youngs Moduli (GPa) = 204.09549 31.24887 41.69398
#
# Poissons Ratio (x) = -0.04741 -0.02859
# Poissons Ratio (y) = -0.30966 -0.40066
# Poissons Ratio (z) = -0.13997 -0.30029
#
# Static dielectric constant tensor:
#      x y z
#    x 2.047950 0.000000 0.020410 
#    y 0.000000 2.123750 0.000000 
#    z 0.020410 0.000000 1.975130 
# 
# From -- ./inp_files/278616.got.cif
#   From: 2010.05.17/outbox.cif.g08.bks.cpg/sg12_140_cif.got.tgz:278616.got - 2010.06.03 13:09:07.
