data_PCOD9168937
_publ_section_title
;
Structure prediction by ZEFSAII (Michael W. Deem and Ramdas Pophale) SiO2 
 PCOD9168937
Probable space group: C 2/M
;
_chemical_formula_sum "Si O2"
_cell_formula_units_Z 28
_cell_length_a 14.226187
_cell_length_b 10.963860
_cell_length_c 9.817019
_cell_angle_alpha 90.000000
_cell_angle_beta 44.849607
_cell_angle_gamma 90.000000
_cell_volume 1079.875459
_symmetry_space_group_name_H-M "C 2/M"
_symmetry_group_IT_number 12
_symmetry_cell_setting 'monoclinic'
loop_
_space_group_symop_operation_xyz
x,y,z
-x,y,-z
-x,-y,-z
x,-y,z
1/2+x,1/2+y,z
1/2-x,1/2+y,-z
1/2-x,1/2-y,-z
1/2+x,1/2-y,z
loop_
_atom_site_type_symbol
_atom_site_label
_atom_site_fract_x
_atom_site_fract_y
_atom_site_fract_z
Si Si1 0.962184 0.227995 0.316841
Si Si2 0.997462 0.500000 0.836076
Si Si3 0.646055 0.000000 0.275674
Si Si4 0.000000 0.775675 0.000000
Si Si5 0.786963 0.232558 0.749152
O O1 0.854193 0.191501 0.539460
O O2 0.867645 0.297991 0.084623
O O3 0.957126 0.157624 0.180774
O O4 0.105624 0.207434 0.242337
O O5 0.863726 0.500000 0.879162
O O6 0.058947 0.628556 0.709391
O O7 0.000000 0.500000 0.000000
O O8 0.500000 0.000000 0.500000
O O9 0.714950 0.121577 0.250300
#
# Coordination Sequence:
#
# PCOD9168937 Si02
#       5
#     8   4   4   4   8
#     4  10  19  35  53  75 103 137 173 209 246 303
#     4  10  16  30  56  78  88 124 188 214 230 288
#     4  10  16  35  58  69  93 137 175 213 240 301
#     4  12  22  30  50  82 112 132 160 218 260 302
#     4  10  20  35  53  76 102 138 174 205 256 299
#
# _framework density 25.928916999999998
#
# number of rings (size 3 to 8) (size 9 to 14) (size 15 to 20)
#    0.000    1.714    7.143    1.714    0.000    0.571 
#    0.000    0.000    0.000    0.000    0.000    4.000 
#    0.000    0.000    0.000    0.000    0.000    0.000 
#
# Total GULP energy -78012.834607 kJ/mol
# GULP energy per Si atom -5572.345329 kJ/mol
# Density = 2.586990 g / cm^3
# Si number density = 25.928917 Si / 1000 Ang^3
#
#
#
# Elastic Constant Matrix: (Units=GPa)
#
#
# Indices 1 2 3 4 5 6 
#
# 1 197.9596 13.7555 100.4920 0.0000 7.0714 0.0000
# 2 13.7555 48.7971 -1.0100 0.0000 -7.1636 0.0000
# 3 100.4920 -1.0100 167.5606 0.0000 49.9427 0.0000
# 4 0.0000 0.0000 0.0000 8.3532 0.0000 -1.1725
# 5 7.0714 -7.1636 49.9427 0.0000 67.9177 0.0000
# 6 0.0000 0.0000 0.0000 -1.1725 0.0000 33.7688
#
#
#
# Elastic Compliance Matrix: (Units=1/GPa)
#
#
# Indices 1 2 3 4 5 6 
#
# 1 0.007993 -0.001902 -0.005760 0.000000 0.003203 0.000000
# 2 -0.001902 0.021328 0.000691 0.000000 0.001939 0.000000
# 3 -0.005760 0.000691 0.011816 0.000000 -0.008016 0.000000
# 4 0.000000 0.000000 0.000000 0.120302 0.000000 0.004177
# 5 0.003203 0.001939 -0.008016 0.000000 0.020489 0.000000
# 6 0.000000 0.000000 0.000000 0.004177 0.000000 0.029758
#
#
# Mechanical properties :
#
#
# Convention : Reuss Voigt Hill
#
# Bulk Modulus (GPa) = 36.77032 71.19915 53.98474
# Shear Modulus (GPa) = 21.30444 42.07992 31.69218
#
# Velocity S-wave (km/s) = 2.86955 4.03289 3.49989
# Velocity P-wave (km/s) = 5.01907 7.01460 6.09900
#
# Compressibility (1/GPa) = 0.02719585
#
# Stress axis : x y z
#
# Youngs Moduli (GPa) = 125.10570 46.88620 84.63268
#
# Poissons Ratio (x) = 0.08919 0.48747
# Poissons Ratio (y) = 0.23799 -0.05852
# Poissons Ratio (z) = 0.72059 -0.03242
#
# Static dielectric constant tensor:
#      x y z
#    x 2.084990 0.000000 -0.025340 
#    y 0.000000 2.137960 0.000000 
#    z -0.025340 0.000000 2.156960 
# 
# From -- ./inp_files/44881.got.cif
#   From: 2010.05.17/outbox.cif.g08.bks.cpg/sg12_23_cif.got.tgz:44881.got - 2010.06.03 13:09:07.
