data_PCOD9168947
_publ_section_title
;
Structure prediction by ZEFSAII (Michael W. Deem and Ramdas Pophale) SiO2 
 PCOD9168947
Probable space group: C 2/M
;
_chemical_formula_sum "Si O2"
_cell_formula_units_Z 48
_cell_length_a 18.392824
_cell_length_b 17.067865
_cell_length_c 26.154038
_cell_angle_alpha 90.000000
_cell_angle_beta 164.015191
_cell_angle_gamma 90.000000
_cell_volume 2261.011012
_symmetry_space_group_name_H-M "C 2/M"
_symmetry_group_IT_number 12
_symmetry_cell_setting 'monoclinic'
loop_
_space_group_symop_operation_xyz
x,y,z
-x,y,-z
-x,-y,-z
x,-y,z
1/2+x,1/2+y,z
1/2-x,1/2+y,-z
1/2-x,1/2-y,-z
1/2+x,1/2-y,z
loop_
_atom_site_type_symbol
_atom_site_label
_atom_site_fract_x
_atom_site_fract_y
_atom_site_fract_z
Si Si1 0.714441 0.826888 0.833478
Si Si2 0.679315 0.000000 0.780382
Si Si3 0.201130 0.833168 0.275157
Si Si4 0.572664 0.713503 0.652709
Si Si5 0.990832 0.705549 0.784380
Si Si6 0.275629 0.000000 0.305399
Si Si7 0.774204 0.410741 0.718223
O O1 0.578464 0.753372 0.712171
O O2 0.712691 0.807684 0.892252
O O3 0.593749 0.915176 0.745138
O O4 0.000000 0.831473 0.000000
O O5 0.603338 0.000000 0.669397
O O6 0.000000 0.000000 0.000000
O O7 0.500000 0.841317 0.500000
O O8 0.272156 0.777322 0.276289
O O9 0.023257 0.788178 0.195979
O O10 0.114349 0.920182 0.202168
O O11 0.278278 0.704171 0.431671
O O12 0.717843 0.633099 0.733972
O O13 0.963539 0.639958 0.809677
O O14 0.500000 0.000000 0.500000
O O15 0.500000 0.410102 0.500000
O O16 0.858320 0.500000 0.781813
#
# Coordination Sequence:
#
# PCOD9168947 Si02
#       7
#     8   4   8   8   8   4   8
#     4  11  22  35  51  71 110 147 179 213 276 332
#     4  10  22  36  52  76 113 148 178 219 282 332
#     4   8  15  28  50  78 103 129 171 220 268 304
#     4   9  16  32  53  75 101 134 171 219 269 318
#     4   9  18  31  53  79 102 131 174 230 266 321
#     4  10  16  30  58  80 105 140 181 224 269 327
#     4   8  15  29  52  78 102 125 166 220 273 309
#
# _framework density 21.229441000000001
#
# number of rings (size 3 to 8) (size 9 to 14) (size 15 to 20)
#    0.000    2.833    1.667    2.500    1.167    0.000 
#    0.000    3.333    1.833    0.500    0.000    0.000 
#    0.000    0.000    0.000    0.000    0.000    0.000 
#
# Total GULP energy -133791.916651 kJ/mol
# GULP energy per Si atom -5574.663194 kJ/mol
# Density = 2.118112 g / cm^3
# Si number density = 21.229441 Si / 1000 Ang^3
#
#
#
# Elastic Constant Matrix: (Units=GPa)
#
#
# Indices 1 2 3 4 5 6 
#
# 1 113.5160 50.2481 5.7216 -0.0592 9.7371 0.0288
# 2 50.2481 171.1416 8.3623 0.0555 9.7415 -0.0355
# 3 5.7216 8.3623 48.1270 0.1043 10.2215 -0.0807
# 4 -0.0592 0.0555 0.1043 18.2328 -0.0186 0.4950
# 5 9.7371 9.7415 10.2215 -0.0186 33.2192 0.0195
# 6 0.0288 -0.0355 -0.0807 0.4950 0.0195 21.6982
#
#
#
# Elastic Compliance Matrix: (Units=1/GPa)
#
#
# Indices 1 2 3 4 5 6 
#
# 1 0.010279 -0.002886 -0.000279 0.000042 -0.002081 -0.000018
# 2 -0.002886 0.006775 -0.000633 -0.000028 -0.000946 0.000014
# 3 -0.000279 -0.000633 0.022324 -0.000136 -0.006602 0.000091
# 4 0.000042 -0.000028 -0.000136 0.054881 0.000069 -0.001253
# 5 -0.002081 -0.000946 -0.006602 0.000069 0.033022 -0.000055
# 6 -0.000018 0.000014 0.000091 -0.001253 -0.000055 0.046116
#
#
# Mechanical properties :
#
#
# Convention : Reuss Voigt Hill
#
# Bulk Modulus (GPa) = 31.46340 51.27207 41.36773
# Shear Modulus (GPa) = 26.09769 32.52688 29.31228
#
# Velocity S-wave (km/s) = 3.50996 3.91853 3.71986
# Velocity P-wave (km/s) = 5.59279 6.68408 6.16264
#
# Compressibility (1/GPa) = 0.03178297
#
# Stress axis : x y z
#
# Youngs Moduli (GPa) = 97.28182 147.59561 44.79461
#
# Poissons Ratio (x) = 0.42597 0.01249
# Poissons Ratio (y) = 0.28076 0.02836
# Poissons Ratio (z) = 0.02712 0.09344
#
# Static dielectric constant tensor:
#      x y z
#    x 1.776560 0.000090 -0.010430 
#    y 0.000090 1.782240 0.000130 
#    z -0.010430 0.000130 1.931430 
# 
# From -- ./inp_files/364369.got.cif
#   From: 2010.05.17/outbox.cif.g08.bks.cpg/sg12_183_cif.got.tgz:364369.got - 2010.06.03 13:09:07.
