data_PCOD9168968
_publ_section_title
;
Structure prediction by ZEFSAII (Michael W. Deem and Ramdas Pophale) SiO2 
 PCOD9168968
Probable space group: C 2/M
;
_chemical_formula_sum "Si O2"
_cell_formula_units_Z 28
_cell_length_a 9.108595
_cell_length_b 28.795111
_cell_length_c 5.668344
_cell_angle_alpha 90.000000
_cell_angle_beta 125.893136
_cell_angle_gamma 90.000000
_cell_volume 1204.401673
_symmetry_space_group_name_H-M "C 2/M"
_symmetry_group_IT_number 12
_symmetry_cell_setting 'monoclinic'
loop_
_space_group_symop_operation_xyz
x,y,z
-x,y,-z
-x,-y,-z
x,-y,z
1/2+x,1/2+y,z
1/2-x,1/2+y,-z
1/2-x,1/2-y,-z
1/2+x,1/2-y,z
loop_
_atom_site_type_symbol
_atom_site_label
_atom_site_fract_x
_atom_site_fract_y
_atom_site_fract_z
Si Si1 0.118711 0.500000 0.857250
Si Si2 0.780654 0.811473 0.645602
Si Si3 0.500000 0.257000 0.500000
Si Si4 0.500000 0.159697 0.000000
Si Si5 0.192064 0.599622 0.819296
O O1 0.236167 0.547158 0.938013
O O2 0.000000 0.500000 0.500000
O O3 0.000000 0.500000 0.000000
O O4 0.676375 0.775156 0.714340
O O5 0.951912 0.790049 0.676287
O O6 0.802521 0.863381 0.766598
O O7 0.621125 0.813286 0.298044
O O8 0.354857 0.126989 0.989647
O O9 0.000000 0.596658 0.500000
#
# Coordination Sequence:
#
# PCOD9168968 Si02
#       5
#     4   8   4   4   8
#     4  10  18  28  52  85 111 143 179 226 285 328
#     4  10  20  35  50  75 106 139 176 226 265 325
#     4  10  20  36  50  72 108 140 178 220 276 320
#     4  10  16  31  52  74 104 136 170 223 262 320
#     4   9  17  31  48  75 110 132 172 224 273 317
#
# _framework density 23.248059999999999
#
# number of rings (size 3 to 8) (size 9 to 14) (size 15 to 20)
#    0.000    2.286    5.714    0.000    0.000    1.143 
#    0.000    0.000    0.000    0.857    0.000    2.000 
#    0.000    0.000    0.000    0.000    0.000    0.000 
#
# Total GULP energy -77994.699140 kJ/mol
# GULP energy per Si atom -5571.049939 kJ/mol
# Density = 2.319515 g / cm^3
# Si number density = 23.248060 Si / 1000 Ang^3
#
#
#
# Elastic Constant Matrix: (Units=GPa)
#
#
# Indices 1 2 3 4 5 6 
#
# 1 118.2415 76.2066 34.1678 0.0000 -15.1871 0.0000
# 2 76.2066 207.6129 33.6234 0.0000 -12.4208 0.0000
# 3 34.1678 33.6234 74.8544 0.0000 -11.8345 0.0000
# 4 0.0000 0.0000 0.0000 12.1756 0.0000 -9.8868
# 5 -15.1871 -12.4208 -11.8345 0.0000 30.9750 0.0000
# 6 0.0000 0.0000 0.0000 -9.8868 0.0000 26.0618
#
#
#
# Elastic Compliance Matrix: (Units=1/GPa)
#
#
# Indices 1 2 3 4 5 6 
#
# 1 0.012280 -0.003764 -0.003407 0.000000 0.003210 0.000000
# 2 -0.003764 0.006395 -0.001108 0.000000 0.000296 0.000000
# 3 -0.003407 -0.001108 0.016047 0.000000 0.004016 0.000000
# 4 0.000000 0.000000 0.000000 0.118695 0.000000 0.045028
# 5 0.003210 0.000296 0.004016 0.000000 0.035511 0.000000
# 6 0.000000 0.000000 0.000000 0.045028 0.000000 0.055452
#
#
# Mechanical properties :
#
#
# Convention : Reuss Voigt Hill
#
# Bulk Modulus (GPa) = 55.05166 76.52271 65.78718
# Shear Modulus (GPa) = 18.72714 30.95653 24.84184
#
# Velocity S-wave (km/s) = 2.84127 3.65303 3.27242
# Velocity P-wave (km/s) = 5.87327 7.12601 6.52975
#
# Compressibility (1/GPa) = 0.01816476
#
# Stress axis : x y z
#
# Youngs Moduli (GPa) = 81.43506 156.36592 62.31639
#
# Poissons Ratio (x) = 0.58850 0.21232
# Poissons Ratio (y) = 0.30649 0.06904
# Poissons Ratio (z) = 0.27746 0.17325
#
# Static dielectric constant tensor:
#      x y z
#    x 0.855380 0.000000 2.731860 
#    y 0.000000 1.949120 0.000000 
#    z 2.731860 0.000000 -5.128460 
# 
# From -- ./inp_files/3325.got.cif
#   From: 2010.05.17/outbox.cif.g08.bks.cpg/sg12_2_cif.got.tgz:3325.got - 2010.06.03 13:09:07.
