data_PCOD9168795
_publ_section_title
;
Structure prediction by ZEFSAII (Michael W. Deem and Ramdas Pophale) SiO2 
 PCOD9168795
Probable space group: C 2/M
;
_chemical_formula_sum "Si O2"
_cell_formula_units_Z 44
_cell_length_a 10.461081
_cell_length_b 20.898411
_cell_length_c 8.347754
_cell_angle_alpha 90.000000
_cell_angle_beta 74.429408
_cell_angle_gamma 90.000000
_cell_volume 1758.009608
_symmetry_space_group_name_H-M "C 2/M"
_symmetry_group_IT_number 12
_symmetry_cell_setting 'monoclinic'
loop_
_space_group_symop_operation_xyz
x,y,z
-x,y,-z
-x,-y,-z
x,-y,z
1/2+x,1/2+y,z
1/2-x,1/2+y,-z
1/2-x,1/2-y,-z
1/2+x,1/2-y,z
loop_
_atom_site_type_symbol
_atom_site_label
_atom_site_fract_x
_atom_site_fract_y
_atom_site_fract_z
Si Si1 0.728506 0.362502 0.595409
Si Si2 0.092826 0.362662 0.144584
Si Si3 0.613522 0.000000 0.174367
Si Si4 0.348023 0.500000 0.320259
Si Si5 0.763527 0.864289 0.763352
Si Si6 0.499724 0.738731 0.682559
Si Si7 0.142760 0.000000 0.160077
O O1 0.814930 0.364320 0.727286
O O2 0.647664 0.429069 0.608117
O O3 0.793548 0.356194 0.397905
O O4 0.630885 0.303193 0.655497
O O5 0.032993 0.434950 0.172142
O O6 0.016367 0.296595 0.190872
O O7 0.172177 0.359348 0.951433
O O8 0.692091 0.000000 0.315502
O O9 0.746709 0.000000 0.018232
O O10 0.485890 0.500000 0.173302
O O11 0.877018 0.810343 0.740133
O O12 0.826293 0.935028 0.755968
O O13 0.500000 0.763610 0.500000
#
# Coordination Sequence:
#
# PCOD9168795 Si02
#       7
#     8   8   4   4   8   8   4
#     4  10  21  35  57  85 113 147 181 220 279 336
#     4  10  21  39  56  79 115 144 183 234 271 325
#     4   8  19  32  53  82 105 143 189 223 274 326
#     4  10  16  30  55  83 115 142 170 221 286 337
#     4  10  20  33  53  82 113 147 179 217 278 333
#     4  10  21  36  55  81 110 148 188 222 273 328
#     4  10  16  28  53  81 116 141 170 226 275 339
#
# _framework density 25.028303000000001
#
# number of rings (size 3 to 8) (size 9 to 14) (size 15 to 20)
#    0.000    2.182    1.818    1.364    0.000    4.364 
#    0.000    4.091    0.000    0.000    0.000    2.545 
#    0.000   14.545    0.000    0.000    0.000    0.000 
#
# Total GULP energy -122897.968025 kJ/mol
# GULP energy per Si atom -5586.271274 kJ/mol
# Density = 2.497134 g / cm^3
# Si number density = 25.028303 Si / 1000 Ang^3
#
#
#
# Elastic Constant Matrix: (Units=GPa)
#
#
# Indices 1 2 3 4 5 6 
#
# 1 50.8815 56.9677 41.0623 0.0000 9.5928 0.0000
# 2 56.9677 208.2928 98.8663 0.0000 -16.3225 0.0000
# 3 41.0623 98.8663 154.7465 0.0000 5.4637 0.0000
# 4 0.0000 0.0000 0.0000 -4.8649 0.0000 -4.0009
# 5 9.5928 -16.3225 5.4637 0.0000 38.1108 0.0000
# 6 0.0000 0.0000 0.0000 -4.0009 0.0000 33.0353
#
#
#
# Elastic Compliance Matrix: (Units=1/GPa)
#
#
# Indices 1 2 3 4 5 6 
#
# 1 0.034301 -0.008905 -0.002988 0.000000 -0.012019 0.000000
# 2 -0.008905 0.009731 -0.004102 0.000000 0.006997 0.000000
# 3 -0.002988 -0.004102 0.009961 0.000000 -0.002433 0.000000
# 4 0.000000 0.000000 0.000000 -0.186934 0.000000 -0.022640
# 5 -0.012019 0.006997 -0.002433 0.000000 0.032610 0.000000
# 6 0.000000 0.000000 0.000000 -0.022640 0.000000 0.027529
#
#
# Mechanical properties :
#
#
# Convention : Reuss Voigt Hill
#
# Bulk Modulus (GPa) = 45.44465 89.74596 67.59530
# Shear Modulus (GPa) = -149.35773 27.72452 -60.81661
#
# Velocity S-wave (km/s) = -7.73337 3.33186 -4.93476
# Velocity P-wave (km/s) = 7.84496 7.12302 2.32444
#
# Compressibility (1/GPa) = 0.02200479
#
# Stress axis : x y z
#
# Youngs Moduli (GPa) = 29.15365 102.75917 100.38680
#
# Poissons Ratio (x) = 0.91504 0.29999
# Poissons Ratio (y) = 0.25961 0.41174
# Poissons Ratio (z) = 0.08712 0.42147
#
# Static dielectric constant tensor:
#      x y z
#    x 2.039670 0.000000 0.033340 
#    y 0.000000 1.965780 0.000000 
#    z 0.033340 0.000000 1.972280 
# 
# From -- ./inp_files/49342.got.cif
#   From: 2010.05.17/outbox.cif.g08.bks.cpg/sg12_25_cif.got.tgz:49342.got - 2010.06.03 13:09:07.
