data_PCOD9168696
_publ_section_title
;
Structure prediction by ZEFSAII (Michael W. Deem and Ramdas Pophale) SiO2 
 PCOD9168696
Probable space group: C 2/M
;
_chemical_formula_sum "Si O2"
_cell_formula_units_Z 56
_cell_length_a 5.542982
_cell_length_b 19.063557
_cell_length_c 29.304652
_cell_angle_alpha 90.000000
_cell_angle_beta 118.586781
_cell_angle_gamma 90.000000
_cell_volume 2719.096893
_symmetry_space_group_name_H-M "C 2/M"
_symmetry_group_IT_number 12
_symmetry_cell_setting 'monoclinic'
loop_
_space_group_symop_operation_xyz
x,y,z
-x,y,-z
-x,-y,-z
x,-y,z
1/2+x,1/2+y,z
1/2-x,1/2+y,-z
1/2-x,1/2-y,-z
1/2+x,1/2-y,z
loop_
_atom_site_type_symbol
_atom_site_label
_atom_site_fract_x
_atom_site_fract_y
_atom_site_fract_z
Si Si1 0.001650 0.102454 0.278505
Si Si2 0.413171 0.884182 0.242370
Si Si3 0.196551 0.169196 0.978870
Si Si4 0.396862 0.293964 0.859322
Si Si5 0.716139 0.415801 0.560113
Si Si6 0.177933 0.080842 0.397860
Si Si7 0.643056 0.245415 0.321490
O O1 0.211715 0.076841 0.259116
O O2 0.092960 0.081008 0.337396
O O3 0.036944 0.187786 0.282092
O O4 0.684251 0.081925 0.244886
O O5 0.228829 0.849778 0.186788
O O6 0.550829 0.823510 0.286390
O O7 0.039750 0.173162 0.916812
O O8 0.500000 0.137489 0.000000
O O9 0.250000 0.250000 0.000000
O O10 0.000000 0.137503 0.000000
O O11 0.637709 0.251459 0.854637
O O12 0.500000 0.406210 0.500000
O O13 0.761841 0.500000 0.570596
O O14 0.565890 0.389308 0.592525
O O15 0.016407 0.387012 0.573998
O O16 0.205628 0.000000 0.416607
O O17 0.469042 0.249594 0.351590
#
# Coordination Sequence:
#
# PCOD9168696 Si02
#       7
#     8   8   8   8   8   8   8
#     4  10  18  30  41  58  90 107 140 181 204 244
#     4  10  19  28  40  60  79 111 145 186 212 240
#     4  10  16  27  33  51  74 104 141 185 200 252
#     4  12  18  25  41  54  78 109 147 185 218 245
#     4   9  17  30  47  68  92 112 137 170 201 246
#     4  10  19  30  47  68  89 120 142 159 208 258
#     4   8  14  25  37  52  77  99 131 171 204 226
#
# _framework density 20.595072999999999
#
# number of rings (size 3 to 8) (size 9 to 14) (size 15 to 20)
#    0.000    2.143    2.857    4.714    0.000    1.714 
#    0.000    0.000    0.000    0.000    0.000    0.000 
#    0.000  102.857    0.000    0.000    0.000   14.286 
#
# Total GULP energy -156062.384699 kJ/mol
# GULP energy per Si atom -5573.656596 kJ/mol
# Density = 2.054820 g / cm^3
# Si number density = 20.595073 Si / 1000 Ang^3
#
#
#
# Elastic Constant Matrix: (Units=GPa)
#
#
# Indices 1 2 3 4 5 6 
#
# 1 207.0836 7.2796 16.2931 0.0000 0.3801 0.0000
# 2 7.2796 43.5985 -5.8094 0.0000 -3.4867 0.0000
# 3 16.2931 -5.8094 47.7529 0.0000 -1.0948 0.0000
# 4 0.0000 0.0000 0.0000 17.1678 0.0000 -3.6206
# 5 0.3801 -3.4867 -1.0948 0.0000 35.1805 0.0000
# 6 0.0000 0.0000 0.0000 -3.6206 0.0000 -13.7363
#
#
#
# Elastic Compliance Matrix: (Units=1/GPa)
#
#
# Indices 1 2 3 4 5 6 
#
# 1 0.005014 -0.001101 -0.001850 0.000000 -0.000221 0.000000
# 2 -0.001101 0.023761 0.003323 0.000000 0.002470 0.000000
# 3 -0.001850 0.003323 0.022000 0.000000 0.001034 0.000000
# 4 0.000000 0.000000 0.000000 0.055181 0.000000 -0.014545
# 5 -0.000221 0.002470 0.001034 0.000000 0.028704 0.000000
# 6 0.000000 0.000000 0.000000 -0.014545 0.000000 -0.068966
#
#
# Mechanical properties :
#
#
# Convention : Reuss Voigt Hill
#
# Bulk Modulus (GPa) = 19.41038 37.10682 28.25860
# Shear Modulus (GPa) = 60.88472 26.43386 43.65929
#
# Velocity S-wave (km/s) = 5.44306 3.58649 4.60922
# Velocity P-wave (km/s) = 6.99627 5.93355 6.48671
#
# Compressibility (1/GPa) = 0.05151883
#
# Stress axis : x y z
#
# Youngs Moduli (GPa) = 199.45691 42.08617 45.45410
#
# Poissons Ratio (x) = 0.04635 0.08407
# Poissons Ratio (y) = 0.21965 -0.15104
# Poissons Ratio (z) = 0.36893 -0.13985
#
# Static dielectric constant tensor:
#      x y z
#    x 1.869530 0.000000 -0.013570 
#    y 0.000000 1.764760 0.000000 
#    z -0.013570 0.000000 1.675080 
# 
# From -- ./inp_files/298225.got.cif
#   From: 2010.05.17/outbox.cif.g08.bks.cpg/sg12_150_cif.got.tgz:298225.got - 2010.06.03 13:09:07.
