data_PCOD9168847
_publ_section_title
;
Structure prediction by ZEFSAII (Michael W. Deem and Ramdas Pophale) SiO2 
 PCOD9168847
Probable space group: C 2/M
;
_chemical_formula_sum "Si O2"
_cell_formula_units_Z 48
_cell_length_a 21.107252
_cell_length_b 13.854717
_cell_length_c 9.084131
_cell_angle_alpha 90.000000
_cell_angle_beta 65.683210
_cell_angle_gamma 90.000000
_cell_volume 2420.838643
_symmetry_space_group_name_H-M "C 2/M"
_symmetry_group_IT_number 12
_symmetry_cell_setting 'monoclinic'
loop_
_space_group_symop_operation_xyz
x,y,z
-x,y,-z
-x,-y,-z
x,-y,z
1/2+x,1/2+y,z
1/2-x,1/2+y,-z
1/2-x,1/2-y,-z
1/2+x,1/2-y,z
loop_
_atom_site_type_symbol
_atom_site_label
_atom_site_fract_x
_atom_site_fract_y
_atom_site_fract_z
Si Si1 0.273852 0.295971 0.760255
Si Si2 0.685247 0.500000 0.641704
Si Si3 0.267390 0.000000 0.281757
Si Si4 0.607945 0.612273 0.162965
Si Si5 0.616692 0.213898 0.560504
Si Si6 0.344304 0.000000 0.495170
Si Si7 0.000000 0.829699 0.500000
Si Si8 0.136616 0.810168 0.838169
O O1 0.235991 0.399452 0.795287
O O2 0.334678 0.316449 0.818603
O O3 0.313937 0.265807 0.571553
O O4 0.212315 0.219017 0.831355
O O5 0.698828 0.500000 0.453891
O O6 0.764433 0.500000 0.629859
O O7 0.646403 0.405994 0.732182
O O8 0.331091 0.000000 0.332374
O O9 0.631791 0.500000 0.120158
O O10 0.545354 0.611880 0.338988
O O11 0.590411 0.659888 0.022130
O O12 0.552094 0.264644 0.545664
O O13 0.615297 0.230175 0.737982
O O14 0.620844 0.102185 0.506937
#
# Coordination Sequence:
#
# PCOD9168847 Si02
#       8
#     8   4   4   8   8   4   4   8
#     4  11  19  35  59  93 123 156 181 233 300 357
#     4  10  18  29  56  99 122 138 193 229 296 358
#     4  10  16  29  58  92 124 151 185 220 295 365
#     4  11  24  39  59  85 121 155 200 243 286 345
#     4  11  21  38  64  82 122 154 199 239 284 349
#     4  10  18  33  62  94 114 154 192 232 283 367
#     4  10  27  45  56  80 112 166 202 244 292 334
#     4  12  20  36  60  94 120 151 187 243 298 346
#
# _framework density 19.827839000000001
#
# number of rings (size 3 to 8) (size 9 to 14) (size 15 to 20)
#    0.500    0.667    6.667    1.250    0.000    1.000 
#    1.500    0.833    0.000    4.000    0.000    0.000 
#    0.000    0.000    0.000    0.000    0.000    0.000 
#
# Total GULP energy -133689.667949 kJ/mol
# GULP energy per Si atom -5570.402831 kJ/mol
# Density = 1.978271 g / cm^3
# Si number density = 19.827839 Si / 1000 Ang^3
#
#
#
# Elastic Constant Matrix: (Units=GPa)
#
#
# Indices 1 2 3 4 5 6 
#
# 1 42.2331 -3.3846 9.0442 0.0000 0.5638 0.0000
# 2 -3.3846 81.6578 -1.7310 0.0000 2.0654 0.0000
# 3 9.0442 -1.7310 93.8361 0.0000 7.0471 0.0000
# 4 0.0000 0.0000 0.0000 16.2288 0.0000 -1.5451
# 5 0.5638 2.0654 7.0471 0.0000 12.2074 0.0000
# 6 0.0000 0.0000 0.0000 -1.5451 0.0000 16.6030
#
#
#
# Elastic Compliance Matrix: (Units=1/GPa)
#
#
# Indices 1 2 3 4 5 6 
#
# 1 0.024252 0.000954 -0.002324 0.000000 0.000060 0.000000
# 2 0.000954 0.012351 0.000310 0.000000 -0.002312 0.000000
# 3 -0.002324 0.000310 0.011376 0.000000 -0.006512 0.000000
# 4 0.000000 0.000000 0.000000 0.062170 0.000000 0.005786
# 5 0.000060 -0.002312 -0.006512 0.000000 0.086065 0.000000
# 6 0.000000 0.000000 0.000000 0.005786 0.000000 0.060769
#
#
# Mechanical properties :
#
#
# Convention : Reuss Voigt Hill
#
# Bulk Modulus (GPa) = 21.80684 25.06489 23.43587
# Shear Modulus (GPa) = 18.22238 23.26107 20.74172
#
# Velocity S-wave (km/s) = 3.03484 3.42885 3.23784
# Velocity P-wave (km/s) = 4.82725 5.32397 5.08168
#
# Compressibility (1/GPa) = 0.04585717
#
# Stress axis : x y z
#
# Youngs Moduli (GPa) = 41.23448 80.96616 87.90700
#
# Poissons Ratio (x) = -0.07727 0.20433
# Poissons Ratio (y) = -0.03935 -0.02721
# Poissons Ratio (z) = 0.09584 -0.02506
#
# Static dielectric constant tensor:
#      x y z
#    x 1.717900 0.000000 0.019620 
#    y 0.000000 1.683110 0.000000 
#    z 0.019620 0.000000 1.743020 
# 
# From -- ./inp_files/85756.got.cif
#   From: 2010.05.17/outbox.cif.g08.bks.cpg/sg12_43_cif.got.tgz:85756.got - 2010.06.03 13:09:07.
