data_PCOD9168433
_publ_section_title
;
Structure prediction by ZEFSAII (Michael W. Deem and Ramdas Pophale) SiO2 
 PCOD9168433
Probable space group: C 2/M
;
_chemical_formula_sum "Si O2"
_cell_formula_units_Z 48
_cell_length_a 28.148695
_cell_length_b 15.178786
_cell_length_c 23.100275
_cell_angle_alpha 90.000000
_cell_angle_beta 18.038186
_cell_angle_gamma 90.000000
_cell_volume 3056.220106
_symmetry_space_group_name_H-M "C 2/M"
_symmetry_group_IT_number 12
_symmetry_cell_setting 'monoclinic'
loop_
_space_group_symop_operation_xyz
x,y,z
-x,y,-z
-x,-y,-z
x,-y,z
1/2+x,1/2+y,z
1/2-x,1/2+y,-z
1/2-x,1/2-y,-z
1/2+x,1/2-y,z
loop_
_atom_site_type_symbol
_atom_site_label
_atom_site_fract_x
_atom_site_fract_y
_atom_site_fract_z
Si Si1 0.730098 0.837193 0.983375
Si Si2 0.905249 0.211080 0.947872
Si Si3 0.457376 0.100168 0.374860
Si Si4 0.263157 0.247711 0.414799
Si Si5 0.617135 0.895204 0.313267
Si Si6 0.473585 0.602252 0.305611
O O1 0.890366 0.886628 0.805074
O O2 0.750000 0.750000 0.000000
O O3 0.675190 0.797216 0.986569
O O4 0.593299 0.892335 0.170392
O O5 0.057383 0.240378 0.805474
O O6 0.962273 0.148375 0.827967
O O7 0.775893 0.157286 0.131429
O O8 0.331572 0.171553 0.502639
O O9 0.535673 0.121648 0.345771
O O10 0.398299 0.000000 0.445349
O O11 0.250000 0.250000 0.500000
O O12 0.173815 0.157957 0.503232
O O13 0.500000 0.871994 0.500000
O O14 0.647599 0.000000 0.280900
O O15 0.441593 0.500000 0.332110
#
# Coordination Sequence:
#
# PCOD9168433 Si02
#       6
#     8   8   8   8   8   8
#     4  10  15  28  47  67  93 128 160 203 242 293
#     4  10  18  31  46  66 101 132 156 204 246 286
#     4  11  19  31  49  70 101 136 163 200 248 288
#     4  10  19  31  43  70 102 132 156 198 244 314
#     4  10  20  33  50  71  95 133 182 211 229 276
#     4  10  17  27  45  68  98 131 155 189 248 299
#
# _framework density 15.705674999999999
#
# number of rings (size 3 to 8) (size 9 to 14) (size 15 to 20)
#    0.000    1.833    8.333    1.000    0.000    3.333 
#    0.000    0.833    0.000    3.000    0.000    0.000 
#    0.000   29.333    0.000    0.000    0.000    0.000 
#
# Total GULP energy -133668.281060 kJ/mol
# GULP energy per Si atom -5569.511711 kJ/mol
# Density = 1.566993 g / cm^3
# Si number density = 15.705675 Si / 1000 Ang^3
#
#
#
# Elastic Constant Matrix: (Units=GPa)
#
#
# Indices 1 2 3 4 5 6 
#
# 1 30.7366 25.0551 43.1312 0.0027 -17.0488 -0.0018
# 2 25.0551 79.6137 40.3975 0.0049 -12.0556 -0.0035
# 3 43.1312 40.3975 115.7482 0.0042 -19.9917 -0.0032
# 4 0.0027 0.0049 0.0042 17.8125 -0.0025 2.3434
# 5 -17.0488 -12.0556 -19.9917 -0.0025 24.9577 0.0018
# 6 -0.0018 -0.0035 -0.0032 2.3434 0.0018 12.0194
#
#
#
# Elastic Compliance Matrix: (Units=1/GPa)
#
#
# Indices 1 2 3 4 5 6 
#
# 1 0.105826 -0.012727 -0.027352 0.000000 0.044233 -0.000002
# 2 -0.012727 0.017079 -0.001503 -0.000003 -0.001648 0.000003
# 3 -0.027352 -0.001503 0.018573 -0.000001 -0.004533 0.000001
# 4 0.000000 -0.000003 -0.000001 0.057618 0.000005 -0.011234
# 5 0.044233 -0.001648 -0.004533 0.000005 0.065857 -0.000006
# 6 -0.000002 0.000003 0.000001 -0.011234 -0.000006 0.085389
#
#
# Mechanical properties :
#
#
# Convention : Reuss Voigt Hill
#
# Bulk Modulus (GPa) = 17.14862 49.25178 33.20020
# Shear Modulus (GPa) = 11.03885 18.79223 14.91554
#
# Velocity S-wave (km/s) = 2.65402 3.46283 3.08505
# Velocity P-wave (km/s) = 4.50935 6.88590 5.82022
#
# Compressibility (1/GPa) = 0.05831374
#
# Stress axis : x y z
#
# Youngs Moduli (GPa) = 9.44945 58.55106 53.84078
#
# Poissons Ratio (x) = 0.74521 1.47266
# Poissons Ratio (y) = 0.12027 0.08091
# Poissons Ratio (z) = 0.25846 0.08799
#
# Static dielectric constant tensor:
#      x y z
#    x 1.534970 0.000000 -0.027060 
#    y 0.000000 1.551470 0.000000 
#    z -0.027060 0.000000 1.535660 
# 
# From -- ./inp_files/86806.got.cif
#   From: 2010.05.17/outbox.cif.g08.bks.cpg/sg12_44_cif.got.tgz:86806.got - 2010.06.03 13:09:07.
