data_PCOD9168915
_publ_section_title
;
Structure prediction by ZEFSAII (Michael W. Deem and Ramdas Pophale) SiO2 
 PCOD9168915
Probable space group: C 2/M
;
_chemical_formula_sum "Si O2"
_cell_formula_units_Z 48
_cell_length_a 5.410058
_cell_length_b 35.999661
_cell_length_c 13.865847
_cell_angle_alpha 90.000000
_cell_angle_beta 67.036746
_cell_angle_gamma 90.000000
_cell_volume 2486.514191
_symmetry_space_group_name_H-M "C 2/M"
_symmetry_group_IT_number 12
_symmetry_cell_setting 'monoclinic'
loop_
_space_group_symop_operation_xyz
x,y,z
-x,y,-z
-x,-y,-z
x,-y,z
1/2+x,1/2+y,z
1/2-x,1/2+y,-z
1/2-x,1/2-y,-z
1/2+x,1/2-y,z
loop_
_atom_site_type_symbol
_atom_site_label
_atom_site_fract_x
_atom_site_fract_y
_atom_site_fract_z
Si Si1 0.043873 0.342363 0.206094
Si Si2 0.682110 0.457299 0.067897
Si Si3 0.631407 0.765397 0.118596
Si Si4 0.473853 0.610688 0.776178
Si Si5 0.217779 0.909983 0.532224
Si Si6 0.304827 0.173621 0.445169
O O1 0.128462 0.309652 0.121519
O O2 0.300870 0.366357 0.199328
O O3 0.800383 0.366351 0.199328
O O4 0.929427 0.322659 0.320561
O O5 0.643990 0.500000 0.106038
O O6 0.591377 0.427070 0.158617
O O7 0.500000 0.452289 0.000000
O O8 0.000000 0.452284 0.000000
O O9 0.330478 0.749997 0.169536
O O10 0.750000 0.750000 0.000000
O O11 0.597027 0.601397 0.652987
O O12 0.500000 0.930165 0.500000
O O13 0.283986 0.871227 0.466011
O O14 0.000000 0.930165 0.500000
O O15 0.500000 0.187789 0.500000
O O16 0.000000 0.187789 0.500000
#
# Coordination Sequence:
#
# PCOD9168915 Si02
#       6
#     8   8   8   8   8   8
#     4  12  21  35  63  90 115 150 207 247 282 359
#     4  10  23  45  62  82 128 167 196 248 312 351
#     4  10  23  45  59  75 113 164 187 236 318 368
#     4  12  21  35  62 101 112 150 212 252 285 352
#     4  10  16  30  51  85 128 150 174 243 307 337
#     4  10  16  30  51  84 118 152 175 241 303 336
#
# _framework density 19.304133
#
# number of rings (size 3 to 8) (size 9 to 14) (size 15 to 20)
#    0.000    1.333    6.667    2.000    0.000    0.000 
#   18.000    0.000    0.000    4.000    0.000    0.000 
#    0.000    0.000    0.000    0.000    0.000    0.000 
#
# Total GULP energy -133927.282893 kJ/mol
# GULP energy per Si atom -5580.303454 kJ/mol
# Density = 1.926020 g / cm^3
# Si number density = 19.304133 Si / 1000 Ang^3
#
#
#
# Elastic Constant Matrix: (Units=GPa)
#
#
# Indices 1 2 3 4 5 6 
#
# 1 220.4720 54.1839 27.8969 0.0000 -9.7251 0.0000
# 2 54.1839 80.1818 59.9775 0.0000 0.3020 0.0000
# 3 27.8969 59.9775 77.8405 0.0000 1.7804 0.0000
# 4 0.0000 0.0000 0.0000 -14.0687 0.0000 -1.2883
# 5 -9.7251 0.3020 1.7804 0.0000 9.4488 0.0000
# 6 0.0000 0.0000 0.0000 -1.2883 0.0000 9.2583
#
#
#
# Elastic Compliance Matrix: (Units=1/GPa)
#
#
# Indices 1 2 3 4 5 6 
#
# 1 0.005892 -0.005485 0.001981 0.000000 0.005866 0.000000
# 2 -0.005485 0.034652 -0.024686 0.000000 -0.002102 0.000000
# 3 0.001981 -0.024686 0.031228 0.000000 -0.003056 0.000000
# 4 0.000000 0.000000 0.000000 -0.070185 0.000000 -0.009766
# 5 0.005866 -0.002102 -0.003056 0.000000 0.112515 0.000000
# 6 0.000000 0.000000 0.000000 -0.009766 0.000000 0.106652
#
#
# Mechanical properties :
#
#
# Convention : Reuss Voigt Hill
#
# Bulk Modulus (GPa) = 64.97470 73.62343 69.29906
# Shear Modulus (GPa) = 17.71384 16.69007 17.20196
#
# Velocity S-wave (km/s) = 3.03251 2.94357 2.98837
# Velocity P-wave (km/s) = 6.78181 7.05509 6.91980
#
# Compressibility (1/GPa) = 0.01539061
#
# Stress axis : x y z
#
# Youngs Moduli (GPa) = 169.72330 28.85837 32.02264
#
# Poissons Ratio (x) = 0.15830 -0.06343
# Poissons Ratio (y) = 0.93098 0.79051
# Poissons Ratio (z) = -0.33618 0.71240
#
# Static dielectric constant tensor:
#      x y z
#    x 1.761880 0.000000 -0.005120 
#    y 0.000000 1.640090 0.000000 
#    z -0.005120 0.000000 1.669430 
# 
# From -- ./inp_files/192515.got.cif
#   From: 2010.05.17/outbox.cif.g08.bks.cpg/sg12_97_cif.got.tgz:192515.got - 2010.06.03 13:09:07.
