data_PCOD9168764
_publ_section_title
;
Structure prediction by ZEFSAII (Michael W. Deem and Ramdas Pophale) SiO2 
 PCOD9168764
Probable space group: C 2/M
;
_chemical_formula_sum "Si O2"
_cell_formula_units_Z 52
_cell_length_a 16.270491
_cell_length_b 24.438684
_cell_length_c 13.708579
_cell_angle_alpha 90.000000
_cell_angle_beta 145.971676
_cell_angle_gamma 90.000000
_cell_volume 3050.357139
_symmetry_space_group_name_H-M "C 2/M"
_symmetry_group_IT_number 12
_symmetry_cell_setting 'monoclinic'
loop_
_space_group_symop_operation_xyz
x,y,z
-x,y,-z
-x,-y,-z
x,-y,z
1/2+x,1/2+y,z
1/2-x,1/2+y,-z
1/2-x,1/2-y,-z
1/2+x,1/2-y,z
loop_
_atom_site_type_symbol
_atom_site_label
_atom_site_fract_x
_atom_site_fract_y
_atom_site_fract_z
Si Si1 0.644484 0.065096 0.863147
Si Si2 0.851484 0.937902 0.889401
Si Si3 0.000000 0.725211 0.000000
Si Si4 0.287877 0.780017 0.350650
Si Si5 0.886011 0.600422 0.477311
Si Si6 0.572298 0.247030 0.720882
Si Si7 0.175483 0.328170 0.998699
O O1 0.760956 0.083262 0.893143
O O2 0.482424 0.077030 0.659752
O O3 0.672042 0.107287 0.977108
O O4 0.659159 0.000000 0.895420
O O5 0.740724 0.937819 0.689653
O O6 0.889345 0.000000 0.954747
O O7 0.000000 0.909016 0.000000
O O8 0.879278 0.760769 0.822257
O O9 0.090580 0.689249 0.012420
O O10 0.311893 0.840517 0.416757
O O11 0.350748 0.777103 0.301439
O O12 0.402075 0.744064 0.526573
O O13 0.000000 0.606284 0.500000
O O14 0.597099 0.203011 0.830824
O O15 0.662439 0.301424 0.836406
#
# Coordination Sequence:
#
# PCOD9168764 Si02
#       7
#     8   8   4   8   8   8   8
#     4  10  19  33  53  72  99 141 178 207 248 309
#     4   9  18  30  45  72 105 133 166 207 249 300
#     4  10  24  32  51  74 109 126 184 222 264 282
#     4  10  17  33  49  80 100 137 160 212 254 329
#     4  10  16  28  48  72 106 135 166 191 250 320
#     4   9  17  32  56  68 106 135 168 197 269 312
#     4  10  19  36  50  76 101 139 174 221 250 313
#
# _framework density 17.047184000000001
#
# number of rings (size 3 to 8) (size 9 to 14) (size 15 to 20)
#    0.000    2.308    3.077    1.385    1.077    2.462 
#    0.000    0.385    0.000    0.000    0.000    8.615 
#    0.000    0.000    0.000    0.000    0.000    0.000 
#
# Total GULP energy -144763.581832 kJ/mol
# GULP energy per Si atom -5567.830070 kJ/mol
# Density = 1.700838 g / cm^3
# Si number density = 17.047184 Si / 1000 Ang^3
#
#
#
# Elastic Constant Matrix: (Units=GPa)
#
#
# Indices 1 2 3 4 5 6 
#
# 1 33.3691 21.8688 25.0431 0.0000 6.0220 0.0000
# 2 21.8688 100.1038 42.3731 0.0000 1.3465 0.0000
# 3 25.0431 42.3731 101.4727 0.0000 14.5225 0.0000
# 4 0.0000 0.0000 0.0000 23.0981 0.0000 -5.5707
# 5 6.0220 1.3465 14.5225 0.0000 25.4448 0.0000
# 6 0.0000 0.0000 0.0000 -5.5707 0.0000 14.7222
#
#
#
# Elastic Compliance Matrix: (Units=1/GPa)
#
#
# Indices 1 2 3 4 5 6 
#
# 1 0.039691 -0.005800 -0.006613 0.000000 -0.005312 0.000000
# 2 -0.005800 0.013124 -0.004515 0.000000 0.003255 0.000000
# 3 -0.006613 -0.004515 0.014281 0.000000 -0.006346 0.000000
# 4 0.000000 0.000000 0.000000 0.047641 0.000000 0.018027
# 5 -0.005312 0.003255 -0.006346 0.000000 0.044008 0.000000
# 6 0.000000 0.000000 0.000000 0.018027 0.000000 0.074745
#
#
# Mechanical properties :
#
#
# Convention : Reuss Voigt Hill
#
# Bulk Modulus (GPa) = 30.08496 45.94617 38.01557
# Shear Modulus (GPa) = 17.95809 22.36373 20.16091
#
# Velocity S-wave (km/s) = 3.24919 3.62591 3.44270
# Velocity P-wave (km/s) = 5.63584 6.67386 6.17669
#
# Compressibility (1/GPa) = 0.03323920
#
# Stress axis : x y z
#
# Youngs Moduli (GPa) = 25.19466 76.19636 70.02531
#
# Poissons Ratio (x) = 0.44195 0.46310
# Poissons Ratio (y) = 0.14613 0.31614
# Poissons Ratio (z) = 0.16662 0.34400
#
# Static dielectric constant tensor:
#      x y z
#    x 1.596650 0.000000 0.023410 
#    y 0.000000 1.606870 0.000000 
#    z 0.023410 0.000000 1.613950 
# 
# From -- ./inp_files/227919.got.cif
#   From: 2010.05.17/outbox.cif.g08.bks.cpg/sg12_114_cif.got.tgz:227919.got - 2010.06.03 13:09:07.
