data_PCOD9168492
_publ_section_title
;
Structure prediction by ZEFSAII (Michael W. Deem and Ramdas Pophale) SiO2 
 PCOD9168492
Probable space group: C 2/M
;
_chemical_formula_sum "Si O2"
_cell_formula_units_Z 60
_cell_length_a 30.572127
_cell_length_b 7.598947
_cell_length_c 12.320713
_cell_angle_alpha 90.000000
_cell_angle_beta 89.538720
_cell_angle_gamma 90.000000
_cell_volume 2862.205664
_symmetry_space_group_name_H-M "C 2/M"
_symmetry_group_IT_number 12
_symmetry_cell_setting 'monoclinic'
loop_
_space_group_symop_operation_xyz
x,y,z
-x,y,-z
-x,-y,-z
x,-y,z
1/2+x,1/2+y,z
1/2-x,1/2+y,-z
1/2-x,1/2-y,-z
1/2+x,1/2-y,z
loop_
_atom_site_type_symbol
_atom_site_label
_atom_site_fract_x
_atom_site_fract_y
_atom_site_fract_z
Si Si1 0.844151 0.789467 0.797380
Si Si2 0.413391 0.715779 0.627825
Si Si3 0.597243 0.285023 0.998482
Si Si4 0.500584 0.701579 0.743235
Si Si5 0.000000 0.257960 0.000000
Si Si6 0.587139 0.715968 0.621674
Si Si7 0.252276 0.707097 0.127739
Si Si8 0.156444 0.786711 0.787396
O O1 0.869468 0.725529 0.690340
O O2 0.872309 0.733476 0.901529
O O3 0.793518 0.747904 0.814278
O O4 0.846991 0.000000 0.797604
O O5 0.412985 0.500000 0.628805
O O6 0.455663 0.776782 0.695805
O O7 0.416153 0.770364 0.503029
O O8 0.587977 0.500000 0.004361
O O9 0.551035 0.187748 0.001313
O O10 0.624296 0.252144 0.889164
O O11 0.500434 0.500000 0.704954
O O12 0.544976 0.777396 0.691656
O O13 0.501027 0.693979 0.873522
O O14 0.587552 0.500000 0.623927
O O15 0.631400 0.775056 0.680612
O O16 0.257870 0.500000 0.131735
O O17 0.295525 0.783873 0.184285
O O18 0.250000 0.750000 0.000000
O O19 0.159241 0.000000 0.779325
#
# Coordination Sequence:
#
# PCOD9168492 Si02
#       8
#     8   8   8   8   4   8   8   8
#     4  10  19  32  49  71 102 133 164 202 247 295
#     4   9  17  27  40  61  94 134 166 199 241 287
#     4  10  16  24  39  63  97 131 158 190 238 291
#     4  10  16  21  34  59  94 132 164 194 239 299
#     4  12  17  20  36  66 101 132 159 196 247 298
#     4   9  16  26  39  59  93 133 167 198 242 293
#     4  11  21  34  53  76 100 126 162 205 251 301
#     4   9  17  28  43  63  90 124 159 198 240 290
#
# _framework density 20.962855000000001
#
# number of rings (size 3 to 8) (size 9 to 14) (size 15 to 20)
#    0.000    2.133    4.000    2.000    0.000    1.600 
#    0.000    0.667    0.000    0.000    0.000    1.400 
#    0.000    2.133    0.000    0.000    0.000    0.133 
#
# Total GULP energy -167146.863993 kJ/mol
# GULP energy per Si atom -5571.562133 kJ/mol
# Density = 2.091514 g / cm^3
# Si number density = 20.962855 Si / 1000 Ang^3
#
#
#
# Elastic Constant Matrix: (Units=GPa)
#
#
# Indices 1 2 3 4 5 6 
#
# 1 209.4416 15.8628 84.0614 0.0000 2.5088 0.0000
# 2 15.8628 41.9386 10.9821 0.0000 0.9365 0.0000
# 3 84.0614 10.9821 150.7637 0.0000 1.6042 0.0000
# 4 0.0000 0.0000 0.0000 -1.2679 0.0000 -1.5592
# 5 2.5088 0.9365 1.6042 0.0000 22.1858 0.0000
# 6 0.0000 0.0000 0.0000 -1.5592 0.0000 -9.2543
#
#
#
# Elastic Compliance Matrix: (Units=1/GPa)
#
#
# Indices 1 2 3 4 5 6 
#
# 1 0.006243 -0.001470 -0.003370 0.000000 -0.000400 0.000000
# 2 -0.001470 0.024672 -0.000969 0.000000 -0.000805 0.000000
# 3 -0.003370 -0.000969 0.008584 0.000000 -0.000199 0.000000
# 4 0.000000 0.000000 0.000000 -0.994854 0.000000 0.167615
# 5 -0.000400 -0.000805 -0.000199 0.000000 0.045168 0.000000
# 6 0.000000 0.000000 0.000000 0.167615 0.000000 -0.136298
#
#
# Mechanical properties :
#
#
# Convention : Reuss Voigt Hill
#
# Bulk Modulus (GPa) = 35.86500 69.32851 52.59675
# Shear Modulus (GPa) = -4.87532 21.74855 8.43661
#
# Velocity S-wave (km/s) = -1.52668 3.22449 2.00831
# Velocity P-wave (km/s) = 3.74677 6.85616 5.52473
#
# Compressibility (1/GPa) = 0.02788234
#
# Stress axis : x y z
#
# Youngs Moduli (GPa) = 160.17447 40.53152 116.49004
#
# Poissons Ratio (x) = 0.05958 0.39253
# Poissons Ratio (y) = 0.23547 0.11287
# Poissons Ratio (z) = 0.53974 0.03927
#
# Static dielectric constant tensor:
#      x y z
#    x 1.752890 0.000000 0.019380 
#    y 0.000000 1.845000 0.000000 
#    z 0.019380 0.000000 1.705520 
# 
# From -- ./inp_files/188035.got.cif
#   From: 2010.05.17/outbox.cif.g08.bks.cpg/sg12_95_cif.got.tgz:188035.got - 2010.06.03 13:09:07.
