data_PCOD9168294
_publ_section_title
;
Structure prediction by ZEFSAII (Michael W. Deem and Ramdas Pophale) SiO2 
 PCOD9168294
Probable space group: C 2/M
;
_chemical_formula_sum "Si O2"
_cell_formula_units_Z 48
_cell_length_a 9.785043
_cell_length_b 24.811677
_cell_length_c 9.244160
_cell_angle_alpha 90.000000
_cell_angle_beta 66.747971
_cell_angle_gamma 90.000000
_cell_volume 2062.037385
_symmetry_space_group_name_H-M "C 2/M"
_symmetry_group_IT_number 12
_symmetry_cell_setting 'monoclinic'
loop_
_space_group_symop_operation_xyz
x,y,z
-x,y,-z
-x,-y,-z
x,-y,z
1/2+x,1/2+y,z
1/2-x,1/2+y,-z
1/2-x,1/2-y,-z
1/2+x,1/2-y,z
loop_
_atom_site_type_symbol
_atom_site_label
_atom_site_fract_x
_atom_site_fract_y
_atom_site_fract_z
Si Si1 0.798759 0.500000 0.844698
Si Si2 0.931963 0.612701 0.216968
Si Si3 0.457071 0.619161 0.258604
Si Si4 0.000000 0.622690 0.500000
Si Si5 0.648115 0.000000 0.756630
Si Si6 0.750389 0.686595 0.483677
Si Si7 0.851618 0.000000 0.387453
Si Si8 0.772469 0.884378 0.041037
O O1 0.969180 0.500000 0.815209
O O2 0.774613 0.500000 0.683516
O O3 0.721808 0.448600 0.944456
O O4 0.846126 0.561711 0.183995
O O5 0.096727 0.629703 0.093698
O O6 0.975954 0.591014 0.362842
O O7 0.826356 0.662405 0.306328
O O8 0.401618 0.657576 0.409782
O O9 0.437157 0.556655 0.321059
O O10 0.353024 0.630226 0.159805
O O11 0.620112 0.632584 0.132473
O O12 0.861586 0.662338 0.558705
O O13 0.769416 0.000000 0.576627
O O14 0.750000 0.750000 0.500000
#
# Coordination Sequence:
#
# PCOD9168294 Si02
#       8
#     4   8   8   4   4   8   4   8
#     4   8  16  18  29  55  77 111 121 150 179 242
#     4   9  16  26  38  57  77 104 128 159 193 240
#     4  10  16  23  36  56  77 107 129 164 193 235
#     4   8  16  29  40  56  76 105 134 164 198 226
#     4  10  15  18  38  56  80 100 128 149 192 242
#     4  10  18  29  41  55  76 105 144 172 195 227
#     4  10  14  20  31  53  79 101 133 155 184 233
#     4   9  15  24  35  53  83 103 131 152 197 238
#
# _framework density 23.277947999999999
#
# number of rings (size 3 to 8) (size 9 to 14) (size 15 to 20)
#    1.000    1.667    3.333    0.750    4.667    2.000 
#    0.000    0.833    0.000    0.000    0.000    0.000 
#    0.000    2.667    0.000    0.000    0.000   28.000 
#
# Total GULP energy -133605.418047 kJ/mol
# GULP energy per Si atom -5566.892419 kJ/mol
# Density = 2.322497 g / cm^3
# Si number density = 23.277948 Si / 1000 Ang^3
#
#
#
# Elastic Constant Matrix: (Units=GPa)
#
#
# Indices 1 2 3 4 5 6 
#
# 1 83.3023 11.2111 36.9925 0.0000 6.4390 0.0000
# 2 11.2111 125.3741 67.0397 0.0000 -16.6104 0.0000
# 3 36.9925 67.0397 193.2183 0.0000 -48.7285 0.0000
# 4 0.0000 0.0000 0.0000 -15.2957 0.0000 10.4189
# 5 6.4390 -16.6104 -48.7285 0.0000 24.6413 0.0000
# 6 0.0000 0.0000 0.0000 10.4189 0.0000 -13.1169
#
#
#
# Elastic Compliance Matrix: (Units=1/GPa)
#
#
# Indices 1 2 3 4 5 6 
#
# 1 0.017841 0.000350 -0.009283 0.000000 -0.022783 0.000000
# 2 0.000350 0.009801 -0.003639 0.000000 -0.000682 0.000000
# 3 -0.009283 -0.003639 0.016375 0.000000 0.032354 0.000000
# 4 0.000000 0.000000 0.000000 -0.142454 0.000000 -0.113153
# 5 -0.022783 -0.000682 0.032354 0.000000 0.110057 0.000000
# 6 0.000000 0.000000 0.000000 -0.113153 0.000000 -0.166116
#
#
# Mechanical properties :
#
#
# Convention : Reuss Voigt Hill
#
# Bulk Modulus (GPa) = 52.98967 70.26457 61.62712
# Shear Modulus (GPa) = -40.63019 18.35585 -11.13717
#
# Velocity S-wave (km/s) = -4.18238 2.81116 -2.18971
# Velocity P-wave (km/s) = 0.71394 6.38650 4.48763
#
# Compressibility (1/GPa) = 0.01887160
#
# Stress axis : x y z
#
# Youngs Moduli (GPa) = 56.05160 102.03520 61.06858
#
# Poissons Ratio (x) = -0.03570 0.56689
# Poissons Ratio (y) = -0.01961 0.22225
# Poissons Ratio (z) = 0.52032 0.37135
#
# Static dielectric constant tensor:
#      x y z
#    x 2.123000 0.000000 -0.043780 
#    y 0.000000 2.973070 0.000000 
#    z -0.043780 0.000000 1.994630 
# 
# From -- ./inp_files/285517.got.cif
#   From: 2010.05.17/outbox.cif.g08.bks.cpg/sg12_143_cif.got.tgz:285517.got - 2010.06.03 13:09:07.
