data_PCOD9168282
_publ_section_title
;
Structure prediction by ZEFSAII (Michael W. Deem and Ramdas Pophale) SiO2 
 PCOD9168282
Probable space group: C 2/M
;
_chemical_formula_sum "Si O2"
_cell_formula_units_Z 44
_cell_length_a 10.179633
_cell_length_b 20.493880
_cell_length_c 14.111484
_cell_angle_alpha 90.000000
_cell_angle_beta 39.262700
_cell_angle_gamma 90.000000
_cell_volume 1863.151989
_symmetry_space_group_name_H-M "C 2/M"
_symmetry_group_IT_number 12
_symmetry_cell_setting 'monoclinic'
loop_
_space_group_symop_operation_xyz
x,y,z
-x,y,-z
-x,-y,-z
x,-y,z
1/2+x,1/2+y,z
1/2-x,1/2+y,-z
1/2-x,1/2-y,-z
1/2+x,1/2-y,z
loop_
_atom_site_type_symbol
_atom_site_label
_atom_site_fract_x
_atom_site_fract_y
_atom_site_fract_z
Si Si1 0.210029 0.358589 0.317751
Si Si2 0.249996 0.356585 0.876138
Si Si3 0.026906 0.500000 0.200384
Si Si4 0.267157 0.000000 0.175154
Si Si5 0.185750 0.500000 0.323542
Si Si6 0.137522 0.357031 0.135358
Si Si7 0.718155 0.285640 0.327353
O O1 0.291036 0.288449 0.304870
O O2 0.000000 0.363824 0.500000
O O3 0.305008 0.431566 0.269211
O O4 0.193774 0.348972 0.213063
O O5 0.325278 0.429673 0.803993
O O6 0.323035 0.303804 0.759154
O O7 0.000000 0.358566 0.000000
O O8 0.274737 0.332320 0.970752
O O9 0.809284 0.500000 0.265578
O O10 0.057700 0.500000 0.295920
O O11 0.137820 0.433756 0.110101
O O12 0.500000 0.000000 0.000000
O O13 0.000000 0.500000 0.500000
O O14 0.902121 0.332204 0.258463
O O15 0.500000 0.296026 0.500000
#
# Coordination Sequence:
#
# PCOD9168282 Si02
#       7
#     8   8   4   4   4   8   8
#     4   9  19  32  49  71  95 124 161 201 239 279
#     4   9  16  28  47  70  96 124 160 191 232 282
#     4  10  14  26  52  73  89 122 162 198 238 267
#     4  10  12  24  46  73  91 120 160 196 230 276
#     4   8  16  30  46  68  92 118 162 207 231 267
#     4  10  18  32  52  71  96 128 161 197 236 279
#     4  10  20  31  45  72 102 128 154 190 245 289
#
# _framework density 23.615891999999999
#
# number of rings (size 3 to 8) (size 9 to 14) (size 15 to 20)
#    0.000    2.545    5.455    0.000    0.000    3.636 
#    0.000    1.818    0.000    0.000    0.000    8.273 
#    0.000    0.000    0.000    3.636    0.000    0.000 
#
# Total GULP energy -122503.175442 kJ/mol
# GULP energy per Si atom -5568.326156 kJ/mol
# Density = 2.356214 g / cm^3
# Si number density = 23.615892 Si / 1000 Ang^3
#
#
#
# Elastic Constant Matrix: (Units=GPa)
#
#
# Indices 1 2 3 4 5 6 
#
# 1 61.8267 -12.4255 32.2750 0.0016 7.5782 -0.0037
# 2 -12.4255 143.3381 29.6753 0.0007 -13.1853 -0.0057
# 3 32.2750 29.6753 103.9189 0.0034 14.2855 -0.0047
# 4 0.0016 0.0007 0.0034 11.0952 -0.0016 -2.8185
# 5 7.5782 -13.1853 14.2855 -0.0016 27.1395 0.0037
# 6 -0.0037 -0.0057 -0.0047 -2.8185 0.0037 -57.0485
#
#
#
# Elastic Compliance Matrix: (Units=1/GPa)
#
#
# Indices 1 2 3 4 5 6 
#
# 1 0.020694 0.003278 -0.007317 -0.000001 -0.000334 -0.000001
# 2 0.003278 0.008648 -0.004247 0.000001 0.005521 0.000000
# 3 -0.007317 -0.004247 0.014134 -0.000004 -0.007459 -0.000001
# 4 -0.000001 0.000001 -0.000004 0.089012 0.000009 -0.004398
# 5 -0.000334 0.005521 -0.007459 0.000009 0.043549 0.000002
# 6 -0.000001 0.000000 -0.000001 -0.004398 0.000002 -0.017312
#
#
# Mechanical properties :
#
#
# Convention : Reuss Voigt Hill
#
# Bulk Modulus (GPa) = 37.16978 45.34815 41.25897
# Shear Modulus (GPa) = 27.13504 13.54115 20.33810
#
# Velocity S-wave (km/s) = 3.39339 2.39716 2.93781
# Velocity P-wave (km/s) = 5.57915 5.18709 5.38669
#
# Compressibility (1/GPa) = 0.02690357
#
# Stress axis : x y z
#
# Youngs Moduli (GPa) = 48.32379 115.63719 70.75361
#
# Poissons Ratio (x) = -0.37906 0.51772
# Poissons Ratio (y) = -0.15841 0.30046
# Poissons Ratio (z) = 0.35359 0.49106
#
# Static dielectric constant tensor:
#      x y z
#    x 2.056480 0.000000 0.037470 
#    y 0.000000 1.931280 0.000000 
#    z 0.037470 0.000000 1.951000 
# 
# From -- ./inp_files/207561.got.cif
#   From: 2010.05.17/outbox.cif.g08.bks.cpg/sg12_104_cif.got.tgz:207561.got - 2010.06.03 13:09:07.
