data_PCOD9168112
_publ_section_title
;
Structure prediction by ZEFSAII (Michael W. Deem and Ramdas Pophale) SiO2 
 PCOD9168112
Probable space group: P 21/M
;
_chemical_formula_sum "Si O2"
_cell_formula_units_Z 32
_cell_length_a 15.000000
_cell_length_b 21.000000
_cell_length_c 15.000000
_cell_angle_alpha 90.000000
_cell_angle_beta 160.000000
_cell_angle_gamma 90.000000
_cell_volume 1616.045177
_symmetry_space_group_name_H-M "P 21/M"
_symmetry_group_IT_number 11
_symmetry_cell_setting 'monoclinic'
loop_
_space_group_symop_operation_xyz
x,y,z
-x,1/2+y,-z
-x,-y,-z
x,1/2-y,z
loop_
_atom_site_type_symbol
_atom_site_label
_atom_site_fract_x
_atom_site_fract_y
_atom_site_fract_z
Si Si1 0.771967 0.007305 0.903150
Si Si2 0.756047 0.818573 0.113025
Si Si3 0.317812 0.855603 0.571703
Si Si4 0.657616 0.173532 0.614186
Si Si5 0.278923 0.081175 0.769351
Si Si6 0.200633 0.505601 0.441219
Si Si7 0.827785 0.054226 0.235701
Si Si8 0.138654 0.398212 0.153591
O O1 0.474188 0.019772 0.655660
O O2 0.762757 0.959835 0.810270
O O3 0.971205 0.971994 0.157987
O O4 0.947388 0.069790 0.047486
O O5 0.728932 0.750000 0.131091
O O6 0.676651 0.872016 0.107911
O O7 0.048085 0.826751 0.351961
O O8 0.562370 0.824407 0.848547
O O9 0.354554 0.847208 0.500795
O O10 0.301598 0.930158 0.582586
O O11 0.646513 0.250000 0.611159
O O12 0.403864 0.140730 0.422571
O O13 0.933593 0.146661 0.908937
O O14 0.007388 0.098200 0.466595
O O15 0.228908 0.011807 0.765543
O O16 0.534794 0.079646 0.946466
O O17 0.026920 0.461693 0.342598
#
# Coordination Sequence:
#
# PCOD9168112 Si02
#       8
#     4   4   4   4   4   4   4   4
#     4  11  22  37  60  81 117 146 192 236 287 337
#     4  12  24  38  55  79 116 160 193 223 270 329
#     4  12  23  37  53  86 119 154 191 220 263 348
#     4  12  23  38  57  82 119 157 192 225 274 335
#     4  10  21  36  53  81 110 148 183 235 268 327
#     4  12  21  37  58  87 113 155 177 232 296 342
#     4  10  21  34  57  80 112 140 186 229 286 326
#     4  11  22  39  56  85 112 153 192 236 277 331
#
# _framework density 19.801427
#
# number of rings (size 3 to 8) (size 9 to 14) (size 15 to 20)
#    0.000    0.750    3.750    5.250    3.500    2.000 
#    0.000    0.000    0.000    0.000    0.000   17.500 
#    0.000    0.000    0.000    0.000    0.000    0.000 
#
# Total GULP energy -178523.966112 kJ/mol
# GULP energy per Si atom -5578.873941 kJ/mol
# Density = 1.975636 g / cm^3
# Si number density = 19.801427 Si / 1000 Ang^3
#
#
#
# Elastic Constant Matrix: (Units=GPa)
#
#
# Indices 1 2 3 4 5 6 
#
# 1 56.1862 7.8055 28.7826 0.0000 32.1035 0.0000
# 2 7.8055 50.3153 10.2236 0.0000 3.7837 0.0000
# 3 28.7826 10.2236 84.9564 0.0000 27.1211 0.0000
# 4 0.0000 0.0000 0.0000 38.4462 0.0000 6.0761
# 5 32.1035 3.7837 27.1211 0.0000 35.4312 0.0000
# 6 0.0000 0.0000 0.0000 6.0761 0.0000 4.0783
#
#
#
# Elastic Compliance Matrix: (Units=1/GPa)
#
#
# Indices 1 2 3 4 5 6 
#
# 1 0.037718 -0.002995 -0.002131 0.000000 -0.032224 0.000000
# 2 -0.002995 0.020615 -0.002157 0.000000 0.002163 0.000000
# 3 -0.002131 -0.002157 0.015963 0.000000 -0.010058 0.000000
# 4 0.000000 0.000000 0.000000 0.034021 0.000000 -0.050688
# 5 -0.032224 0.002163 -0.010058 0.000000 0.064889 0.000000
# 6 0.000000 0.000000 0.000000 -0.050688 0.000000 0.320722
#
#
# Mechanical properties :
#
#
# Convention : Reuss Voigt Hill
#
# Bulk Modulus (GPa) = 16.74183 31.67571 24.20877
# Shear Modulus (GPa) = 9.46246 25.23423 17.34834
#
# Velocity S-wave (km/s) = 2.18839 3.57370 2.96314
# Velocity P-wave (km/s) = 3.85469 5.74977 4.89482
#
# Compressibility (1/GPa) = 0.05973063
#
# Stress axis : x y z
#
# Youngs Moduli (GPa) = 26.51261 48.50875 62.64466
#
# Poissons Ratio (x) = 0.14528 0.13349
# Poissons Ratio (y) = 0.07941 0.13510
# Poissons Ratio (z) = 0.05650 0.10462
#
# Static dielectric constant tensor:
#      x y z
#    x 1.763260 0.000000 -0.060490 
#    y 0.000000 1.703990 0.000000 
#    z -0.060490 0.000000 1.740290 
# 
# From -- ./inp_files/52722.got.cif
#   From: 2010.05.17/outbox.ucp.g08.bks.cvg/sg11_27_cif.got.tgz:52722.got - 2010.06.11 11:38:39.
