data_PCOD9168611
_publ_section_title
;
Structure prediction by ZEFSAII (Michael W. Deem and Ramdas Pophale) SiO2 
 PCOD9168611
Probable space group: C 2/M
;
_chemical_formula_sum "Si O2"
_cell_formula_units_Z 64
_cell_length_a 25.336498
_cell_length_b 21.861022
_cell_length_c 8.616909
_cell_angle_alpha 90.000000
_cell_angle_beta 50.832766
_cell_angle_gamma 90.000000
_cell_volume 3700.339651
_symmetry_space_group_name_H-M "C 2/M"
_symmetry_group_IT_number 12
_symmetry_cell_setting 'monoclinic'
loop_
_space_group_symop_operation_xyz
x,y,z
-x,y,-z
-x,-y,-z
x,-y,z
1/2+x,1/2+y,z
1/2-x,1/2+y,-z
1/2-x,1/2-y,-z
1/2+x,1/2-y,z
loop_
_atom_site_type_symbol
_atom_site_label
_atom_site_fract_x
_atom_site_fract_y
_atom_site_fract_z
Si Si1 0.686957 0.242673 0.503044
Si Si2 0.073873 0.267709 0.281118
Si Si3 0.515912 0.931693 0.650489
Si Si4 0.803076 0.197385 0.838910
Si Si5 0.423384 0.806623 0.084013
Si Si6 0.858572 0.636197 0.612721
Si Si7 0.372831 0.067569 0.093265
Si Si8 0.730920 0.068212 0.000943
O O1 0.750000 0.250000 0.500000
O O2 0.689311 0.291616 0.359837
O O3 0.617515 0.240955 0.731616
O O4 0.687646 0.178422 0.408213
O O5 0.124243 0.210846 0.216793
O O6 0.113821 0.321731 0.297607
O O7 0.000000 0.261239 0.500000
O O8 0.071143 0.284434 0.105108
O O9 0.500000 0.918911 0.500000
O O10 0.573022 0.885428 0.598631
O O11 0.543683 0.000000 0.608373
O O12 0.446149 0.930901 0.872077
O O13 0.750000 0.250000 0.000000
O O14 0.777075 0.128896 0.916815
O O15 0.376955 0.868222 0.173273
O O16 0.500000 0.816270 0.000000
O O17 0.820243 0.579603 0.760326
O O18 0.367946 0.000000 0.180536
O O19 0.314660 0.070075 0.070671
O O20 0.761631 0.000000 0.953427
#
# Coordination Sequence:
#
# PCOD9168611 Si02
#       8
#     8   8   8   8   8   8   8   8
#     4  11  23  34  54  78 108 149 186 229 287 331
#     4  11  21  35  58  83 110 147 193 239 284 330
#     4  10  16  25  44  73 106 145 188 226 260 307
#     4  11  20  39  60  81 111 150 192 241 283 335
#     4  12  22  35  51  80 114 148 191 236 279 338
#     4  11  19  32  53  77 110 145 189 231 274 328
#     4  10  19  31  47  71 111 156 189 224 272 327
#     4  11  20  33  58  86 109 143 194 241 280 330
#
# _framework density 17.29571
#
# number of rings (size 3 to 8) (size 9 to 14) (size 15 to 20)
#    0.000    1.125    5.000    5.250    0.000    0.250 
#    0.000    1.250    0.000    1.875    0.000    0.000 
#    0.000    2.000    0.000    0.000    0.000    0.000 
#
# Total GULP energy -178556.793234 kJ/mol
# GULP energy per Si atom -5579.899789 kJ/mol
# Density = 1.725634 g / cm^3
# Si number density = 17.295710 Si / 1000 Ang^3
#
#
#
# Elastic Constant Matrix: (Units=GPa)
#
#
# Indices 1 2 3 4 5 6 
#
# 1 81.8598 38.0622 19.3673 0.0000 9.7875 0.0000
# 2 38.0622 109.1820 31.5466 0.0000 -9.9847 0.0000
# 3 19.3673 31.5466 82.9133 0.0000 5.6653 0.0000
# 4 0.0000 0.0000 0.0000 23.0467 0.0000 -5.1175
# 5 9.7875 -9.9847 5.6653 0.0000 26.6573 0.0000
# 6 0.0000 0.0000 0.0000 -5.1175 0.0000 27.4677
#
#
#
# Elastic Compliance Matrix: (Units=1/GPa)
#
#
# Indices 1 2 3 4 5 6 
#
# 1 0.016252 -0.006142 -0.000908 0.000000 -0.008075 0.000000
# 2 -0.006142 0.013242 -0.004157 0.000000 0.008098 0.000000
# 3 -0.000908 -0.004157 0.014143 0.000000 -0.004230 0.000000
# 4 0.000000 0.000000 0.000000 0.045263 0.000000 0.008433
# 5 -0.008075 0.008098 -0.004230 0.000000 0.044410 0.000000
# 6 0.000000 0.000000 0.000000 0.008433 0.000000 0.037978
#
#
# Mechanical properties :
#
#
# Convention : Reuss Voigt Hill
#
# Bulk Modulus (GPa) = 47.11562 50.21194 48.66378
# Shear Modulus (GPa) = 24.90353 27.76629 26.33491
#
# Velocity S-wave (km/s) = 3.79867 4.01107 3.90632
# Velocity P-wave (km/s) = 6.82204 7.10958 6.96729
#
# Compressibility (1/GPa) = 0.02122438
#
# Stress axis : x y z
#
# Youngs Moduli (GPa) = 61.53119 75.51847 70.70425
#
# Poissons Ratio (x) = 0.46382 0.06418
# Poissons Ratio (y) = 0.37791 0.29391
# Poissons Ratio (z) = 0.05585 0.31392
#
# Static dielectric constant tensor:
#      x y z
#    x 1.599640 0.000000 0.022070 
#    y 0.000000 1.638200 0.000000 
#    z 0.022070 0.000000 1.643680 
# 
# From -- ./inp_files/106381.got.cif
#   From: 2010.05.17/outbox.cif.g08.bks.cpg/sg12_54_cif.got.tgz:106381.got - 2010.06.03 13:09:07.
