data_PCOD9168872
_publ_section_title
;
Structure prediction by ZEFSAII (Michael W. Deem and Ramdas Pophale) SiO2 
 PCOD9168872
Probable space group: C 2/M
;
_chemical_formula_sum "Si O2"
_cell_formula_units_Z 56
_cell_length_a 5.466425
_cell_length_b 25.543584
_cell_length_c 23.134005
_cell_angle_alpha 90.000000
_cell_angle_beta 132.087910
_cell_angle_gamma 90.000000
_cell_volume 2397.223920
_symmetry_space_group_name_H-M "C 2/M"
_symmetry_group_IT_number 12
_symmetry_cell_setting 'monoclinic'
loop_
_space_group_symop_operation_xyz
x,y,z
-x,y,-z
-x,-y,-z
x,-y,z
1/2+x,1/2+y,z
1/2-x,1/2+y,-z
1/2-x,1/2-y,-z
1/2+x,1/2-y,z
loop_
_atom_site_type_symbol
_atom_site_label
_atom_site_fract_x
_atom_site_fract_y
_atom_site_fract_z
Si Si1 0.343660 0.398965 0.222785
Si Si2 0.680170 0.939871 0.604975
Si Si3 0.138958 0.782739 0.784861
Si Si4 0.158521 0.309515 0.967708
Si Si5 0.294799 0.062279 0.205280
Si Si6 0.216545 0.895262 0.618157
Si Si7 0.732872 0.221964 0.405917
O O1 0.560904 0.435001 0.300274
O O2 0.440131 0.339566 0.254259
O O3 0.459614 0.412852 0.176697
O O4 0.964800 0.411157 0.176878
O O5 0.345001 0.917740 0.578165
O O6 0.849274 0.907833 0.580373
O O7 0.650049 0.000000 0.584245
O O8 0.341062 0.746037 0.771994
O O9 0.398355 0.801254 0.875391
O O10 0.500000 0.334199 0.000000
O O11 0.250000 0.250000 0.000000
O O12 0.000000 0.334124 0.000000
O O13 0.554072 0.077466 0.297214
O O14 0.271158 0.000000 0.195496
O O15 0.283224 0.833916 0.626848
O O16 0.397091 0.239495 0.384559
O O17 0.000000 0.217766 0.500000
#
# Coordination Sequence:
#
# PCOD9168872 Si02
#       7
#     8   8   8   8   8   8   8
#     4  10  20  32  48  76 100 133 170 197 247 305
#     4  10  19  35  55  74 101 130 166 212 252 300
#     4  12  21  32  47  69 108 139 158 204 243 287
#     4  10  16  30  48  66  85 132 170 198 234 284
#     4  10  19  36  55  72 100 130 166 214 252 298
#     4  10  18  32  56  78  94 131 176 208 240 300
#     4  10  21  37  54  75 104 137 171 209 246 289
#
# _framework density 23.360354999999998
#
# number of rings (size 3 to 8) (size 9 to 14) (size 15 to 20)
#    0.000    1.714    2.857    6.000    0.000    0.000 
#    0.000   17.143    0.000    4.714    0.000    0.000 
#    0.000   19.429    0.000    0.000    0.000    0.000 
#
# Total GULP energy -156558.714517 kJ/mol
# GULP energy per Si atom -5591.382661 kJ/mol
# Density = 2.330719 g / cm^3
# Si number density = 23.360355 Si / 1000 Ang^3
#
#
#
# Elastic Constant Matrix: (Units=GPa)
#
#
# Indices 1 2 3 4 5 6 
#
# 1 260.2669 63.4187 2.0946 0.0000 10.6837 0.0000
# 2 63.4187 156.9563 -11.1817 0.0000 7.8753 0.0000
# 3 2.0946 -11.1817 45.3393 0.0000 -6.8330 0.0000
# 4 0.0000 0.0000 0.0000 19.8112 0.0000 -1.5717
# 5 10.6837 7.8753 -6.8330 0.0000 17.9861 0.0000
# 6 0.0000 0.0000 0.0000 -1.5717 0.0000 40.3228
#
#
#
# Elastic Compliance Matrix: (Units=1/GPa)
#
#
# Indices 1 2 3 4 5 6 
#
# 1 0.004359 -0.001719 -0.000957 0.000000 -0.002200 0.000000
# 2 -0.001719 0.007260 0.001638 0.000000 -0.001535 0.000000
# 3 -0.000957 0.001638 0.023847 0.000000 0.008911 0.000000
# 4 0.000000 0.000000 0.000000 0.050633 0.000000 0.001974
# 5 -0.002200 -0.001535 0.008911 0.000000 0.060963 0.000000
# 6 0.000000 0.000000 0.000000 0.001974 0.000000 0.024877
#
#
# Mechanical properties :
#
#
# Convention : Reuss Voigt Hill
#
# Bulk Modulus (GPa) = 29.94853 63.46953 46.70903
# Shear Modulus (GPa) = 27.00604 42.83941 34.92272
#
# Velocity S-wave (km/s) = 3.40378 4.28699 3.87066
# Velocity P-wave (km/s) = 5.31937 7.19258 6.32570
#
# Compressibility (1/GPa) = 0.03339062
#
# Stress axis : x y z
#
# Youngs Moduli (GPa) = 229.40451 137.74960 41.93379
#
# Poissons Ratio (x) = 0.23680 0.04013
# Poissons Ratio (y) = 0.39437 -0.06871
# Poissons Ratio (z) = 0.21952 -0.22569
#
# Static dielectric constant tensor:
#      x y z
#    x 2.020660 0.000000 -0.078960 
#    y 0.000000 1.745920 0.000000 
#    z -0.078960 0.000000 1.994840 
# 
# From -- ./inp_files/331381.got.cif
#   From: 2010.05.17/outbox.cif.g08.bks.cpg/sg12_166_cif.got.tgz:331381.got - 2010.06.03 13:09:07.
