data_PCOD9168726
_publ_section_title
;
Structure prediction by ZEFSAII (Michael W. Deem and Ramdas Pophale) SiO2 
 PCOD9168726
Probable space group: C 2/M
;
_chemical_formula_sum "Si O2"
_cell_formula_units_Z 56
_cell_length_a 20.967700
_cell_length_b 8.021592
_cell_length_c 26.117248
_cell_angle_alpha 90.000000
_cell_angle_beta 48.896833
_cell_angle_gamma 90.000000
_cell_volume 3310.073414
_symmetry_space_group_name_H-M "C 2/M"
_symmetry_group_IT_number 12
_symmetry_cell_setting 'monoclinic'
loop_
_space_group_symop_operation_xyz
x,y,z
-x,y,-z
-x,-y,-z
x,-y,z
1/2+x,1/2+y,z
1/2-x,1/2+y,-z
1/2-x,1/2-y,-z
1/2+x,1/2-y,z
loop_
_atom_site_type_symbol
_atom_site_label
_atom_site_fract_x
_atom_site_fract_y
_atom_site_fract_z
Si Si1 0.424696 0.690416 0.174326
Si Si2 0.777359 0.803831 0.324111
Si Si3 0.853811 0.805192 0.690237
Si Si4 0.479809 0.296277 0.452620
Si Si5 0.719623 0.683689 0.838358
Si Si6 0.994565 0.500000 0.916962
Si Si7 0.357617 0.000000 0.073604
Si Si8 0.288670 0.699452 0.533553
O O1 0.457139 0.500000 0.161976
O O2 0.369999 0.738580 0.253244
O O3 0.353754 0.687170 0.166606
O O4 0.490319 0.832987 0.124003
O O5 0.706738 0.710084 0.327742
O O6 0.763129 0.769174 0.390927
O O7 0.765641 0.000000 0.319677
O O8 0.805922 0.713625 0.761445
O O9 0.945520 0.741126 0.624695
O O10 0.859651 0.000000 0.700718
O O11 0.500000 0.243211 0.500000
O O12 0.481975 0.500000 0.451230
O O13 0.386008 0.242398 0.486971
O O14 0.718613 0.500000 0.862604
O O15 0.697625 0.835036 0.887399
O O16 0.069336 0.500000 0.920706
O O17 0.907367 0.500000 0.994051
O O18 0.288773 0.500000 0.537871
O O19 0.250000 0.750000 0.500000
#
# Coordination Sequence:
#
# PCOD9168726 Si02
#       8
#     8   8   8   8   8   4   4   8
#     4   8  16  26  38  59  85 112 153 201 236 278
#     4  10  19  30  45  67  91 120 160 204 247 293
#     4  10  16  27  48  67  89 119 161 209 247 288
#     4   9  17  31  49  72  93 122 165 209 251 293
#     4   9  16  26  38  58  86 118 156 195 240 290
#     4   9  16  24  40  56  83 116 163 188 235 291
#     4   9  16  26  36  58  82 123 154 193 236 293
#     4  11  22  36  51  68  96 131 167 204 256 306
#
# _framework density 16.918053
#
# number of rings (size 3 to 8) (size 9 to 14) (size 15 to 20)
#    0.000    2.571    2.143    2.143    4.000    0.571 
#    0.000    6.429    0.000    0.000    0.000    0.000 
#    0.000    0.000    0.000    1.286    4.000    1.000 
#
# Total GULP energy -156053.954821 kJ/mol
# GULP energy per Si atom -5573.355529 kJ/mol
# Density = 1.687955 g / cm^3
# Si number density = 16.918053 Si / 1000 Ang^3
#
#
#
# Elastic Constant Matrix: (Units=GPa)
#
#
# Indices 1 2 3 4 5 6 
#
# 1 45.4258 12.9471 33.0837 0.0003 -2.4955 -0.0014
# 2 12.9471 87.5755 68.6189 0.0013 -9.1558 -0.0020
# 3 33.0837 68.6189 156.2694 0.0000 -14.5490 -0.0003
# 4 0.0003 0.0013 0.0000 12.7097 -0.0001 6.7262
# 5 -2.4955 -9.1558 -14.5490 -0.0001 9.3329 0.0002
# 6 -0.0014 -0.0020 -0.0003 6.7262 0.0002 5.0309
#
#
#
# Elastic Compliance Matrix: (Units=1/GPa)
#
#
# Indices 1 2 3 4 5 6 
#
# 1 0.026079 0.000636 -0.005958 -0.000015 -0.001691 0.000028
# 2 0.000636 0.017719 -0.007348 -0.000018 0.006099 0.000031
# 3 -0.005958 -0.007348 0.011777 0.000011 0.009558 -0.000019
# 4 -0.000015 -0.000018 0.000011 0.269041 0.000004 -0.359702
# 5 -0.001691 0.006099 0.009558 0.000004 0.127578 -0.000007
# 6 0.000028 0.000031 -0.000019 -0.359702 -0.000007 0.679686
#
#
# Mechanical properties :
#
#
# Convention : Reuss Voigt Hill
#
# Bulk Modulus (GPa) = 33.07284 57.61891 45.34588
# Shear Modulus (GPa) = 4.28340 17.05610 10.66975
#
# Velocity S-wave (km/s) = 1.59291 3.17860 2.51404
# Velocity P-wave (km/s) = 4.79316 6.89949 5.94043
#
# Compressibility (1/GPa) = 0.03023629
#
# Stress axis : x y z
#
# Youngs Moduli (GPa) = 38.34521 56.43523 84.91343
#
# Poissons Ratio (x) = -0.03589 0.50590
# Poissons Ratio (y) = -0.02439 0.62390
# Poissons Ratio (z) = 0.22845 0.41466
#
# Static dielectric constant tensor:
#      x y z
#    x 1.529690 0.000000 -0.014830 
#    y 0.000000 1.609150 0.000000 
#    z -0.014830 0.000000 1.580600 
# 
# From -- ./inp_files/345506.got.cif
#   From: 2010.05.17/outbox.cif.g08.bks.cpg/sg12_173_cif.got.tgz:345506.got - 2010.06.03 13:09:07.
