data_PCOD9168685
_publ_section_title
;
Structure prediction by ZEFSAII (Michael W. Deem and Ramdas Pophale) SiO2 
 PCOD9168685
Probable space group: C 2/M
;
_chemical_formula_sum "Si O2"
_cell_formula_units_Z 24
_cell_length_a 5.131380
_cell_length_b 30.250517
_cell_length_c 7.079002
_cell_angle_alpha 90.000000
_cell_angle_beta 79.343241
_cell_angle_gamma 90.000000
_cell_volume 1079.899232
_symmetry_space_group_name_H-M "C 2/M"
_symmetry_group_IT_number 12
_symmetry_cell_setting 'monoclinic'
loop_
_space_group_symop_operation_xyz
x,y,z
-x,y,-z
-x,-y,-z
x,-y,z
1/2+x,1/2+y,z
1/2-x,1/2+y,-z
1/2-x,1/2-y,-z
1/2+x,1/2-y,z
loop_
_atom_site_type_symbol
_atom_site_label
_atom_site_fract_x
_atom_site_fract_y
_atom_site_fract_z
Si Si1 0.792286 0.000000 0.357605
Si Si2 0.470649 0.860123 0.731033
Si Si3 0.476588 0.590762 0.731402
Si Si4 0.500000 0.219056 0.000000
O O1 0.500000 0.000000 0.500000
O O2 0.878990 0.955567 0.236781
O O3 0.000000 0.000000 0.500000
O O4 0.500000 0.858817 0.500000
O O5 0.165007 0.872879 0.799039
O O6 0.538801 0.814044 0.818403
O O7 0.668619 0.897179 0.792389
O O8 0.500000 0.593298 0.500000
O O9 0.750000 0.250000 0.000000
#
# Coordination Sequence:
#
# PCOD9168685 Si02
#       4
#     4   8   8   4
#     4  10  16  26  50  87 122 151 193 230 259 321
#     4  10  21  38  59  83 114 149 186 230 285 340
#     4   9  17  31  54  84 117 153 187 225 272 325
#     4  12  26  42  62  85 108 143 190 242 298 348
#
# _framework density 22.224295999999999
#
# number of rings (size 3 to 8) (size 9 to 14) (size 15 to 20)
#    0.000    2.000    0.000    7.000    0.000    1.333 
#    0.000    0.000    0.000    6.000    0.000    0.000 
#    0.000    0.000    0.000    0.000    0.000    0.000 
#
# Total GULP energy -66896.550390 kJ/mol
# GULP energy per Si atom -5574.712533 kJ/mol
# Density = 2.217371 g / cm^3
# Si number density = 22.224296 Si / 1000 Ang^3
#
#
#
# Elastic Constant Matrix: (Units=GPa)
#
#
# Indices 1 2 3 4 5 6 
#
# 1 187.9865 73.6186 43.1735 0.0000 10.7784 0.0000
# 2 73.6186 138.8166 24.9548 0.0000 11.5910 0.0000
# 3 43.1735 24.9548 92.9448 0.0000 -2.0644 0.0000
# 4 0.0000 0.0000 0.0000 55.5841 0.0000 11.0483
# 5 10.7784 11.5910 -2.0644 0.0000 27.0352 0.0000
# 6 0.0000 0.0000 0.0000 11.0483 0.0000 47.1059
#
#
#
# Elastic Compliance Matrix: (Units=1/GPa)
#
#
# Indices 1 2 3 4 5 6 
#
# 1 0.007278 -0.003261 -0.002543 0.000000 -0.001698 0.000000
# 2 -0.003261 0.009357 -0.001060 0.000000 -0.002792 0.000000
# 3 -0.002543 -0.001060 0.012278 0.000000 0.002406 0.000000
# 4 0.000000 0.000000 0.000000 0.018870 0.000000 -0.004426
# 5 -0.001698 -0.002792 0.002406 0.000000 0.039047 0.000000
# 6 0.000000 0.000000 0.000000 -0.004426 0.000000 0.022267
#
#
# Mechanical properties :
#
#
# Convention : Reuss Voigt Hill
#
# Bulk Modulus (GPa) = 65.84857 78.13795 71.99326
# Shear Modulus (GPa) = 39.09767 44.47847 41.78807
#
# Velocity S-wave (km/s) = 4.19887 4.47849 4.34093
# Velocity P-wave (km/s) = 7.29388 7.87259 7.58875
#
# Compressibility (1/GPa) = 0.01518636
#
# Stress axis : x y z
#
# Youngs Moduli (GPa) = 137.40354 106.87556 81.44553
#
# Poissons Ratio (x) = 0.34850 0.20710
# Poissons Ratio (y) = 0.44804 0.08630
# Poissons Ratio (z) = 0.34939 0.11324
#
# Static dielectric constant tensor:
#      x y z
#    x 1.780760 0.000000 -0.022060 
#    y 0.000000 1.882740 0.000000 
#    z -0.022060 0.000000 1.893470 
# 
# From -- ./inp_files/33803.got.cif
#   From: 2010.05.17/outbox.cif.g08.bks.cpg/sg12_17_cif.got.tgz:33803.got - 2010.06.03 13:09:07.
