data_PCOD9168333
_publ_section_title
;
Structure prediction by ZEFSAII (Michael W. Deem and Ramdas Pophale) SiO2 
 PCOD9168333
Probable space group: C 2/M
;
_chemical_formula_sum "Si O2"
_cell_formula_units_Z 36
_cell_length_a 32.103773
_cell_length_b 14.397692
_cell_length_c 9.579418
_cell_angle_alpha 90.000000
_cell_angle_beta 150.384178
_cell_angle_gamma 90.000000
_cell_volume 2188.139280
_symmetry_space_group_name_H-M "C 2/M"
_symmetry_group_IT_number 12
_symmetry_cell_setting 'monoclinic'
loop_
_space_group_symop_operation_xyz
x,y,z
-x,y,-z
-x,-y,-z
x,-y,z
1/2+x,1/2+y,z
1/2-x,1/2+y,-z
1/2-x,1/2-y,-z
1/2+x,1/2-y,z
loop_
_atom_site_type_symbol
_atom_site_label
_atom_site_fract_x
_atom_site_fract_y
_atom_site_fract_z
Si Si1 0.986144 0.793210 0.301200
Si Si2 0.269191 0.000000 0.534083
Si Si3 0.850031 0.000000 0.563311
Si Si4 0.834405 0.702454 0.687526
Si Si5 0.921420 0.000000 0.066961
Si Si6 0.589510 0.306651 0.343228
O O1 0.000000 0.764055 0.500000
O O2 0.065310 0.778144 0.428921
O O3 0.963633 0.903739 0.234481
O O4 0.909111 0.739013 0.004457
O O5 0.236612 0.000000 0.600493
O O6 0.319942 0.092836 0.650615
O O7 0.178750 0.000000 0.189152
O O8 0.864979 0.093872 0.524107
O O9 0.918447 0.000000 0.889340
O O10 0.750000 0.750000 0.500000
O O11 0.856099 0.738308 0.595259
O O12 0.500000 0.315394 0.000000
#
# Coordination Sequence:
#
# PCOD9168333 Si02
#       6
#     8   4   4   8   4   8
#     4  11  22  34  52  82 113 137 169 221 273 305
#     4  10  18  31  57  85  97 134 181 220 246 305
#     4  10  14  27  56  82 104 123 179 221 255 308
#     4  11  18  35  58  77 105 137 181 212 253 317
#     4  10  16  31  57  81 109 127 168 230 270 303
#     4  10  17  30  53  78 104 139 175 213 257 309
#
# _framework density 16.452335999999999
#
# number of rings (size 3 to 8) (size 9 to 14) (size 15 to 20)
#    0.667    0.889    8.889    1.333    0.000    0.000 
#    0.000    6.667    0.000    0.000    0.000    0.000 
#    0.000    0.000    0.000    0.000    0.000    0.000 
#
# Total GULP energy -100263.315790 kJ/mol
# GULP energy per Si atom -5570.184211 kJ/mol
# Density = 1.641489 g / cm^3
# Si number density = 16.452336 Si / 1000 Ang^3
#
#
#
# Elastic Constant Matrix: (Units=GPa)
#
#
# Indices 1 2 3 4 5 6 
#
# 1 165.2990 65.1077 46.5068 0.0000 1.9271 0.0000
# 2 65.1077 126.1689 22.4926 0.0000 17.0371 0.0000
# 3 46.5068 22.4926 29.7906 0.0000 -0.7759 0.0000
# 4 0.0000 0.0000 0.0000 10.2452 0.0000 10.7067
# 5 1.9271 17.0371 -0.7759 0.0000 27.6821 0.0000
# 6 0.0000 0.0000 0.0000 10.7067 0.0000 26.0424
#
#
#
# Elastic Compliance Matrix: (Units=1/GPa)
#
#
# Indices 1 2 3 4 5 6 
#
# 1 0.011857 -0.003388 -0.015930 0.000000 0.000813 0.000000
# 2 -0.003388 0.011177 -0.003324 0.000000 -0.006736 0.000000
# 3 -0.015930 -0.003324 0.061074 0.000000 0.004867 0.000000
# 4 0.000000 0.000000 0.000000 0.171133 0.000000 -0.070357
# 5 0.000813 -0.006736 0.004867 0.000000 0.040350 0.000000
# 6 0.000000 0.000000 0.000000 -0.070357 0.000000 0.067324
#
#
# Mechanical properties :
#
#
# Convention : Reuss Voigt Hill
#
# Bulk Modulus (GPa) = 25.75935 65.49698 45.62817
# Shear Modulus (GPa) = 11.87251 25.27069 18.57160
#
# Velocity S-wave (km/s) = 2.68923 3.92343 3.36342
# Velocity P-wave (km/s) = 5.03325 7.77309 6.54807
#
# Compressibility (1/GPa) = 0.03882085
#
# Stress axis : x y z
#
# Youngs Moduli (GPa) = 84.33976 89.47212 16.37362
#
# Poissons Ratio (x) = 0.30317 0.26084
# Poissons Ratio (y) = 0.28578 0.05443
# Poissons Ratio (z) = 1.34357 0.29744
#
# Static dielectric constant tensor:
#      x y z
#    x 1.582530 0.000000 0.006410 
#    y 0.000000 1.549600 0.000000 
#    z 0.006410 0.000000 1.546400 
# 
# From -- ./inp_files/111822.got.cif
#   From: 2010.05.17/outbox.cif.g08.bks.cpg/sg12_56_cif.got.tgz:111822.got - 2010.06.03 13:09:07.
