data_PCOD9168324
_publ_section_title
;
Structure prediction by ZEFSAII (Michael W. Deem and Ramdas Pophale) SiO2 
 PCOD9168324
Probable space group: C 2/M
;
_chemical_formula_sum "Si O2"
_cell_formula_units_Z 36
_cell_length_a 5.390441
_cell_length_b 14.153980
_cell_length_c 21.614212
_cell_angle_alpha 90.000000
_cell_angle_beta 97.237646
_cell_angle_gamma 90.000000
_cell_volume 1635.942454
_symmetry_space_group_name_H-M "C 2/M"
_symmetry_group_IT_number 12
_symmetry_cell_setting 'monoclinic'
loop_
_space_group_symop_operation_xyz
x,y,z
-x,y,-z
-x,-y,-z
x,-y,z
1/2+x,1/2+y,z
1/2-x,1/2+y,-z
1/2-x,1/2-y,-z
1/2+x,1/2-y,z
loop_
_atom_site_type_symbol
_atom_site_label
_atom_site_fract_x
_atom_site_fract_y
_atom_site_fract_z
Si Si1 0.684341 0.364603 0.270903
Si Si2 0.000000 0.186233 0.000000
Si Si3 0.289165 0.848329 0.677770
Si Si4 0.229585 0.613647 0.461963
Si Si5 0.936718 0.185881 0.864160
O O1 0.708936 0.252113 0.286768
O O2 0.466870 0.396743 0.309719
O O3 0.604076 0.376876 0.197634
O O4 0.959812 0.399781 0.293661
O O5 0.032995 0.136990 0.067668
O O6 0.750000 0.250000 0.000000
O O7 0.296200 0.835738 0.604614
O O8 0.500000 0.633416 0.500000
O O9 0.217366 0.500000 0.450082
O O10 0.000000 0.637394 0.500000
O O11 0.688157 0.252066 0.860832
#
# Coordination Sequence:
#
# PCOD9168324 Si02
#       5
#     8   4   8   8   8
#     4  10  17  28  43  65  93 116 135 168 211 254
#     4   8  16  20  34  52  78 118 152 170 188 226
#     4  10  18  30  46  65  84 111 140 166 211 261
#     4  10  21  37  52  64  81 107 140 178 216 253
#     4  10  14  25  36  56  85 119 147 168 197 239
#
# _framework density 22.005665
#
# number of rings (size 3 to 8) (size 9 to 14) (size 15 to 20)
#    0.000    2.222    4.444    1.333    0.000    0.000 
#    0.000   13.333    0.000    0.000    0.000    0.000 
#    0.000    0.000    0.000   11.000    0.000    0.000 
#
# Total GULP energy -100420.247054 kJ/mol
# GULP energy per Si atom -5578.902614 kJ/mol
# Density = 2.195558 g / cm^3
# Si number density = 22.005665 Si / 1000 Ang^3
#
#
#
# Elastic Constant Matrix: (Units=GPa)
#
#
# Indices 1 2 3 4 5 6 
#
# 1 129.1846 3.5919 -29.9309 0.0000 -4.6927 0.0000
# 2 3.5919 72.2782 1.3469 0.0000 0.4414 0.0000
# 3 -29.9309 1.3469 145.7216 0.0000 -3.6495 0.0000
# 4 0.0000 0.0000 0.0000 -30.2522 0.0000 6.5253
# 5 -4.6927 0.4414 -3.6495 0.0000 39.9667 0.0000
# 6 0.0000 0.0000 0.0000 6.5253 0.0000 -23.9973
#
#
#
# Elastic Compliance Matrix: (Units=1/GPa)
#
#
# Indices 1 2 3 4 5 6 
#
# 1 0.008191 -0.000446 0.001715 0.000000 0.001123 0.000000
# 2 -0.000446 0.013863 -0.000225 0.000000 -0.000226 0.000000
# 3 0.001715 -0.000225 0.007238 0.000000 0.000865 0.000000
# 4 0.000000 0.000000 0.000000 -0.035115 0.000000 -0.009548
# 5 0.001123 -0.000226 0.000865 0.000000 0.025234 0.000000
# 6 0.000000 0.000000 0.000000 -0.009548 0.000000 -0.044268
#
#
# Mechanical properties :
#
#
# Convention : Reuss Voigt Hill
#
# Bulk Modulus (GPa) = 31.86765 33.02226 32.44495
# Shear Modulus (GPa) = -303.35068 21.95521 -140.69774
#
# Velocity S-wave (km/s) = -11.75374 3.16208 -8.00474
# Velocity P-wave (km/s) = 13.02642 5.32639 8.40586
#
# Compressibility (1/GPa) = 0.03137979
#
# Stress axis : x y z
#
# Youngs Moduli (GPa) = 122.07998 72.13360 138.15310
#
# Poissons Ratio (x) = 0.03216 -0.23690
# Poissons Ratio (y) = 0.05443 0.03114
# Poissons Ratio (z) = -0.20934 0.01626
#
# Static dielectric constant tensor:
#      x y z
#    x 1.859270 0.000000 -0.012900 
#    y 0.000000 1.900420 0.000000 
#    z -0.012900 0.000000 1.797660 
# 
# From -- ./inp_files/252733.got.cif
#   From: 2010.05.17/outbox.cif.g08.bks.cpg/sg12_127_cif.got.tgz:252733.got - 2010.06.03 13:09:07.
