data_PCOD9168187
_publ_section_title
;
Structure prediction by ZEFSAII (Michael W. Deem and Ramdas Pophale) SiO2 
 PCOD9168187
Probable space group: P 21/M
;
_chemical_formula_sum "Si O2"
_cell_formula_units_Z 32
_cell_length_a 24.000000
_cell_length_b 15.000000
_cell_length_c 9.000000
_cell_angle_alpha 90.000000
_cell_angle_beta 30.000000
_cell_angle_gamma 90.000000
_cell_volume 1620.000000
_symmetry_space_group_name_H-M "P 21/M"
_symmetry_group_IT_number 11
_symmetry_cell_setting 'monoclinic'
loop_
_space_group_symop_operation_xyz
x,y,z
-x,1/2+y,-z
-x,-y,-z
x,1/2-y,z
loop_
_atom_site_type_symbol
_atom_site_label
_atom_site_fract_x
_atom_site_fract_y
_atom_site_fract_z
Si Si1 0.056731 0.354862 0.230762
Si Si2 0.330372 0.145508 0.051230
Si Si3 0.205500 0.852465 0.097109
Si Si4 0.076867 0.984883 0.967573
Si Si5 0.525905 0.438068 0.802644
Si Si6 0.253282 0.650306 0.635858
Si Si7 0.906299 0.854745 0.514790
Si Si8 0.621320 0.508828 0.292041
O O1 0.075860 0.250000 0.151379
O O2 0.096908 0.423652 0.012301
O O3 0.110663 0.373280 0.269081
O O4 0.922175 0.367403 0.558732
O O5 0.355230 0.250000 0.996999
O O6 0.196255 0.133942 0.365186
O O7 0.415302 0.098748 0.971988
O O8 0.345860 0.103187 0.851670
O O9 0.237656 0.750000 0.065968
O O10 0.211260 0.854865 0.904276
O O11 0.290509 0.930200 0.954710
O O12 0.001944 0.920584 0.243027
O O13 0.190990 0.927476 0.687154
O O14 0.000000 0.000000 0.000000
O O15 0.613631 0.363893 0.656338
O O16 0.598073 0.495969 0.518530
O O17 0.500000 0.500000 0.000000
O O18 0.228365 0.750000 0.636488
O O19 0.938647 0.750000 0.434345
O O20 0.500000 0.500000 0.500000
#
# Coordination Sequence:
#
# PCOD9168187 Si02
#       8
#     4   4   4   4   4   4   4   4
#     4  10  21  38  60  90 120 158 206 254 298 361
#     4  10  21  38  61  87 120 159 198 246 301 360
#     4   9  17  34  62  89 113 150 199 249 299 347
#     4  12  25  36  60  89 128 165 197 247 311 369
#     4  10  22  39  63  86 121 158 206 252 308 360
#     4  10  21  39  63  87 116 160 206 248 299 366
#     4  10  21  38  62  89 121 156 202 247 299 364
#     4   9  19  34  56  86 116 149 195 250 291 354
#
# _framework density 19.753086
#
# number of rings (size 3 to 8) (size 9 to 14) (size 15 to 20)
#    0.000    2.000    1.250    1.875    5.250    4.000 
#    0.000    1.250    0.000    0.750    0.000    0.000 
#    0.000    0.000    0.000    0.000    0.000    0.000 
#
# Total GULP energy -178346.050441 kJ/mol
# GULP energy per Si atom -5573.314076 kJ/mol
# Density = 1.970813 g / cm^3
# Si number density = 19.753086 Si / 1000 Ang^3
#
#
#
# Elastic Constant Matrix: (Units=GPa)
#
#
# Indices 1 2 3 4 5 6 
#
# 1 116.6958 61.3436 23.1964 0.0000 -23.1526 0.0000
# 2 61.3436 81.7695 35.5584 0.0000 -7.4790 0.0000
# 3 23.1964 35.5584 39.7492 0.0000 -14.4779 0.0000
# 4 0.0000 0.0000 0.0000 17.1041 0.0000 -7.1608
# 5 -23.1526 -7.4790 -14.4779 0.0000 31.8360 0.0000
# 6 0.0000 0.0000 0.0000 -7.1608 0.0000 38.9744
#
#
#
# Elastic Compliance Matrix: (Units=1/GPa)
#
#
# Indices 1 2 3 4 5 6 
#
# 1 0.017840 -0.015937 0.008638 0.000000 0.013159 0.000000
# 2 -0.015937 0.034714 -0.027572 0.000000 -0.015974 0.000000
# 3 0.008638 -0.027572 0.053587 0.000000 0.024174 0.000000
# 4 0.000000 0.000000 0.000000 0.063337 0.000000 0.011637
# 5 0.013159 -0.015974 0.024174 0.000000 0.048222 0.000000
# 6 0.000000 0.000000 0.000000 0.011637 0.000000 0.027796
#
#
# Mechanical properties :
#
#
# Convention : Reuss Voigt Hill
#
# Bulk Modulus (GPa) = 27.47235 53.15681 40.31458
# Shear Modulus (GPa) = 15.27315 25.45731 20.36523
#
# Velocity S-wave (km/s) = 2.78367 3.59385 3.21439
# Velocity P-wave (km/s) = 4.92644 6.64756 5.85064
#
# Compressibility (1/GPa) = 0.03640023
#
# Stress axis : x y z
#
# Youngs Moduli (GPa) = 56.05238 28.80645 18.66124
#
# Poissons Ratio (x) = 0.45908 -0.16120
# Poissons Ratio (y) = 0.89330 0.51453
# Poissons Ratio (z) = -0.48420 0.79426
#
# Static dielectric constant tensor:
#      x y z
#    x 1.689460 0.000000 -0.033860 
#    y 0.000000 1.718890 0.000000 
#    z -0.033860 0.000000 1.783430 
# 
# From -- ./inp_files/27764.got.cif
#   From: 2010.05.17/outbox.ucp.g08.bks.cvg/sg11_14_cif.got.tgz:27764.got - 2010.06.11 11:38:39.
