data_PCOD9168065
_publ_section_title
;
Structure prediction by ZEFSAII (Michael W. Deem and Ramdas Pophale) SiO2 
 PCOD9168065
Probable space group: P 21/M
;
_chemical_formula_sum "Si O2"
_cell_formula_units_Z 32
_cell_length_a 12.000000
_cell_length_b 9.000000
_cell_length_c 30.000000
_cell_angle_alpha 90.000000
_cell_angle_beta 30.000000
_cell_angle_gamma 90.000000
_cell_volume 1620.000000
_symmetry_space_group_name_H-M "P 21/M"
_symmetry_group_IT_number 11
_symmetry_cell_setting 'monoclinic'
loop_
_space_group_symop_operation_xyz
x,y,z
-x,1/2+y,-z
-x,-y,-z
x,1/2-y,z
loop_
_atom_site_type_symbol
_atom_site_label
_atom_site_fract_x
_atom_site_fract_y
_atom_site_fract_z
Si Si1 0.266163 0.571811 0.636157
Si Si2 0.900547 0.581591 0.076841
Si Si3 0.628080 0.419091 0.743812
Si Si4 0.076934 0.421125 0.179832
Si Si5 0.073792 0.426008 0.427812
Si Si6 0.260677 0.926252 0.538903
Si Si7 0.607059 0.921433 0.843799
Si Si8 0.793685 0.071871 0.954425
O O1 0.250162 0.750000 0.645287
O O2 0.518067 0.518836 0.546182
O O3 0.172193 0.532777 0.619197
O O4 0.151085 0.511519 0.721114
O O5 0.985184 0.750000 0.044221
O O6 0.637782 0.581133 0.165581
O O7 0.980825 0.530454 0.097613
O O8 0.000000 0.500000 0.000000
O O9 0.713756 0.250000 0.713553
O O10 0.712920 0.502755 0.670365
O O11 0.674660 0.493714 0.775701
O O12 0.048970 0.250000 0.175148
O O13 0.215840 0.421208 0.177642
O O14 0.197747 0.503743 0.097648
O O15 0.101122 0.250000 0.425327
O O16 0.000000 0.500000 0.500000
O O17 0.897521 0.448629 0.448461
O O18 0.312092 0.750000 0.523415
O O19 0.567389 0.750000 0.844190
O O20 0.390723 0.979855 0.945622
O O21 0.764762 0.250000 0.959228
#
# Coordination Sequence:
#
# PCOD9168065 Si02
#       8
#     4   4   4   4   4   4   4   4
#     4   9  18  34  56  83 112 143 184 232 283 341
#     4  10  21  38  59  84 114 148 192 242 286 338
#     4  11  23  38  61  91 118 149 193 242 290 346
#     4  10  21  35  53  81 116 151 189 233 284 342
#     4  11  24  42  62  85 118 155 193 240 291 346
#     4   9  19  37  60  82 108 145 186 232 285 336
#     4  10  20  37  59  81 113 154 193 234 283 340
#     4  10  21  36  55  80 112 151 191 234 285 337
#
# _framework density 19.753086
#
# number of rings (size 3 to 8) (size 9 to 14) (size 15 to 20)
#    0.000    2.000    1.250    1.875    0.000    6.500 
#    0.000    6.250    0.000    0.000    0.000    0.000 
#    0.000    0.000    0.000    0.000    0.000    0.000 
#
# Total GULP energy -178246.631284 kJ/mol
# GULP energy per Si atom -5570.207228 kJ/mol
# Density = 1.970813 g / cm^3
# Si number density = 19.753086 Si / 1000 Ang^3
#
#
#
# Elastic Constant Matrix: (Units=GPa)
#
#
# Indices 1 2 3 4 5 6 
#
# 1 44.1415 30.2558 24.5530 0.0000 22.4271 0.0000
# 2 30.2558 48.7143 43.4101 0.0000 15.3842 0.0000
# 3 24.5530 43.4101 94.2006 0.0000 27.4559 0.0000
# 4 0.0000 0.0000 0.0000 28.4916 0.0000 11.5791
# 5 22.4271 15.3842 27.4559 0.0000 38.8964 0.0000
# 6 0.0000 0.0000 0.0000 11.5791 0.0000 25.4916
#
#
#
# Elastic Compliance Matrix: (Units=1/GPa)
#
#
# Indices 1 2 3 4 5 6 
#
# 1 0.051749 -0.031976 0.007879 0.000000 -0.022752 0.000000
# 2 -0.031976 0.054886 -0.020150 0.000000 0.010953 0.000000
# 3 0.007879 -0.020150 0.021213 0.000000 -0.011547 0.000000
# 4 0.000000 0.000000 0.000000 0.043044 0.000000 -0.019552
# 5 -0.022752 0.010953 -0.011547 0.000000 0.042646 0.000000
# 6 0.000000 0.000000 0.000000 -0.019552 0.000000 0.048110
#
#
# Mechanical properties :
#
#
# Convention : Reuss Voigt Hill
#
# Bulk Modulus (GPa) = 25.41181 42.61049 34.01115
# Shear Modulus (GPa) = 13.76417 24.49843 19.13130
#
# Velocity S-wave (km/s) = 2.64258 3.52551 3.11548
# Velocity P-wave (km/s) = 4.71207 6.17986 5.49520
#
# Compressibility (1/GPa) = 0.03935179
#
# Stress axis : x y z
#
# Youngs Moduli (GPa) = 19.32396 18.21975 47.13998
#
# Poissons Ratio (x) = 0.58260 -0.37140
# Poissons Ratio (y) = 0.61791 0.94989
# Poissons Ratio (z) = -0.15225 0.36714
#
# Static dielectric constant tensor:
#      x y z
#    x 1.745370 0.000000 -0.080440 
#    y 0.000000 1.720390 0.000000 
#    z -0.080440 0.000000 1.768860 
# 
# From -- ./inp_files/73113.got.cif
#   From: 2010.05.17/outbox.ucp.g08.bks.cvg/sg11_37_cif.got.tgz:73113.got - 2010.06.11 11:38:39.
