data_PCOD9168849
_publ_section_title
;
Structure prediction by ZEFSAII (Michael W. Deem and Ramdas Pophale) SiO2 
 PCOD9168849
Probable space group: C 2/M
;
_chemical_formula_sum "Si O2"
_cell_formula_units_Z 44
_cell_length_a 27.975093
_cell_length_b 13.429921
_cell_length_c 7.819834
_cell_angle_alpha 90.000000
_cell_angle_beta 139.663077
_cell_angle_gamma 90.000000
_cell_volume 1901.671409
_symmetry_space_group_name_H-M "C 2/M"
_symmetry_group_IT_number 12
_symmetry_cell_setting 'monoclinic'
loop_
_space_group_symop_operation_xyz
x,y,z
-x,y,-z
-x,-y,-z
x,-y,z
1/2+x,1/2+y,z
1/2-x,1/2+y,-z
1/2-x,1/2-y,-z
1/2+x,1/2-y,z
loop_
_atom_site_type_symbol
_atom_site_label
_atom_site_fract_x
_atom_site_fract_y
_atom_site_fract_z
Si Si1 0.051054 0.385486 0.811044
Si Si2 0.583578 0.200360 0.383738
Si Si3 0.787948 0.213530 0.431294
Si Si4 0.146364 0.780373 0.906019
Si Si5 0.673700 0.000000 0.663985
Si Si6 0.775272 0.000000 0.247805
Si Si7 0.662787 0.500000 0.953112
O O1 0.070877 0.500000 0.910940
O O2 0.000694 0.331339 0.816141
O O3 0.000000 0.391460 0.500000
O O4 0.115874 0.310204 0.937266
O O5 0.626399 0.258289 0.351764
O O6 0.608871 0.262487 0.620867
O O7 0.625498 0.095507 0.499971
O O8 0.750000 0.250000 0.500000
O O9 0.781680 0.097385 0.377625
O O10 0.735097 0.267682 0.146266
O O11 0.130245 0.893827 0.920259
O O12 0.698975 0.000000 0.931802
O O13 0.749623 0.000000 0.764337
O O14 0.833003 0.000000 0.244961
#
# Coordination Sequence:
#
# PCOD9168849 Si02
#       7
#     8   8   8   8   4   4   4
#     4   9  20  32  58  90 120 146 187 243 297 340
#     4  11  18  37  59  90 115 152 189 237 295 345
#     4  12  24  36  58  86 119 154 199 241 286 345
#     4  11  20  36  57  88 114 154 196 233 292 344
#     4  10  16  29  66  86 111 147 192 236 298 339
#     4  10  20  36  54  88 114 154 184 250 298 328
#     4  10  18  33  62  86 113 153 194 238 290 341
#
# _framework density 23.137539
#
# number of rings (size 3 to 8) (size 9 to 14) (size 15 to 20)
#    0.545    0.909    6.364    0.545    2.545    1.455 
#    0.000    5.909    0.000    1.091    0.000    2.545 
#    0.000    0.000    0.000    0.000    0.000    0.000 
#
# Total GULP energy -122865.301652 kJ/mol
# GULP energy per Si atom -5584.786439 kJ/mol
# Density = 2.308488 g / cm^3
# Si number density = 23.137539 Si / 1000 Ang^3
#
#
#
# Elastic Constant Matrix: (Units=GPa)
#
#
# Indices 1 2 3 4 5 6 
#
# 1 101.0763 11.7226 -1.8134 0.0000 2.1332 0.0000
# 2 11.7226 170.6772 7.7924 0.0000 15.6331 0.0000
# 3 -1.8134 7.7924 28.8408 0.0000 0.6413 0.0000
# 4 0.0000 0.0000 0.0000 -2.1033 0.0000 10.6745
# 5 2.1332 15.6331 0.6413 0.0000 29.7804 0.0000
# 6 0.0000 0.0000 0.0000 10.6745 0.0000 31.7016
#
#
#
# Elastic Compliance Matrix: (Units=1/GPa)
#
#
# Indices 1 2 3 4 5 6 
#
# 1 0.009996 -0.000690 0.000823 0.000000 -0.000371 0.000000
# 2 -0.000690 0.006277 -0.001668 0.000000 -0.003209 0.000000
# 3 0.000823 -0.001668 0.035174 0.000000 0.000059 0.000000
# 4 0.000000 0.000000 0.000000 -0.175512 0.000000 0.059098
# 5 -0.000371 -0.003209 0.000059 0.000000 0.035289 0.000000
# 6 0.000000 0.000000 0.000000 0.059098 0.000000 0.011645
#
#
# Mechanical properties :
#
#
# Convention : Reuss Voigt Hill
#
# Bulk Modulus (GPa) = 20.67080 37.33304 29.00192
# Shear Modulus (GPa) = -86.30267 30.73527 -27.78370
#
# Velocity S-wave (km/s) = -6.11399 3.64864 -3.46902
# Velocity P-wave (km/s) = 6.39436 5.82412 1.86647
#
# Compressibility (1/GPa) = 0.04837742
#
# Stress axis : x y z
#
# Youngs Moduli (GPa) = 100.03835 159.32371 28.42995
#
# Poissons Ratio (x) = 0.10995 -0.02341
# Poissons Ratio (y) = 0.06904 0.04742
# Poissons Ratio (z) = -0.08236 0.26573
#
# Static dielectric constant tensor:
#      x y z
#    x 1.960870 0.000000 -0.040320 
#    y 0.000000 1.853210 0.000000 
#    z -0.040320 0.000000 1.925760 
# 
# From -- ./inp_files/103408.got.cif
#   From: 2010.05.17/outbox.cif.g08.bks.cpg/sg12_52_cif.got.tgz:103408.got - 2010.06.03 13:09:07.
