data_PCOD9168209
_publ_section_title
;
Structure prediction by ZEFSAII (Michael W. Deem and Ramdas Pophale) SiO2 
 PCOD9168209
Probable space group: P 21/M
;
_chemical_formula_sum "Si O2"
_cell_formula_units_Z 24
_cell_length_a 15.000000
_cell_length_b 15.000000
_cell_length_c 12.000000
_cell_angle_alpha 90.000000
_cell_angle_beta 150.000000
_cell_angle_gamma 90.000000
_cell_volume 1350.000000
_symmetry_space_group_name_H-M "P 21/M"
_symmetry_group_IT_number 11
_symmetry_cell_setting 'monoclinic'
loop_
_space_group_symop_operation_xyz
x,y,z
-x,1/2+y,-z
-x,-y,-z
x,1/2-y,z
loop_
_atom_site_type_symbol
_atom_site_label
_atom_site_fract_x
_atom_site_fract_y
_atom_site_fract_z
Si Si1 0.447434 0.645912 0.869928
Si Si2 0.078154 0.978529 0.863226
Si Si3 0.259417 0.360329 0.464916
Si Si4 0.701819 0.005575 0.673857
Si Si5 0.163725 0.645612 0.364720
Si Si6 0.598334 0.455036 0.956461
O O1 0.518215 0.750000 0.957904
O O2 0.297823 0.650922 0.613414
O O3 0.564699 0.558620 0.958486
O O4 0.371330 0.609212 0.904563
O O5 0.994823 0.078666 0.768329
O O6 0.922298 0.903995 0.681821
O O7 0.166550 0.975817 0.081275
O O8 0.234031 0.959691 0.944215
O O9 0.265278 0.250000 0.471304
O O10 0.262619 0.409931 0.347515
O O11 0.426747 0.408195 0.709815
O O12 0.738419 0.086513 0.626024
O O13 0.500000 0.000000 0.500000
O O14 0.119590 0.750000 0.286232
#
# Coordination Sequence:
#
# PCOD9168209 Si02
#       6
#     4   4   4   4   4   4
#     4  10  21  40  65  91 123 162 204 252 306 364
#     4  11  23  40  64  89 125 159 205 252 307 359
#     4  11  23  40  61  93 126 162 206 248 305 365
#     4  11  21  40  61  89 124 160 202 251 304 358
#     4  10  21  39  61  90 123 160 204 250 304 364
#     4  11  22  42  66  88 127 161 202 258 303 359
#
# _framework density 17.777778000000001
#
# number of rings (size 3 to 8) (size 9 to 14) (size 15 to 20)
#    0.000    1.333    5.000    2.500    0.000    6.000 
#    0.000    0.000    0.000    0.000    0.000    0.000 
#    0.000    0.000    0.000    0.000    0.000    0.000 
#
# Total GULP energy -133650.468321 kJ/mol
# GULP energy per Si atom -5568.769513 kJ/mol
# Density = 1.773731 g / cm^3
# Si number density = 17.777778 Si / 1000 Ang^3
#
#
#
# Elastic Constant Matrix: (Units=GPa)
#
#
# Indices 1 2 3 4 5 6 
#
# 1 137.4010 64.9157 50.8399 0.0000 11.5367 0.0000
# 2 64.9157 205.4090 39.8537 0.0000 12.7582 0.0000
# 3 50.8399 39.8537 51.2166 0.0000 14.6301 0.0000
# 4 0.0000 0.0000 0.0000 32.9402 0.0000 -4.9043
# 5 11.5367 12.7582 14.6301 0.0000 28.8914 0.0000
# 6 0.0000 0.0000 0.0000 -4.9043 0.0000 23.6525
#
#
#
# Elastic Compliance Matrix: (Units=1/GPa)
#
#
# Indices 1 2 3 4 5 6 
#
# 1 0.012072 -0.001767 -0.011052 0.000000 0.001557 0.000000
# 2 -0.001767 0.005995 -0.002755 0.000000 -0.000547 0.000000
# 3 -0.011052 -0.002755 0.036279 0.000000 -0.012741 0.000000
# 4 0.000000 0.000000 0.000000 0.031325 0.000000 0.006495
# 5 0.001557 -0.000547 -0.012741 0.000000 0.040684 0.000000
# 6 0.000000 0.000000 0.000000 0.006495 0.000000 0.043626
#
#
# Mechanical properties :
#
#
# Convention : Reuss Voigt Hill
#
# Bulk Modulus (GPa) = 43.10832 78.36058 60.73445
# Shear Modulus (GPa) = 23.93920 32.99129 28.46525
#
# Velocity S-wave (km/s) = 3.67356 4.31253 4.00580
# Velocity P-wave (km/s) = 6.50342 8.30486 7.45872
#
# Compressibility (1/GPa) = 0.02319738
#
# Stress axis : x y z
#
# Youngs Moduli (GPa) = 82.83780 166.79744 27.56401
#
# Poissons Ratio (x) = 0.29479 0.30465
# Poissons Ratio (y) = 0.14640 0.07593
# Poissons Ratio (z) = 0.91556 0.45947
#
# Static dielectric constant tensor:
#      x y z
#    x 1.629620 0.000000 -0.009500 
#    y 0.000000 1.610580 0.000000 
#    z -0.009500 0.000000 1.636940 
# 
# From -- ./inp_files/39700.got.cif
#   From: 2010.05.17/outbox.ucp.g08.bks.cvg/sg11_20_cif.got.tgz:39700.got - 2010.06.11 11:38:39.
