data_PCOD9168038
_publ_section_title
;
Structure prediction by ZEFSAII (Michael W. Deem and Ramdas Pophale) SiO2 
 PCOD9168038
Probable space group: P 21/M
;
_chemical_formula_sum "Si O2"
_cell_formula_units_Z 28
_cell_length_a 9.000000
_cell_length_b 9.000000
_cell_length_c 27.000000
_cell_angle_alpha 90.000000
_cell_angle_beta 40.000000
_cell_angle_gamma 90.000000
_cell_volume 1405.776502
_symmetry_space_group_name_H-M "P 21/M"
_symmetry_group_IT_number 11
_symmetry_cell_setting 'monoclinic'
loop_
_space_group_symop_operation_xyz
x,y,z
-x,1/2+y,-z
-x,-y,-z
x,1/2-y,z
loop_
_atom_site_type_symbol
_atom_site_label
_atom_site_fract_x
_atom_site_fract_y
_atom_site_fract_z
Si Si1 0.091650 0.572283 0.527732
Si Si2 0.636549 0.927496 0.044413
Si Si3 0.436389 0.571949 0.613556
Si Si4 0.177989 0.925799 0.098034
Si Si5 0.978943 0.929974 0.667911
Si Si6 0.285170 0.926765 0.762324
Si Si7 0.474299 0.571209 0.824553
O O1 0.061506 0.750000 0.531894
O O2 0.358232 0.523830 0.461495
O O3 0.987520 0.522617 0.607752
O O4 0.000000 0.500000 0.500000
O O5 0.663543 0.750000 0.040508
O O6 0.390988 0.963384 0.080192
O O7 0.645745 0.996465 0.097062
O O8 0.807907 0.993544 0.959069
O O9 0.474905 0.750000 0.596924
O O10 0.200603 0.531769 0.644764
O O11 0.427150 0.546103 0.675487
O O12 0.184072 0.750000 0.088123
O O13 0.946839 0.979781 0.182883
O O14 0.972797 0.750000 0.667575
O O15 0.742790 0.977138 0.754733
O O16 0.234970 0.750000 0.775207
O O17 0.388597 0.961995 0.790285
O O18 0.458228 0.750000 0.834838
#
# Coordination Sequence:
#
# PCOD9168038 Si02
#       7
#     4   4   4   4   4   4   4
#     4  11  22  37  57  83 115 149 185 227 275 326
#     4  10  21  37  57  82 110 142 182 227 276 328
#     4  10  20  37  60  84 110 144 185 228 276 327
#     4  10  21  37  58  82 109 143 184 228 273 325
#     4   9  19  36  59  83 109 144 186 229 273 325
#     4  10  21  36  57  83 112 146 183 225 275 329
#     4  10  20  36  57  81 109 144 184 224 271 327
#
# _framework density 19.917818
#
# number of rings (size 3 to 8) (size 9 to 14) (size 15 to 20)
#    0.000    2.000    0.000    3.429    0.000    6.857 
#    0.000    4.286    0.000    0.000    0.000    0.000 
#    0.000    0.000    0.000    0.000    0.000    0.000 
#
# Total GULP energy -156288.060641 kJ/mol
# GULP energy per Si atom -5581.716451 kJ/mol
# Density = 1.987248 g / cm^3
# Si number density = 19.917818 Si / 1000 Ang^3
#
#
#
# Elastic Constant Matrix: (Units=GPa)
#
#
# Indices 1 2 3 4 5 6 
#
# 1 52.6918 8.4395 -9.3927 0.0000 20.3498 0.0000
# 2 8.4395 20.3787 12.0863 0.0000 9.9031 0.0000
# 3 -9.3927 12.0863 56.6140 0.0000 21.7568 0.0000
# 4 0.0000 0.0000 0.0000 29.2116 0.0000 2.6673
# 5 20.3498 9.9031 21.7568 0.0000 42.7672 0.0000
# 6 0.0000 0.0000 0.0000 2.6673 0.0000 30.3915
#
#
#
# Elastic Compliance Matrix: (Units=1/GPa)
#
#
# Indices 1 2 3 4 5 6 
#
# 1 0.031504 -0.012574 0.015604 0.000000 -0.020017 0.000000
# 2 -0.012574 0.063860 -0.015334 0.000000 -0.001004 0.000000
# 3 0.015604 -0.015334 0.031094 0.000000 -0.019692 0.000000
# 4 0.000000 0.000000 0.000000 0.034510 0.000000 -0.003029
# 5 -0.020017 -0.001004 -0.019692 0.000000 0.043158 0.000000
# 6 0.000000 0.000000 0.000000 -0.003029 0.000000 0.033170
#
#
# Mechanical properties :
#
#
# Convention : Reuss Voigt Hill
#
# Bulk Modulus (GPa) = 9.81833 16.88340 13.35087
# Shear Modulus (GPa) = 16.90030 28.37748 22.63889
#
# Velocity S-wave (km/s) = 2.91607 3.77865 3.37503
# Velocity P-wave (km/s) = 4.03461 5.24715 4.68031
#
# Compressibility (1/GPa) = 0.10185029
#
# Stress axis : x y z
#
# Youngs Moduli (GPa) = 31.74153 15.65924 32.16099
#
# Poissons Ratio (x) = 0.19690 -0.50184
# Poissons Ratio (y) = 0.39912 0.49315
# Poissons Ratio (z) = -0.49529 0.24011
#
# Static dielectric constant tensor:
#      x y z
#    x 1.722310 0.000000 -0.034040 
#    y 0.000000 1.664300 0.000000 
#    z -0.034040 0.000000 1.708130 
# 
# From -- ./inp_files/70651.got.cif
#   From: 2010.05.17/outbox.ucp.g08.bks.cvg/sg11_36_cif.got.tgz:70651.got - 2010.06.11 11:38:39.
