data_PCOD9168050
_publ_section_title
;
Structure prediction by ZEFSAII (Michael W. Deem and Ramdas Pophale) SiO2 
 PCOD9168050
Probable space group: P 21/M
;
_chemical_formula_sum "Si O2"
_cell_formula_units_Z 20
_cell_length_a 15.000000
_cell_length_b 9.000000
_cell_length_c 21.000000
_cell_angle_alpha 90.000000
_cell_angle_beta 160.000000
_cell_angle_gamma 90.000000
_cell_volume 969.627106
_symmetry_space_group_name_H-M "P 21/M"
_symmetry_group_IT_number 11
_symmetry_cell_setting 'monoclinic'
loop_
_space_group_symop_operation_xyz
x,y,z
-x,1/2+y,-z
-x,-y,-z
x,1/2-y,z
loop_
_atom_site_type_symbol
_atom_site_label
_atom_site_fract_x
_atom_site_fract_y
_atom_site_fract_z
Si Si1 0.327825 0.573313 0.593149
Si Si2 0.494743 0.421380 0.830836
Si Si3 0.908554 0.927363 0.766998
Si Si4 0.419259 0.573203 0.349365
Si Si5 0.251703 0.078554 0.803355
O O1 0.328894 0.750000 0.586134
O O2 0.390180 0.528251 0.706627
O O3 0.544215 0.498815 0.694402
O O4 0.037497 0.516383 0.379648
O O5 0.500531 0.250000 0.811134
O O6 0.307871 0.425694 0.765886
O O7 0.792888 0.460788 0.050108
O O8 0.887719 0.750000 0.761537
O O9 0.685796 0.969309 0.566526
O O10 0.821585 0.008688 0.772917
O O11 0.403928 0.750000 0.335626
O O12 0.253377 0.250000 0.825611
O O13 0.500000 0.000000 0.000000
#
# Coordination Sequence:
#
# PCOD9168050 Si02
#       5
#     4   4   4   4   4
#     4  11  23  37  55  83 116 147 183 227 273 325
#     4  10  21  38  58  81 112 148 184 225 276 329
#     4   9  19  36  58  83 110 142 185 233 275 323
#     4  10  20  36  59  83 110 147 186 227 277 328
#     4  10  22  39  60  85 112 144 183 227 274 327
#
# _framework density 20.626486
#
# number of rings (size 3 to 8) (size 9 to 14) (size 15 to 20)
#    0.000    2.000    0.000    3.000    0.000    6.400 
#    0.000    0.000    0.000    0.000    0.000    0.000 
#    0.000    0.000    0.000    0.000    0.000    0.000 
#
# Total GULP energy -111676.749507 kJ/mol
# GULP energy per Si atom -5583.837475 kJ/mol
# Density = 2.057954 g / cm^3
# Si number density = 20.626486 Si / 1000 Ang^3
#
#
#
# Elastic Constant Matrix: (Units=GPa)
#
#
# Indices 1 2 3 4 5 6 
#
# 1 50.0288 16.6250 -6.5885 0.0000 11.2231 0.0000
# 2 16.6250 -12.9181 -2.7702 0.0000 -0.1830 0.0000
# 3 -6.5885 -2.7702 17.4477 0.0000 8.0757 0.0000
# 4 0.0000 0.0000 0.0000 30.7063 0.0000 -3.9522
# 5 11.2231 -0.1830 8.0757 0.0000 31.2083 0.0000
# 6 0.0000 0.0000 0.0000 -3.9522 0.0000 24.8966
#
#
#
# Elastic Compliance Matrix: (Units=1/GPa)
#
#
# Indices 1 2 3 4 5 6 
#
# 1 0.017565 0.019670 0.014344 0.000000 -0.009913 0.000000
# 2 0.019670 -0.052589 0.002834 0.000000 -0.008115 0.000000
# 3 0.014344 0.002834 0.074481 0.000000 -0.024415 0.000000
# 4 0.000000 0.000000 0.000000 0.033246 0.000000 0.005278
# 5 -0.009913 -0.008115 -0.024415 0.000000 0.041878 0.000000
# 6 0.000000 0.000000 0.000000 0.005278 0.000000 0.041004
#
#
# Mechanical properties :
#
#
# Convention : Reuss Voigt Hill
#
# Bulk Modulus (GPa) = 8.83769 7.67679 8.25724
# Shear Modulus (GPa) = 41.80376 20.51503 31.15940
#
# Velocity S-wave (km/s) = 4.50678 3.15714 3.89092
# Velocity P-wave (km/s) = 5.60137 4.12553 4.91911
#
# Compressibility (1/GPa) = 0.11315176
#
# Stress axis : x y z
#
# Youngs Moduli (GPa) = 56.93167 -19.01521 13.42622
#
# Poissons Ratio (x) = 0.37402 -0.19259
# Poissons Ratio (y) = -1.11983 -0.03805
# Poissons Ratio (z) = -0.81663 0.05389
#
# Static dielectric constant tensor:
#      x y z
#    x 1.734790 0.000000 -0.024130 
#    y 0.000000 1.689360 0.000000 
#    z -0.024130 0.000000 1.729090 
# 
# From -- ./inp_files/15884.got.cif
#   From: 2010.05.17/outbox.ucp.g08.bks.cvg/sg11_8_cif.got.tgz:15884.got - 2010.06.11 11:38:39.
