data_PCOD9168582
_publ_section_title
;
Structure prediction by ZEFSAII (Michael W. Deem and Ramdas Pophale) SiO2 
 PCOD9168582
Probable space group: C 2/M
;
_chemical_formula_sum "Si O2"
_cell_formula_units_Z 56
_cell_length_a 27.747281
_cell_length_b 7.478706
_cell_length_c 18.012022
_cell_angle_alpha 90.000000
_cell_angle_beta 55.433021
_cell_angle_gamma 90.000000
_cell_volume 3077.894381
_symmetry_space_group_name_H-M "C 2/M"
_symmetry_group_IT_number 12
_symmetry_cell_setting 'monoclinic'
loop_
_space_group_symop_operation_xyz
x,y,z
-x,y,-z
-x,-y,-z
x,-y,z
1/2+x,1/2+y,z
1/2-x,1/2+y,-z
1/2-x,1/2-y,-z
1/2+x,1/2-y,z
loop_
_atom_site_type_symbol
_atom_site_label
_atom_site_fract_x
_atom_site_fract_y
_atom_site_fract_z
Si Si1 0.326592 0.779949 0.562942
Si Si2 0.834864 0.293813 0.390529
Si Si3 0.289678 0.297078 0.271691
Si Si4 0.905687 0.781266 0.097718
Si Si5 0.484367 0.717443 0.896681
Si Si6 0.458728 0.211839 0.471517
Si Si7 0.470334 0.285812 0.295204
O O1 0.313624 0.724512 0.489152
O O2 0.275001 0.718297 0.662175
O O3 0.391873 0.719405 0.526784
O O4 0.326377 0.000000 0.561755
O O5 0.817489 0.500000 0.397902
O O6 0.814221 0.197558 0.334593
O O7 0.905233 0.284850 0.335448
O O8 0.281681 0.500000 0.251668
O O9 0.341840 0.215336 0.177469
O O10 0.955409 0.729768 0.114205
O O11 0.903955 0.000000 0.101003
O O12 0.930899 0.725210 0.995810
O O13 0.483368 0.500000 0.898410
O O14 0.487966 0.775188 0.808264
O O15 0.500000 0.286019 0.500000
O O16 0.485391 0.235626 0.366091
O O17 0.452985 0.000000 0.489625
O O18 0.466728 0.500000 0.295235
#
# Coordination Sequence:
#
# PCOD9168582 Si02
#       7
#     8   8   8   8   8   8   8
#     4   8  16  27  40  59  79 103 137 171 200 242
#     4  10  18  27  37  55  87 118 140 163 198 244
#     4  10  16  25  41  59  79 107 143 174 199 229
#     4   8  13  21  36  57  82 109 137 169 202 231
#     4   8  13  22  36  58  83 107 136 169 204 234
#     4   9  18  33  48  62  84 109 130 163 215 260
#     4  10  17  27  45  65  83 106 141 177 204 235
#
# _framework density 18.194255999999999
#
# number of rings (size 3 to 8) (size 9 to 14) (size 15 to 20)
#    0.000    3.000    1.429    3.000    0.000    0.286 
#    0.000    2.857    0.000    2.571    0.000    1.000 
#    0.000    0.000    0.000    0.000    0.000    0.000 
#
# Total GULP energy -156054.795697 kJ/mol
# GULP energy per Si atom -5573.385561 kJ/mol
# Density = 1.815284 g / cm^3
# Si number density = 18.194256 Si / 1000 Ang^3
#
#
#
# Elastic Constant Matrix: (Units=GPa)
#
#
# Indices 1 2 3 4 5 6 
#
# 1 71.0253 3.5744 66.0384 -0.0003 4.3233 -0.0004
# 2 3.5744 50.3434 -11.3395 -0.0015 -3.8276 -0.0012
# 3 66.0384 -11.3395 164.0311 0.0001 -21.0548 0.0004
# 4 -0.0003 -0.0015 0.0001 1.5818 -0.0001 -3.7255
# 5 4.3233 -3.8276 -21.0548 -0.0001 23.4879 -0.0001
# 6 -0.0004 -0.0012 0.0004 -3.7255 -0.0001 -0.1724
#
#
#
# Elastic Compliance Matrix: (Units=1/GPa)
#
#
# Indices 1 2 3 4 5 6 
#
# 1 0.029530 -0.006978 -0.014933 -0.000002 -0.019958 0.000000
# 2 -0.006978 0.022388 0.005639 -0.000006 0.009987 -0.000011
# 3 -0.014933 0.005639 0.014655 0.000001 0.016805 -0.000001
# 4 -0.000002 -0.000006 0.000001 0.012182 -0.000001 -0.263246
# 5 -0.019958 0.009987 0.016805 -0.000001 0.062940 -0.000004
# 6 0.000000 -0.000011 -0.000001 -0.263246 -0.000004 -0.111767
#
#
# Mechanical properties :
#
#
# Convention : Reuss Voigt Hill
#
# Bulk Modulus (GPa) = 29.38557 44.66071 37.02314
# Shear Modulus (GPa) = 67.73726 20.12123 43.92925
#
# Velocity S-wave (km/s) = 6.10826 3.32913 4.91904
# Velocity P-wave (km/s) = 8.11997 6.27514 7.25642
#
# Compressibility (1/GPa) = 0.03403031
#
# Stress axis : x y z
#
# Youngs Moduli (GPa) = 33.86406 44.66598 68.23552
#
# Poissons Ratio (x) = 0.31166 1.01895
# Poissons Ratio (y) = 0.23629 -0.38477
# Poissons Ratio (z) = 0.50569 -0.25186
#
# Static dielectric constant tensor:
#      x y z
#    x 1.601510 0.000000 -0.027290 
#    y 0.000000 1.699480 0.000000 
#    z -0.027290 0.000000 1.670700 
# 
# From -- ./inp_files/291458.got.cif
#   From: 2010.05.17/outbox.cif.g08.bks.cpg/sg12_146_cif.got.tgz:291458.got - 2010.06.03 13:09:07.
