data_PCOD9168510
_publ_section_title
;
Structure prediction by ZEFSAII (Michael W. Deem and Ramdas Pophale) SiO2 
 PCOD9168510
Probable space group: C 2/M
;
_chemical_formula_sum "Si O2"
_cell_formula_units_Z 64
_cell_length_a 24.213955
_cell_length_b 17.047526
_cell_length_c 6.942647
_cell_angle_alpha 90.000000
_cell_angle_beta 68.153768
_cell_angle_gamma 90.000000
_cell_volume 2660.033635
_symmetry_space_group_name_H-M "C 2/M"
_symmetry_group_IT_number 12
_symmetry_cell_setting 'monoclinic'
loop_
_space_group_symop_operation_xyz
x,y,z
-x,y,-z
-x,-y,-z
x,-y,z
1/2+x,1/2+y,z
1/2-x,1/2+y,-z
1/2-x,1/2-y,-z
1/2+x,1/2-y,z
loop_
_atom_site_type_symbol
_atom_site_label
_atom_site_fract_x
_atom_site_fract_y
_atom_site_fract_z
Si Si1 0.408260 0.085775 0.580136
Si Si2 0.786479 0.361816 0.630577
Si Si3 0.068874 0.612835 0.904104
Si Si4 0.302045 0.910130 0.162761
Si Si5 0.065419 0.790303 0.872158
Si Si6 0.932711 0.759469 0.579035
Si Si7 0.808246 0.816785 0.722559
Si Si8 0.161869 0.089905 0.703794
O O1 0.337019 0.094569 0.686431
O O2 0.417896 0.092567 0.336350
O O3 0.435089 0.166757 0.625178
O O4 0.429481 0.000000 0.616857
O O5 0.799127 0.376021 0.386356
O O6 0.790233 0.269247 0.666279
O O7 0.722281 0.398379 0.742101
O O8 0.125922 0.585721 0.955458
O O9 0.068129 0.704968 0.960647
O O10 0.000000 0.586938 0.000000
O O11 0.253645 0.854509 0.116578
O O12 0.280655 0.000000 0.186304
O O13 0.077890 0.767635 0.635169
O O14 0.112542 0.855400 0.860753
O O15 0.000000 0.821278 0.000000
O O16 0.872399 0.798980 0.742888
O O17 0.000000 0.792880 0.500000
O O18 0.825133 0.876105 0.526899
O O19 0.144402 0.000000 0.716250
#
# Coordination Sequence:
#
# PCOD9168510 Si02
#       8
#     8   8   8   8   8   8   8   8
#     4   9  16  25  39  63  92 115 140 179 225 267
#     4   9  14  23  38  58  86 116 142 172 218 269
#     4   9  16  26  40  61  91 123 149 173 212 268
#     4  10  16  22  36  59  87 113 140 178 221 259
#     4   9  18  31  45  63  89 118 148 182 220 266
#     4   9  18  31  47  65  86 117 153 188 221 258
#     4   9  16  26  40  58  85 116 147 181 219 262
#     4  10  16  23  40  64  89 113 141 181 228 270
#
# _framework density 24.059844999999999
#
# number of rings (size 3 to 8) (size 9 to 14) (size 15 to 20)
#    0.000    2.750    0.000    7.875    0.000    1.500 
#    0.000    0.000    0.000    9.375    0.000   21.875 
#    0.000    0.000    0.000    0.000    0.000    0.000 
#
# Total GULP energy -178476.614544 kJ/mol
# GULP energy per Si atom -5577.394204 kJ/mol
# Density = 2.400508 g / cm^3
# Si number density = 24.059845 Si / 1000 Ang^3
#
#
#
# Elastic Constant Matrix: (Units=GPa)
#
#
# Indices 1 2 3 4 5 6 
#
# 1 115.2830 56.6100 42.4865 0.0000 -38.9772 0.0000
# 2 56.6100 152.7742 34.8841 0.0000 -17.3746 0.0000
# 3 42.4865 34.8841 78.9780 0.0000 -20.8890 0.0000
# 4 0.0000 0.0000 0.0000 664.8641 0.0000 -795.4186
# 5 -38.9772 -17.3746 -20.8890 0.0000 60.1137 0.0000
# 6 0.0000 0.0000 0.0000 -795.4186 0.0000 959.9928
#
#
#
# Elastic Compliance Matrix: (Units=1/GPa)
#
#
# Indices 1 2 3 4 5 6 
#
# 1 0.014288 -0.003537 -0.004343 0.000000 0.006733 0.000000
# 2 -0.003537 0.008220 -0.001879 0.000000 -0.000570 0.000000
# 3 -0.004343 -0.001879 0.016452 0.000000 0.002358 0.000000
# 4 0.000000 0.000000 0.000000 0.172226 0.000000 0.142701
# 5 0.006733 -0.000570 0.002358 0.000000 0.021655 0.000000
# 6 0.000000 0.000000 0.000000 0.142701 0.000000 0.119279
#
#
# Mechanical properties :
#
#
# Convention : Reuss Voigt Hill
#
# Bulk Modulus (GPa) = 51.43597 68.33295 59.88446
# Shear Modulus (GPa) = 13.22331 351.19777 182.21054
#
# Velocity S-wave (km/s) = 2.34690 12.09485 8.71187
# Velocity P-wave (km/s) = 5.36364 14.95025 11.23118
#
# Compressibility (1/GPa) = 0.01944165
#
# Stress axis : x y z
#
# Youngs Moduli (GPa) = 69.98777 121.64831 60.78366
#
# Poissons Ratio (x) = 0.43027 0.26401
# Poissons Ratio (y) = 0.24755 0.11421
# Poissons Ratio (z) = 0.30398 0.22858
#
# Static dielectric constant tensor:
#      x y z
#    x 1.996170 0.000000 -0.011060 
#    y 0.000000 1.864320 0.000000 
#    z -0.011060 0.000000 2.061080 
# 
# From -- ./inp_files/176836.got.cif
#   From: 2010.05.17/outbox.cif.g08.bks.cpg/sg12_89_cif.got.tgz:176836.got - 2010.06.03 13:09:07.
