data_PCOD9168398
_publ_section_title
;
Structure prediction by ZEFSAII (Michael W. Deem and Ramdas Pophale) SiO2 
 PCOD9168398
Probable space group: C 2/M
;
_chemical_formula_sum "Si O2"
_cell_formula_units_Z 36
_cell_length_a 22.773006
_cell_length_b 10.433334
_cell_length_c 7.523995
_cell_angle_alpha 90.000000
_cell_angle_beta 115.004211
_cell_angle_gamma 90.000000
_cell_volume 1620.140936
_symmetry_space_group_name_H-M "C 2/M"
_symmetry_group_IT_number 12
_symmetry_cell_setting 'monoclinic'
loop_
_space_group_symop_operation_xyz
x,y,z
-x,y,-z
-x,-y,-z
x,-y,z
1/2+x,1/2+y,z
1/2-x,1/2+y,-z
1/2-x,1/2-y,-z
1/2+x,1/2-y,z
loop_
_atom_site_type_symbol
_atom_site_label
_atom_site_fract_x
_atom_site_fract_y
_atom_site_fract_z
Si Si1 0.201199 0.000000 0.111214
Si Si2 0.577211 0.500000 0.716415
Si Si3 0.822418 0.500000 0.989612
Si Si4 0.881903 0.783989 0.503803
Si Si5 0.076900 0.500000 0.557806
Si Si6 0.548454 0.500000 0.223293
Si Si7 0.237840 0.265366 0.198982
O O1 0.214550 0.128303 0.233057
O O2 0.255208 0.000000 0.020246
O O3 0.129673 0.000000 0.942005
O O4 0.593019 0.368746 0.631878
O O5 0.504354 0.500000 0.687101
O O6 0.816043 0.374714 0.860543
O O7 0.880451 0.500000 0.204721
O O8 0.903824 0.635092 0.514389
O O9 0.910213 0.870096 0.700062
O O10 0.804742 0.793905 0.381344
O O11 0.000000 0.500000 0.500000
O O12 0.500000 0.500000 0.000000
O O13 0.250000 0.250000 0.000000
#
# Coordination Sequence:
#
# PCOD9168398 Si02
#       7
#     4   4   4   8   4   4   8
#     4  10  15  26  48  79 109 134 159 207 274 320
#     4  11  18  34  58  81 104 143 182 224 268 317
#     4  10  15  26  40  70 116 133 152 198 266 311
#     4  11  19  34  57  83 109 138 176 221 273 324
#     4  12  20  27  46  86 120 131 158 214 278 334
#     4  11  26  41  52  71 108 152 196 226 255 307
#     4  10  15  26  48  80 111 129 159 209 273 316
#
# _framework density 22.220289000000001
#
# number of rings (size 3 to 8) (size 9 to 14) (size 15 to 20)
#    0.000    1.333    8.889    3.333    0.000    0.000 
#    0.000    0.556    0.000    1.333    0.000    0.000 
#    0.000    0.000    0.000    0.000    0.000    0.000 
#
# Total GULP energy -100422.377231 kJ/mol
# GULP energy per Si atom -5579.020957 kJ/mol
# Density = 2.216971 g / cm^3
# Si number density = 22.220289 Si / 1000 Ang^3
#
#
#
# Elastic Constant Matrix: (Units=GPa)
#
#
# Indices 1 2 3 4 5 6 
#
# 1 60.6855 19.4849 25.9826 0.0000 18.2642 0.0000
# 2 19.4849 232.5837 79.1406 0.0000 20.9614 0.0000
# 3 25.9826 79.1406 156.4982 0.0000 41.6176 0.0000
# 4 0.0000 0.0000 0.0000 23.0992 0.0000 18.2486
# 5 18.2642 20.9614 41.6176 0.0000 41.9137 0.0000
# 6 0.0000 0.0000 0.0000 18.2486 0.0000 6.1496
#
#
#
# Elastic Compliance Matrix: (Units=1/GPa)
#
#
# Indices 1 2 3 4 5 6 
#
# 1 0.019238 -0.000637 -0.000988 0.000000 -0.007083 0.000000
# 2 -0.000637 0.005214 -0.002597 0.000000 0.000249 0.000000
# 3 -0.000988 -0.002597 0.010065 0.000000 -0.008264 0.000000
# 4 0.000000 0.000000 0.000000 -0.032203 0.000000 0.095562
# 5 -0.007083 0.000249 -0.008264 0.000000 0.035027 0.000000
# 6 0.000000 0.000000 0.000000 0.095562 0.000000 -0.120963
#
#
# Mechanical properties :
#
#
# Convention : Reuss Voigt Hill
#
# Bulk Modulus (GPa) = 38.35487 77.66482 58.00985
# Shear Modulus (GPa) = -75.20236 35.90980 -19.64628
#
# Velocity S-wave (km/s) = -5.82387 4.02441 -2.97671
# Velocity P-wave (km/s) = 5.28438 7.52480 3.78801
#
# Compressibility (1/GPa) = 0.02607231
#
# Stress axis : x y z
#
# Youngs Moduli (GPa) = 51.98093 191.78333 99.35340
#
# Poissons Ratio (x) = 0.12218 0.09818
# Poissons Ratio (y) = 0.03311 0.25804
# Poissons Ratio (z) = 0.05136 0.49810
#
# Static dielectric constant tensor:
#      x y z
#    x 2.030750 0.000000 -0.174410 
#    y 0.000000 1.859310 0.000000 
#    z -0.174410 0.000000 1.936700 
# 
# From -- ./inp_files/102187.got.cif
#   From: 2010.05.17/outbox.cif.g08.bks.cpg/sg12_52_cif.got.tgz:102187.got - 2010.06.03 13:09:07.
