data_PCOD9168778
_publ_section_title
;
Structure prediction by ZEFSAII (Michael W. Deem and Ramdas Pophale) SiO2 
 PCOD9168778
Probable space group: C 2/M
;
_chemical_formula_sum "Si O2"
_cell_formula_units_Z 48
_cell_length_a 15.201492
_cell_length_b 21.299181
_cell_length_c 13.478466
_cell_angle_alpha 90.000000
_cell_angle_beta 149.915413
_cell_angle_gamma 90.000000
_cell_volume 2187.601539
_symmetry_space_group_name_H-M "C 2/M"
_symmetry_group_IT_number 12
_symmetry_cell_setting 'monoclinic'
loop_
_space_group_symop_operation_xyz
x,y,z
-x,y,-z
-x,-y,-z
x,-y,z
1/2+x,1/2+y,z
1/2-x,1/2+y,-z
1/2-x,1/2-y,-z
1/2+x,1/2-y,z
loop_
_atom_site_type_symbol
_atom_site_label
_atom_site_fract_x
_atom_site_fract_y
_atom_site_fract_z
Si Si1 0.064993 0.408117 0.668236
Si Si2 0.876514 0.928816 0.101599
Si Si3 0.879648 0.696245 0.746170
Si Si4 0.066117 0.728181 0.434812
Si Si5 0.728428 0.929120 0.450569
Si Si6 0.260081 0.695557 0.095112
O O1 0.037497 0.333357 0.634814
O O2 0.932262 0.427423 0.627421
O O3 0.000000 0.433458 0.500000
O O4 0.264963 0.424635 0.890797
O O5 0.849553 0.000000 0.112981
O O6 0.786757 0.873192 0.075940
O O7 0.086460 0.917327 0.310664
O O8 0.899578 0.714487 0.648197
O O9 0.750726 0.750060 0.660004
O O10 0.801590 0.625873 0.659564
O O11 0.078920 0.696443 0.977212
O O12 0.936473 0.786245 0.322417
O O13 0.736674 0.000000 0.417388
O O14 0.250000 0.750000 0.000000
#
# Coordination Sequence:
#
# PCOD9168778 Si02
#       6
#     8   8   8   8   8   8
#     4  11  23  35  48  64  94 141 175 194 222 275
#     4  11  21  32  48  71  99 128 160 201 241 282
#     4   9  16  26  48  71  88 112 150 199 253 288
#     4   9  17  29  47  69  90 112 158 205 242 278
#     4  10  20  32  47  68  97 128 160 198 238 282
#     4  10  16  28  50  71  89 117 153 198 254 290
#
# _framework density 21.941838000000001
#
# number of rings (size 3 to 8) (size 9 to 14) (size 15 to 20)
#    0.000    2.000    6.667    0.500    2.333    2.000 
#    0.000    1.667    0.000    0.000    0.000    0.000 
#    0.000    2.667    0.000    3.000    0.000    0.000 
#
# Total GULP energy -133713.408650 kJ/mol
# GULP energy per Si atom -5571.392027 kJ/mol
# Density = 2.189190 g / cm^3
# Si number density = 21.941838 Si / 1000 Ang^3
#
#
#
# Elastic Constant Matrix: (Units=GPa)
#
#
# Indices 1 2 3 4 5 6 
#
# 1 18.5501 5.4437 -19.2268 0.0000 0.3724 0.0000
# 2 5.4437 143.0357 37.2150 0.0000 11.6388 0.0000
# 3 -19.2268 37.2150 89.7804 0.0000 30.1601 0.0000
# 4 0.0000 0.0000 0.0000 28.8156 0.0000 12.7536
# 5 0.3724 11.6388 30.1601 0.0000 20.1457 0.0000
# 6 0.0000 0.0000 0.0000 12.7536 0.0000 0.9465
#
#
#
# Elastic Compliance Matrix: (Units=1/GPa)
#
#
# Indices 1 2 3 4 5 6 
#
# 1 0.121430 -0.013332 0.059744 0.000000 -0.083985 0.000000
# 2 -0.013332 0.009305 -0.010036 0.000000 0.009896 0.000000
# 3 0.059744 -0.010036 0.053344 0.000000 -0.075167 0.000000
# 4 0.000000 0.000000 0.000000 -0.006991 0.000000 0.094205
# 5 -0.083985 0.009896 -0.075167 0.000000 0.158005 0.000000
# 6 0.000000 0.000000 0.000000 0.094205 0.000000 -0.212849
#
#
# Mechanical properties :
#
#
# Convention : Reuss Voigt Hill
#
# Bulk Modulus (GPa) = 3.89361 33.13667 18.51514
# Shear Modulus (GPa) = 37.00910 25.17719 31.09315
#
# Velocity S-wave (km/s) = 4.11139 3.39108 3.76848
# Velocity P-wave (km/s) = 4.93117 5.51973 5.23373
#
# Compressibility (1/GPa) = 0.25683085
#
# Stress axis : x y z
#
# Youngs Moduli (GPa) = 8.23517 107.47293 18.74627
#
# Poissons Ratio (x) = 1.43281 -1.11998
# Poissons Ratio (y) = 0.10979 0.18815
# Poissons Ratio (z) = -0.49200 1.07865
#
# Static dielectric constant tensor:
#      x y z
#    x 1.851440 0.000000 -0.028570 
#    y 0.000000 1.840650 0.000000 
#    z -0.028570 0.000000 1.873700 
# 
# From -- ./inp_files/285936.got.cif
#   From: 2010.05.17/outbox.cif.g08.bks.cpg/sg12_143_cif.got.tgz:285936.got - 2010.06.03 13:09:07.
