data_PCOD9168627
_publ_section_title
;
Structure prediction by ZEFSAII (Michael W. Deem and Ramdas Pophale) SiO2 
 PCOD9168627
Probable space group: C 2/M
;
_chemical_formula_sum "Si O2"
_cell_formula_units_Z 40
_cell_length_a 12.948086
_cell_length_b 33.439066
_cell_length_c 7.656496
_cell_angle_alpha 90.000000
_cell_angle_beta 149.681316
_cell_angle_gamma 90.000000
_cell_volume 1673.466374
_symmetry_space_group_name_H-M "C 2/M"
_symmetry_group_IT_number 12
_symmetry_cell_setting 'monoclinic'
loop_
_space_group_symop_operation_xyz
x,y,z
-x,y,-z
-x,-y,-z
x,-y,z
1/2+x,1/2+y,z
1/2-x,1/2+y,-z
1/2-x,1/2-y,-z
1/2+x,1/2-y,z
loop_
_atom_site_type_symbol
_atom_site_label
_atom_site_fract_x
_atom_site_fract_y
_atom_site_fract_z
Si Si1 0.659319 0.696868 0.481055
Si Si2 0.322491 0.455786 0.061488
Si Si3 0.212186 0.722125 0.713750
Si Si4 0.413086 0.955777 0.652228
Si Si5 0.619675 0.391307 0.362075
O O1 0.774603 0.706334 0.466357
O O2 0.732457 0.729667 0.726364
O O3 0.678429 0.650002 0.539065
O O4 0.417429 0.705643 0.101478
O O5 0.419435 0.500000 0.211670
O O6 0.472809 0.418993 0.262773
O O7 0.199157 0.455695 0.699101
O O8 0.152378 0.452047 0.962073
O O9 0.000000 0.712148 0.500000
O O10 0.313581 0.918813 0.603515
O O11 0.368794 0.000000 0.661799
O O12 0.500000 0.382859 0.000000
#
# Coordination Sequence:
#
# PCOD9168627 Si02
#       5
#     8   8   8   8   8
#     4  10  21  35  51  78  98 128 174 206 243 307
#     4   8  14  23  36  56  87 126 158 184 231 291
#     4  10  20  37  55  70  98 132 165 208 259 297
#     4   8  14  23  36  56  86 126 157 184 232 290
#     4  10  16  26  39  63  93 123 158 199 235 278
#
# _framework density 23.902481999999999
#
# number of rings (size 3 to 8) (size 9 to 14) (size 15 to 20)
#    0.000    2.800    2.000    2.400    0.000    4.000 
#    0.000    0.000    0.000    0.000    0.000    0.000 
#    0.000    3.200    0.000   69.600    0.000    0.600 
#
# Total GULP energy -111896.054081 kJ/mol
# GULP energy per Si atom -5594.802704 kJ/mol
# Density = 2.384808 g / cm^3
# Si number density = 23.902482 Si / 1000 Ang^3
#
#
#
# Elastic Constant Matrix: (Units=GPa)
#
#
# Indices 1 2 3 4 5 6 
#
# 1 113.0853 51.4222 39.8629 0.0000 35.9652 0.0000
# 2 51.4222 214.7782 16.9992 0.0000 43.4143 0.0000
# 3 39.8629 16.9992 61.7471 0.0000 6.0891 0.0000
# 4 0.0000 0.0000 0.0000 1.3902 0.0000 35.0896
# 5 35.9652 43.4143 6.0891 0.0000 46.5056 0.0000
# 6 0.0000 0.0000 0.0000 35.0896 0.0000 3.7883
#
#
#
# Elastic Compliance Matrix: (Units=1/GPa)
#
#
# Indices 1 2 3 4 5 6 
#
# 1 0.015564 -0.001024 -0.008787 0.000000 -0.009930 0.000000
# 2 -0.001024 0.005876 -0.000501 0.000000 -0.004628 0.000000
# 3 -0.008787 -0.000501 0.021568 0.000000 0.004439 0.000000
# 4 0.000000 0.000000 0.000000 -0.003090 0.000000 0.028621
# 5 -0.009930 -0.004628 0.004439 0.000000 0.032922 0.000000
# 6 0.000000 0.000000 0.000000 0.028621 0.000000 -0.001134
#
#
# Mechanical properties :
#
#
# Convention : Reuss Voigt Hill
#
# Bulk Modulus (GPa) = 44.67026 67.35322 56.01174
# Shear Modulus (GPa) = 50.10532 29.09190 39.59861
#
# Velocity S-wave (km/s) = 4.58344 3.49249 4.07464
# Velocity P-wave (km/s) = 6.83664 6.67105 6.75435
#
# Compressibility (1/GPa) = 0.02238626
#
# Stress axis : x y z
#
# Youngs Moduli (GPa) = 64.25138 170.17714 46.36553
#
# Poissons Ratio (x) = 0.17419 0.40740
# Poissons Ratio (y) = 0.06577 0.02321
# Poissons Ratio (z) = 0.56456 0.08517
#
# Static dielectric constant tensor:
#      x y z
#    x 1.917540 0.000000 -0.052780 
#    y 0.000000 1.855380 0.000000 
#    z -0.052780 0.000000 1.935550 
# 
# From -- ./inp_files/68743.got.cif
#   From: 2010.05.17/outbox.cif.g08.bks.cpg/sg12_35_cif.got.tgz:68743.got - 2010.06.03 13:09:07.
