data_PCOD9168076
_publ_section_title
;
Structure prediction by ZEFSAII (Michael W. Deem and Ramdas Pophale) SiO2 
 PCOD9168076
Probable space group: P 21/M
;
_chemical_formula_sum "Si O2"
_cell_formula_units_Z 24
_cell_length_a 15.000000
_cell_length_b 9.000000
_cell_length_c 15.000000
_cell_angle_alpha 90.000000
_cell_angle_beta 40.000000
_cell_angle_gamma 90.000000
_cell_volume 1301.644910
_symmetry_space_group_name_H-M "P 21/M"
_symmetry_group_IT_number 11
_symmetry_cell_setting 'monoclinic'
loop_
_space_group_symop_operation_xyz
x,y,z
-x,1/2+y,-z
-x,-y,-z
x,1/2-y,z
loop_
_atom_site_type_symbol
_atom_site_label
_atom_site_fract_x
_atom_site_fract_y
_atom_site_fract_z
Si Si1 0.598678 0.926563 0.150671
Si Si2 0.918191 0.573033 0.143272
Si Si3 0.870818 0.075364 0.865750
Si Si4 0.119294 0.926513 0.350580
Si Si5 0.415412 0.426872 0.146224
Si Si6 0.609725 0.572008 0.351238
O O1 0.578056 0.750000 0.154056
O O2 0.591925 0.961550 0.260421
O O3 0.487928 0.020422 0.180875
O O4 0.746527 0.974340 0.996753
O O5 0.916201 0.750000 0.129521
O O6 0.761777 0.518847 0.262893
O O7 0.996851 0.545356 0.174695
O O8 0.000000 0.500000 0.000000
O O9 0.830801 0.250000 0.907455
O O10 0.903214 0.052097 0.737752
O O11 0.129018 0.750000 0.360015
O O12 0.262403 0.007727 0.261964
O O13 0.000000 0.000000 0.500000
O O14 0.417154 0.250000 0.135528
O O15 0.500000 0.500000 0.000000
O O16 0.500000 0.500000 0.500000
O O17 0.603243 0.750000 0.365254
#
# Coordination Sequence:
#
# PCOD9168076 Si02
#       6
#     4   4   4   4   4   4
#     4  11  22  38  62  92 124 159 207 256 304 368
#     4  10  20  37  60  89 119 154 201 248 298 362
#     4  10  21  37  62  90 120 159 205 250 305 370
#     4  11  24  42  62  92 129 165 206 256 313 369
#     4  12  24  40  64  93 123 163 209 258 312 370
#     4  10  23  40  59  89 127 163 201 252 306 364
#
# _framework density 18.438207999999999
#
# number of rings (size 3 to 8) (size 9 to 14) (size 15 to 20)
#    0.000    1.333    3.333    2.500    0.000    4.000 
#    0.000    1.667    0.000    0.000    0.000    0.000 
#    0.000    0.000    0.000    0.000    0.000    0.000 
#
# Total GULP energy -134080.489718 kJ/mol
# GULP energy per Si atom -5586.687072 kJ/mol
# Density = 1.839624 g / cm^3
# Si number density = 18.438208 Si / 1000 Ang^3
#
#
#
# Elastic Constant Matrix: (Units=GPa)
#
#
# Indices 1 2 3 4 5 6 
#
# 1 134.0545 86.2226 87.1270 0.0000 -13.7655 0.0000
# 2 86.2226 101.3887 83.5047 0.0000 2.9788 0.0000
# 3 87.1270 83.5047 167.5789 0.0000 -14.6601 0.0000
# 4 0.0000 0.0000 0.0000 37.2867 0.0000 -0.6618
# 5 -13.7655 2.9788 -14.6601 0.0000 24.9943 0.0000
# 6 0.0000 0.0000 0.0000 -0.6618 0.0000 26.3243
#
#
#
# Elastic Compliance Matrix: (Units=1/GPa)
#
#
# Indices 1 2 3 4 5 6 
#
# 1 0.020086 -0.016511 -0.001134 0.000000 0.012365 0.000000
# 2 -0.016511 0.031649 -0.008762 0.000000 -0.018004 0.000000
# 3 -0.001134 -0.008762 0.011552 0.000000 0.007196 0.000000
# 4 0.000000 0.000000 0.000000 0.026831 0.000000 0.000675
# 5 0.012365 -0.018004 0.007196 0.000000 0.053185 0.000000
# 6 0.000000 0.000000 0.000000 0.000675 0.000000 0.038005
#
#
# Mechanical properties :
#
#
# Convention : Reuss Voigt Hill
#
# Bulk Modulus (GPa) = 95.46809 101.85896 98.66352
# Shear Modulus (GPa) = 21.04268 27.46558 24.25413
#
# Velocity S-wave (km/s) = 3.38191 3.86372 3.63082
# Velocity P-wave (km/s) = 8.19387 8.67570 8.43823
#
# Compressibility (1/GPa) = 0.01047470
#
# Stress axis : x y z
#
# Youngs Moduli (GPa) = 49.78628 31.59651 86.56260
#
# Poissons Ratio (x) = 0.52168 0.09816
# Poissons Ratio (y) = 0.82200 0.75843
# Poissons Ratio (z) = 0.05646 0.27684
#
# Static dielectric constant tensor:
#      x y z
#    x 1.652440 0.000000 -0.031440 
#    y 0.000000 1.614110 0.000000 
#    z -0.031440 0.000000 1.613850 
# 
# From -- ./inp_files/20343.got.cif
#   From: 2010.05.17/outbox.ucp.g08.bks.cvg/sg11_11_cif.got.tgz:20343.got - 2010.06.11 11:38:39.
