data_PCOD9168599
_publ_section_title
;
Structure prediction by ZEFSAII (Michael W. Deem and Ramdas Pophale) SiO2 
 PCOD9168599
Probable space group: C 2/M
;
_chemical_formula_sum "Si O2"
_cell_formula_units_Z 64
_cell_length_a 19.831136
_cell_length_b 23.933600
_cell_length_c 15.007334
_cell_angle_alpha 90.000000
_cell_angle_beta 156.757975
_cell_angle_gamma 90.000000
_cell_volume 2810.825095
_symmetry_space_group_name_H-M "C 2/M"
_symmetry_group_IT_number 12
_symmetry_cell_setting 'monoclinic'
loop_
_space_group_symop_operation_xyz
x,y,z
-x,y,-z
-x,-y,-z
x,-y,z
1/2+x,1/2+y,z
1/2-x,1/2+y,-z
1/2-x,1/2-y,-z
1/2+x,1/2-y,z
loop_
_atom_site_type_symbol
_atom_site_label
_atom_site_fract_x
_atom_site_fract_y
_atom_site_fract_z
Si Si1 0.389200 0.758618 0.951785
Si Si2 0.313570 0.821616 0.186704
Si Si3 0.575274 0.234370 0.369489
Si Si4 0.601047 0.886186 0.034813
Si Si5 0.458858 0.645638 0.664600
Si Si6 0.143133 0.938465 0.778503
Si Si7 0.691355 0.882073 0.471473
Si Si8 0.441191 0.937337 0.292934
O O1 0.500819 0.760815 0.178659
O O2 0.333012 0.822912 0.873047
O O3 0.500000 0.743294 0.000000
O O4 0.238682 0.714486 0.790566
O O5 0.429541 0.784464 0.261937
O O6 0.394744 0.883081 0.295223
O O7 0.138753 0.833783 0.921797
O O8 0.640378 0.296153 0.472681
O O9 0.699583 0.181117 0.519241
O O10 0.459512 0.883672 0.784897
O O11 0.500000 0.904287 0.000000
O O12 0.752324 0.924542 0.183220
O O13 0.506104 0.608166 0.638265
O O14 0.362452 0.609571 0.622803
O O15 0.067862 0.000000 0.685547
O O16 0.290073 0.937557 0.034424
O O17 0.621014 0.922992 0.462172
O O18 0.443953 0.000000 0.334054
#
# Coordination Sequence:
#
# PCOD9168599 Si02
#       8
#     8   8   8   8   8   8   8   8
#     4   9  15  24  42  66  86 104 134 173 208 243
#     4   9  16  27  45  65  85 113 142 169 206 251
#     4   9  16  28  43  63  87 115 142 164 204 258
#     4   9  17  30  44  56  78 114 147 170 203 253
#     4  10  16  25  42  63  87 105 129 176 219 247
#     4   9  17  28  42  59  79 107 142 177 210 245
#     4   9  17  26  41  65  84 104 135 175 213 245
#     4   8  15  28  43  59  80 106 139 172 203 247
#
# _framework density 22.769114999999999
#
# number of rings (size 3 to 8) (size 9 to 14) (size 15 to 20)
#    0.000    3.000    0.000    4.875    0.000    0.750 
#    0.000    0.625    0.000    1.125    0.000   35.000 
#    0.000    4.000    0.000    0.000    0.000    0.000 
#
# Total GULP energy -178642.592423 kJ/mol
# GULP energy per Si atom -5582.581013 kJ/mol
# Density = 2.271729 g / cm^3
# Si number density = 22.769115 Si / 1000 Ang^3
#
#
#
# Elastic Constant Matrix: (Units=GPa)
#
#
# Indices 1 2 3 4 5 6 
#
# 1 104.2074 41.9616 27.4252 0.0000 22.5149 0.0000
# 2 41.9616 98.0184 15.5366 0.0000 20.2320 0.0000
# 3 27.4252 15.5366 35.1954 0.0000 0.8705 0.0000
# 4 0.0000 0.0000 0.0000 11.8569 0.0000 10.6859
# 5 22.5149 20.2320 0.8705 0.0000 50.9358 0.0000
# 6 0.0000 0.0000 0.0000 10.6859 0.0000 11.4136
#
#
#
# Elastic Compliance Matrix: (Units=1/GPa)
#
#
# Indices 1 2 3 4 5 6 
#
# 1 0.014703 -0.003762 -0.009677 0.000000 -0.004840 0.000000
# 2 -0.003762 0.012950 -0.002700 0.000000 -0.003435 0.000000
# 3 -0.009677 -0.002700 0.037029 0.000000 0.004717 0.000000
# 4 0.000000 0.000000 0.000000 0.539861 0.000000 -0.505440
# 5 -0.004840 -0.003435 0.004717 0.000000 0.023056 0.000000
# 6 0.000000 0.000000 0.000000 -0.505440 0.000000 0.560828
#
#
# Mechanical properties :
#
#
# Convention : Reuss Voigt Hill
#
# Bulk Modulus (GPa) = 30.86069 45.25201 38.05635
# Shear Modulus (GPa) = 4.06007 25.00776 14.53391
#
# Velocity S-wave (km/s) = 1.33679 3.31769 2.52923
# Velocity P-wave (km/s) = 3.99573 5.88162 5.02789
#
# Compressibility (1/GPa) = 0.03240369
#
# Stress axis : x y z
#
# Youngs Moduli (GPa) = 68.01117 77.22304 27.00601
#
# Poissons Ratio (x) = 0.29049 0.26134
# Poissons Ratio (y) = 0.25584 0.07292
# Poissons Ratio (z) = 0.65815 0.20852
#
# Static dielectric constant tensor:
#      x y z
#    x 1.874160 0.000000 -0.030930 
#    y 0.000000 1.847570 0.000000 
#    z -0.030930 0.000000 1.892760 
# 
# From -- ./inp_files/279500.got.cif
#   From: 2010.05.17/outbox.cif.g08.bks.cpg/sg12_140_cif.got.tgz:279500.got - 2010.06.03 13:09:07.
