data_PCOD9168622
_publ_section_title
;
Structure prediction by ZEFSAII (Michael W. Deem and Ramdas Pophale) SiO2 
 PCOD9168622
Probable space group: C 2/M
;
_chemical_formula_sum "Si O2"
_cell_formula_units_Z 40
_cell_length_a 5.519039
_cell_length_b 14.004782
_cell_length_c 25.624135
_cell_angle_alpha 90.000000
_cell_angle_beta 108.841054
_cell_angle_gamma 90.000000
_cell_volume 1874.442270
_symmetry_space_group_name_H-M "C 2/M"
_symmetry_group_IT_number 12
_symmetry_cell_setting 'monoclinic'
loop_
_space_group_symop_operation_xyz
x,y,z
-x,y,-z
-x,-y,-z
x,-y,z
1/2+x,1/2+y,z
1/2-x,1/2+y,-z
1/2-x,1/2-y,-z
1/2+x,1/2-y,z
loop_
_atom_site_type_symbol
_atom_site_label
_atom_site_fract_x
_atom_site_fract_y
_atom_site_fract_z
Si Si1 0.665744 0.349432 0.609201
Si Si2 0.140835 0.693792 0.260606
Si Si3 0.285437 0.639617 0.023634
Si Si4 0.901182 0.364483 0.435408
Si Si5 0.433232 0.500000 0.122217
Si Si6 0.536620 0.000000 0.191171
O O1 0.760824 0.325426 0.673714
O O2 0.389408 0.397769 0.592221
O O3 0.615783 0.249758 0.575409
O O4 0.892970 0.397612 0.592790
O O5 0.371321 0.749971 0.247568
O O6 0.092633 0.594439 0.228510
O O7 0.378666 0.598561 0.085813
O O8 0.500000 0.601420 0.000000
O O9 0.250000 0.750000 0.000000
O O10 0.000000 0.601419 0.000000
O O11 0.000000 0.384575 0.500000
O O12 0.734991 0.500000 0.156023
O O13 0.232804 0.500000 0.156012
#
# Coordination Sequence:
#
# PCOD9168622 Si02
#       6
#     8   8   8   8   4   4
#     4  10  16  29  51  80 117 163 210 270 332 399
#     4  12  23  47  69  93 137 176 239 290 336 416
#     4  10  21  41  71 105 139 186 223 260 328 400
#     4  10  16  25  46  87 124 151 212 274 337 417
#     4  12  24  49  68 102 154 168 231 294 317 398
#     4  12  30  47  70 110 133 192 232 286 355 380
#
# _framework density 21.339680000000001
#
# number of rings (size 3 to 8) (size 9 to 14) (size 15 to 20)
#    0.000    1.200    4.000    6.000    0.000    0.000 
#   21.600    0.000    0.000    0.000    0.000    7.700 
#    0.000    0.000    0.000    0.000    0.000    0.000 
#
# Total GULP energy -111508.550442 kJ/mol
# GULP energy per Si atom -5575.427522 kJ/mol
# Density = 2.129111 g / cm^3
# Si number density = 21.339680 Si / 1000 Ang^3
#
#
#
# Elastic Constant Matrix: (Units=GPa)
#
#
# Indices 1 2 3 4 5 6 
#
# 1 273.8642 64.2050 62.2559 0.0000 9.4555 0.0000
# 2 64.2050 173.1413 60.7290 0.0000 4.9316 0.0000
# 3 62.2559 60.7290 95.1963 0.0000 4.7841 0.0000
# 4 0.0000 0.0000 0.0000 60.3856 0.0000 1.8784
# 5 9.4555 4.9316 4.7841 0.0000 18.7745 0.0000
# 6 0.0000 0.0000 0.0000 1.8784 0.0000 -62.1632
#
#
#
# Elastic Compliance Matrix: (Units=1/GPa)
#
#
# Indices 1 2 3 4 5 6 
#
# 1 0.004410 -0.000784 -0.002313 0.000000 -0.001426 0.000000
# 2 -0.000784 0.007590 -0.004304 0.000000 -0.000502 0.000000
# 3 -0.002313 -0.004304 0.014838 0.000000 -0.001486 0.000000
# 4 0.000000 0.000000 0.000000 0.016545 0.000000 0.000500
# 5 -0.001426 -0.000502 -0.001486 0.000000 0.054492 0.000000
# 6 0.000000 0.000000 0.000000 0.000500 0.000000 -0.016072
#
#
# Mechanical properties :
#
#
# Convention : Reuss Voigt Hill
#
# Bulk Modulus (GPa) = 83.07852 101.84241 92.46046
# Shear Modulus (GPa) = 49.69361 27.06683 38.38022
#
# Velocity S-wave (km/s) = 4.83089 3.56530 4.24552
# Velocity P-wave (km/s) = 8.37452 8.04838 8.21307
#
# Compressibility (1/GPa) = 0.01203681
#
# Stress axis : x y z
#
# Youngs Moduli (GPa) = 226.75303 131.74735 67.39678
#
# Poissons Ratio (x) = 0.10324 0.15586
# Poissons Ratio (y) = 0.17769 0.29010
# Poissons Ratio (z) = 0.52437 0.56709
#
# Static dielectric constant tensor:
#      x y z
#    x 1.811230 0.000000 -0.001530 
#    y 0.000000 1.735740 0.000000 
#    z -0.001530 0.000000 1.725040 
# 
# From -- ./inp_files/330895.got.cif
#   From: 2010.05.17/outbox.cif.g08.bks.cpg/sg12_166_cif.got.tgz:330895.got - 2010.06.03 13:09:07.
