data_PCOD9168140
_publ_section_title
;
Structure prediction by ZEFSAII (Michael W. Deem and Ramdas Pophale) SiO2 
 PCOD9168140
Probable space group: P 21/M
;
_chemical_formula_sum "Si O2"
_cell_formula_units_Z 32
_cell_length_a 15.000000
_cell_length_b 9.000000
_cell_length_c 12.000000
_cell_angle_alpha 90.000000
_cell_angle_beta 90.000000
_cell_angle_gamma 90.000000
_cell_volume 1620.000000
_symmetry_space_group_name_H-M "P 21/M"
_symmetry_group_IT_number 11
_symmetry_cell_setting 'monoclinic'
loop_
_space_group_symop_operation_xyz
x,y,z
-x,1/2+y,-z
-x,-y,-z
x,1/2-y,z
loop_
_atom_site_type_symbol
_atom_site_label
_atom_site_fract_x
_atom_site_fract_y
_atom_site_fract_z
Si Si1 0.838688 0.081648 0.842144
Si Si2 0.136344 0.570418 0.688210
Si Si3 0.359726 0.915931 0.198928
Si Si4 0.063565 0.426079 0.338203
Si Si5 0.766747 0.073896 0.087369
Si Si6 0.582520 0.423390 0.561092
Si Si7 0.405151 0.079334 0.989654
Si Si8 0.228560 0.071955 0.491031
O O1 0.874405 0.250000 0.838092
O O2 0.745277 0.082510 0.774029
O O3 0.904454 0.968205 0.785086
O O4 0.812321 0.044778 0.968148
O O5 0.141592 0.750000 0.672530
O O6 0.164456 0.538005 0.814844
O O7 0.206631 0.484515 0.613632
O O8 0.037511 0.518503 0.651971
O O9 0.373990 0.750000 0.147049
O O10 0.423179 0.928652 0.304476
O O11 0.370386 0.050150 0.114585
O O12 0.059850 0.250000 0.352744
O O13 0.142162 0.481850 0.419296
O O14 0.748595 0.250000 0.092455
O O15 0.670996 0.992903 0.088028
O O16 0.500000 0.500000 0.500000
O O17 0.588108 0.250000 0.529047
O O18 0.676035 0.504189 0.538728
O O19 0.415692 0.250000 0.961521
O O20 0.500000 0.000000 0.000000
O O21 0.233030 0.250000 0.481409
#
# Coordination Sequence:
#
# PCOD9168140 Si02
#       8
#     4   4   4   4   4   4   4   4
#     4   9  17  33  58  84 111 148 189 235 289 346
#     4  10  22  40  60  83 118 162 201 244 296 351
#     4   9  19  37  58  81 112 148 188 234 285 343
#     4  10  21  36  58  88 118 153 199 246 293 348
#     4   9  20  39  58  81 116 153 194 242 294 347
#     4  11  23  40  62  88 117 153 194 240 296 352
#     4  11  22  36  59  86 113 148 191 237 288 348
#     4  11  23  39  59  86 121 156 198 250 295 349
#
# _framework density 19.753086
#
# number of rings (size 3 to 8) (size 9 to 14) (size 15 to 20)
#    0.000    2.000    1.250    3.000    0.000    6.000 
#    0.000    0.000    0.000    0.000    0.000    0.000 
#    0.000    0.000    0.000    0.000    0.000    0.000 
#
# Total GULP energy -178279.960418 kJ/mol
# GULP energy per Si atom -5571.248763 kJ/mol
# Density = 1.970813 g / cm^3
# Si number density = 19.753086 Si / 1000 Ang^3
#
#
#
# Elastic Constant Matrix: (Units=GPa)
#
#
# Indices 1 2 3 4 5 6 
#
# 1 94.1469 30.0783 32.0762 0.0000 16.4614 0.0000
# 2 30.0783 28.5162 19.6749 0.0000 7.7731 0.0000
# 3 32.0762 19.6749 64.0227 0.0000 23.7992 0.0000
# 4 0.0000 0.0000 0.0000 23.4382 0.0000 -0.3492
# 5 16.4614 7.7731 23.7992 0.0000 21.6946 0.0000
# 6 0.0000 0.0000 0.0000 -0.3492 0.0000 30.2109
#
#
#
# Elastic Compliance Matrix: (Units=1/GPa)
#
#
# Indices 1 2 3 4 5 6 
#
# 1 0.017078 -0.015257 -0.001828 0.000000 -0.005486 0.000000
# 2 -0.015257 0.058166 -0.011461 0.000000 0.003309 0.000000
# 3 -0.001828 -0.011461 0.030421 0.000000 -0.027878 0.000000
# 4 0.000000 0.000000 0.000000 0.042673 0.000000 0.000493
# 5 -0.005486 0.003309 -0.027878 0.000000 0.079654 0.000000
# 6 0.000000 0.000000 0.000000 0.000493 0.000000 0.033106
#
#
# Mechanical properties :
#
#
# Convention : Reuss Voigt Hill
#
# Bulk Modulus (GPa) = 20.58786 38.92715 29.75751
# Shear Modulus (GPa) = 14.95295 22.05915 18.50605
#
# Velocity S-wave (km/s) = 2.75434 3.34540 3.06415
# Velocity P-wave (km/s) = 4.53436 5.88829 5.25511
#
# Compressibility (1/GPa) = 0.04857231
#
# Stress axis : x y z
#
# Youngs Moduli (GPa) = 58.55431 17.19213 32.87223
#
# Poissons Ratio (x) = 0.26230 0.06010
# Poissons Ratio (y) = 0.89335 0.37676
# Poissons Ratio (z) = 0.10706 0.19705
#
# Static dielectric constant tensor:
#      x y z
#    x 1.736790 0.000000 -0.038760 
#    y 0.000000 1.697550 0.000000 
#    z -0.038760 0.000000 1.750650 
# 
# From -- ./inp_files/38231.got.cif
#   From: 2010.05.17/outbox.ucp.g08.bks.cvg/sg11_20_cif.got.tgz:38231.got - 2010.06.11 11:38:39.
