data_PCOD9168149
_publ_section_title
;
Structure prediction by ZEFSAII (Michael W. Deem and Ramdas Pophale) SiO2 
 PCOD9168149
Probable space group: P 21/M
;
_chemical_formula_sum "Si O2"
_cell_formula_units_Z 32
_cell_length_a 12.000000
_cell_length_b 9.000000
_cell_length_c 30.000000
_cell_angle_alpha 90.000000
_cell_angle_beta 30.000000
_cell_angle_gamma 90.000000
_cell_volume 1620.000000
_symmetry_space_group_name_H-M "P 21/M"
_symmetry_group_IT_number 11
_symmetry_cell_setting 'monoclinic'
loop_
_space_group_symop_operation_xyz
x,y,z
-x,1/2+y,-z
-x,-y,-z
x,1/2-y,z
loop_
_atom_site_type_symbol
_atom_site_label
_atom_site_fract_x
_atom_site_fract_y
_atom_site_fract_z
Si Si1 0.641023 0.581254 0.730034
Si Si2 0.119228 0.413986 0.999115
Si Si3 0.080599 0.423687 0.594910
Si Si4 0.547794 0.916554 0.865362
Si Si5 0.933783 0.428952 0.305290
Si Si6 0.807664 0.426809 0.535308
Si Si7 0.250180 0.584114 0.797346
Si Si8 0.699413 0.925237 0.301783
O O1 0.735749 0.750000 0.688701
O O2 0.537099 0.592141 0.815002
O O3 0.470051 0.546854 0.750247
O O4 0.820493 0.452608 0.674502
O O5 0.176334 0.250000 0.962172
O O6 0.936021 0.406227 0.100678
O O7 0.338850 0.480467 0.946279
O O8 0.000000 0.500000 0.000000
O O9 0.137763 0.250000 0.573472
O O10 0.134365 0.494265 0.624342
O O11 0.177112 0.518099 0.520899
O O12 0.514629 0.750000 0.894466
O O13 0.799518 0.963231 0.791454
O O14 0.915008 0.250000 0.315637
O O15 0.787862 0.489599 0.314771
O O16 0.834082 0.250000 0.530405
O O17 0.547227 0.464501 0.632212
O O18 0.000000 0.500000 0.500000
O O19 0.284878 0.750000 0.765641
O O20 0.165163 0.474754 0.788511
O O21 0.704420 0.750000 0.309159
#
# Coordination Sequence:
#
# PCOD9168149 Si02
#       8
#     4   4   4   4   4   4   4   4
#     4   9  17  33  55  81 118 157 193 238 292 352
#     4  11  21  34  55  87 122 156 194 240 293 352
#     4  11  22  36  59  91 121 154 199 245 290 346
#     4   9  18  35  57  85 116 149 192 241 292 346
#     4  10  22  42  65  85 115 159 202 243 294 351
#     4  11  24  42  63  91 125 157 193 241 297 354
#     4  10  21  37  56  81 117 158 197 235 294 360
#     4  11  25  42  61  87 116 150 199 251 294 345
#
# _framework density 19.753086
#
# number of rings (size 3 to 8) (size 9 to 14) (size 15 to 20)
#    0.000    1.750    1.250    4.125    0.000    8.500 
#    0.000    0.625    0.000    0.000    0.000    0.000 
#    0.000    0.000    0.000    0.000    0.000    0.000 
#
# Total GULP energy -178227.689178 kJ/mol
# GULP energy per Si atom -5569.615287 kJ/mol
# Density = 1.970813 g / cm^3
# Si number density = 19.753086 Si / 1000 Ang^3
#
#
#
# Elastic Constant Matrix: (Units=GPa)
#
#
# Indices 1 2 3 4 5 6 
#
# 1 130.5115 48.1669 39.5311 0.0000 -6.6494 0.0000
# 2 48.1669 55.7580 18.7199 0.0000 -11.4419 0.0000
# 3 39.5311 18.7199 28.0753 0.0000 2.0846 0.0000
# 4 0.0000 0.0000 0.0000 18.2428 0.0000 -1.3050
# 5 -6.6494 -11.4419 2.0846 0.0000 19.6014 0.0000
# 6 0.0000 0.0000 0.0000 -1.3050 0.0000 35.8949
#
#
#
# Elastic Compliance Matrix: (Units=1/GPa)
#
#
# Indices 1 2 3 4 5 6 
#
# 1 0.015813 -0.007034 -0.017809 0.000000 0.003152 0.000000
# 2 -0.007034 0.031857 -0.012641 0.000000 0.017554 0.000000
# 3 -0.017809 -0.012641 0.070678 0.000000 -0.020937 0.000000
# 4 0.000000 0.000000 0.000000 0.054959 0.000000 0.001998
# 5 0.003152 0.017554 -0.020937 0.000000 0.064560 0.000000
# 6 0.000000 0.000000 0.000000 0.001998 0.000000 0.027932
#
#
# Mechanical properties :
#
#
# Convention : Reuss Voigt Hill
#
# Bulk Modulus (GPa) = 23.05215 47.46451 35.25833
# Shear Modulus (GPa) = 14.07547 21.94295 18.00921
#
# Velocity S-wave (km/s) = 2.67230 3.33658 3.02274
# Velocity P-wave (km/s) = 4.60620 6.23897 5.48369
#
# Compressibility (1/GPa) = 0.04337991
#
# Stress axis : x y z
#
# Youngs Moduli (GPa) = 63.23842 31.38986 14.14867
#
# Poissons Ratio (x) = 0.22080 0.25198
# Poissons Ratio (y) = 0.44483 0.17885
# Poissons Ratio (z) = 1.12624 0.39679
#
# Static dielectric constant tensor:
#      x y z
#    x 1.642740 0.000000 0.029690 
#    y 0.000000 1.768200 0.000000 
#    z 0.029690 0.000000 1.999210 
# 
# From -- ./inp_files/73104.got.cif
#   From: 2010.05.17/outbox.ucp.g08.bks.cvg/sg11_37_cif.got.tgz:73104.got - 2010.06.11 11:38:39.
