data_PCOD9168555
_publ_section_title
;
Structure prediction by ZEFSAII (Michael W. Deem and Ramdas Pophale) SiO2 
 PCOD9168555
Probable space group: C 2/M
;
_chemical_formula_sum "Si O2"
_cell_formula_units_Z 48
_cell_length_a 25.105226
_cell_length_b 8.853438
_cell_length_c 15.814174
_cell_angle_alpha 90.000000
_cell_angle_beta 119.234896
_cell_angle_gamma 90.000000
_cell_volume 3067.256830
_symmetry_space_group_name_H-M "C 2/M"
_symmetry_group_IT_number 12
_symmetry_cell_setting 'monoclinic'
loop_
_space_group_symop_operation_xyz
x,y,z
-x,y,-z
-x,-y,-z
x,-y,z
1/2+x,1/2+y,z
1/2-x,1/2+y,-z
1/2-x,1/2-y,-z
1/2+x,1/2-y,z
loop_
_atom_site_type_symbol
_atom_site_label
_atom_site_fract_x
_atom_site_fract_y
_atom_site_fract_z
Si Si1 0.590657 0.817258 0.510627
Si Si2 0.182929 0.180887 0.449750
Si Si3 0.428192 0.324835 0.970644
Si Si4 0.039554 0.319275 0.836013
Si Si5 0.906930 0.182674 0.771546
Si Si6 0.046048 0.317058 0.654640
O O1 0.643903 0.742963 0.498156
O O2 0.586062 0.768570 0.605289
O O3 0.524618 0.776926 0.419120
O O4 0.596255 0.000000 0.511316
O O5 0.250000 0.250000 0.500000
O O6 0.145207 0.222267 0.335579
O O7 0.186231 0.000000 0.456208
O O8 0.413500 0.500000 0.974610
O O9 0.422640 0.235789 0.053498
O O10 0.500000 0.317234 0.000000
O O11 0.394446 0.271574 0.859296
O O12 0.036506 0.500000 0.834427
O O13 0.970964 0.255073 0.793108
O O14 0.063146 0.267655 0.762212
O O15 0.914577 0.000000 0.777982
O O16 0.047797 0.500000 0.654789
#
# Coordination Sequence:
#
# PCOD9168555 Si02
#       6
#     8   8   8   8   8   8
#     4   9  16  31  48  64  89 123 154 182 220 269
#     4  11  22  34  48  67  89 119 157 194 228 265
#     4   8  15  27  40  57  86 121 148 175 217 270
#     4  10  16  24  42  69  93 116 147 181 218 263
#     4   9  18  31  43  58  87 122 152 181 220 269
#     4   8  15  26  45  68  93 122 148 177 223 273
#
# _framework density 15.649160999999999
#
# number of rings (size 3 to 8) (size 9 to 14) (size 15 to 20)
#    0.000    2.833    1.667    3.000    0.000    3.667 
#    0.000    3.333    0.000    0.000    0.000    1.167 
#    0.000    0.000    0.000    0.000    0.000    0.000 
#
# Total GULP energy -133617.445899 kJ/mol
# GULP energy per Si atom -5567.393579 kJ/mol
# Density = 1.561354 g / cm^3
# Si number density = 15.649161 Si / 1000 Ang^3
#
#
#
# Elastic Constant Matrix: (Units=GPa)
#
#
# Indices 1 2 3 4 5 6 
#
# 1 85.7172 25.8485 67.8317 0.0000 -15.3986 0.0000
# 2 25.8485 25.5186 39.3355 0.0000 -6.6545 0.0000
# 3 67.8317 39.3355 152.5430 0.0000 -35.7107 0.0000
# 4 0.0000 0.0000 0.0000 24.1254 0.0000 -3.4957
# 5 -15.3986 -6.6545 -35.7107 0.0000 24.0327 0.0000
# 6 0.0000 0.0000 0.0000 -3.4957 0.0000 14.8588
#
#
#
# Elastic Compliance Matrix: (Units=1/GPa)
#
#
# Indices 1 2 3 4 5 6 
#
# 1 0.019624 -0.010860 -0.005652 0.000000 0.001168 0.000000
# 2 -0.010860 0.072859 -0.016660 0.000000 -0.011540 0.000000
# 3 -0.005652 -0.016660 0.017538 0.000000 0.017825 0.000000
# 4 0.000000 0.000000 0.000000 0.042913 0.000000 0.010096
# 5 0.001168 -0.011540 0.017825 0.000000 0.065650 0.000000
# 6 0.000000 0.000000 0.000000 0.010096 0.000000 0.069675
#
#
# Mechanical properties :
#
#
# Convention : Reuss Voigt Hill
#
# Bulk Modulus (GPa) = 22.89609 58.86779 40.88194
# Shear Modulus (GPa) = 13.54412 21.32092 17.43252
#
# Velocity S-wave (km/s) = 2.94510 3.69512 3.34122
# Velocity P-wave (km/s) = 5.12128 7.47690 6.40826
#
# Compressibility (1/GPa) = 0.04367558
#
# Stress axis : x y z
#
# Youngs Moduli (GPa) = 50.95796 13.72507 57.01887
#
# Poissons Ratio (x) = 0.14906 0.32229
# Poissons Ratio (y) = 0.55342 0.94994
# Poissons Ratio (z) = 0.28804 0.22866
#
# Static dielectric constant tensor:
#      x y z
#    x 1.483260 0.000000 -0.027020 
#    y 0.000000 1.527380 0.000000 
#    z -0.027020 0.000000 1.571060 
# 
# From -- ./inp_files/236855.got.cif
#   From: 2010.05.17/outbox.cif.g08.bks.cpg/sg12_119_cif.got.tgz:236855.got - 2010.06.03 13:09:07.
