data_PCOD9168686
_publ_section_title
;
Structure prediction by ZEFSAII (Michael W. Deem and Ramdas Pophale) SiO2 
 PCOD9168686
Probable space group: C 2/M
;
_chemical_formula_sum "Si O2"
_cell_formula_units_Z 48
_cell_length_a 15.495291
_cell_length_b 17.826285
_cell_length_c 7.881720
_cell_angle_alpha 90.000000
_cell_angle_beta 63.573476
_cell_angle_gamma 90.000000
_cell_volume 1949.620136
_symmetry_space_group_name_H-M "C 2/M"
_symmetry_group_IT_number 12
_symmetry_cell_setting 'monoclinic'
loop_
_space_group_symop_operation_xyz
x,y,z
-x,y,-z
-x,-y,-z
x,-y,z
1/2+x,1/2+y,z
1/2-x,1/2+y,-z
1/2-x,1/2-y,-z
1/2+x,1/2-y,z
loop_
_atom_site_type_symbol
_atom_site_label
_atom_site_fract_x
_atom_site_fract_y
_atom_site_fract_z
Si Si1 0.072119 0.670269 0.810552
Si Si2 0.729952 0.283355 0.328507
Si Si3 0.200252 0.082737 0.877327
Si Si4 0.115189 0.085811 0.566247
Si Si5 0.613304 0.139306 0.414433
Si Si6 0.543479 0.320725 0.146509
O O1 0.161827 0.706758 0.834784
O O2 0.121554 0.628007 0.611562
O O3 0.005219 0.737861 0.792510
O O4 0.000000 0.628478 0.000000
O O5 0.750000 0.250000 0.500000
O O6 0.679120 0.362447 0.390643
O O7 0.653883 0.222265 0.329247
O O8 0.164082 0.089668 0.712757
O O9 0.315446 0.088697 0.757423
O O10 0.170708 0.000000 0.964682
O O11 0.152747 0.149573 0.028827
O O12 0.012161 0.125250 0.676779
O O13 0.109695 0.000000 0.520872
O O14 0.500000 0.129330 0.500000
O O15 0.500000 0.341637 0.000000
#
# Coordination Sequence:
#
# PCOD9168686 Si02
#       6
#     8   8   8   8   8   8
#     4  10  18  32  57  78 104 140 177 226 265 306
#     4  10  16  33  50  72 106 140 176 219 262 312
#     4  10  19  31  49  79 112 139 172 223 274 317
#     4  10  16  26  51  78 103 133 177 224 270 313
#     4  11  21  34  53  79 110 147 179 215 265 324
#     4   9  15  27  47  79 105 124 168 223 275 303
#
# _framework density 24.620180000000001
#
# number of rings (size 3 to 8) (size 9 to 14) (size 15 to 20)
#    0.000    2.000    6.667    2.500    0.000    2.333 
#    0.000    3.333    0.000    2.500    0.000    0.000 
#    0.000    0.000    0.000    0.000    0.000    0.000 
#
# Total GULP energy -133859.809393 kJ/mol
# GULP energy per Si atom -5577.492058 kJ/mol
# Density = 2.456414 g / cm^3
# Si number density = 24.620180 Si / 1000 Ang^3
#
#
#
# Elastic Constant Matrix: (Units=GPa)
#
#
# Indices 1 2 3 4 5 6 
#
# 1 76.5641 -17.6334 16.4612 0.0000 -22.8291 0.0000
# 2 -17.6334 62.7192 0.0559 0.0000 9.5857 0.0000
# 3 16.4612 0.0559 113.8479 0.0000 -31.4601 0.0000
# 4 0.0000 0.0000 0.0000 29.6514 0.0000 -6.6975
# 5 -22.8291 9.5857 -31.4601 0.0000 45.9673 0.0000
# 6 0.0000 0.0000 0.0000 -6.6975 0.0000 -4.8423
#
#
#
# Elastic Compliance Matrix: (Units=1/GPa)
#
#
# Indices 1 2 3 4 5 6 
#
# 1 0.016015 0.003438 -0.000392 0.000000 0.006969 0.000000
# 2 0.003438 0.017337 -0.001274 0.000000 -0.002780 0.000000
# 3 -0.000392 -0.001274 0.010927 0.000000 0.007550 0.000000
# 4 0.000000 0.000000 0.000000 0.025697 0.000000 -0.035542
# 5 0.006969 -0.002780 0.007550 0.000000 0.030962 0.000000
# 6 0.000000 0.000000 0.000000 -0.035542 0.000000 -0.157355
#
#
# Mechanical properties :
#
#
# Convention : Reuss Voigt Hill
#
# Bulk Modulus (GPa) = 20.91021 27.87762 24.39392
# Shear Modulus (GPa) = -113.58131 31.10512 -41.23809
#
# Velocity S-wave (km/s) = -6.79953 3.55829 -4.09708
# Velocity P-wave (km/s) = 7.28925 5.31315 3.52871
#
# Compressibility (1/GPa) = 0.04782353
#
# Stress axis : x y z
#
# Youngs Moduli (GPa) = 62.44255 57.68157 91.51538
#
# Poissons Ratio (x) = -0.19830 0.03584
# Poissons Ratio (y) = -0.21467 0.11656
# Poissons Ratio (z) = 0.02445 0.07347
#
# Static dielectric constant tensor:
#      x y z
#    x 2.158910 0.000000 0.016840 
#    y 0.000000 1.935400 0.000000 
#    z 0.016840 0.000000 1.959180 
# 
# From -- ./inp_files/159125.got.cif
#   From: 2010.05.17/outbox.cif.g08.bks.cpg/sg12_80_cif.got.tgz:159125.got - 2010.06.03 13:09:07.
