data_PCOD9168916
_publ_section_title
;
Structure prediction by ZEFSAII (Michael W. Deem and Ramdas Pophale) SiO2 
 PCOD9168916
Probable space group: C 2/M
;
_chemical_formula_sum "Si O2"
_cell_formula_units_Z 60
_cell_length_a 12.238229
_cell_length_b 19.523997
_cell_length_c 16.069484
_cell_angle_alpha 90.000000
_cell_angle_beta 71.668174
_cell_angle_gamma 90.000000
_cell_volume 3644.771153
_symmetry_space_group_name_H-M "C 2/M"
_symmetry_group_IT_number 12
_symmetry_cell_setting 'monoclinic'
loop_
_space_group_symop_operation_xyz
x,y,z
-x,y,-z
-x,-y,-z
x,-y,z
1/2+x,1/2+y,z
1/2-x,1/2+y,-z
1/2-x,1/2-y,-z
1/2+x,1/2-y,z
loop_
_atom_site_type_symbol
_atom_site_label
_atom_site_fract_x
_atom_site_fract_y
_atom_site_fract_z
Si Si1 0.690342 0.186293 0.282330
Si Si2 0.740894 0.714692 0.412960
Si Si3 0.000000 0.786679 0.000000
Si Si4 0.315822 0.797329 0.137229
Si Si5 0.122433 0.079881 0.700557
Si Si6 0.870244 0.922977 0.499055
Si Si7 0.932926 0.840136 0.840166
Si Si8 0.534192 0.803544 0.748898
O O1 0.668866 0.237327 0.366178
O O2 0.760430 0.233304 0.200505
O O3 0.775044 0.126221 0.288842
O O4 0.573241 0.159714 0.268618
O O5 0.750000 0.750000 0.500000
O O6 0.692592 0.638545 0.438383
O O7 0.866074 0.709333 0.341447
O O8 0.030894 0.832699 0.072296
O O9 0.892729 0.736655 0.046943
O O10 0.205348 0.841390 0.136505
O O11 0.402401 0.831957 0.183635
O O12 0.122769 0.091438 0.601190
O O13 0.003644 0.102918 0.772987
O O14 0.141767 0.000000 0.710881
O O15 0.000000 0.924464 0.500000
O O16 0.820534 0.000000 0.522902
O O17 0.979551 0.769025 0.789402
#
# Coordination Sequence:
#
# PCOD9168916 Si02
#       8
#     8   8   4   8   8   8   8   8
#     4  10  19  34  51  77 105 137 184 218 258 318
#     4  11  19  30  52  75 102 137 177 222 261 311
#     4  10  16  30  51  86 111 134 166 218 276 316
#     4   9  18  30  53  78 111 133 164 223 272 311
#     4  11  21  38  54  72 109 146 177 220 269 315
#     4  10  23  36  51  77 108 138 175 223 273 317
#     4  10  18  33  51  81 110 138 175 218 264 315
#     4   9  19  31  50  76 104 134 174 220 258 309
#
# _framework density 16.461939000000001
#
# number of rings (size 3 to 8) (size 9 to 14) (size 15 to 20)
#    0.000    2.000    5.333    0.400    7.467    0.000 
#    0.000    1.000    0.000    2.400    0.000    0.467 
#    0.000    0.000    0.000    0.000    0.000    0.000 
#
# Total GULP energy -167108.347715 kJ/mol
# GULP energy per Si atom -5570.278257 kJ/mol
# Density = 1.642447 g / cm^3
# Si number density = 16.461939 Si / 1000 Ang^3
#
#
#
# Elastic Constant Matrix: (Units=GPa)
#
#
# Indices 1 2 3 4 5 6 
#
# 1 107.6344 28.7926 20.1080 0.0000 12.8056 0.0000
# 2 28.7926 62.4245 25.0994 0.0000 5.9871 0.0000
# 3 20.1080 25.0994 65.2315 0.0000 -5.0281 0.0000
# 4 0.0000 0.0000 0.0000 8.8912 0.0000 -21.4255
# 5 12.8056 5.9871 -5.0281 0.0000 17.0495 0.0000
# 6 0.0000 0.0000 0.0000 -21.4255 0.0000 -12.1436
#
#
#
# Elastic Compliance Matrix: (Units=1/GPa)
#
#
# Indices 1 2 3 4 5 6 
#
# 1 0.011774 -0.003419 -0.002970 0.000000 -0.008518 0.000000
# 2 -0.003419 0.021401 -0.007738 0.000000 -0.007229 0.000000
# 3 -0.002970 -0.007738 0.020060 0.000000 0.010864 0.000000
# 4 0.000000 0.000000 0.000000 0.021416 0.000000 -0.037786
# 5 -0.008518 -0.007229 0.010864 0.000000 0.070793 0.000000
# 6 0.000000 0.000000 0.000000 -0.037786 0.000000 -0.015680
#
#
# Mechanical properties :
#
#
# Convention : Reuss Voigt Hill
#
# Bulk Modulus (GPa) = 40.03131 42.58782 41.30956
# Shear Modulus (GPa) = 30.05791 13.51211 21.78501
#
# Velocity S-wave (km/s) = 4.27769 2.86808 3.64174
# Velocity P-wave (km/s) = 6.98345 6.07409 6.54458
#
# Compressibility (1/GPa) = 0.02498045
#
# Stress axis : x y z
#
# Youngs Moduli (GPa) = 84.93493 46.72694 49.84954
#
# Poissons Ratio (x) = 0.15977 0.14807
# Poissons Ratio (y) = 0.29041 0.38572
# Poissons Ratio (z) = 0.25228 0.36156
#
# Static dielectric constant tensor:
#      x y z
#    x 1.600810 0.000000 0.028910 
#    y 0.000000 1.540700 0.000000 
#    z 0.028910 0.000000 1.571670 
# 
# From -- ./inp_files/206144.got.cif
#   From: 2010.05.17/outbox.cif.g08.bks.cpg/sg12_104_cif.got.tgz:206144.got - 2010.06.03 13:09:07.
