data_PCOD9168081
_publ_section_title
;
Structure prediction by ZEFSAII (Michael W. Deem and Ramdas Pophale) SiO2 
 PCOD9168081
Probable space group: P 21/M
;
_chemical_formula_sum "Si O2"
_cell_formula_units_Z 32
_cell_length_a 12.000000
_cell_length_b 9.000000
_cell_length_c 30.000000
_cell_angle_alpha 90.000000
_cell_angle_beta 150.000000
_cell_angle_gamma 90.000000
_cell_volume 1620.000000
_symmetry_space_group_name_H-M "P 21/M"
_symmetry_group_IT_number 11
_symmetry_cell_setting 'monoclinic'
loop_
_space_group_symop_operation_xyz
x,y,z
-x,1/2+y,-z
-x,-y,-z
x,1/2-y,z
loop_
_atom_site_type_symbol
_atom_site_label
_atom_site_fract_x
_atom_site_fract_y
_atom_site_fract_z
Si Si1 0.471917 0.427974 0.440653
Si Si2 0.390931 0.577220 0.069294
Si Si3 0.658820 0.074627 0.092077
Si Si4 0.768685 0.920832 0.375810
Si Si5 0.371702 0.579821 0.168701
Si Si6 0.091594 0.078995 0.142409
Si Si7 0.138668 0.927882 0.251863
Si Si8 0.221257 0.078009 0.520703
O O1 0.500000 0.500000 0.500000
O O2 0.442208 0.250000 0.434308
O O3 0.284070 0.499134 0.342318
O O4 0.687246 0.470761 0.485729
O O5 0.465177 0.750000 0.088992
O O6 0.552990 0.458640 0.103363
O O7 0.374311 0.553514 0.116664
O O8 0.164015 0.561710 0.961964
O O9 0.685184 0.250000 0.092515
O O10 0.889710 0.987894 0.172033
O O11 0.500000 0.000000 0.000000
O O12 0.856094 0.750000 0.407536
O O13 0.601758 0.928691 0.276353
O O14 0.675002 0.945420 0.393716
O O15 0.962678 0.039794 0.436965
O O16 0.288574 0.750000 0.146102
O O17 0.220338 0.464629 0.142339
O O18 0.127841 0.250000 0.167557
O O19 0.173228 0.980270 0.212306
O O20 0.159366 0.750000 0.261620
O O21 0.259591 0.250000 0.521756
#
# Coordination Sequence:
#
# PCOD9168081 Si02
#       8
#     4   4   4   4   4   4   4   4
#     4  12  26  45  67  94 129 166 208 259 315 378
#     4  10  22  39  59  86 123 165 208 258 314 375
#     4  12  24  41  65  92 123 163 212 265 317 374
#     4   9  19  36  59  87 119 160 207 256 309 370
#     4  10  21  37  58  86 123 164 207 255 312 374
#     4  11  22  37  60  89 124 163 209 259 310 373
#     4  12  25  43  68  95 125 166 212 260 315 376
#     4  10  20  37  62  90 122 161 206 255 310 370
#
# _framework density 19.753086
#
# number of rings (size 3 to 8) (size 9 to 14) (size 15 to 20)
#    0.000    1.250    1.250    5.250    0.000    4.000 
#    0.000    3.750    0.000    0.000    0.000    0.000 
#    0.000    0.000    0.000    0.000    0.000    0.000 
#
# Total GULP energy -178555.483602 kJ/mol
# GULP energy per Si atom -5579.858863 kJ/mol
# Density = 1.970813 g / cm^3
# Si number density = 19.753086 Si / 1000 Ang^3
#
#
#
# Elastic Constant Matrix: (Units=GPa)
#
#
# Indices 1 2 3 4 5 6 
#
# 1 96.0932 52.0898 27.3954 0.0000 -27.0726 0.0000
# 2 52.0898 117.9504 23.1986 0.0000 -16.0866 0.0000
# 3 27.3954 23.1986 22.9268 0.0000 -28.8283 0.0000
# 4 0.0000 0.0000 0.0000 29.0564 0.0000 -5.6623
# 5 -27.0726 -16.0866 -28.8283 0.0000 37.0605 0.0000
# 6 0.0000 0.0000 0.0000 -5.6623 0.0000 36.5228
#
#
#
# Elastic Compliance Matrix: (Units=1/GPa)
#
#
# Indices 1 2 3 4 5 6 
#
# 1 0.013686 -0.011109 0.063705 0.000000 0.054730 0.000000
# 2 -0.011109 0.000429 0.131073 0.000000 0.094029 0.000000
# 3 0.063705 0.131073 -1.601708 0.000000 -1.142490 0.000000
# 4 0.000000 0.000000 0.000000 0.035488 0.000000 0.005502
# 5 0.054730 0.094029 -1.142490 0.000000 -0.780932 0.000000
# 6 0.000000 0.000000 0.000000 0.005502 0.000000 0.028233
#
#
# Mechanical properties :
#
#
# Convention : Reuss Voigt Hill
#
# Bulk Modulus (GPa) = -0.81950 49.14865 24.16457
# Shear Modulus (GPa) = -1.62396 29.48038 13.92821
#
# Velocity S-wave (km/s) = -0.90770 3.86741 2.65828
# Velocity P-wave (km/s) = 1.23058 6.69910 4.65637
#
# Compressibility (1/GPa) = -1.22025403
#
# Stress axis : x y z
#
# Youngs Moduli (GPa) = 73.06727 2332.19315 -0.62433
#
# Poissons Ratio (x) = 25.90927 0.03977
# Poissons Ratio (y) = 0.81173 0.08183
# Poissons Ratio (z) = -4.65478 -305.68845
#
# Static dielectric constant tensor:
#      x y z
#    x 1.744780 0.000000 0.067610 
#    y 0.000000 1.670490 0.000000 
#    z 0.067610 0.000000 1.713060 
# 
# From -- ./inp_files/73175.got.cif
#   From: 2010.05.17/outbox.ucp.g08.bks.cvg/sg11_37_cif.got.tgz:73175.got - 2010.06.11 11:38:39.
