data_PCOD9168977
_publ_section_title
;
Structure prediction by ZEFSAII (Michael W. Deem and Ramdas Pophale) SiO2 
 PCOD9168977
Probable space group: C 2/M
;
_chemical_formula_sum "Si O2"
_cell_formula_units_Z 44
_cell_length_a 12.687524
_cell_length_b 15.113305
_cell_length_c 16.535678
_cell_angle_alpha 90.000000
_cell_angle_beta 143.277044
_cell_angle_gamma 90.000000
_cell_volume 1895.922322
_symmetry_space_group_name_H-M "C 2/M"
_symmetry_group_IT_number 12
_symmetry_cell_setting 'monoclinic'
loop_
_space_group_symop_operation_xyz
x,y,z
-x,y,-z
-x,-y,-z
x,-y,z
1/2+x,1/2+y,z
1/2-x,1/2+y,-z
1/2-x,1/2-y,-z
1/2+x,1/2-y,z
loop_
_atom_site_type_symbol
_atom_site_label
_atom_site_fract_x
_atom_site_fract_y
_atom_site_fract_z
Si Si1 0.330627 0.375596 0.845916
Si Si2 0.357446 0.355118 0.156209
Si Si3 0.500000 0.245522 0.500000
Si Si4 0.877452 0.643695 0.134153
Si Si5 0.249200 0.904688 0.388060
Si Si6 0.190348 0.327067 0.212188
O O1 0.166405 0.392271 0.804632
O O2 0.283615 0.409066 0.728774
O O3 0.372208 0.271629 0.852079
O O4 0.500000 0.406590 0.000000
O O5 0.367044 0.249412 0.146018
O O6 0.551995 0.387221 0.297893
O O7 0.227919 0.375064 0.150976
O O8 0.275307 0.387710 0.021564
O O9 0.621886 0.178717 0.522083
O O10 0.374584 0.305460 0.368902
O O11 0.056741 0.631119 0.194304
O O12 0.317243 0.000000 0.457960
#
# Coordination Sequence:
#
# PCOD9168977 Si02
#       6
#     8   8   4   8   8   8
#     4  10  17  31  51  82 107 136 174 216 271 325
#     4  10  18  31  54  81 106 136 176 218 283 322
#     4  10  21  38  50  80 107 142 188 222 264 308
#     4  10  16  31  54  79 113 130 164 232 284 314
#     4  11  22  37  52  75 113 152 182 212 254 321
#     4  10  19  31  54  80 109 135 172 229 277 315
#
# _framework density 23.207702000000001
#
# number of rings (size 3 to 8) (size 9 to 14) (size 15 to 20)
#    0.000    1.818    5.455    3.000    0.000    1.091 
#    3.273    0.000    0.000    3.273    0.000    0.636 
#    0.000    0.000    0.000    0.000    0.000    0.000 
#
# Total GULP energy -122797.566977 kJ/mol
# GULP energy per Si atom -5581.707590 kJ/mol
# Density = 2.315488 g / cm^3
# Si number density = 23.207702 Si / 1000 Ang^3
#
#
#
# Elastic Constant Matrix: (Units=GPa)
#
#
# Indices 1 2 3 4 5 6 
#
# 1 166.0427 -2.6777 -0.5189 0.0001 20.7259 0.0001
# 2 -2.6777 25.7234 -6.5253 0.0006 0.6022 0.0003
# 3 -0.5189 -6.5253 78.3054 0.0010 9.2709 0.0006
# 4 0.0001 0.0006 0.0010 7.6552 0.0005 -24.7776
# 5 20.7259 0.6022 9.2709 0.0005 30.7595 0.0003
# 6 0.0001 0.0003 0.0006 -24.7776 0.0003 0.0119
#
#
#
# Elastic Compliance Matrix: (Units=1/GPa)
#
#
# Indices 1 2 3 4 5 6 
#
# 1 0.006626 0.000972 0.000680 0.000000 -0.004688 0.000000
# 2 0.000972 0.039958 0.003636 0.000001 -0.002533 0.000001
# 3 0.000680 0.003636 0.013627 0.000000 -0.004637 0.000001
# 4 0.000000 0.000001 0.000000 -0.000019 0.000000 -0.040365
# 5 -0.004688 -0.002533 -0.004637 0.000000 0.037116 0.000001
# 6 0.000000 0.000001 0.000001 -0.040365 0.000001 -0.012471
#
#
# Mechanical properties :
#
#
# Convention : Reuss Voigt Hill
#
# Bulk Modulus (GPa) = 14.12699 27.84751 20.98725
# Shear Modulus (GPa) = 51.09555 26.33822 38.71688
#
# Velocity S-wave (km/s) = 4.69728 3.37247 4.08889
# Velocity P-wave (km/s) = 5.95984 5.21441 5.59954
#
# Compressibility (1/GPa) = 0.07078651
#
# Stress axis : x y z
#
# Youngs Moduli (GPa) = 150.93083 25.02629 73.38400
#
# Poissons Ratio (x) = -0.02432 -0.04990
# Poissons Ratio (y) = -0.14670 -0.26683
# Poissons Ratio (z) = -0.10263 -0.09100
#
# Static dielectric constant tensor:
#      x y z
#    x 1.888590 0.000000 0.030980 
#    y 0.000000 1.934160 0.000000 
#    z 0.030980 0.000000 1.882660 
# 
# From -- ./inp_files/264362.got.cif
#   From: 2010.05.17/outbox.cif.g08.bks.cpg/sg12_133_cif.got.tgz:264362.got - 2010.06.03 13:09:07.
