data_PCOD9168868
_publ_section_title
;
Structure prediction by ZEFSAII (Michael W. Deem and Ramdas Pophale) SiO2 
 PCOD9168868
Probable space group: C 2/M
;
_chemical_formula_sum "Si O2"
_cell_formula_units_Z 64
_cell_length_a 5.373995
_cell_length_b 28.287466
_cell_length_c 26.376291
_cell_angle_alpha 90.000000
_cell_angle_beta 90.002918
_cell_angle_gamma 90.000000
_cell_volume 4009.636733
_symmetry_space_group_name_H-M "C 2/M"
_symmetry_group_IT_number 12
_symmetry_cell_setting 'monoclinic'
loop_
_space_group_symop_operation_xyz
x,y,z
-x,y,-z
-x,-y,-z
x,-y,z
1/2+x,1/2+y,z
1/2-x,1/2+y,-z
1/2-x,1/2-y,-z
1/2+x,1/2-y,z
loop_
_atom_site_type_symbol
_atom_site_label
_atom_site_fract_x
_atom_site_fract_y
_atom_site_fract_z
Si Si1 0.250011 0.444572 0.532622
Si Si2 0.750068 0.376403 0.371283
Si Si3 0.750007 0.442365 0.029204
Si Si4 0.249960 0.557444 0.853792
Si Si5 0.750056 0.942920 0.205612
Si Si6 0.750213 0.266275 0.402047
Si Si7 0.249964 0.882127 0.694657
Si Si8 0.249816 0.226075 0.712549
O O1 0.500000 0.436397 0.500000
O O2 0.250038 0.500000 0.547793
O O3 0.249997 0.410608 0.580671
O O4 0.000000 0.436404 0.500000
O O5 0.750151 0.321520 0.388702
O O6 0.500267 0.385193 0.338818
O O7 0.999859 0.385215 0.338826
O O8 0.750008 0.500000 0.029345
O O9 0.750022 0.426982 0.087729
O O10 0.500000 0.427553 0.000000
O O11 0.000000 0.427553 0.000000
O O12 0.249963 0.500000 0.854576
O O13 0.500697 0.571715 0.824541
O O14 0.999201 0.571714 0.824543
O O15 0.750060 0.920500 0.261113
O O16 0.750060 0.000000 0.208899
O O17 0.500235 0.249991 0.429086
O O18 0.750235 0.237151 0.348339
O O19 0.250032 0.829726 0.718788
O O20 0.499742 0.250031 0.732741
#
# Coordination Sequence:
#
# PCOD9168868 Si02
#       8
#     8   8   8   8   8   8   8   8
#     4  10  23  43  60  75  98 127 157 192 243 291
#     4  12  21  33  58  79  94 122 158 201 231 276
#     4   9  15  23  40  64  81 104 162 223 244 270
#     4   9  17  31  44  56  88 136 163 193 255 287
#     4  10  21  33  43  61  98 136 164 194 230 287
#     4  10  16  30  49  75  98 123 143 182 232 284
#     4  12  21  31  51  79  96 125 166 196 226 275
#     4  10  16  30  47  70  97 124 150 189 228 278
#
# _framework density 15.961544999999999
#
# number of rings (size 3 to 8) (size 9 to 14) (size 15 to 20)
#    0.000    1.750    5.000    2.250    0.000    4.000 
#    0.000    0.000    0.000    2.250    0.000    0.000 
#    0.000    0.000    0.000    0.000    0.000   43.750 
#
# Total GULP energy -178455.838579 kJ/mol
# GULP energy per Si atom -5576.744956 kJ/mol
# Density = 1.592522 g / cm^3
# Si number density = 15.961545 Si / 1000 Ang^3
#
#
#
# Elastic Constant Matrix: (Units=GPa)
#
#
# Indices 1 2 3 4 5 6 
#
# 1 194.4557 42.7892 69.5984 0.0000 -0.1486 0.0000
# 2 42.7892 49.9247 49.6815 0.0000 -0.0522 0.0000
# 3 69.5984 49.6815 86.5684 0.0000 -0.0704 0.0000
# 4 0.0000 0.0000 0.0000 -3.8610 0.0000 0.0000
# 5 -0.1486 -0.0522 -0.0704 0.0000 10.4351 0.0000
# 6 0.0000 0.0000 0.0000 0.0000 0.0000 8.5791
#
#
#
# Elastic Compliance Matrix: (Units=1/GPa)
#
#
# Indices 1 2 3 4 5 6 
#
# 1 0.007240 -0.000963 -0.005268 0.000000 0.000063 0.000000
# 2 -0.000963 0.046829 -0.026102 0.000000 0.000045 0.000000
# 3 -0.005268 -0.026102 0.030767 0.000000 0.000002 0.000000
# 4 0.000000 0.000000 0.000000 -0.258999 0.000000 0.000000
# 5 0.000063 0.000045 0.000002 0.000000 0.095831 0.000000
# 6 0.000000 0.000000 0.000000 0.000000 0.000000 0.116562
#
#
# Mechanical properties :
#
#
# Convention : Reuss Voigt Hill
#
# Bulk Modulus (GPa) = 49.57471 72.78743 61.18107
# Shear Modulus (GPa) = 45.61252 14.28929 29.95091
#
# Velocity S-wave (km/s) = 5.35150 2.99529 4.33649
# Velocity P-wave (km/s) = 8.32532 7.59362 7.96788
#
# Compressibility (1/GPa) = 0.02017158
#
# Stress axis : x y z
#
# Youngs Moduli (GPa) = 138.12137 21.35407 32.50260
#
# Poissons Ratio (x) = 0.02055 0.17123
# Poissons Ratio (y) = 0.13294 0.84837
# Poissons Ratio (z) = 0.72767 0.55737
#
# Static dielectric constant tensor:
#      x y z
#    x 1.610390 0.000000 0.000040 
#    y 0.000000 1.510030 0.000000 
#    z 0.000040 0.000000 1.504290 
# 
# From -- ./inp_files/298297.got.cif
#   From: 2010.05.17/outbox.cif.g08.bks.cpg/sg12_150_cif.got.tgz:298297.got - 2010.06.03 13:09:07.
