data_PCOD9168266
_publ_section_title
;
Structure prediction by ZEFSAII (Michael W. Deem and Ramdas Pophale) SiO2 
 PCOD9168266
Probable space group: P 21/M
;
_chemical_formula_sum "Si O2"
_cell_formula_units_Z 32
_cell_length_a 21.000000
_cell_length_b 9.000000
_cell_length_c 12.000000
_cell_angle_alpha 90.000000
_cell_angle_beta 50.000000
_cell_angle_gamma 90.000000
_cell_volume 1737.388797
_symmetry_space_group_name_H-M "P 21/M"
_symmetry_group_IT_number 11
_symmetry_cell_setting 'monoclinic'
loop_
_space_group_symop_operation_xyz
x,y,z
-x,1/2+y,-z
-x,-y,-z
x,1/2-y,z
loop_
_atom_site_type_symbol
_atom_site_label
_atom_site_fract_x
_atom_site_fract_y
_atom_site_fract_z
Si Si1 0.620695 0.428613 0.313704
Si Si2 0.674071 0.929854 0.646651
Si Si3 0.218929 0.427858 0.276738
Si Si4 0.812567 0.426925 0.101189
Si Si5 0.541957 0.570563 0.623040
Si Si6 0.882333 0.572199 0.810433
Si Si7 0.834980 0.572554 0.312149
Si Si8 0.947182 0.574825 0.389893
O O1 0.616241 0.250000 0.333988
O O2 0.716126 0.467789 0.185768
O O3 0.590358 0.505938 0.461577
O O4 0.554417 0.469033 0.291512
O O5 0.669278 0.750000 0.660941
O O6 0.705296 0.986749 0.732372
O O7 0.589385 0.980929 0.681728
O O8 0.750361 0.960928 0.476127
O O9 0.231939 0.250000 0.252504
O O10 0.192761 0.484258 0.184820
O O11 0.133798 0.448168 0.442528
O O12 0.821097 0.250000 0.083984
O O13 0.834538 0.482797 0.199297
O O14 0.868855 0.506056 0.946980
O O15 0.547952 0.750000 0.613432
O O16 0.880505 0.750000 0.813171
O O17 0.972507 0.518415 0.668344
O O18 0.834526 0.750000 0.291301
O O19 0.912863 0.539548 0.304746
O O20 0.967756 0.750000 0.371494
#
# Coordination Sequence:
#
# PCOD9168266 Si02
#       8
#     4   4   4   4   4   4   4   4
#     4   9  18  29  43  70 102 128 154 190 233 279
#     4   8  13  25  49  76  98 119 150 194 239 280
#     4   8  16  31  51  75  97 119 154 202 242 278
#     4  11  22  34  47  65 100 137 162 193 234 281
#     4   9  15  26  49  75  97 123 155 189 232 284
#     4  11  22  34  50  70  93 126 168 201 232 282
#     4   9  17  31  51  74  96 123 157 192 236 290
#     4   9  18  34  55  75  97 119 148 200 254 289
#
# _framework density 18.418444999999998
#
# number of rings (size 3 to 8) (size 9 to 14) (size 15 to 20)
#    0.000    2.750    1.250    2.625    0.000    1.500 
#    0.000    0.625    0.000    3.750    0.000    0.000 
#    0.000    0.000    0.000    0.000    0.000    0.250 
#
# Total GULP energy -178257.640830 kJ/mol
# GULP energy per Si atom -5570.551276 kJ/mol
# Density = 1.837652 g / cm^3
# Si number density = 18.418445 Si / 1000 Ang^3
#
#
#
# Elastic Constant Matrix: (Units=GPa)
#
#
# Indices 1 2 3 4 5 6 
#
# 1 95.0215 20.0068 1.0536 0.0000 7.3267 0.0000
# 2 20.0068 13.4017 3.4044 0.0000 6.5081 0.0000
# 3 1.0536 3.4044 6.2918 0.0000 12.9060 0.0000
# 4 0.0000 0.0000 0.0000 8.7646 0.0000 -3.1248
# 5 7.3267 6.5081 12.9060 0.0000 11.1088 0.0000
# 6 0.0000 0.0000 0.0000 -3.1248 0.0000 22.2195
#
#
#
# Elastic Compliance Matrix: (Units=1/GPa)
#
#
# Indices 1 2 3 4 5 6 
#
# 1 0.015510 -0.025831 -0.000955 0.000000 0.006013 0.000000
# 2 -0.025831 0.129420 -0.039678 0.000000 -0.012687 0.000000
# 3 -0.000955 -0.039678 -0.095143 0.000000 0.134410 0.000000
# 4 0.000000 0.000000 0.000000 0.120117 0.000000 0.016893
# 5 0.006013 -0.012687 0.134410 0.000000 -0.062671 0.000000
# 6 0.000000 0.000000 0.000000 0.016893 0.000000 0.047381
#
#
# Mechanical properties :
#
#
# Convention : Reuss Voigt Hill
#
# Bulk Modulus (GPa) = -12.02776 18.18273 3.07749
# Shear Modulus (GPa) = 19.24347 14.43527 16.83937
#
# Velocity S-wave (km/s) = 3.23583 2.80257 3.02696
# Velocity P-wave (km/s) = 2.72330 4.51287 3.72709
#
# Compressibility (1/GPa) = -0.08314101
#
# Stress axis : x y z
#
# Youngs Moduli (GPa) = 64.47599 7.72679 -10.51050
#
# Poissons Ratio (x) = 0.19959 -0.01003
# Poissons Ratio (y) = 1.66549 -0.41703
# Poissons Ratio (z) = 0.06155 0.30658
#
# Static dielectric constant tensor:
#      x y z
#    x 1.691010 0.000000 0.009530 
#    y 0.000000 1.608550 0.000000 
#    z 0.009530 0.000000 1.623590 
# 
# From -- ./inp_files/40703.got.cif
#   From: 2010.05.17/outbox.ucp.g08.bks.cvg/sg11_21_cif.got.tgz:40703.got - 2010.06.11 11:38:39.
