data_PCOD9168458
_publ_section_title
;
Structure prediction by ZEFSAII (Michael W. Deem and Ramdas Pophale) SiO2 
 PCOD9168458
Probable space group: C 2/M
;
_chemical_formula_sum "Si O2"
_cell_formula_units_Z 44
_cell_length_a 10.552663
_cell_length_b 23.236713
_cell_length_c 7.083269
_cell_angle_alpha 90.000000
_cell_angle_beta 109.310062
_cell_angle_gamma 90.000000
_cell_volume 1639.170739
_symmetry_space_group_name_H-M "C 2/M"
_symmetry_group_IT_number 12
_symmetry_cell_setting 'monoclinic'
loop_
_space_group_symop_operation_xyz
x,y,z
-x,y,-z
-x,-y,-z
x,-y,z
1/2+x,1/2+y,z
1/2-x,1/2+y,-z
1/2-x,1/2-y,-z
1/2+x,1/2-y,z
loop_
_atom_site_type_symbol
_atom_site_label
_atom_site_fract_x
_atom_site_fract_y
_atom_site_fract_z
Si Si1 0.884892 0.500000 0.049902
Si Si2 0.500000 0.594360 0.000000
Si Si3 0.000000 0.180324 0.500000
Si Si4 0.787960 0.500000 0.635468
Si Si5 0.717029 0.871068 0.375489
Si Si6 0.956353 0.000000 0.296736
Si Si7 0.710654 0.878831 0.918899
Si Si8 0.005700 0.717617 0.777081
O O1 0.939049 0.500000 0.844721
O O2 0.726145 0.500000 0.832322
O O3 0.850462 0.441820 0.145595
O O4 0.514563 0.554868 0.821312
O O5 0.638533 0.627697 0.074602
O O6 0.128947 0.143250 0.516791
O O7 0.030338 0.222532 0.688395
O O8 0.811527 0.435375 0.563286
O O9 0.605967 0.500000 0.509889
O O10 0.700100 0.876333 0.140592
O O11 0.624358 0.815897 0.369345
O O12 0.623546 0.827569 0.797223
O O13 0.000000 0.725104 0.000000
#
# Coordination Sequence:
#
# PCOD9168458 Si02
#       8
#     4   4   4   4   8   4   8   8
#     4  10  15  30  64  98 132 178 221 277 349 420
#     4  11  20  42  62 100 148 180 234 291 342 424
#     4  12  26  47  70 105 138 184 246 290 358 420
#     4  10  19  38  64 105 134 169 228 269 350 430
#     4  10  22  43  71 107 138 181 236 290 359 426
#     4  11  22  37  61  99 147 187 225 278 348 429
#     4  10  20  39  67 102 136 184 237 284 358 421
#     4  10  24  48  72  99 139 185 240 295 348 424
#
# _framework density 26.842841
#
# number of rings (size 3 to 8) (size 9 to 14) (size 15 to 20)
#    0.000    1.636    3.636    3.818    1.273    2.909 
#   11.455    0.000    0.000    1.091    0.000    0.000 
#    0.000    0.000    0.000    0.000    0.000    0.000 
#
# Total GULP energy -123202.540513 kJ/mol
# GULP energy per Si atom -5600.115478 kJ/mol
# Density = 2.678175 g / cm^3
# Si number density = 26.842841 Si / 1000 Ang^3
#
#
#
# Elastic Constant Matrix: (Units=GPa)
#
#
# Indices 1 2 3 4 5 6 
#
# 1 122.9817 25.0782 46.4677 0.0000 27.8393 0.0000
# 2 25.0782 145.4943 49.8663 0.0000 12.9878 0.0000
# 3 46.4677 49.8663 143.5478 0.0000 -9.1632 0.0000
# 4 0.0000 0.0000 0.0000 25.1474 0.0000 13.1049
# 5 27.8393 12.9878 -9.1632 0.0000 56.2622 0.0000
# 6 0.0000 0.0000 0.0000 13.1049 0.0000 2.9743
#
#
#
# Elastic Compliance Matrix: (Units=1/GPa)
#
#
# Indices 1 2 3 4 5 6 
#
# 1 0.011002 0.000001 -0.003950 0.000000 -0.006087 0.000000
# 2 0.000001 0.008099 -0.002964 0.000000 -0.002353 0.000000
# 3 -0.003950 -0.002964 0.009542 0.000000 0.004193 0.000000
# 4 0.000000 0.000000 0.000000 -0.030680 0.000000 0.135181
# 5 -0.006087 -0.002353 0.004193 0.000000 0.022012 0.000000
# 6 0.000000 0.000000 0.000000 0.135181 0.000000 -0.259403
#
#
# Mechanical properties :
#
#
# Convention : Reuss Voigt Hill
#
# Bulk Modulus (GPa) = 67.49259 72.76094 70.12676
# Shear Modulus (GPa) = -22.65897 36.25086 6.79595
#
# Velocity S-wave (km/s) = -2.90855 3.67888 1.59287
# Velocity P-wave (km/s) = 3.73077 6.72389 5.43734
#
# Compressibility (1/GPa) = 0.01481644
#
# Stress axis : x y z
#
# Youngs Moduli (GPa) = 90.89528 123.47481 104.79622
#
# Poissons Ratio (x) = -0.00012 0.41397
# Poissons Ratio (y) = -0.00009 0.31061
# Poissons Ratio (z) = 0.35906 0.36597
#
# Static dielectric constant tensor:
#      x y z
#    x 2.298580 0.000000 0.263080 
#    y 0.000000 1.987840 0.000000 
#    z 0.263080 0.000000 2.409150 
# 
# From -- ./inp_files/51626.got.cif
#   From: 2010.05.17/outbox.cif.g08.bks.cpg/sg12_26_cif.got.tgz:51626.got - 2010.06.03 13:09:07.
