data_PCOD9168631
_publ_section_title
;
Structure prediction by ZEFSAII (Michael W. Deem and Ramdas Pophale) SiO2 
 PCOD9168631
Probable space group: C 2/M
;
_chemical_formula_sum "Si O2"
_cell_formula_units_Z 52
_cell_length_a 13.327872
_cell_length_b 12.802466
_cell_length_c 13.285095
_cell_angle_alpha 90.000000
_cell_angle_beta 71.016966
_cell_angle_gamma 90.000000
_cell_volume 2143.549087
_symmetry_space_group_name_H-M "C 2/M"
_symmetry_group_IT_number 12
_symmetry_cell_setting 'monoclinic'
loop_
_space_group_symop_operation_xyz
x,y,z
-x,y,-z
-x,-y,-z
x,-y,z
1/2+x,1/2+y,z
1/2-x,1/2+y,-z
1/2-x,1/2-y,-z
1/2+x,1/2-y,z
loop_
_atom_site_type_symbol
_atom_site_label
_atom_site_fract_x
_atom_site_fract_y
_atom_site_fract_z
Si Si1 0.943108 0.732197 0.302400
Si Si2 0.452296 0.000000 0.279300
Si Si3 0.118950 0.500000 0.060490
Si Si4 0.121759 0.879105 0.500481
Si Si5 0.250411 0.336217 0.915167
Si Si6 0.184153 0.500000 0.265131
Si Si7 0.010525 0.114275 0.115761
Si Si8 0.814220 0.269645 0.696279
O O1 0.901032 0.613225 0.311673
O O2 0.958123 0.790778 0.191992
O O3 0.064107 0.723409 0.303914
O O4 0.884455 0.812107 0.395555
O O5 0.555618 0.000000 0.318677
O O6 0.505279 0.000000 0.150256
O O7 0.193952 0.500000 0.138463
O O8 0.150961 0.404829 0.980004
O O9 0.180967 0.804372 0.401746
O O10 0.000000 0.886206 0.500000
O O11 0.159787 0.000000 0.496690
O O12 0.365817 0.389082 0.891900
O O13 0.250778 0.288264 0.804997
O O14 0.250000 0.250000 0.000000
O O15 0.221773 0.390375 0.297819
O O16 0.963449 0.000000 0.157375
O O17 0.000000 0.127766 0.000000
#
# Coordination Sequence:
#
# PCOD9168631 Si02
#       8
#     8   4   4   8   8   4   8   8
#     4   9  16  30  46  61  94 133 158 204 244 299
#     4   8  16  29  45  69  93 120 172 201 242 302
#     4  10  16  26  41  66  93 126 156 201 244 291
#     4   9  17  26  39  63  92 125 166 196 248 303
#     4  11  18  29  48  70  98 136 166 205 256 293
#     4   8  14  27  36  58  95 118 155 196 239 292
#     4  10  20  32  48  74 103 132 167 205 253 307
#     4   9  17  25  40  64  93 125 159 205 246 294
#
# _framework density 24.258834
#
# number of rings (size 3 to 8) (size 9 to 14) (size 15 to 20)
#    0.462    2.154    2.308    1.385    1.077    2.462 
#    0.000    3.462    0.000    0.000    0.000    1.077 
#    0.000    0.000    0.000    0.000    0.000    0.000 
#
# Total GULP energy -145229.012778 kJ/mol
# GULP energy per Si atom -5585.731261 kJ/mol
# Density = 2.420362 g / cm^3
# Si number density = 24.258834 Si / 1000 Ang^3
#
#
#
# Elastic Constant Matrix: (Units=GPa)
#
#
# Indices 1 2 3 4 5 6 
#
# 1 90.8073 24.0748 12.4929 0.0000 10.3848 0.0000
# 2 24.0748 258.0804 109.3779 0.0000 0.3525 0.0000
# 3 12.4929 109.3779 127.8394 0.0000 -15.4928 0.0000
# 4 0.0000 0.0000 0.0000 10.5745 0.0000 -16.7486
# 5 10.3848 0.3525 -15.4928 0.0000 8.9326 0.0000
# 6 0.0000 0.0000 0.0000 -16.7486 0.0000 10.7595
#
#
#
# Elastic Compliance Matrix: (Units=1/GPa)
#
#
# Indices 1 2 3 4 5 6 
#
# 1 0.014523 0.001005 -0.005482 0.000000 -0.026432 0.000000
# 2 0.001005 0.007303 -0.008259 0.000000 -0.015780 0.000000
# 3 -0.005482 -0.008259 0.020557 0.000000 0.042353 0.000000
# 4 0.000000 0.000000 0.000000 -0.064529 0.000000 -0.100448
# 5 -0.026432 -0.015780 0.042353 0.000000 0.216759 0.000000
# 6 0.000000 0.000000 0.000000 -0.100448 0.000000 -0.063419
#
#
# Mechanical properties :
#
#
# Convention : Reuss Voigt Hill
#
# Bulk Modulus (GPa) = 59.13548 85.40203 72.26876
# Shear Modulus (GPa) = 30.80668 28.10543 29.45605
#
# Velocity S-wave (km/s) = 3.56745 3.40746 3.48838
# Velocity P-wave (km/s) = 6.43419 7.12475 6.78825
#
# Compressibility (1/GPa) = 0.01691032
#
# Stress axis : x y z
#
# Youngs Moduli (GPa) = 68.85650 136.93484 48.64554
#
# Poissons Ratio (x) = -0.13758 0.26668
# Poissons Ratio (y) = -0.06918 0.40175
# Poissons Ratio (z) = 0.37748 1.13091
#
# Static dielectric constant tensor:
#      x y z
#    x 1.980660 0.000000 0.004280 
#    y 0.000000 2.113010 0.000000 
#    z 0.004280 0.000000 1.862110 
# 
# From -- ./inp_files/164812.got.cif
#   From: 2010.05.17/outbox.cif.g08.bks.cpg/sg12_83_cif.got.tgz:164812.got - 2010.06.03 13:09:07.
