data_PCOD9168712
_publ_section_title
;
Structure prediction by ZEFSAII (Michael W. Deem and Ramdas Pophale) SiO2 
 PCOD9168712
Probable space group: C 2/M
;
_chemical_formula_sum "Si O2"
_cell_formula_units_Z 48
_cell_length_a 21.178694
_cell_length_b 13.758167
_cell_length_c 7.040661
_cell_angle_alpha 90.000000
_cell_angle_beta 65.451951
_cell_angle_gamma 90.000000
_cell_volume 1866.078600
_symmetry_space_group_name_H-M "C 2/M"
_symmetry_group_IT_number 12
_symmetry_cell_setting 'monoclinic'
loop_
_space_group_symop_operation_xyz
x,y,z
-x,y,-z
-x,-y,-z
x,-y,z
1/2+x,1/2+y,z
1/2-x,1/2+y,-z
1/2-x,1/2-y,-z
1/2+x,1/2-y,z
loop_
_atom_site_type_symbol
_atom_site_label
_atom_site_fract_x
_atom_site_fract_y
_atom_site_fract_z
Si Si1 0.848930 0.224298 0.039818
Si Si2 0.612880 0.685736 0.590434
Si Si3 0.760657 0.385272 0.324673
Si Si4 0.474129 0.608508 0.811294
Si Si5 0.721628 0.110109 0.242679
Si Si6 0.073343 0.609572 0.512196
O O1 0.864963 0.169127 0.220009
O O2 0.822322 0.330108 0.138231
O O3 0.778561 0.171801 0.065077
O O4 0.917979 0.193625 0.840579
O O5 0.684749 0.664223 0.392004
O O6 0.547733 0.620500 0.612519
O O7 0.581287 0.794720 0.628174
O O8 0.757578 0.500000 0.289328
O O9 0.776855 0.372297 0.530571
O O10 0.445009 0.500000 0.822135
O O11 0.500000 0.616848 0.000000
O O12 0.640788 0.121577 0.292736
O O13 0.741469 0.000000 0.187434
O O14 0.080824 0.500000 0.588961
O O15 0.000000 0.611440 0.500000
#
# Coordination Sequence:
#
# PCOD9168712 Si02
#       6
#     8   8   8   8   8   8
#     4  10  16  27  45  73  97 123 151 190 239 284
#     4  10  17  31  46  69 100 126 154 193 237 281
#     4  10  17  26  46  71  96 125 152 190 241 283
#     4   9  18  29  45  70 100 129 155 185 231 291
#     4   9  15  26  44  68  94 117 155 199 232 274
#     4  10  19  30  47  70  94 124 162 200 234 268
#
# _framework density 25.722387999999999
#
# number of rings (size 3 to 8) (size 9 to 14) (size 15 to 20)
#    0.000    2.333    3.333    2.000    0.000    4.000 
#    0.000    0.833    0.000    6.000    0.000    0.000 
#    0.000    0.000    0.000    0.000    0.000    0.000 
#
# Total GULP energy -134042.913397 kJ/mol
# GULP energy per Si atom -5585.121392 kJ/mol
# Density = 2.566384 g / cm^3
# Si number density = 25.722388 Si / 1000 Ang^3
#
#
#
# Elastic Constant Matrix: (Units=GPa)
#
#
# Indices 1 2 3 4 5 6 
#
# 1 117.9451 66.2017 52.6380 0.0000 -32.0840 0.0000
# 2 66.2017 152.8675 34.9278 0.0000 -42.6344 0.0000
# 3 52.6380 34.9278 119.3794 0.0000 -22.0545 0.0000
# 4 0.0000 0.0000 0.0000 25.1014 0.0000 -20.7945
# 5 -32.0840 -42.6344 -22.0545 0.0000 50.9738 0.0000
# 6 0.0000 0.0000 0.0000 -20.7945 0.0000 35.2968
#
#
#
# Elastic Compliance Matrix: (Units=1/GPa)
#
#
# Indices 1 2 3 4 5 6 
#
# 1 0.013465 -0.003938 -0.004160 0.000000 0.003382 0.000000
# 2 -0.003938 0.009867 -0.000091 0.000000 0.005735 0.000000
# 3 -0.004160 -0.000091 0.010586 0.000000 0.001885 0.000000
# 4 0.000000 0.000000 0.000000 0.077817 0.000000 0.045845
# 5 0.003382 0.005735 0.001885 0.000000 0.027359 0.000000
# 6 0.000000 0.000000 0.000000 0.045845 0.000000 0.055340
#
#
# Mechanical properties :
#
#
# Convention : Reuss Voigt Hill
#
# Bulk Modulus (GPa) = 57.01209 77.52524 67.26867
# Shear Modulus (GPa) = 23.07765 38.03604 30.55684
#
# Velocity S-wave (km/s) = 2.99855 3.84958 3.45040
# Velocity P-wave (km/s) = 5.84815 7.06849 6.48708
#
# Compressibility (1/GPa) = 0.01754014
#
# Stress axis : x y z
#
# Youngs Moduli (GPa) = 74.26429 101.34608 94.46347
#
# Poissons Ratio (x) = 0.39906 0.39301
# Poissons Ratio (y) = 0.29242 0.00862
# Poissons Ratio (z) = 0.30897 0.00924
#
# Static dielectric constant tensor:
#      x y z
#    x 2.104630 0.000000 0.028830 
#    y 0.000000 2.009530 0.000000 
#    z 0.028830 0.000000 2.075120 
# 
# From -- ./inp_files/166321.got.cif
#   From: 2010.05.17/outbox.cif.g08.bks.cpg/sg12_84_cif.got.tgz:166321.got - 2010.06.03 13:09:07.
