data_PCOD9168382
_publ_section_title
;
Structure prediction by ZEFSAII (Michael W. Deem and Ramdas Pophale) SiO2 
 PCOD9168382
Probable space group: C 2/M
;
_chemical_formula_sum "Si O2"
_cell_formula_units_Z 44
_cell_length_a 13.303605
_cell_length_b 14.082088
_cell_length_c 12.012662
_cell_angle_alpha 90.000000
_cell_angle_beta 50.719222
_cell_angle_gamma 90.000000
_cell_volume 1741.992011
_symmetry_space_group_name_H-M "C 2/M"
_symmetry_group_IT_number 12
_symmetry_cell_setting 'monoclinic'
loop_
_space_group_symop_operation_xyz
x,y,z
-x,y,-z
-x,-y,-z
x,-y,z
1/2+x,1/2+y,z
1/2-x,1/2+y,-z
1/2-x,1/2-y,-z
1/2+x,1/2-y,z
loop_
_atom_site_type_symbol
_atom_site_label
_atom_site_fract_x
_atom_site_fract_y
_atom_site_fract_z
Si Si1 0.000000 0.645846 0.000000
Si Si2 0.943170 0.896119 0.692475
Si Si3 0.834339 0.392646 0.524591
Si Si4 0.222270 0.602488 0.021032
Si Si5 0.095595 0.692523 0.305383
Si Si6 0.796943 0.389870 0.306585
O O1 0.902897 0.676408 0.169830
O O2 0.115013 0.604094 0.997827
O O3 0.988956 0.788501 0.645451
O O4 0.834360 0.895793 0.671467
O O5 0.010119 0.000000 0.640512
O O6 0.861492 0.893077 0.864618
O O7 0.796737 0.500000 0.581957
O O8 0.824837 0.323563 0.636826
O O9 0.768690 0.366437 0.454168
O O10 0.986867 0.388662 0.384453
O O11 0.213464 0.500000 0.084381
O O12 0.189572 0.681050 0.134920
O O13 0.850260 0.500000 0.267487
#
# Coordination Sequence:
#
# PCOD9168382 Si02
#       6
#     4   8   8   8   8   8
#     4  10  15  24  46  72  97 122 147 188 238 280
#     4   9  20  33  47  69  97 128 162 197 229 270
#     4  10  20  32  49  74  99 123 151 195 245 287
#     4  10  17  28  48  73  99 123 152 195 242 283
#     4  11  19  30  47  72 101 126 154 190 242 289
#     4   9  16  29  47  68  95 125 155 190 234 277
#
# _framework density 25.25844
#
# number of rings (size 3 to 8) (size 9 to 14) (size 15 to 20)
#    0.000    2.182    1.818    5.455    0.000    0.727 
#    0.000    1.818    0.000    0.000    0.000    4.455 
#    0.000    0.000    0.000    0.000    0.000    0.000 
#
# Total GULP energy -122593.651299 kJ/mol
# GULP energy per Si atom -5572.438695 kJ/mol
# Density = 2.520095 g / cm^3
# Si number density = 25.258440 Si / 1000 Ang^3
#
#
#
# Elastic Constant Matrix: (Units=GPa)
#
#
# Indices 1 2 3 4 5 6 
#
# 1 40.7805 7.5761 20.8371 0.0000 10.9683 0.0000
# 2 7.5761 129.7586 48.5174 0.0000 2.7963 0.0000
# 3 20.8371 48.5174 140.1368 0.0000 30.4913 0.0000
# 4 0.0000 0.0000 0.0000 30.9600 0.0000 -1.5923
# 5 10.9683 2.7963 30.4913 0.0000 31.3768 0.0000
# 6 0.0000 0.0000 0.0000 -1.5923 0.0000 16.5317
#
#
#
# Elastic Compliance Matrix: (Units=1/GPa)
#
#
# Indices 1 2 3 4 5 6 
#
# 1 0.027811 -0.000599 -0.002313 0.000000 -0.007420 0.000000
# 2 -0.000599 0.009060 -0.003700 0.000000 0.002997 0.000000
# 3 -0.002313 -0.003700 0.010796 0.000000 -0.009353 0.000000
# 4 0.000000 0.000000 0.000000 0.032460 0.000000 0.003126
# 5 -0.007420 0.002997 -0.009353 0.000000 0.043286 0.000000
# 6 0.000000 0.000000 0.000000 0.003126 0.000000 0.060791
#
#
# Mechanical properties :
#
#
# Convention : Reuss Voigt Hill
#
# Bulk Modulus (GPa) = 29.03402 51.61524 40.32463
# Shear Modulus (GPa) = 23.93379 31.35673 27.64526
#
# Velocity S-wave (km/s) = 3.08158 3.52722 3.31191
# Velocity P-wave (km/s) = 4.91744 6.08832 5.53393
#
# Compressibility (1/GPa) = 0.03444236
#
# Stress axis : x y z
#
# Youngs Moduli (GPa) = 35.95762 110.36983 92.62819
#
# Poissons Ratio (x) = 0.06610 0.21428
# Poissons Ratio (y) = 0.02153 0.34273
# Poissons Ratio (z) = 0.08318 0.40837
#
# Static dielectric constant tensor:
#      x y z
#    x 2.014680 0.000000 0.013390 
#    y 0.000000 2.068270 0.000000 
#    z 0.013390 0.000000 2.003720 
# 
# From -- ./inp_files/155199.got.cif
#   From: 2010.05.17/outbox.cif.g08.bks.cpg/sg12_78_cif.got.tgz:155199.got - 2010.06.03 13:09:07.
