data_PCOD9168475
_publ_section_title
;
Structure prediction by ZEFSAII (Michael W. Deem and Ramdas Pophale) SiO2 
 PCOD9168475
Probable space group: C 2/M
;
_chemical_formula_sum "Si O2"
_cell_formula_units_Z 44
_cell_length_a 14.445990
_cell_length_b 18.418587
_cell_length_c 21.969513
_cell_angle_alpha 90.000000
_cell_angle_beta 158.886837
_cell_angle_gamma 90.000000
_cell_volume 2105.625742
_symmetry_space_group_name_H-M "C 2/M"
_symmetry_group_IT_number 12
_symmetry_cell_setting 'monoclinic'
loop_
_space_group_symop_operation_xyz
x,y,z
-x,y,-z
-x,-y,-z
x,-y,z
1/2+x,1/2+y,z
1/2-x,1/2+y,-z
1/2-x,1/2-y,-z
1/2+x,1/2-y,z
loop_
_atom_site_type_symbol
_atom_site_label
_atom_site_fract_x
_atom_site_fract_y
_atom_site_fract_z
Si Si1 0.017737 0.578888 0.255359
Si Si2 0.693258 0.682910 0.804939
Si Si3 0.255591 0.417676 0.532707
Si Si4 0.493136 0.765514 0.191876
Si Si5 0.343799 0.201932 0.312064
Si Si6 0.500000 0.624251 0.000000
O O1 0.055354 0.500000 0.249076
O O2 0.198768 0.584767 0.425557
O O3 0.048452 0.648955 0.231827
O O4 0.731666 0.582210 0.109665
O O5 0.545199 0.607577 0.722065
O O6 0.584795 0.736884 0.789928
O O7 0.600627 0.720539 0.685373
O O8 0.000000 0.676622 0.000000
O O9 0.202153 0.500000 0.520562
O O10 0.068094 0.357263 0.447064
O O11 0.722073 0.720100 0.302148
O O12 0.250000 0.750000 0.000000
O O13 0.129195 0.170349 0.133455
#
# Coordination Sequence:
#
# PCOD9168475 Si02
#       6
#     8   8   8   8   8   4
#     4  10  20  36  61  94 130 167 215 271 324 377
#     4  12  22  42  67  93 128 172 223 267 326 390
#     4  10  24  44  66  96 131 172 220 272 331 382
#     4  12  21  38  64 100 131 170 220 263 319 395
#     4  11  20  39  64  96 128 166 218 267 313 384
#     4  10  15  34  62  90 127 162 208 262 323 366
#
# _framework density 20.8964
#
# number of rings (size 3 to 8) (size 9 to 14) (size 15 to 20)
#    0.000    1.091    8.182    0.818    0.000    1.818 
#    0.000    3.636    0.000    2.182    0.000    0.000 
#    0.000    0.000    0.000    0.000    0.000    0.000 
#
# Total GULP energy -122879.558545 kJ/mol
# GULP energy per Si atom -5585.434479 kJ/mol
# Density = 2.084884 g / cm^3
# Si number density = 20.896400 Si / 1000 Ang^3
#
#
#
# Elastic Constant Matrix: (Units=GPa)
#
#
# Indices 1 2 3 4 5 6 
#
# 1 75.9399 35.4147 21.0298 0.0170 15.2696 0.0010
# 2 35.4147 147.8060 66.6498 0.0458 9.9592 0.0021
# 3 21.0298 66.6498 95.8566 0.0825 18.3261 0.0052
# 4 0.0170 0.0458 0.0825 8.6399 0.0185 -3.2875
# 5 15.2696 9.9592 18.3261 0.0185 16.7192 -0.0007
# 6 0.0010 0.0021 0.0052 -3.2875 -0.0007 28.1757
#
#
#
# Elastic Compliance Matrix: (Units=1/GPa)
#
#
# Indices 1 2 3 4 5 6 
#
# 1 0.017720 -0.004069 0.001989 0.000002 -0.015940 -0.000001
# 2 -0.004069 0.010847 -0.007748 0.000013 0.005747 0.000002
# 3 0.001989 -0.007748 0.018785 -0.000110 -0.017791 -0.000016
# 4 0.000002 0.000013 -0.000110 0.121120 -0.000022 0.014132
# 5 -0.015940 0.005747 -0.017791 -0.000022 0.090447 0.000003
# 6 -0.000001 0.000002 -0.000016 0.014132 0.000003 0.037141
#
#
# Mechanical properties :
#
#
# Convention : Reuss Voigt Hill
#
# Bulk Modulus (GPa) = 36.10652 62.86568 49.48610
# Shear Modulus (GPa) = 15.38712 23.80751 19.59732
#
# Velocity S-wave (km/s) = 2.71653 3.37903 3.06573
# Velocity P-wave (km/s) = 5.21111 6.73599 6.02201
#
# Compressibility (1/GPa) = 0.02769583
#
# Stress axis : x y z
#
# Youngs Moduli (GPa) = 56.43324 92.19040 53.23450
#
# Poissons Ratio (x) = 0.37508 -0.10587
# Poissons Ratio (y) = 0.22960 0.41248
# Poissons Ratio (z) = -0.11223 0.71432
#
# Static dielectric constant tensor:
#      x y z
#    x 1.747830 0.000000 0.030770 
#    y 0.000000 1.773200 -0.000010 
#    z 0.030770 -0.000010 1.787970 
# 
# From -- ./inp_files/340909.got.cif
#   From: 2010.05.17/outbox.cif.g08.bks.cpg/sg12_171_cif.got.tgz:340909.got - 2010.06.03 13:09:07.
