data_PCOD9168375
_publ_section_title
;
Structure prediction by ZEFSAII (Michael W. Deem and Ramdas Pophale) SiO2 
 PCOD9168375
Probable space group: C 2/M
;
_chemical_formula_sum "Si O2"
_cell_formula_units_Z 52
_cell_length_a 11.470812
_cell_length_b 27.939085
_cell_length_c 8.192074
_cell_angle_alpha 90.000000
_cell_angle_beta 64.046222
_cell_angle_gamma 90.000000
_cell_volume 2360.647274
_symmetry_space_group_name_H-M "C 2/M"
_symmetry_group_IT_number 12
_symmetry_cell_setting 'monoclinic'
loop_
_space_group_symop_operation_xyz
x,y,z
-x,y,-z
-x,-y,-z
x,-y,z
1/2+x,1/2+y,z
1/2-x,1/2+y,-z
1/2-x,1/2-y,-z
1/2+x,1/2-y,z
loop_
_atom_site_type_symbol
_atom_site_label
_atom_site_fract_x
_atom_site_fract_y
_atom_site_fract_z
Si Si1 0.868068 0.230724 0.313149
Si Si2 0.424825 0.555411 0.884934
Si Si3 0.244754 0.894390 0.248547
Si Si4 0.698814 0.851248 0.309838
Si Si5 0.198227 0.946182 0.593118
Si Si6 0.956975 0.666945 0.252923
Si Si7 0.500000 0.670221 0.500000
O O1 0.750000 0.250000 0.500000
O O2 0.807935 0.190162 0.232635
O O3 0.935864 0.278648 0.209361
O O4 0.969330 0.203241 0.365123
O O5 0.388613 0.500000 0.932576
O O6 0.306219 0.585491 0.890575
O O7 0.541842 0.557066 0.682272
O O8 0.500000 0.572456 0.000000
O O9 0.251413 0.936132 0.380260
O O10 0.378839 0.866506 0.176872
O O11 0.129503 0.859905 0.385552
O O12 0.751470 0.904386 0.317681
O O13 0.620746 0.839280 0.526043
O O14 0.601340 0.846552 0.218677
O O15 0.230360 0.000000 0.628457
#
# Coordination Sequence:
#
# PCOD9168375 Si02
#       7
#     8   8   8   8   8   8   4
#     4  10  15  24  39  64 102 132 152 199 245 281
#     4  10  20  33  50  72  97 126 163 205 246 289
#     4  11  18  30  46  74 100 124 160 203 243 291
#     4   9  16  29  40  66 101 132 159 195 238 293
#     4  10  18  31  50  71  97 131 159 197 246 291
#     4   9  18  26  42  67 106 129 160 198 244 286
#     4  12  16  24  43  70 100 122 161 194 246 282
#
# _framework density 22.027857000000001
#
# number of rings (size 3 to 8) (size 9 to 14) (size 15 to 20)
#    0.000    2.000    6.154    2.308    0.000    1.231 
#    0.000    6.923    0.000    0.923    0.000    7.538 
#    0.000    0.000    0.000    0.000    0.000    0.000 
#
# Total GULP energy -145163.998070 kJ/mol
# GULP energy per Si atom -5583.230695 kJ/mol
# Density = 2.197772 g / cm^3
# Si number density = 22.027857 Si / 1000 Ang^3
#
#
#
# Elastic Constant Matrix: (Units=GPa)
#
#
# Indices 1 2 3 4 5 6 
#
# 1 171.8197 97.2136 33.5826 0.0000 44.1393 0.0000
# 2 97.2136 169.0937 26.9788 0.0000 23.5783 0.0000
# 3 33.5826 26.9788 61.5847 0.0000 19.0781 0.0000
# 4 0.0000 0.0000 0.0000 -1.8469 0.0000 7.8645
# 5 44.1393 23.5783 19.0781 0.0000 37.6235 0.0000
# 6 0.0000 0.0000 0.0000 7.8645 0.0000 25.4707
#
#
#
# Elastic Compliance Matrix: (Units=1/GPa)
#
#
# Indices 1 2 3 4 5 6 
#
# 1 0.011325 -0.005007 -0.000994 0.000000 -0.009644 0.000000
# 2 -0.005007 0.008882 -0.001490 0.000000 0.001064 0.000000
# 3 -0.000994 -0.001490 0.019910 0.000000 -0.007995 0.000000
# 4 0.000000 0.000000 0.000000 -0.233905 0.000000 0.072222
# 5 -0.009644 0.001064 -0.007995 0.000000 0.041281 0.000000
# 6 0.000000 0.000000 0.000000 0.072222 0.000000 0.016961
#
#
# Mechanical properties :
#
#
# Convention : Reuss Voigt Hill
#
# Bulk Modulus (GPa) = 39.78824 79.78311 59.78567
# Shear Modulus (GPa) = -44.56940 28.56433 -8.00254
#
# Velocity S-wave (km/s) = -4.50301 3.60493 -1.90809
# Velocity P-wave (km/s) = 2.98902 7.32292 4.72710
#
# Compressibility (1/GPa) = 0.02513306
#
# Stress axis : x y z
#
# Youngs Moduli (GPa) = 88.29968 112.58584 50.22689
#
# Poissons Ratio (x) = 0.56377 0.04995
# Poissons Ratio (y) = 0.44216 0.07484
# Poissons Ratio (z) = 0.08780 0.16775
#
# Static dielectric constant tensor:
#      x y z
#    x 1.787720 0.000000 -0.006290 
#    y 0.000000 1.838230 0.000000 
#    z -0.006290 0.000000 1.867290 
# 
# From -- ./inp_files/52563.got.cif
#   From: 2010.05.17/outbox.cif.g08.bks.cpg/sg12_27_cif.got.tgz:52563.got - 2010.06.03 13:09:07.
