data_PCOD9168320
_publ_section_title
;
Structure prediction by ZEFSAII (Michael W. Deem and Ramdas Pophale) SiO2 
 PCOD9168320
Probable space group: C 2/M
;
_chemical_formula_sum "Si O2"
_cell_formula_units_Z 48
_cell_length_a 10.047519
_cell_length_b 24.418358
_cell_length_c 6.778473
_cell_angle_alpha 90.000000
_cell_angle_beta 80.819429
_cell_angle_gamma 90.000000
_cell_volume 1641.754054
_symmetry_space_group_name_H-M "C 2/M"
_symmetry_group_IT_number 12
_symmetry_cell_setting 'monoclinic'
loop_
_space_group_symop_operation_xyz
x,y,z
-x,y,-z
-x,-y,-z
x,-y,z
1/2+x,1/2+y,z
1/2-x,1/2+y,-z
1/2-x,1/2-y,-z
1/2+x,1/2-y,z
loop_
_atom_site_type_symbol
_atom_site_label
_atom_site_fract_x
_atom_site_fract_y
_atom_site_fract_z
Si Si1 0.259331 0.060954 0.754365
Si Si2 0.257999 0.182515 0.840587
Si Si3 0.234170 0.850211 0.306183
Si Si4 0.400250 0.439740 0.835808
Si Si5 0.948535 0.437731 0.220596
Si Si6 0.445164 0.237327 0.315129
O O1 0.224138 0.125276 0.732726
O O2 0.416924 0.060803 0.685498
O O3 0.209912 0.000000 0.692412
O O4 0.233586 0.057882 0.997480
O O5 0.415619 0.204834 0.779906
O O6 0.132160 0.221463 0.810694
O O7 0.245275 0.172869 0.078601
O O8 0.099974 0.887912 0.307890
O O9 0.332377 0.900762 0.327227
O O10 0.317920 0.802599 0.399814
O O11 0.418743 0.500000 0.741759
O O12 0.500000 0.433492 0.000000
O O13 0.907431 0.500000 0.209187
O O14 0.000000 0.413494 0.000000
O O15 0.500000 0.267201 0.500000
#
# Coordination Sequence:
#
# PCOD9168320 Si02
#       6
#     8   8   8   8   8   8
#     4   9  17  31  58  88 112 143 192 249 299 348
#     4  11  23  42  65  89 118 156 207 251 295 362
#     4  11  20  36  61  87 115 151 206 250 292 348
#     4   9  17  28  48  87 130 157 186 243 311 361
#     4  10  14  24  52  86 112 135 181 243 295 333
#     4  12  26  42  59  85 124 166 202 248 304 361
#
# _framework density 29.237023000000001
#
# number of rings (size 3 to 8) (size 9 to 14) (size 15 to 20)
#    0.000    1.667    5.000    2.000    0.000    2.667 
#    0.000    0.000    0.000    5.000    0.000    0.000 
#    0.000    0.000    0.000    0.000    0.000    0.000 
#
# Total GULP energy -133723.690448 kJ/mol
# GULP energy per Si atom -5571.820435 kJ/mol
# Density = 2.917048 g / cm^3
# Si number density = 29.237023 Si / 1000 Ang^3
#
#
#
# Elastic Constant Matrix: (Units=GPa)
#
#
# Indices 1 2 3 4 5 6 
#
# 1 149.8278 55.9363 49.4002 0.0000 29.9449 0.0000
# 2 55.9363 203.7853 37.2485 0.0000 30.8482 0.0000
# 3 49.4002 37.2485 103.2445 0.0000 12.8983 0.0000
# 4 0.0000 0.0000 0.0000 28.3338 0.0000 16.2580
# 5 29.9449 30.8482 12.8983 0.0000 51.6538 0.0000
# 6 0.0000 0.0000 0.0000 16.2580 0.0000 23.8719
#
#
#
# Elastic Compliance Matrix: (Units=1/GPa)
#
#
# Indices 1 2 3 4 5 6 
#
# 1 0.008996 -0.001307 -0.003384 0.000000 -0.003589 0.000000
# 2 -0.001307 0.005851 -0.001180 0.000000 -0.002442 0.000000
# 3 -0.003384 -0.001180 0.011765 0.000000 -0.000271 0.000000
# 4 0.000000 0.000000 0.000000 0.057933 0.000000 -0.039455
# 5 -0.003589 -0.002442 -0.000271 0.000000 0.022966 0.000000
# 6 0.000000 0.000000 0.000000 -0.039455 0.000000 0.068762
#
#
# Mechanical properties :
#
#
# Convention : Reuss Voigt Hill
#
# Bulk Modulus (GPa) = 67.25943 82.44752 74.85348
# Shear Modulus (GPa) = 25.91047 41.72341 33.81694
#
# Velocity S-wave (km/s) = 2.98018 3.78176 3.40464
# Velocity P-wave (km/s) = 5.90735 6.87967 6.41197
#
# Compressibility (1/GPa) = 0.01486780
#
# Stress axis : x y z
#
# Youngs Moduli (GPa) = 111.16667 170.90028 84.99994
#
# Poissons Ratio (x) = 0.22341 0.28765
# Poissons Ratio (y) = 0.14532 0.10034
# Poissons Ratio (z) = 0.37620 0.20175
#
# Static dielectric constant tensor:
#      x y z
#    x 2.650430 0.000000 0.026360 
#    y 0.000000 2.323730 0.000000 
#    z 0.026360 0.000000 2.411640 
# 
# From -- ./inp_files/50808.got.cif
#   From: 2010.05.17/outbox.cif.g08.bks.cpg/sg12_26_cif.got.tgz:50808.got - 2010.06.03 13:09:07.
