data_PCOD9168249
_publ_section_title
;
Structure prediction by ZEFSAII (Michael W. Deem and Ramdas Pophale) SiO2 
 PCOD9168249
Probable space group: P 21/M
;
_chemical_formula_sum "Si O2"
_cell_formula_units_Z 20
_cell_length_a 9.000000
_cell_length_b 9.000000
_cell_length_c 24.000000
_cell_angle_alpha 90.000000
_cell_angle_beta 150.000000
_cell_angle_gamma 90.000000
_cell_volume 972.000000
_symmetry_space_group_name_H-M "P 21/M"
_symmetry_group_IT_number 11
_symmetry_cell_setting 'monoclinic'
loop_
_space_group_symop_operation_xyz
x,y,z
-x,1/2+y,-z
-x,-y,-z
x,1/2-y,z
loop_
_atom_site_type_symbol
_atom_site_label
_atom_site_fract_x
_atom_site_fract_y
_atom_site_fract_z
Si Si1 0.293072 0.926922 0.479581
Si Si2 0.713297 0.431000 0.115230
Si Si3 0.313577 0.917694 0.685387
Si Si4 0.360764 0.571917 0.308647
Si Si5 0.293286 0.087527 0.079282
O O1 0.267956 0.750000 0.463788
O O2 0.500000 0.000000 0.500000
O O3 0.456591 0.973250 0.588769
O O4 0.977007 0.006345 0.383232
O O5 0.747943 0.250000 0.123432
O O6 0.539307 0.470102 0.115745
O O7 0.026577 0.511659 0.207278
O O8 0.500000 0.500000 0.000000
O O9 0.246474 0.750000 0.640701
O O10 0.536936 0.897958 0.808203
O O11 0.479382 0.026560 0.696665
O O12 0.374453 0.750000 0.322392
O O13 0.201996 0.250000 0.027272
O O14 0.000000 0.000000 0.000000
#
# Coordination Sequence:
#
# PCOD9168249 Si02
#       5
#     4   4   4   4   4
#     4  12  25  43  66  94 126 164 208 258 312 374
#     4  11  23  41  63  92 126 164 209 260 314 376
#     4  11  23  42  65  92 125 165 209 259 314 373
#     4  12  25  42  64  93 126 165 209 259 315 375
#     4  10  23  40  62  89 122 160 203 252 306 366
#
# _framework density 20.576132000000001
#
# number of rings (size 3 to 8) (size 9 to 14) (size 15 to 20)
#    0.000    0.800    0.000    7.800    0.000    8.000 
#    0.000    0.000    0.000    0.000    0.000    0.000 
#    0.000    0.000    0.000    0.000    0.000    0.000 
#
# Total GULP energy -111603.273652 kJ/mol
# GULP energy per Si atom -5580.163683 kJ/mol
# Density = 2.052930 g / cm^3
# Si number density = 20.576132 Si / 1000 Ang^3
#
#
#
# Elastic Constant Matrix: (Units=GPa)
#
#
# Indices 1 2 3 4 5 6 
#
# 1 116.0396 14.7353 16.9804 0.0000 35.8222 0.0000
# 2 14.7353 108.5384 21.5626 0.0000 39.1320 0.0000
# 3 16.9804 21.5626 94.0097 0.0000 34.7707 0.0000
# 4 0.0000 0.0000 0.0000 30.3488 0.0000 5.7224
# 5 35.8222 39.1320 34.7707 0.0000 49.9026 0.0000
# 6 0.0000 0.0000 0.0000 5.7224 0.0000 33.3405
#
#
#
# Elastic Compliance Matrix: (Units=1/GPa)
#
#
# Indices 1 2 3 4 5 6 
#
# 1 0.011511 0.002083 0.001486 0.000000 -0.010932 0.000000
# 2 0.002083 0.013299 0.001325 0.000000 -0.012848 0.000000
# 3 0.001486 0.001325 0.014609 0.000000 -0.012285 0.000000
# 4 0.000000 0.000000 0.000000 0.034052 0.000000 -0.005845
# 5 -0.010932 -0.012848 -0.012285 0.000000 0.046521 0.000000
# 6 0.000000 0.000000 0.000000 -0.005845 0.000000 0.030997
#
#
# Mechanical properties :
#
#
# Convention : Reuss Voigt Hill
#
# Bulk Modulus (GPa) = 20.32160 47.23825 33.77993
# Shear Modulus (GPa) = 31.72564 40.40568 36.06566
#
# Velocity S-wave (km/s) = 3.93092 4.43619 4.19118
# Velocity P-wave (km/s) = 5.52273 7.01765 6.31458
#
# Compressibility (1/GPa) = 0.04920873
#
# Stress axis : x y z
#
# Youngs Moduli (GPa) = 86.87711 75.19188 68.45309
#
# Poissons Ratio (x) = -0.15666 -0.10175
# Poissons Ratio (y) = -0.18101 -0.09071
# Poissons Ratio (z) = -0.12914 -0.09965
#
# Static dielectric constant tensor:
#      x y z
#    x 2.050130 0.000000 -0.593650 
#    y 0.000000 1.823160 0.000000 
#    z -0.593650 0.000000 2.444070 
# 
# From -- ./inp_files/27976.got.cif
#   From: 2010.05.17/outbox.ucp.g08.bks.cvg/sg11_14_cif.got.tgz:27976.got - 2010.06.11 11:38:39.
