data_PCOD9168665
_publ_section_title
;
Structure prediction by ZEFSAII (Michael W. Deem and Ramdas Pophale) SiO2 
 PCOD9168665
Probable space group: C 2/M
;
_chemical_formula_sum "Si O2"
_cell_formula_units_Z 24
_cell_length_a 5.340497
_cell_length_b 28.813340
_cell_length_c 9.752565
_cell_angle_alpha 90.000000
_cell_angle_beta 137.485953
_cell_angle_gamma 90.000000
_cell_volume 1014.130039
_symmetry_space_group_name_H-M "C 2/M"
_symmetry_group_IT_number 12
_symmetry_cell_setting 'monoclinic'
loop_
_space_group_symop_operation_xyz
x,y,z
-x,y,-z
-x,-y,-z
x,-y,z
1/2+x,1/2+y,z
1/2-x,1/2+y,-z
1/2-x,1/2-y,-z
1/2+x,1/2-y,z
loop_
_atom_site_type_symbol
_atom_site_label
_atom_site_fract_x
_atom_site_fract_y
_atom_site_fract_z
Si Si1 0.069203 0.000000 0.366011
Si Si2 0.496633 0.864902 0.228861
Si Si3 0.000000 0.219243 0.000000
Si Si4 0.497534 0.400426 0.228475
O O1 0.500000 0.000000 0.500000
O O2 0.000000 0.000000 0.500000
O O3 0.913021 0.952422 0.240844
O O4 0.893651 0.866698 0.314382
O O5 0.312298 0.815342 0.189785
O O6 0.401444 0.897125 0.319781
O O7 0.255322 0.884566 0.002387
O O8 0.250000 0.250000 0.000000
#
# Coordination Sequence:
#
# PCOD9168665 Si02
#       4
#     4   8   4   8
#     4  12  24  34  48  70  96 130 172 210 236 270
#     4   9  18  31  51  72  97 130 154 192 243 288
#     4  10  16  26  46  77 110 123 142 184 240 308
#     4   9  18  33  47  67  98 125 165 197 235 286
#
# _framework density 23.665606
#
# number of rings (size 3 to 8) (size 9 to 14) (size 15 to 20)
#    0.000    2.667    0.000    6.000    0.000    5.333 
#    0.000    0.000    0.000    0.000    0.000    0.000 
#    0.000  488.000    0.000    0.000    0.000    0.000 
#
# Total GULP energy -66883.160587 kJ/mol
# GULP energy per Si atom -5573.596716 kJ/mol
# Density = 2.361174 g / cm^3
# Si number density = 23.665606 Si / 1000 Ang^3
#
#
#
# Elastic Constant Matrix: (Units=GPa)
#
#
# Indices 1 2 3 4 5 6 
#
# 1 268.9920 62.4183 31.5689 0.0000 -24.5909 0.0000
# 2 62.4183 142.2202 1.0336 0.0000 -16.3379 0.0000
# 3 31.5689 1.0336 44.8953 0.0000 -4.8259 0.0000
# 4 0.0000 0.0000 0.0000 19.0235 0.0000 1.8283
# 5 -24.5909 -16.3379 -4.8259 0.0000 54.6275 0.0000
# 6 0.0000 0.0000 0.0000 1.8283 0.0000 55.5682
#
#
#
# Elastic Compliance Matrix: (Units=1/GPa)
#
#
# Indices 1 2 3 4 5 6 
#
# 1 0.004625 -0.001864 -0.003075 0.000000 0.001253 0.000000
# 2 -0.001864 0.008033 0.001306 0.000000 0.001679 0.000000
# 3 -0.003075 0.001306 0.024532 0.000000 0.001174 0.000000
# 4 0.000000 0.000000 0.000000 0.052733 0.000000 -0.001735
# 5 0.001253 0.001679 0.001174 0.000000 0.019476 0.000000
# 6 0.000000 0.000000 0.000000 -0.001735 0.000000 0.018053
#
#
# Mechanical properties :
#
#
# Convention : Reuss Voigt Hill
#
# Bulk Modulus (GPa) = 33.41652 71.79434 52.60543
# Shear Modulus (GPa) = 34.55600 49.91629 42.23615
#
# Velocity S-wave (km/s) = 3.82537 4.59762 4.22916
# Velocity P-wave (km/s) = 5.80192 7.65422 6.79151
#
# Compressibility (1/GPa) = 0.02992532
#
# Stress axis : x y z
#
# Youngs Moduli (GPa) = 216.19349 124.49136 40.76257
#
# Poissons Ratio (x) = 0.23202 0.12534
# Poissons Ratio (y) = 0.40293 -0.05324
# Poissons Ratio (z) = 0.66477 -0.16259
#
# Static dielectric constant tensor:
#      x y z
#    x 2.234860 0.000000 0.367360 
#    y 0.000000 1.899290 0.000000 
#    z 0.367360 0.000000 2.308410 
# 
# From -- ./inp_files/114916.got.cif
#   From: 2010.05.17/outbox.cif.g08.bks.cpg/sg12_58_cif.got.tgz:114916.got - 2010.06.03 13:09:07.
