data_PCOD9168772
_publ_section_title
;
Structure prediction by ZEFSAII (Michael W. Deem and Ramdas Pophale) SiO2 
 PCOD9168772
Probable space group: C 2/M
;
_chemical_formula_sum "Si O2"
_cell_formula_units_Z 36
_cell_length_a 18.334193
_cell_length_b 22.172530
_cell_length_c 14.364046
_cell_angle_alpha 90.000000
_cell_angle_beta 159.760928
_cell_angle_gamma 90.000000
_cell_volume 2020.004075
_symmetry_space_group_name_H-M "C 2/M"
_symmetry_group_IT_number 12
_symmetry_cell_setting 'monoclinic'
loop_
_space_group_symop_operation_xyz
x,y,z
-x,y,-z
-x,-y,-z
x,-y,z
1/2+x,1/2+y,z
1/2-x,1/2+y,-z
1/2-x,1/2-y,-z
1/2+x,1/2-y,z
loop_
_atom_site_type_symbol
_atom_site_label
_atom_site_fract_x
_atom_site_fract_y
_atom_site_fract_z
Si Si1 0.500000 0.244653 0.500000
Si Si2 0.305027 0.216049 0.446142
Si Si3 0.017499 0.570977 0.131761
Si Si4 0.614992 0.343540 0.379190
Si Si5 0.269623 0.165717 0.951622
O O1 0.350938 0.208606 0.392542
O O2 0.352889 0.287052 0.260220
O O3 0.277378 0.287044 0.435715
O O4 0.127512 0.178285 0.287251
O O5 0.522172 0.196298 0.757040
O O6 0.000773 0.500000 0.130012
O O7 0.240040 0.598597 0.431321
O O8 0.000000 0.580840 0.000000
O O9 0.841359 0.609037 0.975888
O O10 0.387476 0.350790 0.152509
#
# Coordination Sequence:
#
# PCOD9168772 Si02
#       5
#     4   8   8   8   8
#     4  10  16  28  49  70  95 128 152 184 238 280
#     4   9  18  30  46  70  97 122 154 192 231 281
#     4  10  20  31  45  68  95 126 163 193 221 269
#     4   9  17  31  46  63  93 126 152 188 231 271
#     4  10  19  32  47  68  98 128 155 188 231 279
#
# _framework density 17.821746999999998
#
# number of rings (size 3 to 8) (size 9 to 14) (size 15 to 20)
#    0.000    2.444    0.000    5.333    0.000    0.889 
#    0.000   15.000    0.000    0.000    0.000   12.444 
#    0.000   42.667    0.000    0.222    0.000    0.000 
#
# Total GULP energy -100411.195791 kJ/mol
# GULP energy per Si atom -5578.399766 kJ/mol
# Density = 1.778118 g / cm^3
# Si number density = 17.821747 Si / 1000 Ang^3
#
#
#
# Elastic Constant Matrix: (Units=GPa)
#
#
# Indices 1 2 3 4 5 6 
#
# 1 169.4773 49.9812 35.6134 0.0000 35.8180 0.0000
# 2 49.9812 82.7820 18.0968 0.0000 8.0775 0.0000
# 3 35.6134 18.0968 59.0880 -0.0002 16.9273 0.0001
# 4 0.0000 0.0000 -0.0002 19.0281 0.0000 0.7575
# 5 35.8180 8.0775 16.9273 0.0000 31.3276 0.0000
# 6 0.0000 0.0000 0.0001 0.7575 0.0000 19.9288
#
#
#
# Elastic Compliance Matrix: (Units=1/GPa)
#
#
# Indices 1 2 3 4 5 6 
#
# 1 0.009423 -0.004444 -0.001846 0.000000 -0.008630 0.000000
# 2 -0.004444 0.015095 -0.002704 0.000000 0.002649 0.000000
# 3 -0.001846 -0.002704 0.021368 0.000000 -0.008738 0.000000
# 4 0.000000 0.000000 0.000000 0.052633 0.000000 -0.002001
# 5 -0.008630 0.002649 -0.008738 0.000000 0.045826 0.000000
# 6 0.000000 0.000000 0.000000 -0.002001 0.000000 0.050255
#
#
# Mechanical properties :
#
#
# Convention : Reuss Voigt Hill
#
# Bulk Modulus (GPa) = 35.84361 57.63668 46.74014
# Shear Modulus (GPa) = 22.53395 27.90064 25.21729
#
# Velocity S-wave (km/s) = 3.55971 3.96098 3.76569
# Velocity P-wave (km/s) = 6.08698 7.30274 6.72240
#
# Compressibility (1/GPa) = 0.02789898
#
# Stress axis : x y z
#
# Youngs Moduli (GPa) = 106.12533 66.24533 46.79917
#
# Poissons Ratio (x) = 0.29436 0.08639
# Poissons Ratio (y) = 0.47157 0.12655
# Poissons Ratio (z) = 0.19591 0.17913
#
# Static dielectric constant tensor:
#      x y z
#    x 1.673400 0.000000 0.025140 
#    y 0.000000 1.585090 0.000000 
#    z 0.025140 0.000000 1.637140 
# 
# From -- ./inp_files/208489.got.cif
#   From: 2010.05.17/outbox.cif.g08.bks.cpg/sg12_105_cif.got.tgz:208489.got - 2010.06.03 13:09:07.
