data_PCOD9168819
_publ_section_title
;
Structure prediction by ZEFSAII (Michael W. Deem and Ramdas Pophale) SiO2 
 PCOD9168819
Probable space group: C 2/M
;
_chemical_formula_sum "Si O2"
_cell_formula_units_Z 56
_cell_length_a 9.997662
_cell_length_b 27.706409
_cell_length_c 20.986548
_cell_angle_alpha 90.000000
_cell_angle_beta 33.788704
_cell_angle_gamma 90.000000
_cell_volume 3232.938245
_symmetry_space_group_name_H-M "C 2/M"
_symmetry_group_IT_number 12
_symmetry_cell_setting 'monoclinic'
loop_
_space_group_symop_operation_xyz
x,y,z
-x,y,-z
-x,-y,-z
x,-y,z
1/2+x,1/2+y,z
1/2-x,1/2+y,-z
1/2-x,1/2-y,-z
1/2+x,1/2-y,z
loop_
_atom_site_type_symbol
_atom_site_label
_atom_site_fract_x
_atom_site_fract_y
_atom_site_fract_z
Si Si1 0.987002 0.280410 0.386480
Si Si2 0.579392 0.056050 0.164511
Si Si3 0.186448 0.558795 0.980263
Si Si4 0.596445 0.400435 0.389742
Si Si5 0.266618 0.558282 0.225501
Si Si6 0.579997 0.888645 0.539358
Si Si7 0.241195 0.204368 0.359840
O O1 0.750000 0.250000 0.500000
O O2 0.970883 0.332103 0.426768
O O3 0.960387 0.288839 0.321644
O O4 0.205558 0.247869 0.324780
O O5 0.297157 0.061224 0.291751
O O6 0.720052 0.075112 0.171006
O O7 0.650002 0.000000 0.132557
O O8 0.626369 0.076480 0.075588
O O9 0.170610 0.500000 0.987035
O O10 0.465089 0.570881 0.857853
O O11 0.000000 0.575694 0.000000
O O12 0.500000 0.407471 0.500000
O O13 0.361662 0.398469 0.438940
O O14 0.729916 0.348499 0.334110
O O15 0.242497 0.500000 0.236050
O O16 0.070183 0.581567 0.349237
O O17 0.500000 0.900979 0.500000
O O18 0.000000 0.204712 0.500000
#
# Coordination Sequence:
#
# PCOD9168819 Si02
#       7
#     8   8   8   8   8   8   8
#     4  10  16  29  46  68  97 136 169 202 241 291
#     4  10  20  34  56  74  95 135 175 209 247 302
#     4   9  19  36  55  74  95 125 173 223 258 290
#     4  11  19  34  47  73 108 136 165 202 253 307
#     4  10  21  37  53  73 101 135 174 214 253 299
#     4  12  23  32  48  75 109 139 169 205 253 312
#     4   9  16  27  45  65  97 130 164 203 238 289
#
# _framework density 17.321705000000001
#
# number of rings (size 3 to 8) (size 9 to 14) (size 15 to 20)
#    0.000    1.857    5.714    1.714    2.000    2.857 
#    0.000    0.000    0.000    0.000    0.000    1.000 
#    0.000    0.286    0.000    0.000    0.000    0.000 
#
# Total GULP energy -156023.240742 kJ/mol
# GULP energy per Si atom -5572.258598 kJ/mol
# Density = 1.728228 g / cm^3
# Si number density = 17.321705 Si / 1000 Ang^3
#
#
#
# Elastic Constant Matrix: (Units=GPa)
#
#
# Indices 1 2 3 4 5 6 
#
# 1 138.1285 10.6816 23.0113 0.0001 10.7396 0.0005
# 2 10.6816 22.5116 8.5889 0.0001 2.0470 0.0003
# 3 23.0113 8.5889 36.8618 0.0017 0.5343 0.0014
# 4 0.0001 0.0001 0.0017 -3.0669 -0.0001 1.3682
# 5 10.7396 2.0470 0.5343 -0.0001 16.8103 -0.0001
# 6 0.0005 0.0003 0.0014 1.3682 -0.0001 15.2812
#
#
#
# Elastic Compliance Matrix: (Units=1/GPa)
#
#
# Indices 1 2 3 4 5 6 
#
# 1 0.008585 -0.001747 -0.004878 -0.000002 -0.005117 0.000000
# 2 -0.001747 0.049640 -0.010409 -0.000003 -0.004598 0.000000
# 3 -0.004878 -0.010409 0.032550 0.000016 0.003349 -0.000004
# 4 -0.000002 -0.000003 0.000016 -0.313538 0.000001 0.028073
# 5 -0.005117 -0.004598 0.003349 0.000001 0.063210 0.000001
# 6 0.000000 0.000000 -0.000004 0.028073 0.000001 0.062926
#
#
# Mechanical properties :
#
#
# Convention : Reuss Voigt Hill
#
# Bulk Modulus (GPa) = 17.63450 31.34059 24.48755
# Shear Modulus (GPa) = -114.53504 16.15291 -49.19106
#
# Velocity S-wave (km/s) = -8.14038 3.05704 -5.33481
# Velocity P-wave (km/s) = 8.84035 5.53111 4.87640
#
# Compressibility (1/GPa) = 0.05670704
#
# Stress axis : x y z
#
# Youngs Moduli (GPa) = 116.47851 20.14508 30.72160
#
# Poissons Ratio (x) = 0.03520 0.14986
# Poissons Ratio (y) = 0.20351 0.31978
# Poissons Ratio (z) = 0.56820 0.20969
#
# Static dielectric constant tensor:
#      x y z
#    x 1.642510 0.000000 0.007550 
#    y 0.000000 1.633430 0.000000 
#    z 0.007550 0.000000 1.575350 
# 
# From -- ./inp_files/260104.got.cif
#   From: 2010.05.17/outbox.cif.g08.bks.cpg/sg12_131_cif.got.tgz:260104.got - 2010.06.03 13:09:07.
