data_PCOD9168642
_publ_section_title
;
Structure prediction by ZEFSAII (Michael W. Deem and Ramdas Pophale) SiO2 
 PCOD9168642
Probable space group: C 2/M
;
_chemical_formula_sum "Si O2"
_cell_formula_units_Z 56
_cell_length_a 30.671847
_cell_length_b 7.645561
_cell_length_c 13.707027
_cell_angle_alpha 90.000000
_cell_angle_beta 76.622846
_cell_angle_gamma 90.000000
_cell_volume 3127.134539
_symmetry_space_group_name_H-M "C 2/M"
_symmetry_group_IT_number 12
_symmetry_cell_setting 'monoclinic'
loop_
_space_group_symop_operation_xyz
x,y,z
-x,y,-z
-x,-y,-z
x,-y,z
1/2+x,1/2+y,z
1/2-x,1/2+y,-z
1/2-x,1/2-y,-z
1/2+x,1/2-y,z
loop_
_atom_site_type_symbol
_atom_site_label
_atom_site_fract_x
_atom_site_fract_y
_atom_site_fract_z
Si Si1 0.695774 0.799415 0.939176
Si Si2 0.863354 0.799933 0.852164
Si Si3 0.549055 0.714112 0.092125
Si Si4 0.718640 0.714982 0.217554
Si Si5 0.050506 0.787603 0.864040
Si Si6 0.146170 0.205331 0.769321
Si Si7 0.230767 0.292433 0.615409
O O1 0.744717 0.731212 0.882889
O O2 0.668493 0.795030 0.851569
O O3 0.699493 0.000000 0.969487
O O4 0.667771 0.699702 0.034943
O O5 0.910610 0.720504 0.861004
O O6 0.830656 0.722964 0.786865
O O7 0.872643 0.000000 0.818221
O O8 0.550553 0.500000 0.093114
O O9 0.498650 0.771369 0.144401
O O10 0.556480 0.762761 0.974809
O O11 0.718483 0.500000 0.216108
O O12 0.737522 0.772901 0.312434
O O13 0.095096 0.732680 0.783896
O O14 0.048471 0.000000 0.863002
O O15 0.180501 0.227378 0.662769
O O16 0.144361 0.000000 0.794587
O O17 0.229112 0.500000 0.626331
O O18 0.250000 0.250000 0.500000
#
# Coordination Sequence:
#
# PCOD9168642 Si02
#       7
#     8   8   8   8   8   8   8
#     4  10  18  27  37  57  91 122 147 181 213 246
#     4  10  16  26  43  61  82 117 153 177 209 255
#     4   8  13  21  37  61  88 115 147 184 211 240
#     4   8  17  29  42  61  85 110 141 179 217 255
#     4   8  13  22  37  62  89 113 146 184 214 241
#     4  10  17  28  47  67  86 116 151 181 215 260
#     4  10  20  35  50  68  90 110 136 179 224 266
#
# _framework density 17.907769999999999
#
# number of rings (size 3 to 8) (size 9 to 14) (size 15 to 20)
#    0.000    2.857    1.429    3.429    0.000    0.000 
#    0.000    3.571    0.000    2.571    0.000    1.000 
#    0.000    8.000    0.000    0.000    0.000    0.000 
#
# Total GULP energy -156032.679337 kJ/mol
# GULP energy per Si atom -5572.595691 kJ/mol
# Density = 1.786701 g / cm^3
# Si number density = 17.907770 Si / 1000 Ang^3
#
#
#
# Elastic Constant Matrix: (Units=GPa)
#
#
# Indices 1 2 3 4 5 6 
#
# 1 196.6310 5.7523 52.7499 0.0000 -7.5452 0.0000
# 2 5.7523 43.2429 -1.5526 0.0000 1.2635 0.0000
# 3 52.7499 -1.5526 67.7600 0.0000 -8.7721 0.0000
# 4 0.0000 0.0000 0.0000 10.8273 0.0000 -2.3682
# 5 -7.5452 1.2635 -8.7721 0.0000 16.8490 0.0000
# 6 0.0000 0.0000 0.0000 -2.3682 0.0000 8.8219
#
#
#
# Elastic Compliance Matrix: (Units=1/GPa)
#
#
# Indices 1 2 3 4 5 6 
#
# 1 0.006477 -0.001052 -0.005019 0.000000 0.000366 0.000000
# 2 -0.001052 0.023354 0.001144 0.000000 -0.001627 0.000000
# 3 -0.005019 0.001144 0.019718 0.000000 0.007933 0.000000
# 4 0.000000 0.000000 0.000000 0.098121 0.000000 0.026340
# 5 0.000366 -0.001627 0.007933 0.000000 0.063767 0.000000
# 6 0.000000 0.000000 0.000000 0.026340 0.000000 0.120425
#
#
# Mechanical properties :
#
#
# Convention : Reuss Voigt Hill
#
# Bulk Modulus (GPa) = 25.19282 46.83701 36.01492
# Shear Modulus (GPa) = 14.08658 24.01191 19.04925
#
# Velocity S-wave (km/s) = 2.80771 3.66576 3.26504
# Velocity P-wave (km/s) = 4.96081 6.64292 5.86251
#
# Compressibility (1/GPa) = 0.03969384
#
# Stress axis : x y z
#
# Youngs Moduli (GPa) = 154.39455 42.81959 50.71464
#
# Poissons Ratio (x) = 0.04507 0.25453
# Poissons Ratio (y) = 0.16250 -0.05801
# Poissons Ratio (z) = 0.77488 -0.04898
#
# Static dielectric constant tensor:
#      x y z
#    x 1.680150 0.000000 0.001420 
#    y 0.000000 1.715470 0.000000 
#    z 0.001420 0.000000 1.595600 
# 
# From -- ./inp_files/247808.got.cif
#   From: 2010.05.17/outbox.cif.g08.bks.cpg/sg12_124_cif.got.tgz:247808.got - 2010.06.03 13:09:07.
