data_PCOD9168974
_publ_section_title
;
Structure prediction by ZEFSAII (Michael W. Deem and Ramdas Pophale) SiO2 
 PCOD9168974
Probable space group: C 2/M
;
_chemical_formula_sum "Si O2"
_cell_formula_units_Z 48
_cell_length_a 14.306579
_cell_length_b 19.302881
_cell_length_c 20.457022
_cell_angle_alpha 90.000000
_cell_angle_beta 151.590635
_cell_angle_gamma 90.000000
_cell_volume 2687.791363
_symmetry_space_group_name_H-M "C 2/M"
_symmetry_group_IT_number 12
_symmetry_cell_setting 'monoclinic'
loop_
_space_group_symop_operation_xyz
x,y,z
-x,y,-z
-x,-y,-z
x,-y,z
1/2+x,1/2+y,z
1/2-x,1/2+y,-z
1/2-x,1/2-y,-z
1/2+x,1/2-y,z
loop_
_atom_site_type_symbol
_atom_site_label
_atom_site_fract_x
_atom_site_fract_y
_atom_site_fract_z
Si Si1 0.810465 0.730782 0.342586
Si Si2 0.278892 0.890904 0.689442
Si Si3 0.914049 0.074836 0.555544
Si Si4 0.603164 0.701533 0.868045
Si Si5 0.610965 0.081003 0.999193
Si Si6 0.467685 0.276765 0.646261
O O1 0.762497 0.808742 0.337999
O O2 0.605998 0.690240 0.224379
O O3 0.000000 0.704562 0.500000
O O4 0.885408 0.743404 0.315601
O O5 0.264567 0.915848 0.605947
O O6 0.465635 0.908903 0.848004
O O7 0.102059 0.922846 0.623276
O O8 0.946928 0.140600 0.621574
O O9 0.902762 0.000000 0.581364
O O10 0.542869 0.739455 0.764101
O O11 0.750000 0.750000 0.000000
O O12 0.713067 0.632643 0.910646
O O13 0.665178 0.000000 0.038597
O O14 0.500000 0.099869 0.000000
O O15 0.250000 0.250000 0.500000
#
# Coordination Sequence:
#
# PCOD9168974 Si02
#       6
#     8   8   8   8   8   8
#     4  11  19  38  60  86 121 157 202 251 303 359
#     4  10  16  31  53  82 116 152 188 236 299 365
#     4  10  18  29  53  83 112 149 193 242 299 362
#     4  12  25  37  61  91 122 159 208 249 308 372
#     4  11  23  38  57  87 129 163 197 254 320 371
#     4  11  22  38  60  83 118 160 201 254 307 360
#
# _framework density 17.858529000000001
#
# number of rings (size 3 to 8) (size 9 to 14) (size 15 to 20)
#    0.000    1.167    6.667    4.000    0.000    2.000 
#    0.000    0.000    0.000    1.500    0.000    1.167 
#    0.000    0.000    0.000    0.000    0.000    0.000 
#
# Total GULP energy -133828.880419 kJ/mol
# GULP energy per Si atom -5576.203351 kJ/mol
# Density = 1.781788 g / cm^3
# Si number density = 17.858529 Si / 1000 Ang^3
#
#
#
# Elastic Constant Matrix: (Units=GPa)
#
#
# Indices 1 2 3 4 5 6 
#
# 1 103.0959 37.4741 58.5064 0.0005 7.9446 0.0000
# 2 37.4741 71.3489 31.2579 0.0059 17.8029 -0.0004
# 3 58.5064 31.2579 134.4837 0.0084 -3.9185 -0.0001
# 4 0.0005 0.0059 0.0084 6.8697 0.0055 8.1741
# 5 7.9446 17.8029 -3.9185 0.0055 38.1404 0.0007
# 6 0.0000 -0.0004 -0.0001 8.1741 0.0007 17.3920
#
#
#
# Elastic Compliance Matrix: (Units=1/GPa)
#
#
# Indices 1 2 3 4 5 6 
#
# 1 0.014593 -0.005086 -0.005201 0.000024 -0.001200 -0.000011
# 2 -0.005086 0.019996 -0.002684 -0.000017 -0.008550 0.000009
# 3 -0.005201 -0.002684 0.010422 -0.000029 0.003407 0.000013
# 4 0.000024 -0.000017 -0.000029 0.330256 -0.000045 -0.155218
# 5 -0.001200 -0.008550 0.003407 -0.000045 0.030810 0.000020
# 6 -0.000011 0.000009 0.000013 -0.155218 0.000020 0.130449
#
#
# Mechanical properties :
#
#
# Convention : Reuss Voigt Hill
#
# Bulk Modulus (GPa) = 52.44529 62.60058 57.52293
# Shear Modulus (GPa) = 8.79005 24.59309 16.69157
#
# Velocity S-wave (km/s) = 2.22097 3.71496 3.06053
# Velocity P-wave (km/s) = 6.00065 7.31649 6.69099
#
# Compressibility (1/GPa) = 0.01906749
#
# Stress axis : x y z
#
# Youngs Moduli (GPa) = 68.52762 50.00905 95.95348
#
# Poissons Ratio (x) = 0.25437 0.49907
# Poissons Ratio (y) = 0.34856 0.25754
# Poissons Ratio (z) = 0.35643 0.13423
#
# Static dielectric constant tensor:
#      x y z
#    x 1.634180 0.000000 0.004050 
#    y 0.000000 1.644240 0.000000 
#    z 0.004050 0.000000 1.692780 
# 
# From -- ./inp_files/311382.got.cif
#   From: 2010.05.17/outbox.cif.g08.bks.cpg/sg12_156_cif.got.tgz:311382.got - 2010.06.03 13:09:07.
