data_PCOD9168663
_publ_section_title
;
Structure prediction by ZEFSAII (Michael W. Deem and Ramdas Pophale) SiO2 
 PCOD9168663
Probable space group: C 2/M
;
_chemical_formula_sum "Si O2"
_cell_formula_units_Z 40
_cell_length_a 10.415355
_cell_length_b 27.819070
_cell_length_c 7.583984
_cell_angle_alpha 90.000000
_cell_angle_beta 54.584324
_cell_angle_gamma 90.000000
_cell_volume 1790.833989
_symmetry_space_group_name_H-M "C 2/M"
_symmetry_group_IT_number 12
_symmetry_cell_setting 'monoclinic'
loop_
_space_group_symop_operation_xyz
x,y,z
-x,y,-z
-x,-y,-z
x,-y,z
1/2+x,1/2+y,z
1/2-x,1/2+y,-z
1/2-x,1/2-y,-z
1/2+x,1/2-y,z
loop_
_atom_site_type_symbol
_atom_site_label
_atom_site_fract_x
_atom_site_fract_y
_atom_site_fract_z
Si Si1 0.075748 0.196416 0.135339
Si Si2 0.599803 0.500000 0.104812
Si Si3 0.536199 0.403193 0.759781
Si Si4 0.047227 0.300439 0.164270
Si Si5 0.595363 0.901370 0.604622
Si Si6 0.030766 0.500000 0.263053
O O1 0.021521 0.246912 0.264870
O O2 0.023026 0.147312 0.268101
O O3 0.264749 0.193038 0.967005
O O4 0.000000 0.195911 0.000000
O O5 0.551063 0.450742 0.238196
O O6 0.500000 0.500000 0.000000
O O7 0.783159 0.500000 0.915387
O O8 0.720915 0.406098 0.580056
O O9 0.500000 0.401946 0.000000
O O10 0.952489 0.348036 0.293912
O O11 0.000000 0.294751 0.000000
O O12 0.500000 0.904073 0.500000
O O13 0.541667 0.949765 0.749825
O O14 0.000000 0.500000 0.500000
#
# Coordination Sequence:
#
# PCOD9168663 Si02
#       6
#     8   4   8   8   8   4
#     4   9  18  36  58  79 110 150 188 227 276 333
#     4  10  16  26  46  74 107 138 172 226 283 316
#     4  10  18  30  50  77 108 140 178 226 275 321
#     4  10  21  37  57  82 114 148 185 232 282 331
#     4  11  20  33  55  83 111 145 190 232 276 334
#     4  10  18  30  51  80 109 140 186 234 275 328
#
# _framework density 22.335961999999999
#
# number of rings (size 3 to 8) (size 9 to 14) (size 15 to 20)
#    0.000    2.000    0.000    9.000    0.000    0.800 
#    0.000    1.500    0.000    0.000    0.000    4.200 
#    0.000    0.000    0.000    0.000    0.000    0.000 
#
# Total GULP energy -111534.555575 kJ/mol
# GULP energy per Si atom -5576.727779 kJ/mol
# Density = 2.228512 g / cm^3
# Si number density = 22.335962 Si / 1000 Ang^3
#
#
#
# Elastic Constant Matrix: (Units=GPa)
#
#
# Indices 1 2 3 4 5 6 
#
# 1 60.5086 16.9023 43.5317 0.0000 -22.5834 0.0000
# 2 16.9023 293.3163 99.2429 0.0000 -29.8298 0.0000
# 3 43.5317 99.2429 126.1720 0.0000 -47.1207 0.0000
# 4 0.0000 0.0000 0.0000 49.5065 0.0000 -17.7580
# 5 -22.5834 -29.8298 -47.1207 0.0000 45.6950 0.0000
# 6 0.0000 0.0000 0.0000 -17.7580 0.0000 18.7542
#
#
#
# Elastic Compliance Matrix: (Units=1/GPa)
#
#
# Indices 1 2 3 4 5 6 
#
# 1 0.023305 0.001716 -0.007596 0.000000 0.004805 0.000000
# 2 0.001716 0.004813 -0.004696 0.000000 -0.000853 0.000000
# 3 -0.007596 -0.004696 0.019017 0.000000 0.012791 0.000000
# 4 0.000000 0.000000 0.000000 0.030589 0.000000 0.028964
# 5 0.004805 -0.000853 0.012791 0.000000 0.036892 0.000000
# 6 0.000000 0.000000 0.000000 0.028964 0.000000 0.080746
#
#
# Mechanical properties :
#
#
# Convention : Reuss Voigt Hill
#
# Bulk Modulus (GPa) = 38.48657 88.81674 63.65165
# Shear Modulus (GPa) = 22.20500 44.14582 33.17541
#
# Velocity S-wave (km/s) = 3.15641 4.45055 3.85813
# Velocity P-wave (km/s) = 5.52740 8.14003 6.95745
#
# Compressibility (1/GPa) = 0.02598309
#
# Stress axis : x y z
#
# Youngs Moduli (GPa) = 42.90862 207.79187 52.58510
#
# Poissons Ratio (x) = -0.35651 0.39942
# Poissons Ratio (y) = -0.07362 0.24693
# Poissons Ratio (z) = 0.32592 0.97575
#
# Static dielectric constant tensor:
#      x y z
#    x 1.800440 0.000000 0.045370 
#    y 0.000000 2.028100 0.000000 
#    z 0.045370 0.000000 1.807700 
# 
# From -- ./inp_files/136482.got.cif
#   From: 2010.05.17/outbox.cif.g08.bks.cpg/sg12_69_cif.got.tgz:136482.got - 2010.06.03 13:09:07.
