data_PCOD9168965
_publ_section_title
;
Structure prediction by ZEFSAII (Michael W. Deem and Ramdas Pophale) SiO2 
 PCOD9168965
Probable space group: C 2/M
;
_chemical_formula_sum "Si O2"
_cell_formula_units_Z 56
_cell_length_a 20.459329
_cell_length_b 16.951370
_cell_length_c 18.730741
_cell_angle_alpha 90.000000
_cell_angle_beta 24.809999
_cell_angle_gamma 90.000000
_cell_volume 2725.822001
_symmetry_space_group_name_H-M "C 2/M"
_symmetry_group_IT_number 12
_symmetry_cell_setting 'monoclinic'
loop_
_space_group_symop_operation_xyz
x,y,z
-x,y,-z
-x,-y,-z
x,-y,z
1/2+x,1/2+y,z
1/2-x,1/2+y,-z
1/2-x,1/2-y,-z
1/2+x,1/2-y,z
loop_
_atom_site_type_symbol
_atom_site_label
_atom_site_fract_x
_atom_site_fract_y
_atom_site_fract_z
Si Si1 0.648094 0.307143 0.760015
Si Si2 0.845646 0.586556 0.103660
Si Si3 0.993311 0.907901 0.223066
Si Si4 0.519331 0.910636 0.782432
Si Si5 0.194776 0.321601 0.104921
Si Si6 0.699004 0.739561 0.859533
Si Si7 0.192764 0.806314 0.492441
O O1 0.611710 0.376603 0.739663
O O2 0.688052 0.319107 0.803182
O O3 0.787285 0.252357 0.593077
O O4 0.478776 0.261799 0.931175
O O5 0.769421 0.500000 0.190657
O O6 0.764885 0.670371 0.198235
O O7 0.899327 0.590194 0.967573
O O8 0.000000 0.586788 0.000000
O O9 0.953272 0.853115 0.331246
O O10 0.171618 0.888402 0.028057
O O11 0.968639 0.000000 0.260548
O O12 0.680924 0.874302 0.647111
O O13 0.539498 0.000000 0.738929
O O14 0.456820 0.857654 0.780179
O O15 0.250000 0.250000 0.000000
O O16 0.186473 0.289462 0.192906
O O17 0.250000 0.750000 0.500000
#
# Coordination Sequence:
#
# PCOD9168965 Si02
#       7
#     8   8   8   8   8   8   8
#     4   9  17  31  52  77 103 135 179 221 257 316
#     4  10  17  26  46  76 105 128 162 218 269 303
#     4  10  21  35  53  80 110 141 173 220 270 314
#     4  11  20  32  50  78 106 133 172 223 265 307
#     4  11  20  34  52  78 105 143 178 217 261 322
#     4  10  16  31  51  75 107 138 174 222 268 308
#     4  10  18  33  55  77 102 136 176 217 260 313
#
# _framework density 20.544260999999999
#
# number of rings (size 3 to 8) (size 9 to 14) (size 15 to 20)
#    0.000    1.857    4.286    2.571    0.000    0.000 
#    0.000    7.143    0.000    7.714    0.000    6.000 
#    0.000    0.000    0.000    0.000    0.000    0.000 
#
# Total GULP energy -156084.542227 kJ/mol
# GULP energy per Si atom -5574.447937 kJ/mol
# Density = 2.049750 g / cm^3
# Si number density = 20.544261 Si / 1000 Ang^3
#
#
#
# Elastic Constant Matrix: (Units=GPa)
#
#
# Indices 1 2 3 4 5 6 
#
# 1 77.5699 0.3899 1.7142 -0.0001 12.9122 0.0000
# 2 0.3899 79.8275 8.7758 -0.0012 -2.9281 0.0000
# 3 1.7142 8.7758 36.8402 0.0020 5.9946 -0.0020
# 4 -0.0001 -0.0012 0.0020 17.2713 -0.0012 3.9508
# 5 12.9122 -2.9281 5.9946 -0.0012 19.7187 0.0008
# 6 0.0000 0.0000 -0.0020 3.9508 0.0008 20.9557
#
#
#
# Elastic Compliance Matrix: (Units=1/GPa)
#
#
# Indices 1 2 3 4 5 6 
#
# 1 0.014521 -0.000552 0.001069 -0.000001 -0.009916 0.000001
# 2 -0.000552 0.013055 -0.003638 0.000002 0.003406 -0.000001
# 3 0.001069 -0.003638 0.029629 -0.000005 -0.010248 0.000004
# 4 -0.000001 0.000002 -0.000005 0.060509 0.000007 -0.011408
# 5 -0.009916 0.003406 -0.010248 0.000007 0.060828 -0.000004
# 6 0.000001 -0.000001 0.000004 -0.011408 -0.000004 0.049870
#
#
# Mechanical properties :
#
#
# Convention : Reuss Voigt Hill
#
# Bulk Modulus (GPa) = 19.62232 23.99972 21.81102
# Shear Modulus (GPa) = 19.86952 23.81298 21.84125
#
# Velocity S-wave (km/s) = 3.11329 3.40826 3.26411
# Velocity P-wave (km/s) = 4.74293 5.21494 4.98453
#
# Compressibility (1/GPa) = 0.05096237
#
# Stress axis : x y z
#
# Youngs Moduli (GPa) = 68.86415 76.60115 33.75101
#
# Poissons Ratio (x) = 0.04230 -0.03609
# Poissons Ratio (y) = 0.03803 0.12280
# Poissons Ratio (z) = -0.07364 0.27870
#
# Static dielectric constant tensor:
#      x y z
#    x 1.751580 0.000000 -0.000460 
#    y 0.000000 1.735310 0.000000 
#    z -0.000460 0.000000 1.812590 
# 
# From -- ./inp_files/88057.got.cif
#   From: 2010.05.17/outbox.cif.g08.bks.cpg/sg12_45_cif.got.tgz:88057.got - 2010.06.03 13:09:07.
