data_PCOD9168881
_publ_section_title
;
Structure prediction by ZEFSAII (Michael W. Deem and Ramdas Pophale) SiO2 
 PCOD9168881
Probable space group: C 2/M
;
_chemical_formula_sum "Si O2"
_cell_formula_units_Z 42
_cell_length_a 5.317696
_cell_length_b 14.048985
_cell_length_c 28.099333
_cell_angle_alpha 90.000000
_cell_angle_beta 65.173919
_cell_angle_gamma 90.000000
_cell_volume 1905.252190
_symmetry_space_group_name_H-M "C 2/M"
_symmetry_group_IT_number 12
_symmetry_cell_setting 'monoclinic'
loop_
_space_group_symop_operation_xyz
x,y,z
-x,y,-z
-x,-y,-z
x,-y,z
1/2+x,1/2+y,z
1/2-x,1/2+y,-z
1/2-x,1/2-y,-z
1/2+x,1/2-y,z
loop_
_atom_site_type_symbol
_atom_site_label
_atom_site_fract_x
_atom_site_fract_y
_atom_site_fract_z
Si Si1 0.486269 0.884418 0.684207
Si Si2 0.851095 0.886333 0.745985
Si Si3 0.504149 0.193275 0.139437
Si Si4 0.208170 0.687366 0.565946
Si Si5 0.500000 0.500000 0.500000
Si Si6 0.301259 0.140880 0.976899
O O1 0.696872 0.857684 0.709626
O O2 0.576761 0.838171 0.627641
O O3 0.171840 0.856580 0.722333
O O4 0.494864 0.000000 0.678412
O O5 0.674904 0.855066 0.805336
O O6 0.854204 0.000000 0.745354
O O7 0.801731 0.221967 0.137444
O O8 0.565583 0.138675 0.085699
O O9 0.480954 0.751501 0.555023
O O10 0.289999 0.586326 0.535832
O O11 0.500000 0.098862 0.000000
O O12 0.250000 0.250000 0.000000
O O13 0.000000 0.098644 0.000000
#
# Coordination Sequence:
#
# PCOD9168881 Si02
#       6
#     8   8   8   8   2   8
#     4  10  21  44  65  90 127 181 214 268 340 402
#     4  10  23  39  61  86 129 168 208 254 337 402
#     4  12  21  32  55  86 110 149 201 266 309 363
#     4  12  27  46  77 109 143 190 241 290 344 416
#     4  12  28  54  72 112 156 190 236 298 348 404
#     4  10  16  30  48  73 105 145 192 248 312 383
#
# _framework density 22.044325000000001
#
# number of rings (size 3 to 8) (size 9 to 14) (size 15 to 20)
#    0.000    1.143    4.762    2.857    0.000    6.095 
#    0.000    0.000    0.000    1.143    0.000    0.000 
#    0.000    0.000    0.000    0.000    0.000    0.000 
#
# Total GULP energy -117140.346609 kJ/mol
# GULP energy per Si atom -5578.111743 kJ/mol
# Density = 2.199415 g / cm^3
# Si number density = 22.044325 Si / 1000 Ang^3
#
#
#
# Elastic Constant Matrix: (Units=GPa)
#
#
# Indices 1 2 3 4 5 6 
#
# 1 126.2333 26.4678 11.7670 0.0001 -5.8047 0.0000
# 2 26.4678 142.2883 24.7922 0.0000 1.5935 0.0000
# 3 11.7670 24.7922 116.6524 0.0000 -13.7779 0.0000
# 4 0.0001 0.0000 0.0000 116.5244 0.0000 -12.8506
# 5 -5.8047 1.5935 -13.7779 0.0000 39.8282 0.0000
# 6 0.0000 0.0000 0.0000 -12.8506 0.0000 -10.4092
#
#
#
# Elastic Compliance Matrix: (Units=1/GPa)
#
#
# Indices 1 2 3 4 5 6 
#
# 1 0.008323 -0.001493 -0.000388 0.000000 0.001139 0.000000
# 2 -0.001493 0.007595 -0.001590 0.000000 -0.001072 0.000000
# 3 -0.000388 -0.001590 0.009332 0.000000 0.003235 0.000000
# 4 0.000000 0.000000 0.000000 0.007553 0.000000 -0.009325
# 5 0.001139 -0.001072 0.003235 0.000000 0.026436 0.000000
# 6 0.000000 0.000000 0.000000 -0.009325 0.000000 -0.084557
#
#
# Mechanical properties :
#
#
# Convention : Reuss Voigt Hill
#
# Bulk Modulus (GPa) = 54.62249 56.80311 55.71280
# Shear Modulus (GPa) = -407.40838 50.66516 -178.37161
#
# Velocity S-wave (km/s) = -13.60935 4.79929 -9.00503
# Velocity P-wave (km/s) = 14.90370 7.51895 9.09906
#
# Compressibility (1/GPa) = 0.01830748
#
# Stress axis : x y z
#
# Youngs Moduli (GPa) = 120.14196 131.66823 107.16232
#
# Poissons Ratio (x) = 0.19665 0.04155
# Poissons Ratio (y) = 0.17943 0.17039
# Poissons Ratio (z) = 0.04658 0.20936
#
# Static dielectric constant tensor:
#      x y z
#    x 1.799720 0.000000 -0.019180 
#    y 0.000000 1.800990 0.000000 
#    z -0.019180 0.000000 1.809960 
# 
# From -- ./inp_files/330873.got.cif
#   From: 2010.05.17/outbox.cif.g08.bks.cpg/sg12_166_cif.got.tgz:330873.got - 2010.06.03 13:09:07.
