data_PCOD9168330
_publ_section_title
;
Structure prediction by ZEFSAII (Michael W. Deem and Ramdas Pophale) SiO2 
 PCOD9168330
Probable space group: C 2/M
;
_chemical_formula_sum "Si O2"
_cell_formula_units_Z 56
_cell_length_a 21.669321
_cell_length_b 16.905385
_cell_length_c 8.009080
_cell_angle_alpha 90.000000
_cell_angle_beta 112.535432
_cell_angle_gamma 90.000000
_cell_volume 2709.923330
_symmetry_space_group_name_H-M "C 2/M"
_symmetry_group_IT_number 12
_symmetry_cell_setting 'monoclinic'
loop_
_space_group_symop_operation_xyz
x,y,z
-x,y,-z
-x,-y,-z
x,-y,z
1/2+x,1/2+y,z
1/2-x,1/2+y,-z
1/2-x,1/2-y,-z
1/2+x,1/2-y,z
loop_
_atom_site_type_symbol
_atom_site_label
_atom_site_fract_x
_atom_site_fract_y
_atom_site_fract_z
Si Si1 0.302491 0.914351 0.703269
Si Si2 0.864932 0.715652 0.269710
Si Si3 0.423110 0.090156 0.567598
Si Si4 0.943748 0.151174 0.565336
Si Si5 0.225582 0.242427 0.277551
Si Si6 0.481093 0.212877 0.168758
Si Si7 0.170229 0.085815 0.332321
O O1 0.369068 0.909389 0.661127
O O2 0.298072 0.830743 0.790701
O O3 0.237777 0.916316 0.514139
O O4 0.303136 0.000000 0.794235
O O5 0.886356 0.633936 0.378856
O O6 0.898765 0.786812 0.412507
O O7 0.786823 0.723600 0.218786
O O8 0.903514 0.719043 0.135196
O O9 0.485402 0.143591 0.686312
O O10 0.440356 0.000000 0.551569
O O11 0.983404 0.206254 0.737032
O O12 0.893017 0.095572 0.610803
O O13 0.000000 0.115987 0.500000
O O14 0.250000 0.250000 0.500000
O O15 0.176687 0.166560 0.231972
O O16 0.500000 0.196525 0.000000
O O17 0.166233 0.000000 0.240593
#
# Coordination Sequence:
#
# PCOD9168330 Si02
#       7
#     8   8   8   8   8   8   8
#     4   9  16  26  48  80 106 128 157 201 262 311
#     4  10  17  30  50  75  96 128 169 207 253 304
#     4  10  18  31  51  76 101 131 170 210 256 307
#     4   9  17  31  51  73  95 126 164 210 250 299
#     4  10  14  26  48  74 105 132 151 204 257 302
#     4  10  22  35  48  68 100 138 175 210 249 299
#     4  10  17  26  46  79 108 127 157 208 266 303
#
# _framework density 20.66479
#
# number of rings (size 3 to 8) (size 9 to 14) (size 15 to 20)
#    0.000    2.286    5.714    2.143    0.000    1.714 
#    0.000    0.000    0.000    3.857    0.000    2.000 
#    0.000    0.000    0.000    0.000    0.000    0.000 
#
# Total GULP energy -156100.446923 kJ/mol
# GULP energy per Si atom -5575.015962 kJ/mol
# Density = 2.061776 g / cm^3
# Si number density = 20.664790 Si / 1000 Ang^3
#
#
#
# Elastic Constant Matrix: (Units=GPa)
#
#
# Indices 1 2 3 4 5 6 
#
# 1 138.4753 46.9433 17.3400 0.0000 -36.3458 0.0000
# 2 46.9433 155.4755 19.0871 0.0000 -12.1018 0.0000
# 3 17.3400 19.0871 37.8184 0.0000 -7.4688 0.0000
# 4 0.0000 0.0000 0.0000 2.3683 0.0000 -1.9213
# 5 -36.3458 -12.1018 -7.4688 0.0000 26.2308 0.0000
# 6 0.0000 0.0000 0.0000 -1.9213 0.0000 -23.2207
#
#
#
# Elastic Compliance Matrix: (Units=1/GPa)
#
#
# Indices 1 2 3 4 5 6 
#
# 1 0.012254 -0.002323 -0.001382 0.000000 0.015514 0.000000
# 2 -0.002323 0.007431 -0.002802 0.000000 -0.000587 0.000000
# 3 -0.001382 -0.002802 0.029516 0.000000 0.005196 0.000000
# 4 0.000000 0.000000 0.000000 0.395684 0.000000 -0.032739
# 5 0.015514 -0.000587 0.005196 0.000000 0.060828 0.000000
# 6 0.000000 0.000000 0.000000 -0.032739 0.000000 -0.040356
#
#
# Mechanical properties :
#
#
# Convention : Reuss Voigt Hill
#
# Bulk Modulus (GPa) = 27.63340 55.39001 41.51170
# Shear Modulus (GPa) = 10.19506 17.63561 13.91533
#
# Velocity S-wave (km/s) = 2.22357 2.92449 2.59778
# Velocity P-wave (km/s) = 4.47142 6.18593 5.39719
#
# Compressibility (1/GPa) = 0.03618809
#
# Stress axis : x y z
#
# Youngs Moduli (GPa) = 81.60603 134.56446 33.87967
#
# Poissons Ratio (x) = 0.31254 0.04684
# Poissons Ratio (y) = 0.18954 0.09492
# Poissons Ratio (z) = 0.11281 0.37701
#
# Static dielectric constant tensor:
#      x y z
#    x 1.757730 0.000000 0.006860 
#    y 0.000000 1.793980 0.000000 
#    z 0.006860 0.000000 1.731640 
# 
# From -- ./inp_files/87307.got.cif
#   From: 2010.05.17/outbox.cif.g08.bks.cpg/sg12_44_cif.got.tgz:87307.got - 2010.06.03 13:09:07.
