data_PCOD9168827
_publ_section_title
;
Structure prediction by ZEFSAII (Michael W. Deem and Ramdas Pophale) SiO2 
 PCOD9168827
Probable space group: C 2/M
;
_chemical_formula_sum "Si O2"
_cell_formula_units_Z 52
_cell_length_a 20.829343
_cell_length_b 20.929962
_cell_length_c 14.190515
_cell_angle_alpha 90.000000
_cell_angle_beta 28.764607
_cell_angle_gamma 90.000000
_cell_volume 2977.000158
_symmetry_space_group_name_H-M "C 2/M"
_symmetry_group_IT_number 12
_symmetry_cell_setting 'monoclinic'
loop_
_space_group_symop_operation_xyz
x,y,z
-x,y,-z
-x,-y,-z
x,-y,z
1/2+x,1/2+y,z
1/2-x,1/2+y,-z
1/2-x,1/2-y,-z
1/2+x,1/2-y,z
loop_
_atom_site_type_symbol
_atom_site_label
_atom_site_fract_x
_atom_site_fract_y
_atom_site_fract_z
Si Si1 0.717743 0.072607 0.579852
Si Si2 0.290166 0.429562 0.838947
Si Si3 0.836914 0.701990 0.453381
Si Si4 0.128950 0.250853 0.388630
Si Si5 0.078573 0.106930 0.524708
Si Si6 0.500000 0.878769 0.000000
Si Si7 0.372448 0.810202 0.990725
O O1 0.695213 0.129460 0.535107
O O2 0.847411 0.090356 0.474654
O O3 0.724268 0.000000 0.536597
O O4 0.594592 0.080104 0.811514
O O5 0.237488 0.500000 0.926464
O O6 0.341087 0.426315 0.664614
O O7 0.426307 0.415634 0.719765
O O8 0.184228 0.373321 0.987505
O O9 0.750000 0.750000 0.500000
O O10 0.819337 0.711852 0.586885
O O11 0.992983 0.714418 0.229292
O O12 0.085611 0.181413 0.486839
O O13 0.249944 0.237906 0.160938
O O14 0.000000 0.277228 0.500000
O O15 0.587660 0.834112 0.955412
#
# Coordination Sequence:
#
# PCOD9168827 Si02
#       7
#     8   8   8   8   8   4   8
#     4  11  20  31  50  76 108 142 177 216 272 331
#     4  10  17  27  46  76 112 143 167 200 262 342
#     4  11  23  37  54  79 113 143 184 230 271 324
#     4  11  19  37  55  76 111 144 186 224 267 322
#     4  10  16  29  49  75 107 145 173 204 258 332
#     4  10  17  28  44  74 112 138 163 202 269 342
#     4  10  20  32  51  77 106 145 178 215 268 329
#
# _framework density 17.467248000000001
#
# number of rings (size 3 to 8) (size 9 to 14) (size 15 to 20)
#    0.000    1.538    7.692    3.000    0.000    3.077 
#    0.000    0.000    0.000    0.462    0.000    2.154 
#    0.000    0.000    0.000    0.000    0.000    0.000 
#
# Total GULP energy -145060.107883 kJ/mol
# GULP energy per Si atom -5579.234919 kJ/mol
# Density = 1.742749 g / cm^3
# Si number density = 17.467248 Si / 1000 Ang^3
#
#
#
# Elastic Constant Matrix: (Units=GPa)
#
#
# Indices 1 2 3 4 5 6 
#
# 1 61.5931 15.9166 11.1295 0.0017 -14.4096 -0.0014
# 2 15.9166 57.8196 8.7750 0.0003 5.1654 -0.0003
# 3 11.1295 8.7750 63.9990 0.0012 -21.0025 -0.0015
# 4 0.0017 0.0003 0.0012 -10.8176 -0.0016 6.1281
# 5 -14.4096 5.1654 -21.0025 -0.0016 23.6807 0.0013
# 6 -0.0014 -0.0003 -0.0015 6.1281 0.0013 12.9321
#
#
#
# Elastic Compliance Matrix: (Units=1/GPa)
#
#
# Indices 1 2 3 4 5 6 
#
# 1 0.021966 -0.008138 0.003195 0.000001 0.017975 0.000000
# 2 -0.008138 0.021968 -0.006763 0.000001 -0.015741 0.000000
# 3 0.003195 -0.006763 0.024147 0.000000 0.024835 0.000001
# 4 0.000001 0.000001 0.000000 -0.072878 -0.000006 0.034535
# 5 0.017975 -0.015741 0.024835 -0.000006 0.078626 0.000000
# 6 0.000000 0.000000 0.000001 0.034535 0.000000 0.060962
#
#
# Mechanical properties :
#
#
# Convention : Reuss Voigt Hill
#
# Bulk Modulus (GPa) = 22.38643 28.33930 25.36287
# Shear Modulus (GPa) = 28.88619 14.99841 21.94230
#
# Velocity S-wave (km/s) = 4.07103 2.93347 3.54813
# Velocity P-wave (km/s) = 5.91115 5.26622 5.59798
#
# Compressibility (1/GPa) = 0.04466991
#
# Stress axis : x y z
#
# Youngs Moduli (GPa) = 45.52410 45.52096 41.41278
#
# Poissons Ratio (x) = 0.37043 -0.13229
# Poissons Ratio (y) = 0.37045 0.28007
# Poissons Ratio (z) = -0.14543 0.30785
#
# Static dielectric constant tensor:
#      x y z
#    x 1.623630 0.000000 -0.030190 
#    y 0.000000 1.614710 0.000000 
#    z -0.030190 0.000000 1.605590 
# 
# From -- ./inp_files/235044.got.cif
#   From: 2010.05.17/outbox.cif.g08.bks.cpg/sg12_118_cif.got.tgz:235044.got - 2010.06.03 13:09:07.
