data_PCOD9168069
_publ_section_title
;
Structure prediction by ZEFSAII (Michael W. Deem and Ramdas Pophale) SiO2 
 PCOD9168069
Probable space group: P 21/M
;
_chemical_formula_sum "Si O2"
_cell_formula_units_Z 28
_cell_length_a 15.000000
_cell_length_b 9.000000
_cell_length_c 12.000000
_cell_angle_alpha 90.000000
_cell_angle_beta 120.000000
_cell_angle_gamma 90.000000
_cell_volume 1402.961154
_symmetry_space_group_name_H-M "P 21/M"
_symmetry_group_IT_number 11
_symmetry_cell_setting 'monoclinic'
loop_
_space_group_symop_operation_xyz
x,y,z
-x,1/2+y,-z
-x,-y,-z
x,1/2-y,z
loop_
_atom_site_type_symbol
_atom_site_label
_atom_site_fract_x
_atom_site_fract_y
_atom_site_fract_z
Si Si1 0.682505 0.421394 0.632088
Si Si2 0.026693 0.580208 0.901313
Si Si3 0.243132 0.921835 0.920867
Si Si4 0.779060 0.429448 0.351409
Si Si5 0.410097 0.427666 0.635676
Si Si6 0.626922 0.926564 0.821329
Si Si7 0.899326 0.418847 0.635941
O O1 0.647316 0.250000 0.622819
O O2 0.611433 0.513459 0.502917
O O3 0.687649 0.499333 0.755071
O O4 0.791744 0.417353 0.637078
O O5 0.995656 0.750000 0.896536
O O6 0.145970 0.572474 0.942838
O O7 0.971508 0.516461 0.757567
O O8 0.000000 0.500000 0.000000
O O9 0.279884 0.750000 0.941281
O O10 0.211984 0.961044 0.774388
O O11 0.325541 0.027115 0.030529
O O12 0.765953 0.250000 0.356168
O O13 0.681247 0.512552 0.342487
O O14 0.872958 0.469282 0.493678
O O15 0.414463 0.250000 0.639998
O O16 0.514587 0.502288 0.741519
O O17 0.624897 0.750000 0.807175
O O18 0.938916 0.250000 0.656365
#
# Coordination Sequence:
#
# PCOD9168069 Si02
#       7
#     4   4   4   4   4   4   4
#     4  10  20  37  59  85 118 153 191 236 286 339
#     4  11  23  38  59  87 118 151 187 231 283 340
#     4  10  23  42  60  81 113 153 195 238 285 337
#     4   9  20  41  63  83 112 150 193 238 283 336
#     4  11  22  37  59  86 116 150 189 235 287 344
#     4  12  24  37  56  84 116 152 194 239 289 340
#     4   9  19  36  60  86 114 149 185 230 287 339
#
# _framework density 19.957787
#
# number of rings (size 3 to 8) (size 9 to 14) (size 15 to 20)
#    0.000    1.714    0.000    5.571    0.000    9.143 
#    0.000    0.000    0.000    0.000    0.000    0.000 
#    0.000    0.000    0.000    0.000    0.000    0.000 
#
# Total GULP energy -156380.535470 kJ/mol
# GULP energy per Si atom -5585.019124 kJ/mol
# Density = 1.991236 g / cm^3
# Si number density = 19.957787 Si / 1000 Ang^3
#
#
#
# Elastic Constant Matrix: (Units=GPa)
#
#
# Indices 1 2 3 4 5 6 
#
# 1 24.4657 20.5769 20.0158 0.0000 -13.4384 0.0000
# 2 20.5769 121.5559 75.3090 0.0000 -0.2720 0.0000
# 3 20.0158 75.3090 151.4863 0.0000 -11.8487 0.0000
# 4 0.0000 0.0000 0.0000 39.6258 0.0000 -2.4455
# 5 -13.4384 -0.2720 -11.8487 0.0000 32.7409 0.0000
# 6 0.0000 0.0000 0.0000 -2.4455 0.0000 19.6311
#
#
#
# Elastic Compliance Matrix: (Units=1/GPa)
#
#
# Indices 1 2 3 4 5 6 
#
# 1 0.064755 -0.009911 -0.001602 0.000000 0.025917 0.000000
# 2 -0.009911 0.013547 -0.005902 0.000000 -0.006091 0.000000
# 3 -0.001602 -0.005902 0.009974 0.000000 0.002903 0.000000
# 4 0.000000 0.000000 0.000000 0.025432 0.000000 0.003168
# 5 0.025917 -0.006091 0.002903 0.000000 0.042180 0.000000
# 6 0.000000 0.000000 0.000000 0.003168 0.000000 0.051334
#
#
# Mechanical properties :
#
#
# Convention : Reuss Voigt Hill
#
# Bulk Modulus (GPa) = 18.71016 58.81236 38.76126
# Shear Modulus (GPa) = 19.24059 30.50665 24.87362
#
# Velocity S-wave (km/s) = 3.10831 3.91392 3.53414
# Velocity P-wave (km/s) = 4.71988 7.06805 6.00977
#
# Compressibility (1/GPa) = 0.05344690
#
# Stress axis : x y z
#
# Youngs Moduli (GPa) = 15.44274 73.81646 100.26240
#
# Poissons Ratio (x) = 0.73163 0.16059
# Poissons Ratio (y) = 0.15306 0.59171
# Poissons Ratio (z) = 0.02473 0.43563
#
# Static dielectric constant tensor:
#      x y z
#    x 1.730890 0.000000 0.039460 
#    y 0.000000 1.682390 0.000000 
#    z 0.039460 0.000000 1.717470 
# 
# From -- ./inp_files/37404.got.cif
#   From: 2010.05.17/outbox.ucp.g08.bks.cvg/sg11_19_cif.got.tgz:37404.got - 2010.06.11 11:38:39.
