data_PCOD9168953
_publ_section_title
;
Structure prediction by ZEFSAII (Michael W. Deem and Ramdas Pophale) SiO2 
 PCOD9168953
Probable space group: C 2/M
;
_chemical_formula_sum "Si O2"
_cell_formula_units_Z 64
_cell_length_a 18.183233
_cell_length_b 18.025900
_cell_length_c 29.667789
_cell_angle_alpha 90.000000
_cell_angle_beta 159.085562
_cell_angle_gamma 90.000000
_cell_volume 3471.275612
_symmetry_space_group_name_H-M "C 2/M"
_symmetry_group_IT_number 12
_symmetry_cell_setting 'monoclinic'
loop_
_space_group_symop_operation_xyz
x,y,z
-x,y,-z
-x,-y,-z
x,-y,z
1/2+x,1/2+y,z
1/2-x,1/2+y,-z
1/2-x,1/2-y,-z
1/2+x,1/2-y,z
loop_
_atom_site_type_symbol
_atom_site_label
_atom_site_fract_x
_atom_site_fract_y
_atom_site_fract_z
Si Si1 0.592952 0.285687 0.506078
Si Si2 0.988999 0.845920 0.873094
Si Si3 0.962273 0.634985 0.160774
Si Si4 0.208748 0.306078 0.227388
Si Si5 0.120771 0.579044 0.343471
Si Si6 0.235144 0.700262 0.143729
Si Si7 0.942999 0.801013 0.748087
Si Si8 0.799472 0.876742 0.856178
O O1 0.500000 0.315470 0.500000
O O2 0.401155 0.270534 0.364108
O O3 0.735352 0.349679 0.566603
O O4 0.731701 0.215761 0.600272
O O5 0.964836 0.758887 0.874402
O O6 0.928150 0.848422 0.785498
O O7 0.853525 0.883878 0.834390
O O8 0.223012 0.872640 0.012476
O O9 0.106218 0.631209 0.199363
O O10 0.042605 0.584992 0.247116
O O11 0.991614 0.719085 0.196544
O O12 0.283647 0.329080 0.221312
O O13 0.225629 0.500000 0.411170
O O14 0.912117 0.584280 0.252621
O O15 0.385501 0.675986 0.189905
O O16 0.239870 0.790310 0.151880
O O17 0.000000 0.679603 0.000000
O O18 0.000000 0.900563 0.000000
#
# Coordination Sequence:
#
# PCOD9168953 Si02
#       8
#     8   8   8   8   8   8   8   8
#     4  11  19  35  45  68 105 133 172 201 228 296
#     4  10  17  27  49  68  92 136 159 194 253 294
#     4  10  16  31  45  69  97 124 173 201 235 294
#     4  10  19  28  49  69  98 143 160 193 246 294
#     4  11  22  34  50  68  98 140 171 208 248 283
#     4  10  17  29  48  74 101 131 159 194 251 302
#     4  10  17  28  45  68 100 132 162 193 235 303
#     4  10  17  31  45  70 100 124 164 204 246 299
#
# _framework density 18.437027
#
# number of rings (size 3 to 8) (size 9 to 14) (size 15 to 20)
#    0.000    1.750    7.500    3.750    0.000    1.000 
#    0.000    0.000    0.000    0.000    0.000    0.000 
#    0.000   12.000    0.000    0.750    0.000    0.000 
#
# Total GULP energy -178299.424080 kJ/mol
# GULP energy per Si atom -5571.857002 kJ/mol
# Density = 1.839506 g / cm^3
# Si number density = 18.437027 Si / 1000 Ang^3
#
#
#
# Elastic Constant Matrix: (Units=GPa)
#
#
# Indices 1 2 3 4 5 6 
#
# 1 152.0431 5.9725 20.1955 0.0014 8.2642 -0.0009
# 2 5.9725 8.8806 1.0471 -0.0047 2.7305 0.0015
# 3 20.1955 1.0471 63.0670 -0.0068 7.0574 0.0049
# 4 0.0014 -0.0047 -0.0068 -0.2005 0.0031 1.5685
# 5 8.2642 2.7305 7.0574 0.0031 28.6760 -0.0007
# 6 -0.0009 0.0015 0.0049 1.5685 -0.0007 -10.0109
#
#
#
# Elastic Compliance Matrix: (Units=1/GPa)
#
#
# Indices 1 2 3 4 5 6 
#
# 1 0.007077 -0.004168 -0.002070 -0.000820 -0.001133 -0.000131
# 2 -0.004168 0.118493 0.000511 0.012644 -0.010209 0.002000
# 3 -0.002070 0.000511 0.016915 0.002615 -0.003615 0.000419
# 4 -0.000820 0.012644 0.002615 22.099352 -0.003878 3.462488
# 5 -0.001133 -0.010209 -0.003615 -0.003878 0.037061 -0.000614
# 6 -0.000131 0.002000 0.000419 3.462488 -0.000614 0.442606
#
#
# Mechanical properties :
#
#
# Convention : Reuss Voigt Hill
#
# Bulk Modulus (GPa) = 7.63175 30.93565 19.28370
# Shear Modulus (GPa) = 0.21952 16.81129 8.51541
#
# Velocity S-wave (km/s) = 0.34543 3.02292 2.15143
# Velocity P-wave (km/s) = 2.07544 5.38512 4.08087
#
# Compressibility (1/GPa) = 0.13103147
#
# Stress axis : x y z
#
# Youngs Moduli (GPa) = 141.29475 8.43932 59.11742
#
# Poissons Ratio (x) = 0.03517 0.12240
# Poissons Ratio (y) = 0.58886 -0.03020
# Poissons Ratio (z) = 0.29254 -0.00431
#
# Static dielectric constant tensor:
#      x y z
#    x 1.691470 0.000000 -0.002540 
#    y 0.000000 1.631350 0.000000 
#    z -0.002540 0.000000 1.655590 
# 
# From -- ./inp_files/379864.got.cif
#   From: 2010.05.17/outbox.cif.g08.bks.cpg/sg12_190_cif.got.tgz:379864.got - 2010.06.03 13:09:07.
