data_PCOD9168183
_publ_section_title
;
Structure prediction by ZEFSAII (Michael W. Deem and Ramdas Pophale) SiO2 
 PCOD9168183
Probable space group: P 21/M
;
_chemical_formula_sum "Si O2"
_cell_formula_units_Z 28
_cell_length_a 9.000000
_cell_length_b 9.000000
_cell_length_c 27.000000
_cell_angle_alpha 90.000000
_cell_angle_beta 40.000000
_cell_angle_gamma 90.000000
_cell_volume 1405.776502
_symmetry_space_group_name_H-M "P 21/M"
_symmetry_group_IT_number 11
_symmetry_cell_setting 'monoclinic'
loop_
_space_group_symop_operation_xyz
x,y,z
-x,1/2+y,-z
-x,-y,-z
x,1/2-y,z
loop_
_atom_site_type_symbol
_atom_site_label
_atom_site_fract_x
_atom_site_fract_y
_atom_site_fract_z
Si Si1 0.145702 0.923709 0.113967
Si Si2 0.503965 0.572238 0.171122
Si Si3 0.719237 0.928666 0.471685
Si Si4 0.974109 0.928542 0.313055
Si Si5 0.533693 0.071050 0.371069
Si Si6 0.582481 0.423588 0.054479
Si Si7 0.340834 0.927428 0.766574
O O1 0.108428 0.750000 0.136195
O O2 0.362870 0.987897 0.088546
O O3 0.218795 0.933281 0.037623
O O4 0.918614 0.020130 0.179871
O O5 0.524871 0.750000 0.164286
O O6 0.643342 0.496857 0.091043
O O7 0.581143 0.511128 0.204242
O O8 0.233556 0.530886 0.232313
O O9 0.702332 0.750000 0.474229
O O10 0.932096 0.969033 0.381857
O O11 0.679647 0.972962 0.538751
O O12 0.500000 0.000000 0.500000
O O13 0.952475 0.750000 0.313571
O O14 0.769255 0.002451 0.333767
O O15 0.558314 0.250000 0.366631
O O16 0.510172 0.030028 0.319837
O O17 0.524315 0.250000 0.075371
O O18 0.349440 0.750000 0.771602
#
# Coordination Sequence:
#
# PCOD9168183 Si02
#       7
#     4   4   4   4   4   4   4
#     4  10  21  38  60  84 108 136 172 214 260 311
#     4  11  23  37  53  76 107 143 180 218 263 313
#     4   8  14  28  49  74 102 130 166 212 259 306
#     4   9  18  32  53  78 103 134 172 215 261 310
#     4   9  18  32  53  78 103 134 172 215 261 310
#     4  10  21  38  60  84 108 136 172 214 260 311
#     4  11  23  37  53  76 107 143 180 218 263 313
#
# _framework density 19.917818
#
# number of rings (size 3 to 8) (size 9 to 14) (size 15 to 20)
#    0.000    2.286    0.000    2.571    0.000    6.857 
#    0.000    0.714    0.000    0.000    0.000    0.000 
#    0.000    0.000    0.000    0.000    0.000    0.000 
#
# Total GULP energy -156222.894622 kJ/mol
# GULP energy per Si atom -5579.389094 kJ/mol
# Density = 1.987248 g / cm^3
# Si number density = 19.917818 Si / 1000 Ang^3
#
#
#
# Elastic Constant Matrix: (Units=GPa)
#
#
# Indices 1 2 3 4 5 6 
#
# 1 37.0885 5.5843 17.9305 0.0000 36.0192 0.0000
# 2 5.5843 40.7584 19.9269 0.0000 17.8031 0.0000
# 3 17.9305 19.9269 76.5315 0.0000 36.2699 0.0000
# 4 0.0000 0.0000 0.0000 21.7127 0.0000 1.9999
# 5 36.0192 17.8031 36.2699 0.0000 35.7526 0.0000
# 6 0.0000 0.0000 0.0000 1.9999 0.0000 29.1173
#
#
#
# Elastic Compliance Matrix: (Units=1/GPa)
#
#
# Indices 1 2 3 4 5 6 
#
# 1 -0.082942 -0.029930 -0.037438 0.000000 0.136444 0.000000
# 2 -0.029930 0.020640 -0.014987 0.000000 0.035079 0.000000
# 3 -0.037438 -0.014987 0.008336 0.000000 0.036723 0.000000
# 4 0.000000 0.000000 0.000000 0.046349 0.000000 -0.003183
# 5 0.136444 0.035079 0.036723 0.000000 -0.164214 0.000000
# 6 0.000000 0.000000 0.000000 -0.003183 0.000000 0.034562
#
#
# Mechanical properties :
#
#
# Convention : Reuss Voigt Hill
#
# Bulk Modulus (GPa) = -4.57297 26.80687 11.11695
# Shear Modulus (GPa) = -110.01332 24.71231 -42.65050
#
# Velocity S-wave (km/s) = -7.44000 3.52620 -4.63246
# Velocity P-wave (km/s) = 8.72385 5.48331 4.79786
#
# Compressibility (1/GPa) = -0.21867605
#
# Stress axis : x y z
#
# Youngs Moduli (GPa) = -12.05668 48.44927 119.96064
#
# Poissons Ratio (x) = 1.45011 4.49111
# Poissons Ratio (y) = -0.36086 1.79781
# Poissons Ratio (z) = -0.45138 0.72609
#
# Static dielectric constant tensor:
#      x y z
#    x 1.678870 0.000000 0.046220 
#    y 0.000000 1.651070 0.000000 
#    z 0.046220 0.000000 1.757690 
# 
# From -- ./inp_files/70784.got.cif
#   From: 2010.05.17/outbox.ucp.g08.bks.cvg/sg11_36_cif.got.tgz:70784.got - 2010.06.11 11:38:39.
