data_PCOD9168122
_publ_section_title
;
Structure prediction by ZEFSAII (Michael W. Deem and Ramdas Pophale) SiO2 
 PCOD9168122
Probable space group: P 21/M
;
_chemical_formula_sum "Si O2"
_cell_formula_units_Z 28
_cell_length_a 27.000000
_cell_length_b 9.000000
_cell_length_c 9.000000
_cell_angle_alpha 90.000000
_cell_angle_beta 140.000000
_cell_angle_gamma 90.000000
_cell_volume 1405.776502
_symmetry_space_group_name_H-M "P 21/M"
_symmetry_group_IT_number 11
_symmetry_cell_setting 'monoclinic'
loop_
_space_group_symop_operation_xyz
x,y,z
-x,1/2+y,-z
-x,-y,-z
x,1/2-y,z
loop_
_atom_site_type_symbol
_atom_site_label
_atom_site_fract_x
_atom_site_fract_y
_atom_site_fract_z
Si Si1 0.684067 0.074479 0.476002
Si Si2 0.872046 0.424541 0.400381
Si Si3 0.597891 0.922773 0.801612
Si Si4 0.843119 0.074106 0.998655
Si Si5 0.032119 0.424006 0.923433
Si Si6 0.445312 0.928281 0.602884
Si Si7 0.247885 0.078232 0.661568
O O1 0.674802 0.250000 0.420950
O O2 0.605318 0.016713 0.373343
O O3 0.717326 0.995571 0.406461
O O4 0.752982 0.059416 0.753880
O O5 0.850451 0.250000 0.351912
O O6 0.857692 0.482290 0.200026
O O7 0.823893 0.501535 0.421564
O O8 0.961803 0.436800 0.645460
O O9 0.580152 0.750000 0.724403
O O10 0.535146 0.969873 0.783373
O O11 0.590358 0.017272 0.635074
O O12 0.682497 0.930376 0.061068
O O13 0.862572 0.250000 0.039857
O O14 0.894037 0.996606 0.987271
O O15 0.046589 0.250000 0.986304
O O16 0.000000 0.500000 0.000000
O O17 0.440986 0.750000 0.601675
O O18 0.229630 0.250000 0.588684
#
# Coordination Sequence:
#
# PCOD9168122 Si02
#       7
#     4   4   4   4   4   4   4
#     4  10  21  36  55  79 107 142 183 223 265 319
#     4  10  22  40  60  81 107 142 184 224 264 319
#     4   9  19  35  54  80 111 140 177 225 271 317
#     4  10  21  38  59  82 108 139 180 227 269 315
#     4  11  23  38  58  84 113 144 178 219 268 321
#     4   9  18  35  58  80 105 142 184 222 265 320
#     4  11  23  36  53  80 113 145 178 222 273 320
#
# _framework density 19.917818
#
# number of rings (size 3 to 8) (size 9 to 14) (size 15 to 20)
#    0.000    2.000    0.000    3.000    0.000    9.143 
#    0.000    0.000    0.000    0.000    0.000    0.000 
#    0.000    0.000    0.000    0.000    0.000    0.000 
#
# Total GULP energy -156277.542174 kJ/mol
# GULP energy per Si atom -5581.340792 kJ/mol
# Density = 1.987248 g / cm^3
# Si number density = 19.917818 Si / 1000 Ang^3
#
#
#
# Elastic Constant Matrix: (Units=GPa)
#
#
# Indices 1 2 3 4 5 6 
#
# 1 109.7544 13.6234 -21.2675 0.0000 12.6528 0.0000
# 2 13.6234 29.4940 -4.5621 0.0000 8.1999 0.0000
# 3 -21.2675 -4.5621 15.3546 0.0000 4.0013 0.0000
# 4 0.0000 0.0000 0.0000 20.9150 0.0000 -3.3435
# 5 12.6528 8.1999 4.0013 0.0000 31.7754 0.0000
# 6 0.0000 0.0000 0.0000 -3.3435 0.0000 34.8821
#
#
#
# Elastic Compliance Matrix: (Units=1/GPa)
#
#
# Indices 1 2 3 4 5 6 
#
# 1 0.014408 -0.000996 0.021805 0.000000 -0.008226 0.000000
# 2 -0.000996 0.039641 0.013401 0.000000 -0.011521 0.000000
# 3 0.021805 0.013401 0.105951 0.000000 -0.025483 0.000000
# 4 0.000000 0.000000 0.000000 0.048557 0.000000 0.004654
# 5 -0.008226 -0.011521 -0.025483 0.000000 0.040928 0.000000
# 6 0.000000 0.000000 0.000000 0.004654 0.000000 0.029114
#
#
# Mechanical properties :
#
#
# Convention : Reuss Voigt Hill
#
# Bulk Modulus (GPa) = 4.37788 14.46564 9.42176
# Shear Modulus (GPa) = 17.46305 28.63509 23.04907
#
# Velocity S-wave (km/s) = 2.96422 3.79576 3.40547
# Velocity P-wave (km/s) = 3.73071 5.14673 4.49483
#
# Compressibility (1/GPa) = 0.22842084
#
# Stress axis : x y z
#
# Youngs Moduli (GPa) = 69.40432 25.22646 9.43834
#
# Poissons Ratio (x) = 0.02511 -0.20580
# Poissons Ratio (y) = 0.06910 -0.12649
# Poissons Ratio (z) = -1.51334 -0.33807
#
# Static dielectric constant tensor:
#      x y z
#    x 1.677930 0.000000 0.007860 
#    y 0.000000 1.693670 0.000000 
#    z 0.007860 0.000000 1.723330 
# 
# From -- ./inp_files/28621.got.cif
#   From: 2010.05.17/outbox.ucp.g08.bks.cvg/sg11_15_cif.got.tgz:28621.got - 2010.06.11 11:38:39.
