data_PCOD9168362
_publ_section_title
;
Structure prediction by ZEFSAII (Michael W. Deem and Ramdas Pophale) SiO2 
 PCOD9168362
Probable space group: C 2/M
;
_chemical_formula_sum "Si O2"
_cell_formula_units_Z 48
_cell_length_a 14.714050
_cell_length_b 13.775312
_cell_length_c 10.175556
_cell_angle_alpha 90.000000
_cell_angle_beta 87.332642
_cell_angle_gamma 90.000000
_cell_volume 2060.255247
_symmetry_space_group_name_H-M "C 2/M"
_symmetry_group_IT_number 12
_symmetry_cell_setting 'monoclinic'
loop_
_space_group_symop_operation_xyz
x,y,z
-x,y,-z
-x,-y,-z
x,-y,z
1/2+x,1/2+y,z
1/2-x,1/2+y,-z
1/2-x,1/2-y,-z
1/2+x,1/2-y,z
loop_
_atom_site_type_symbol
_atom_site_label
_atom_site_fract_x
_atom_site_fract_y
_atom_site_fract_z
Si Si1 0.381136 0.615551 0.420484
Si Si2 0.595402 0.114899 0.429865
Si Si3 0.349276 0.385506 0.009866
Si Si4 0.515258 0.384118 0.208376
Si Si5 0.752930 0.387093 0.353012
Si Si6 0.267387 0.804469 0.772202
O O1 0.392224 0.500000 0.428458
O O2 0.472765 0.654337 0.347124
O O3 0.339253 0.642849 0.563099
O O4 0.300525 0.637389 0.322943
O O5 0.500000 0.145771 0.500000
O O6 0.667803 0.123923 0.544344
O O7 0.635504 0.167709 0.298103
O O8 0.588452 0.000000 0.398161
O O9 0.333530 0.500000 0.993823
O O10 0.431616 0.375540 0.110561
O O11 0.259960 0.341040 0.082114
O O12 0.395799 0.345748 0.873048
O O13 0.531372 0.500000 0.224897
O O14 0.748845 0.500000 0.313668
O O15 0.765259 0.306360 0.243153
#
# Coordination Sequence:
#
# PCOD9168362 Si02
#       6
#     8   8   8   8   8   8
#     4   8  12  19  32  51  74  94 112 141 186 230
#     4   9  16  25  37  54  76  99 121 147 182 223
#     4   8  12  18  30  51  76  95 112 140 184 230
#     4   7  10  16  27  46  73  96 108 132 183 234
#     4   9  17  26  36  53  77 103 128 150 174 209
#     4  10  15  22  36  53  75  99 122 146 179 218
#
# _framework density 23.298083999999999
#
# number of rings (size 3 to 8) (size 9 to 14) (size 15 to 20)
#    0.000    3.500    0.000    6.500    0.000    0.000 
#    0.000    0.000    0.000    0.500    0.000    9.333 
#    0.000   48.000    0.000    9.333    0.000    3.333 
#
# Total GULP energy -133928.855634 kJ/mol
# GULP energy per Si atom -5580.368985 kJ/mol
# Density = 2.324506 g / cm^3
# Si number density = 23.298084 Si / 1000 Ang^3
#
#
#
# Elastic Constant Matrix: (Units=GPa)
#
#
# Indices 1 2 3 4 5 6 
#
# 1 99.8124 7.3856 44.7353 0.0000 -35.2027 0.0000
# 2 7.3856 76.7307 72.5129 0.0000 -26.6605 0.0000
# 3 44.7353 72.5129 117.3466 0.0000 -51.5612 0.0000
# 4 0.0000 0.0000 0.0000 97.7067 0.0000 -11.3561
# 5 -35.2027 -26.6605 -51.5612 0.0000 53.4749 0.0000
# 6 0.0000 0.0000 0.0000 -11.3561 0.0000 -0.1649
#
#
#
# Elastic Compliance Matrix: (Units=1/GPa)
#
#
# Indices 1 2 3 4 5 6 
#
# 1 0.015409 0.008753 -0.008516 0.000000 0.006295 0.000000
# 2 0.008753 0.037184 -0.027131 0.000000 -0.001860 0.000000
# 3 -0.008516 -0.027131 0.034923 0.000000 0.014540 0.000000
# 4 0.000000 0.000000 0.000000 0.001137 0.000000 -0.078277
# 5 0.006295 -0.001860 0.014540 0.000000 0.035937 0.000000
# 6 0.000000 0.000000 0.000000 -0.078277 0.000000 -0.673491
#
#
# Mechanical properties :
#
#
# Convention : Reuss Voigt Hill
#
# Bulk Modulus (GPa) = 29.65198 60.35080 45.00139
# Shear Modulus (GPa) = -10.33333 41.48705 15.57686
#
# Velocity S-wave (km/s) = -2.10829 4.22442 2.58852
# Velocity P-wave (km/s) = 2.61310 7.05367 5.31896
#
# Compressibility (1/GPa) = 0.03372456
#
# Stress axis : x y z
#
# Youngs Moduli (GPa) = 64.89917 26.89353 28.63483
#
# Poissons Ratio (x) = -0.23539 0.24387
# Poissons Ratio (y) = -0.56804 0.77690
# Poissons Ratio (z) = 0.55271 0.72965
#
# Static dielectric constant tensor:
#      x y z
#    x 1.945780 0.000000 -0.044900 
#    y 0.000000 1.855830 0.000000 
#    z -0.044900 0.000000 1.987320 
# 
# From -- ./inp_files/155259.got.cif
#   From: 2010.05.17/outbox.cif.g08.bks.cpg/sg12_78_cif.got.tgz:155259.got - 2010.06.03 13:09:07.
