data_PCOD9168202
_publ_section_title
;
Structure prediction by ZEFSAII (Michael W. Deem and Ramdas Pophale) SiO2 
 PCOD9168202
Probable space group: P 21/M
;
_chemical_formula_sum "Si O2"
_cell_formula_units_Z 28
_cell_length_a 9.000000
_cell_length_b 15.000000
_cell_length_c 21.000000
_cell_angle_alpha 90.000000
_cell_angle_beta 150.000000
_cell_angle_gamma 90.000000
_cell_volume 1417.500000
_symmetry_space_group_name_H-M "P 21/M"
_symmetry_group_IT_number 11
_symmetry_cell_setting 'monoclinic'
loop_
_space_group_symop_operation_xyz
x,y,z
-x,1/2+y,-z
-x,-y,-z
x,1/2-y,z
loop_
_atom_site_type_symbol
_atom_site_label
_atom_site_fract_x
_atom_site_fract_y
_atom_site_fract_z
Si Si1 0.734555 0.019614 0.451905
Si Si2 0.668410 0.351900 0.663764
Si Si3 0.257908 0.642749 0.067542
Si Si4 0.165173 0.143831 0.206580
Si Si5 0.911832 0.856169 0.061522
Si Si6 0.314506 0.938291 0.881023
Si Si7 0.059060 0.083569 0.698205
O O1 0.461096 0.083526 0.326577
O O2 0.898827 0.065489 0.572431
O O3 0.581817 0.926932 0.418735
O O4 0.000000 0.000000 0.500000
O O5 0.562784 0.250000 0.635160
O O6 0.922568 0.372624 0.810497
O O7 0.838817 0.357788 0.659810
O O8 0.257216 0.750000 0.067657
O O9 0.600748 0.616903 0.183623
O O10 0.124338 0.608946 0.084519
O O11 0.021034 0.615972 0.925533
O O12 0.236326 0.250000 0.230128
O O13 0.912779 0.126274 0.166637
O O14 0.889764 0.750000 0.045777
O O15 0.580057 0.893195 0.940141
O O16 0.107818 0.994799 0.757682
O O17 0.500000 0.000000 0.000000
#
# Coordination Sequence:
#
# PCOD9168202 Si02
#       7
#     4   4   4   4   4   4   4
#     4  12  28  47  65  99 135 178 226 276 339 405
#     4  11  23  44  69  95 132 177 225 276 330 399
#     4  10  22  40  66  99 130 171 220 270 332 395
#     4  11  24  44  68  96 135 177 224 277 332 396
#     4  10  21  38  63  97 130 165 217 272 330 391
#     4  12  21  38  65  95 131 164 215 273 328 387
#     4  12  24  41  67  96 131 172 220 272 331 399
#
# _framework density 19.753086
#
# number of rings (size 3 to 8) (size 9 to 14) (size 15 to 20)
#    0.000    0.857    4.286    2.143    2.000    4.571 
#    0.000    0.714    0.000    0.000    0.000    0.000 
#    0.000    0.000    0.000    0.000    0.000    0.000 
#
# Total GULP energy -156400.812923 kJ/mol
# GULP energy per Si atom -5585.743319 kJ/mol
# Density = 1.970813 g / cm^3
# Si number density = 19.753086 Si / 1000 Ang^3
#
#
#
# Elastic Constant Matrix: (Units=GPa)
#
#
# Indices 1 2 3 4 5 6 
#
# 1 129.5070 47.2146 39.4533 0.0000 18.6059 0.0000
# 2 47.2146 70.1714 60.6245 0.0000 5.6529 0.0000
# 3 39.4533 60.6245 123.6735 0.0000 9.1431 0.0000
# 4 0.0000 0.0000 0.0000 32.3034 0.0000 7.6824
# 5 18.6059 5.6529 9.1431 0.0000 40.9959 0.0000
# 6 0.0000 0.0000 0.0000 7.6824 0.0000 31.2033
#
#
#
# Elastic Compliance Matrix: (Units=1/GPa)
#
#
# Indices 1 2 3 4 5 6 
#
# 1 0.010844 -0.007356 0.000443 0.000000 -0.004006 0.000000
# 2 -0.007356 0.029731 -0.012375 0.000000 0.001999 0.000000
# 3 0.000443 -0.012375 0.014132 0.000000 -0.001646 0.000000
# 4 0.000000 0.000000 0.000000 0.032882 0.000000 -0.008096
# 5 -0.004006 0.001999 -0.001646 0.000000 0.026302 0.000000
# 6 0.000000 0.000000 0.000000 -0.008096 0.000000 0.034041
#
#
# Mechanical properties :
#
#
# Convention : Reuss Voigt Hill
#
# Bulk Modulus (GPa) = 61.99474 68.65964 65.32719
# Shear Modulus (GPa) = 26.05707 32.63782 29.34744
#
# Velocity S-wave (km/s) = 3.63594 4.06925 3.85868
# Velocity P-wave (km/s) = 7.00569 7.54405 7.27985
#
# Compressibility (1/GPa) = 0.01613040
#
# Stress axis : x y z
#
# Youngs Moduli (GPa) = 92.21600 33.63514 70.75891
#
# Poissons Ratio (x) = 0.24743 -0.03133
# Poissons Ratio (y) = 0.67836 0.87564
# Poissons Ratio (z) = -0.04083 0.41624
#
# Static dielectric constant tensor:
#      x y z
#    x 1.743250 0.000000 -0.025330 
#    y 0.000000 1.732840 0.000000 
#    z -0.025330 0.000000 1.645730 
# 
# From -- ./inp_files/26904.got.cif
#   From: 2010.05.17/outbox.ucp.g08.bks.cvg/sg11_14_cif.got.tgz:26904.got - 2010.06.11 11:38:39.
