data_PCOD9168813
_publ_section_title
;
Structure prediction by ZEFSAII (Michael W. Deem and Ramdas Pophale) SiO2 
 PCOD9168813
Probable space group: C 2/M
;
_chemical_formula_sum "Si O2"
_cell_formula_units_Z 48
_cell_length_a 5.115158
_cell_length_b 22.912167
_cell_length_c 21.620382
_cell_angle_alpha 90.000000
_cell_angle_beta 88.565266
_cell_angle_gamma 90.000000
_cell_volume 2533.100421
_symmetry_space_group_name_H-M "C 2/M"
_symmetry_group_IT_number 12
_symmetry_cell_setting 'monoclinic'
loop_
_space_group_symop_operation_xyz
x,y,z
-x,y,-z
-x,-y,-z
x,-y,z
1/2+x,1/2+y,z
1/2-x,1/2+y,-z
1/2-x,1/2-y,-z
1/2+x,1/2-y,z
loop_
_atom_site_type_symbol
_atom_site_label
_atom_site_fract_x
_atom_site_fract_y
_atom_site_fract_z
Si Si1 0.593978 0.433215 0.325370
Si Si2 0.752967 0.315988 0.971084
Si Si3 0.231566 0.402646 0.539459
Si Si4 0.087256 0.637853 0.287542
Si Si5 0.506454 0.214186 0.402548
Si Si6 0.236100 0.211207 0.827167
O O1 0.551664 0.500000 0.306683
O O2 0.690285 0.431846 0.396097
O O3 0.326756 0.396553 0.318951
O O4 0.830324 0.402417 0.286819
O O5 0.757589 0.310048 0.897807
O O6 0.500000 0.345773 0.000000
O O7 0.750000 0.250000 0.000000
O O8 0.000000 0.345629 0.000000
O O9 0.500000 0.396817 0.500000
O O10 0.104896 0.340923 0.560296
O O11 0.000000 0.431247 0.500000
O O12 0.010214 0.692951 0.331332
O O13 0.187850 0.661786 0.221959
O O14 0.300339 0.265976 0.415248
O O15 0.447138 0.263299 0.818475
#
# Coordination Sequence:
#
# PCOD9168813 Si02
#       6
#     8   8   8   8   8   8
#     4  11  24  44  63  77 106 139 173 248 307 329
#     4  10  16  29  44  73 116 162 187 212 245 307
#     4  11  23  38  58  86 109 134 184 228 270 351
#     4  11  23  38  56  85 108 141 199 224 269 339
#     4  11  21  36  54  75 115 151 174 211 257 315
#     4  12  20  31  54  81 121 163 184 218 259 314
#
# _framework density 18.949112
#
# number of rings (size 3 to 8) (size 9 to 14) (size 15 to 20)
#    0.000    1.000    3.333    7.500    0.000    2.667 
#    0.000    0.000    0.000    0.000    0.000    0.000 
#    0.000   13.333    0.000    0.000    0.000    0.000 
#
# Total GULP energy -134048.882978 kJ/mol
# GULP energy per Si atom -5585.370124 kJ/mol
# Density = 1.890598 g / cm^3
# Si number density = 18.949112 Si / 1000 Ang^3
#
#
#
# Elastic Constant Matrix: (Units=GPa)
#
#
# Indices 1 2 3 4 5 6 
#
# 1 118.2541 11.6748 13.5417 0.0000 -21.2645 0.0000
# 2 11.6748 49.5587 19.9259 0.0000 -5.2557 0.0000
# 3 13.5417 19.9259 111.2410 0.0000 -14.6517 0.0000
# 4 0.0000 0.0000 0.0000 -47.7654 0.0000 -11.1201
# 5 -21.2645 -5.2557 -14.6517 0.0000 30.5940 0.0000
# 6 0.0000 0.0000 0.0000 -11.1201 0.0000 -1.1562
#
#
#
# Elastic Compliance Matrix: (Units=1/GPa)
#
#
# Indices 1 2 3 4 5 6 
#
# 1 0.009790 -0.001597 -0.000049 0.000000 0.006507 0.000000
# 2 -0.001597 0.022119 -0.003643 0.000000 0.000945 0.000000
# 3 -0.000049 -0.003643 0.010205 0.000000 0.004227 0.000000
# 4 0.000000 0.000000 0.000000 0.016896 0.000000 -0.162503
# 5 0.006507 0.000945 0.004227 0.000000 0.039396 0.000000
# 6 0.000000 0.000000 0.000000 -0.162503 0.000000 0.698019
#
#
# Mechanical properties :
#
#
# Convention : Reuss Voigt Hill
#
# Bulk Modulus (GPa) = 31.70908 41.03760 36.37334
# Shear Modulus (GPa) = 6.11611 11.92858 9.02234
#
# Velocity S-wave (km/s) = 1.79852 2.51172 2.18442
# Velocity P-wave (km/s) = 4.59162 5.48775 5.05957
#
# Compressibility (1/GPa) = 0.03153671
#
# Stress axis : x y z
#
# Youngs Moduli (GPa) = 102.14911 45.20943 97.99300
#
# Poissons Ratio (x) = 0.07218 0.00477
# Poissons Ratio (y) = 0.16309 0.35701
# Poissons Ratio (z) = 0.00498 0.16471
#
# Static dielectric constant tensor:
#      x y z
#    x 1.671690 0.000000 0.010340 
#    y 0.000000 1.632470 0.000000 
#    z 0.010340 0.000000 1.662250 
# 
# From -- ./inp_files/297922.got.cif
#   From: 2010.05.17/outbox.cif.g08.bks.cpg/sg12_149_cif.got.tgz:297922.got - 2010.06.03 13:09:07.
