data_PCOD9168647
_publ_section_title
;
Structure prediction by ZEFSAII (Michael W. Deem and Ramdas Pophale) SiO2 
 PCOD9168647
Probable space group: C 2/M
;
_chemical_formula_sum "Si O2"
_cell_formula_units_Z 48
_cell_length_a 5.534290
_cell_length_b 27.639895
_cell_length_c 24.758145
_cell_angle_alpha 90.000000
_cell_angle_beta 53.426727
_cell_angle_gamma 90.000000
_cell_volume 3041.470456
_symmetry_space_group_name_H-M "C 2/M"
_symmetry_group_IT_number 12
_symmetry_cell_setting 'monoclinic'
loop_
_space_group_symop_operation_xyz
x,y,z
-x,y,-z
-x,-y,-z
x,-y,z
1/2+x,1/2+y,z
1/2-x,1/2+y,-z
1/2-x,1/2-y,-z
1/2+x,1/2-y,z
loop_
_atom_site_type_symbol
_atom_site_label
_atom_site_fract_x
_atom_site_fract_y
_atom_site_fract_z
Si Si1 0.788116 0.720552 0.207403
Si Si2 0.355659 0.697022 0.365347
Si Si3 0.000000 0.720466 0.000000
Si Si4 0.122462 0.351993 0.897920
Si Si5 0.500000 0.400181 0.000000
Si Si6 0.209949 0.807292 0.420000
Si Si7 0.187337 0.946320 0.076324
O O1 0.582621 0.754891 0.195579
O O2 0.570922 0.705942 0.285839
O O3 0.866387 0.673672 0.161081
O O4 0.260950 0.750175 0.400391
O O5 0.540683 0.672907 0.389514
O O6 0.043364 0.673022 0.388256
O O7 0.197631 0.688215 0.932468
O O8 0.250000 0.750000 0.000000
O O9 0.303308 0.401800 0.883379
O O10 0.787005 0.366270 0.960434
O O11 0.538132 0.433215 0.941997
O O12 0.000000 0.812028 0.500000
O O13 0.144015 0.000000 0.104392
O O14 0.500000 0.946285 0.000000
#
# Coordination Sequence:
#
# PCOD9168647 Si02
#       7
#     8   8   4   8   4   8   8
#     4  12  23  36  48  66  97 137 171 196 234 277
#     4  10  16  29  40  62  88 119 159 199 223 279
#     4  12  23  36  48  68  95 123 164 201 236 264
#     4  11  23  34  52  69  93 123 164 203 246 298
#     4  10  18  36  51  74  92 111 156 205 257 302
#     4  10  16  26  44  64  84 113 159 209 235 257
#     4   9  18  34  55  74  92 110 144 206 265 306
#
# _framework density 15.781838
#
# number of rings (size 3 to 8) (size 9 to 14) (size 15 to 20)
#    0.000    1.500    5.833    4.250    2.333    0.667 
#    0.000    0.000    0.000    0.000    0.000    0.000 
#    0.000    0.000    0.000    0.000    0.000    9.167 
#
# Total GULP energy -133655.217860 kJ/mol
# GULP energy per Si atom -5568.967411 kJ/mol
# Density = 1.574592 g / cm^3
# Si number density = 15.781838 Si / 1000 Ang^3
#
#
#
# Elastic Constant Matrix: (Units=GPa)
#
#
# Indices 1 2 3 4 5 6 
#
# 1 116.3213 30.7945 18.7300 0.0000 14.2719 0.0000
# 2 30.7945 72.2564 28.9713 0.0000 14.0586 0.0000
# 3 18.7300 28.9713 57.0411 0.0000 17.3268 0.0000
# 4 0.0000 0.0000 0.0000 7.1470 0.0000 3.1664
# 5 14.2719 14.0586 17.3268 0.0000 24.6019 0.0000
# 6 0.0000 0.0000 0.0000 3.1664 0.0000 11.3011
#
#
#
# Elastic Compliance Matrix: (Units=1/GPa)
#
#
# Indices 1 2 3 4 5 6 
#
# 1 0.010004 -0.003378 -0.000500 0.000000 -0.003521 0.000000
# 2 -0.003378 0.018962 -0.007411 0.000000 -0.003657 0.000000
# 3 -0.000500 -0.007411 0.025551 0.000000 -0.013471 0.000000
# 4 0.000000 0.000000 0.000000 0.159748 0.000000 -0.044759
# 5 -0.003521 -0.003657 -0.013471 0.000000 0.054267 0.000000
# 6 0.000000 0.000000 0.000000 -0.044759 0.000000 0.101028
#
#
# Mechanical properties :
#
#
# Convention : Reuss Voigt Hill
#
# Bulk Modulus (GPa) = 31.30882 44.73450 38.02166
# Shear Modulus (GPa) = 12.41364 19.75155 16.08259
#
# Velocity S-wave (km/s) = 2.80764 3.54154 3.19573
# Velocity P-wave (km/s) = 5.51290 6.71792 6.14502
#
# Compressibility (1/GPa) = 0.03193988
#
# Stress axis : x y z
#
# Youngs Moduli (GPa) = 99.96391 52.73659 39.13729
#
# Poissons Ratio (x) = 0.17814 0.01955
# Poissons Ratio (y) = 0.33768 0.29004
# Poissons Ratio (z) = 0.04994 0.39083
#
# Static dielectric constant tensor:
#      x y z
#    x 1.807390 0.000000 0.007240 
#    y 0.000000 1.536270 0.000000 
#    z 0.007240 0.000000 1.516050 
# 
# From -- ./inp_files/331518.got.cif
#   From: 2010.05.17/outbox.cif.g08.bks.cpg/sg12_166_cif.got.tgz:331518.got - 2010.06.03 13:09:07.
