data_PCOD9168578
_publ_section_title
;
Structure prediction by ZEFSAII (Michael W. Deem and Ramdas Pophale) SiO2 
 PCOD9168578
Probable space group: C 2/M
;
_chemical_formula_sum "Si O2"
_cell_formula_units_Z 56
_cell_length_a 10.998850
_cell_length_b 16.273057
_cell_length_c 15.282853
_cell_angle_alpha 90.000000
_cell_angle_beta 122.402899
_cell_angle_gamma 90.000000
_cell_volume 2309.500541
_symmetry_space_group_name_H-M "C 2/M"
_symmetry_group_IT_number 12
_symmetry_cell_setting 'monoclinic'
loop_
_space_group_symop_operation_xyz
x,y,z
-x,y,-z
-x,-y,-z
x,-y,z
1/2+x,1/2+y,z
1/2-x,1/2+y,-z
1/2-x,1/2-y,-z
1/2+x,1/2-y,z
loop_
_atom_site_type_symbol
_atom_site_label
_atom_site_fract_x
_atom_site_fract_y
_atom_site_fract_z
Si Si1 0.916701 0.408818 0.560437
Si Si2 0.098021 0.360520 0.119960
Si Si3 0.852841 0.851916 0.115757
Si Si4 0.847897 0.346963 0.131676
Si Si5 0.345606 0.680335 0.796944
Si Si6 0.063384 0.088169 0.426118
Si Si7 0.871201 0.246038 0.621358
O O1 0.962624 0.500000 0.606080
O O2 0.739765 0.413191 0.486901
O O3 0.944085 0.333808 0.636882
O O4 0.000000 0.392694 0.500000
O O5 0.257138 0.389047 0.156986
O O6 0.109509 0.260627 0.128550
O O7 0.001777 0.385406 0.165021
O O8 0.000000 0.382515 0.000000
O O9 0.867569 0.752874 0.137980
O O10 0.016865 0.876952 0.166765
O O11 0.762798 0.863471 0.991445
O O12 0.771322 0.367442 0.192454
O O13 0.303849 0.721914 0.688356
O O14 0.022823 0.171762 0.362122
O O15 0.000000 0.094206 0.500000
O O16 0.014409 0.000000 0.372282
O O17 0.750000 0.250000 0.500000
#
# Coordination Sequence:
#
# PCOD9168578 Si02
#       7
#     8   8   8   8   8   8   8
#     4   9  18  36  57  72  94 132 175 219 261 300
#     4   8  14  26  40  59  91 126 157 200 252 301
#     4   8  13  23  39  60  87 122 160 199 249 298
#     4   8  13  23  40  59  86 124 160 196 250 301
#     4  10  16  25  40  62  95 127 160 208 245 286
#     4   9  18  36  57  72  94 132 175 219 261 300
#     4  10  21  35  48  77 108 138 178 214 254 308
#
# _framework density 24.247665999999999
#
# number of rings (size 3 to 8) (size 9 to 14) (size 15 to 20)
#    0.000    3.143    0.000    3.429    0.000    0.000 
#   30.857    0.000    0.000    0.000    0.000    0.000 
#    0.000   10.286    0.000   56.571    0.000    8.000 
#
# Total GULP energy -156031.223616 kJ/mol
# GULP energy per Si atom -5572.543701 kJ/mol
# Density = 2.419248 g / cm^3
# Si number density = 24.247666 Si / 1000 Ang^3
#
#
#
# Elastic Constant Matrix: (Units=GPa)
#
#
# Indices 1 2 3 4 5 6 
#
# 1 250.7882 9.6055 72.5661 0.0000 -38.1638 0.0000
# 2 9.6055 105.2809 26.5780 0.0000 -20.8820 0.0000
# 3 72.5661 26.5780 81.6152 0.0000 -19.2442 0.0000
# 4 0.0000 0.0000 0.0000 -2.4520 0.0000 -3.1147
# 5 -38.1638 -20.8820 -19.2442 0.0000 45.8230 0.0000
# 6 0.0000 0.0000 0.0000 -3.1147 0.0000 8.5404
#
#
#
# Elastic Compliance Matrix: (Units=1/GPa)
#
#
# Indices 1 2 3 4 5 6 
#
# 1 0.005866 0.001378 -0.004844 0.000000 0.003479 0.000000
# 2 0.001378 0.011258 -0.003786 0.000000 0.004688 0.000000
# 3 -0.004844 -0.003786 0.018240 0.000000 0.001901 0.000000
# 4 0.000000 0.000000 0.000000 -0.278709 0.000000 -0.101647
# 5 0.003479 0.004688 0.001901 0.000000 0.027655 0.000000
# 6 0.000000 0.000000 0.000000 -0.101647 0.000000 0.080019
#
#
# Mechanical properties :
#
#
# Convention : Reuss Voigt Hill
#
# Bulk Modulus (GPa) = 47.93707 72.79817 60.36762
# Shear Modulus (GPa) = -43.77781 32.31125 -5.73328
#
# Velocity S-wave (km/s) = -4.25366 3.65437 -1.53935
# Velocity P-wave (km/s) = 2.07657 6.92054 4.66807
#
# Compressibility (1/GPa) = 0.02086068
#
# Stress axis : x y z
#
# Youngs Moduli (GPa) = 170.48735 88.82380 54.82388
#
# Poissons Ratio (x) = -0.12236 0.26554
# Poissons Ratio (y) = -0.23486 0.20755
# Poissons Ratio (z) = 0.82576 0.33626
#
# Static dielectric constant tensor:
#      x y z
#    x 2.096300 0.000000 0.070040 
#    y 0.000000 1.941400 0.000000 
#    z 0.070040 0.000000 2.035500 
# 
# From -- ./inp_files/206249.got.cif
#   From: 2010.05.17/outbox.cif.g08.bks.cpg/sg12_104_cif.got.tgz:206249.got - 2010.06.03 13:09:07.
