data_PCOD9168416
_publ_section_title
;
Structure prediction by ZEFSAII (Michael W. Deem and Ramdas Pophale) SiO2 
 PCOD9168416
Probable space group: C 2/M
;
_chemical_formula_sum "Si O2"
_cell_formula_units_Z 56
_cell_length_a 17.606457
_cell_length_b 26.158406
_cell_length_c 13.820537
_cell_angle_alpha 90.000000
_cell_angle_beta 152.625706
_cell_angle_gamma 90.000000
_cell_volume 2926.701762
_symmetry_space_group_name_H-M "C 2/M"
_symmetry_group_IT_number 12
_symmetry_cell_setting 'monoclinic'
loop_
_space_group_symop_operation_xyz
x,y,z
-x,y,-z
-x,-y,-z
x,-y,z
1/2+x,1/2+y,z
1/2-x,1/2+y,-z
1/2-x,1/2-y,-z
1/2+x,1/2-y,z
loop_
_atom_site_type_symbol
_atom_site_label
_atom_site_fract_x
_atom_site_fract_y
_atom_site_fract_z
Si Si1 0.145182 0.164643 0.042348
Si Si2 0.440755 0.266680 0.673880
Si Si3 0.595439 0.844292 0.837756
Si Si4 0.631073 0.674666 0.716051
Si Si5 0.041802 0.556308 0.388905
Si Si6 0.283334 0.444452 0.840935
Si Si7 0.687391 0.751620 0.228076
O O1 0.996741 0.197076 0.826241
O O2 0.299867 0.165170 0.142766
O O3 0.107796 0.105310 0.017024
O O4 0.196787 0.193477 0.199148
O O5 0.512326 0.209800 0.767066
O O6 0.544330 0.294171 0.704135
O O7 0.262264 0.261544 0.419054
O O8 0.472108 0.891693 0.686967
O O9 0.727124 0.856900 0.070617
O O10 0.500000 0.645602 0.500000
O O11 0.709134 0.715956 0.732193
O O12 0.052422 0.500000 0.353112
O O13 0.191267 0.559967 0.634024
O O14 0.870288 0.555965 0.256896
O O15 0.365789 0.500000 0.941685
O O16 0.500000 0.768642 0.000000
#
# Coordination Sequence:
#
# PCOD9168416 Si02
#       7
#     8   8   8   8   8   8   8
#     4  10  17  29  44  66  93 118 154 181 217 269
#     4  10  18  29  48  66  87 121 154 183 219 265
#     4  10  15  27  47  65  86 121 153 187 216 258
#     4   9  17  30  44  63  88 118 152 183 220 266
#     4   8  14  22  37  66  94 115 141 178 227 266
#     4   8  14  24  40  63  91 118 143 180 221 261
#     4  11  21  30  42  64  97 123 144 182 228 267
#
# _framework density 19.134167999999999
#
# number of rings (size 3 to 8) (size 9 to 14) (size 15 to 20)
#    0.000    2.571    2.857    2.571    0.000    1.714 
#    0.000    0.000    0.000    0.857    0.000    3.000 
#    0.000    1.143    0.000    0.000    0.000    0.000 
#
# Total GULP energy -156091.490830 kJ/mol
# GULP energy per Si atom -5574.696101 kJ/mol
# Density = 1.909062 g / cm^3
# Si number density = 19.134168 Si / 1000 Ang^3
#
#
#
# Elastic Constant Matrix: (Units=GPa)
#
#
# Indices 1 2 3 4 5 6 
#
# 1 40.7226 17.0563 19.8201 0.0000 -17.1303 0.0000
# 2 17.0563 144.4342 52.0814 0.0000 -14.8310 0.0000
# 3 19.8201 52.0814 86.8960 0.0000 -16.3541 0.0000
# 4 0.0000 0.0000 0.0000 27.0470 0.0000 -5.8250
# 5 -17.1303 -14.8310 -16.3541 0.0000 29.7261 0.0000
# 6 0.0000 0.0000 0.0000 -5.8250 0.0000 -13.6845
#
#
#
# Elastic Compliance Matrix: (Units=1/GPa)
#
#
# Indices 1 2 3 4 5 6 
#
# 1 0.034012 -0.000802 -0.004087 0.000000 0.016952 0.000000
# 2 -0.000802 0.008926 -0.004926 0.000000 0.001281 0.000000
# 3 -0.004087 -0.004926 0.016160 0.000000 0.004078 0.000000
# 4 0.000000 0.000000 0.000000 0.033868 0.000000 -0.014416
# 5 0.016952 0.001281 0.004078 0.000000 0.046292 0.000000
# 6 0.000000 0.000000 0.000000 -0.014416 0.000000 -0.066939
#
#
# Mechanical properties :
#
#
# Convention : Reuss Voigt Hill
#
# Bulk Modulus (GPa) = 25.33642 49.99650 37.66646
# Shear Modulus (GPa) = 47.57163 20.82406 34.19785
#
# Velocity S-wave (km/s) = 4.99160 3.30255 4.23219
# Velocity P-wave (km/s) = 6.81848 6.38189 6.60380
#
# Compressibility (1/GPa) = 0.03946888
#
# Stress axis : x y z
#
# Youngs Moduli (GPa) = 29.40110 112.03197 61.88164
#
# Poissons Ratio (x) = 0.08988 0.25289
# Poissons Ratio (y) = 0.02359 0.30481
# Poissons Ratio (z) = 0.12015 0.55184
#
# Static dielectric constant tensor:
#      x y z
#    x 1.738070 0.000000 0.020370 
#    y 0.000000 1.662960 0.000000 
#    z 0.020370 0.000000 1.728590 
# 
# From -- ./inp_files/65473.got.cif
#   From: 2010.05.17/outbox.cif.g08.bks.cpg/sg12_33_cif.got.tgz:65473.got - 2010.06.03 13:09:07.
