data_PCOD9168309
_publ_section_title
;
Structure prediction by ZEFSAII (Michael W. Deem and Ramdas Pophale) SiO2 
 PCOD9168309
Probable space group: C 2/M
;
_chemical_formula_sum "Si O2"
_cell_formula_units_Z 60
_cell_length_a 5.452858
_cell_length_b 23.309017
_cell_length_c 30.765230
_cell_angle_alpha 90.000000
_cell_angle_beta 79.789791
_cell_angle_gamma 90.000000
_cell_volume 3848.361003
_symmetry_space_group_name_H-M "C 2/M"
_symmetry_group_IT_number 12
_symmetry_cell_setting 'monoclinic'
loop_
_space_group_symop_operation_xyz
x,y,z
-x,y,-z
-x,-y,-z
x,-y,z
1/2+x,1/2+y,z
1/2-x,1/2+y,-z
1/2-x,1/2-y,-z
1/2+x,1/2-y,z
loop_
_atom_site_type_symbol
_atom_site_label
_atom_site_fract_x
_atom_site_fract_y
_atom_site_fract_z
Si Si1 0.645884 0.820561 0.855162
Si Si2 0.581700 0.628569 0.418230
Si Si3 0.318104 0.309723 0.180861
Si Si4 0.000000 0.214167 0.500000
Si Si5 0.717355 0.809162 0.284908
Si Si6 0.947711 0.568760 0.552354
Si Si7 0.549146 0.212254 0.950812
Si Si8 0.318565 0.320389 0.679167
O O1 0.656941 0.751627 0.844493
O O2 0.416767 0.841180 0.833130
O O3 0.592365 0.827441 0.907743
O O4 0.919376 0.841247 0.833385
O O5 0.543247 0.675331 0.456732
O O6 0.323492 0.592684 0.425485
O O7 0.629018 0.660580 0.371331
O O8 0.825125 0.592607 0.425528
O O9 0.267305 0.296699 0.232857
O O10 0.750000 0.250000 0.500000
O O11 0.691532 0.748514 0.311491
O O12 0.455389 0.840816 0.298429
O O13 0.953979 0.840663 0.297916
O O14 0.945415 0.500000 0.554454
O O15 0.000000 0.585299 0.500000
O O16 0.302140 0.249986 0.947790
O O17 0.500000 0.185858 0.000000
#
# Coordination Sequence:
#
# PCOD9168309 Si02
#       8
#     8   8   8   4   8   8   8   8
#     4  10  14  22  31  48  56  86 114 171 206 244
#     4  12  23  39  54  80  98 125 158 180 217 273
#     4  10  16  23  38  46  69  86 138 167 196 235
#     4  12  26  36  53  74 107 134 154 176 204 246
#     4  10  19  32  40  63  80 125 143 173 204 247
#     4  11  22  41  62  79  96 117 149 198 232 254
#     4  10  16  22  28  39  59  80 109 149 215 284
#     4  10  20  30  47  59  92 110 145 165 203 249
#
# _framework density 15.591051999999999
#
# number of rings (size 3 to 8) (size 9 to 14) (size 15 to 20)
#    0.000    1.467    4.000    6.000    3.733    1.067 
#    0.000    0.000    0.000    0.000    0.000    0.000 
#    0.000    0.000    0.000    0.000    0.000    0.000 
#
# Total GULP energy -167099.558949 kJ/mol
# GULP energy per Si atom -5569.985298 kJ/mol
# Density = 1.555557 g / cm^3
# Si number density = 15.591052 Si / 1000 Ang^3
#
#
#
# Elastic Constant Matrix: (Units=GPa)
#
#
# Indices 1 2 3 4 5 6 
#
# 1 679.2420 108.1687 579.1433 0.0000 -94.1140 0.0000
# 2 108.1687 41.9543 115.5720 0.0000 -16.3960 0.0000
# 3 579.1433 115.5720 710.5982 0.0000 -103.5499 0.0000
# 4 0.0000 0.0000 0.0000 -0.0606 0.0000 0.3332
# 5 -94.1140 -16.3960 -103.5499 0.0000 45.7733 0.0000
# 6 0.0000 0.0000 0.0000 0.3332 0.0000 15.2071
#
#
#
# Elastic Compliance Matrix: (Units=1/GPa)
#
#
# Indices 1 2 3 4 5 6 
#
# 1 0.005114 -0.003118 -0.003418 0.000000 0.001665 0.000000
# 2 -0.003118 0.045096 -0.005032 0.000000 -0.001642 0.000000
# 3 -0.003418 -0.005032 0.005556 0.000000 0.003739 0.000000
# 4 0.000000 0.000000 0.000000-14.724950 0.000000 0.322678
# 5 0.001665 -0.001642 0.003739 0.000000 0.033142 0.000000
# 6 0.000000 0.000000 0.000000 0.322678 0.000000 0.058688
#
#
# Mechanical properties :
#
#
# Convention : Reuss Voigt Hill
#
# Bulk Modulus (GPa) = 30.64769 337.50693 184.07731
# Shear Modulus (GPa) = -0.34380 54.11132 26.88376
#
# Velocity S-wave (km/s) = -0.47010 5.89763 4.15698
# Velocity P-wave (km/s) = 4.40514 16.22716 11.88962
#
# Compressibility (1/GPa) = 0.03262888
#
# Stress axis : x y z
#
# Youngs Moduli (GPa) = 195.54733 22.17491 179.97563
#
# Poissons Ratio (x) = 0.06915 0.61515
# Poissons Ratio (y) = 0.60981 0.90567
# Poissons Ratio (z) = 0.66838 0.11159
#
# Static dielectric constant tensor:
#      x y z
#    x 1.502720 0.000000 0.000260 
#    y 0.000000 1.468780 0.000000 
#    z 0.000260 0.000000 1.542680 
# 
# From -- ./inp_files/355055.got.cif
#   From: 2010.05.17/outbox.cif.g08.bks.cpg/sg12_178_cif.got.tgz:355055.got - 2010.06.03 13:09:07.
