data_PCOD9168525
_publ_section_title
;
Structure prediction by ZEFSAII (Michael W. Deem and Ramdas Pophale) SiO2 
 PCOD9168525
Probable space group: C 2/M
;
_chemical_formula_sum "Si O2"
_cell_formula_units_Z 56
_cell_length_a 15.952295
_cell_length_b 8.424083
_cell_length_c 20.942453
_cell_angle_alpha 90.000000
_cell_angle_beta 53.281933
_cell_angle_gamma 90.000000
_cell_volume 2255.922152
_symmetry_space_group_name_H-M "C 2/M"
_symmetry_group_IT_number 12
_symmetry_cell_setting 'monoclinic'
loop_
_space_group_symop_operation_xyz
x,y,z
-x,y,-z
-x,-y,-z
x,-y,z
1/2+x,1/2+y,z
1/2-x,1/2+y,-z
1/2-x,1/2-y,-z
1/2+x,1/2-y,z
loop_
_atom_site_type_symbol
_atom_site_label
_atom_site_fract_x
_atom_site_fract_y
_atom_site_fract_z
Si Si1 0.365486 0.815997 0.821190
Si Si2 0.865578 0.312943 0.087474
Si Si3 0.313233 0.688227 0.384373
Si Si4 0.129085 0.188938 0.051090
Si Si5 0.402789 0.681692 0.674206
Si Si6 0.846004 0.687034 0.235895
Si Si7 0.592508 0.185131 0.528810
O O1 0.259741 0.712822 0.862867
O O2 0.419545 0.765319 0.862788
O O3 0.422413 0.787067 0.728447
O O4 0.335753 0.000000 0.840357
O O5 0.887003 0.500000 0.078790
O O6 0.887299 0.247931 0.148922
O O7 0.909167 0.242333 0.001562
O O8 0.318331 0.500000 0.395761
O O9 0.365476 0.723980 0.292916
O O10 0.363116 0.782787 0.420040
O O11 0.190259 0.735199 0.440729
O O12 0.126308 0.000000 0.056591
O O13 0.250000 0.250000 0.000000
O O14 0.423633 0.500000 0.682714
O O15 0.280835 0.696353 0.713397
O O16 0.481388 0.728761 0.582059
O O17 0.873321 0.500000 0.229336
O O18 0.573988 0.000000 0.526836
#
# Coordination Sequence:
#
# PCOD9168525 Si02
#       7
#     8   8   8   8   8   8   8
#     4  10  17  26  41  63  93 128 163 201 245 291
#     4   9  16  27  41  62  93 128 164 201 244 291
#     4  10  21  36  55  76  99 129 166 207 247 295
#     4  10  16  23  37  59  89 126 164 201 242 288
#     4  10  20  34  51  74 103 133 166 205 251 298
#     4   9  19  33  50  73 103 135 165 204 251 298
#     4  10  21  37  55  75  99 129 166 206 249 297
#
# _framework density 24.823550000000001
#
# number of rings (size 3 to 8) (size 9 to 14) (size 15 to 20)
#    0.000    2.286    0.000    6.857    0.000    5.714 
#    0.000    2.857    0.000    0.000    0.000    1.000 
#    0.000    8.000    0.000    0.000    0.000    0.000 
#
# Total GULP energy -156609.019863 kJ/mol
# GULP energy per Si atom -5593.179281 kJ/mol
# Density = 2.476705 g / cm^3
# Si number density = 24.823550 Si / 1000 Ang^3
#
#
#
# Elastic Constant Matrix: (Units=GPa)
#
#
# Indices 1 2 3 4 5 6 
#
# 1 76.9916 -2.1009 19.8260 0.0000 10.3693 0.0001
# 2 -2.1009 62.2820 15.7484 0.0001 3.1921 0.0004
# 3 19.8260 15.7484 170.2441 0.0000 4.3682 0.0000
# 4 0.0000 0.0001 0.0000 32.3421 0.0000 -0.7686
# 5 10.3693 3.1921 4.3682 0.0000 55.4706 0.0001
# 6 0.0001 0.0004 0.0000 -0.7686 0.0001 3.4465
#
#
#
# Elastic Compliance Matrix: (Units=1/GPa)
#
#
# Indices 1 2 3 4 5 6 
#
# 1 0.013774 0.001006 -0.001633 0.000000 -0.002504 -0.000001
# 2 0.001006 0.016552 -0.001622 0.000000 -0.001013 -0.000002
# 3 -0.001633 -0.001622 0.006216 0.000000 -0.000091 0.000000
# 4 0.000000 0.000000 0.000000 0.031084 0.000000 0.006932
# 5 -0.002504 -0.001013 -0.000091 0.000000 0.018561 0.000000
# 6 -0.000001 -0.000002 0.000000 0.006932 0.000000 0.291694
#
#
# Mechanical properties :
#
#
# Convention : Reuss Voigt Hill
#
# Bulk Modulus (GPa) = 31.20756 41.82943 36.51850
# Shear Modulus (GPa) = 12.72068 36.65479 24.68773
#
# Velocity S-wave (km/s) = 2.26618 3.84684 3.15704
# Velocity P-wave (km/s) = 4.40982 6.05130 5.29456
#
# Compressibility (1/GPa) = 0.03204351
#
# Stress axis : x y z
#
# Youngs Moduli (GPa) = 72.60275 60.41552 160.86290
#
# Poissons Ratio (x) = -0.06077 0.26266
# Poissons Ratio (y) = -0.07303 0.26097
# Poissons Ratio (z) = 0.11855 0.09801
#
# Static dielectric constant tensor:
#      x y z
#    x 2.074250 0.000000 -0.027770 
#    y 0.000000 1.855500 0.000000 
#    z -0.027770 0.000000 1.984680 
# 
# From -- ./inp_files/319041.got.cif
#   From: 2010.05.17/outbox.cif.g08.bks.cpg/sg12_160_cif.got.tgz:319041.got - 2010.06.03 13:09:07.
