data_PCOD9168151
_publ_section_title
;
Structure prediction by ZEFSAII (Michael W. Deem and Ramdas Pophale) SiO2 
 PCOD9168151
Probable space group: P 21/M
;
_chemical_formula_sum "Si O2"
_cell_formula_units_Z 32
_cell_length_a 15.000000
_cell_length_b 9.000000
_cell_length_c 24.000000
_cell_angle_alpha 90.000000
_cell_angle_beta 30.000000
_cell_angle_gamma 90.000000
_cell_volume 1620.000000
_symmetry_space_group_name_H-M "P 21/M"
_symmetry_group_IT_number 11
_symmetry_cell_setting 'monoclinic'
loop_
_space_group_symop_operation_xyz
x,y,z
-x,1/2+y,-z
-x,-y,-z
x,1/2-y,z
loop_
_atom_site_type_symbol
_atom_site_label
_atom_site_fract_x
_atom_site_fract_y
_atom_site_fract_z
Si Si1 0.104830 0.425014 0.862303
Si Si2 0.362322 0.915329 0.649806
Si Si3 0.466825 0.919347 0.181069
Si Si4 0.596785 0.926339 0.896416
Si Si5 0.272978 0.925950 0.879492
Si Si6 0.697576 0.085044 0.448487
Si Si7 0.040033 0.915082 0.423673
Si Si8 0.020549 0.927224 0.315225
O O1 0.137618 0.250000 0.840111
O O2 0.180968 0.510818 0.768451
O O3 0.214079 0.493167 0.854994
O O4 0.896465 0.447228 0.987550
O O5 0.383106 0.750000 0.662294
O O6 0.357496 0.902775 0.585993
O O7 0.531136 0.018070 0.572149
O O8 0.532750 0.750000 0.140135
O O9 0.253248 0.912656 0.301561
O O10 0.494991 0.013426 0.110048
O O11 0.557619 0.999421 0.183757
O O12 0.591627 0.750000 0.900324
O O13 0.798204 0.985482 0.791972
O O14 0.500000 0.000000 0.000000
O O15 0.296093 0.750000 0.858191
O O16 0.746698 0.250000 0.441690
O O17 0.862837 0.973994 0.360918
O O18 0.970441 0.750000 0.467899
O O19 0.959629 0.974805 0.410164
O O20 0.000000 0.000000 0.500000
O O21 0.053913 0.750000 0.297202
#
# Coordination Sequence:
#
# PCOD9168151 Si02
#       8
#     4   4   4   4   4   4   4   4
#     4  10  21  37  57  81 110 144 183 228 276 328
#     4  10  21  37  57  81 110 144 183 228 276 328
#     4  10  21  38  57  81 113 146 183 228 276 327
#     4  11  22  38  59  83 111 145 185 229 278 330
#     4  10  21  37  57  82 111 145 185 227 275 329
#     4  10  21  37  57  82 111 145 185 227 275 329
#     4   9  20  36  55  79 107 141 179 221 268 318
#     4  10  21  38  57  81 113 146 183 228 276 327
#
# _framework density 19.753086
#
# number of rings (size 3 to 8) (size 9 to 14) (size 15 to 20)
#    0.000    2.000    0.000    4.125    0.000    8.000 
#    0.000    5.000    0.000    0.000    0.000    0.000 
#    0.000    0.000    0.000    0.000    0.000    0.000 
#
# Total GULP energy -178387.610343 kJ/mol
# GULP energy per Si atom -5574.612823 kJ/mol
# Density = 1.970813 g / cm^3
# Si number density = 19.753086 Si / 1000 Ang^3
#
#
#
# Elastic Constant Matrix: (Units=GPa)
#
#
# Indices 1 2 3 4 5 6 
#
# 1 24.3789 6.8545 -1.4777 0.0000 -7.2681 0.0000
# 2 6.8545 97.0558 29.8570 0.0000 15.9843 0.0000
# 3 -1.4777 29.8570 21.9590 0.0000 21.0800 0.0000
# 4 0.0000 0.0000 0.0000 27.9968 0.0000 0.2660
# 5 -7.2681 15.9843 21.0800 0.0000 20.0440 0.0000
# 6 0.0000 0.0000 0.0000 0.2660 0.0000 27.7398
#
#
#
# Elastic Compliance Matrix: (Units=1/GPa)
#
#
# Indices 1 2 3 4 5 6 
#
# 1 0.035985 -0.015911 0.067928 0.000000 -0.045702 0.000000
# 2 -0.015911 0.008155 0.039376 0.000000 -0.053684 0.000000
# 3 0.067928 0.039376 -0.320320 0.000000 0.330105 0.000000
# 4 0.000000 0.000000 0.000000 0.035722 0.000000 -0.000343
# 5 -0.045702 -0.053684 0.330105 0.000000 -0.271037 0.000000
# 6 0.000000 0.000000 0.000000 -0.000343 0.000000 0.036053
#
#
# Mechanical properties :
#
#
# Convention : Reuss Voigt Hill
#
# Bulk Modulus (GPa) = -10.70736 23.76236 6.52750
# Shear Modulus (GPa) = -7.25311 22.36679 7.55684
#
# Velocity S-wave (km/s) = -1.91830 3.36864 1.95805
# Velocity P-wave (km/s) = 3.21541 5.21404 2.90235
#
# Compressibility (1/GPa) = -0.09339372
#
# Stress axis : x y z
#
# Youngs Moduli (GPa) = 27.78945 122.62077 -3.12188
#
# Poissons Ratio (x) = 1.95104 0.21206
# Poissons Ratio (y) = 0.44216 0.12293
# Poissons Ratio (z) = -1.88768 -4.82834
#
# Static dielectric constant tensor:
#      x y z
#    x 1.723350 0.000000 0.036160 
#    y 0.000000 1.693590 0.000000 
#    z 0.036160 0.000000 1.675200 
# 
# From -- ./inp_files/69021.got.cif
#   From: 2010.05.17/outbox.ucp.g08.bks.cvg/sg11_35_cif.got.tgz:69021.got - 2010.06.11 11:38:39.
