data_PCOD9168620
_publ_section_title
;
Structure prediction by ZEFSAII (Michael W. Deem and Ramdas Pophale) SiO2 
 PCOD9168620
Probable space group: C 2/M
;
_chemical_formula_sum "Si O2"
_cell_formula_units_Z 54
_cell_length_a 5.582983
_cell_length_b 29.833286
_cell_length_c 14.352183
_cell_angle_alpha 90.000000
_cell_angle_beta 67.000947
_cell_angle_gamma 90.000000
_cell_volume 2200.465125
_symmetry_space_group_name_H-M "C 2/M"
_symmetry_group_IT_number 12
_symmetry_cell_setting 'monoclinic'
loop_
_space_group_symop_operation_xyz
x,y,z
-x,y,-z
-x,-y,-z
x,-y,z
1/2+x,1/2+y,z
1/2-x,1/2+y,-z
1/2-x,1/2-y,-z
1/2+x,1/2-y,z
loop_
_atom_site_type_symbol
_atom_site_label
_atom_site_fract_x
_atom_site_fract_y
_atom_site_fract_z
Si Si1 0.000000 0.500000 0.000000
Si Si2 0.505976 0.733288 0.640657
Si Si3 0.737491 0.732023 0.871056
Si Si4 0.762157 0.127927 0.132605
Si Si5 0.734003 0.088686 0.871272
Si Si6 0.989436 0.403096 0.365673
Si Si7 0.000620 0.873174 0.357567
Si Si8 0.816842 0.500000 0.436058
O O1 0.862090 0.539385 0.086548
O O2 0.290095 0.744209 0.595189
O O3 0.373694 0.755217 0.752348
O O4 0.531418 0.679972 0.653336
O O5 0.464024 0.757344 0.909546
O O6 0.675695 0.679880 0.881335
O O7 0.533503 0.116565 0.095437
O O8 0.631799 0.115779 0.251832
O O9 0.034373 0.101858 0.093765
O O10 0.866857 0.100046 0.750218
O O11 0.215463 0.395368 0.407806
O O12 0.715193 0.377474 0.406067
O O13 0.906668 0.454878 0.370916
O O14 0.500000 0.500000 0.500000
O O15 0.000000 0.500000 0.500000
#
# Coordination Sequence:
#
# PCOD9168620 Si02
#       8
#     2   8   8   8   8   8   8   4
#     4  12  28  42  58  78 100 150 192 234 288 330
#     4  10  16  25  46  80 119 141 163 208 273 328
#     4  10  16  26  49  84 118 138 163 207 273 329
#     4  10  20  36  58  86 112 143 177 226 277 317
#     4  10  22  37  54  77 110 139 188 232 276 334
#     4  10  20  36  58  79 110 142 181 230 275 323
#     4  10  19  34  56  86 112 143 179 225 277 317
#     4  12  26  42  57  80 110 147 190 229 272 322
#
# _framework density 24.540268000000001
#
# number of rings (size 3 to 8) (size 9 to 14) (size 15 to 20)
#    0.000    1.778    0.000    9.778    0.000    6.519 
#    0.000    0.000    0.000    0.000    0.000   38.370 
#    0.000  144.593    0.000    0.000    0.000    0.000 
#
# Total GULP energy -150587.975780 kJ/mol
# GULP energy per Si atom -5577.332436 kJ/mol
# Density = 2.448441 g / cm^3
# Si number density = 24.540268 Si / 1000 Ang^3
#
#
#
# Elastic Constant Matrix: (Units=GPa)
#
#
# Indices 1 2 3 4 5 6 
#
# 1 223.3044 8.0220 53.4438 0.0000 -9.9709 0.0000
# 2 8.0220 175.2260 11.4686 0.0000 -12.8291 0.0000
# 3 53.4438 11.4686 89.0883 0.0000 -24.3177 0.0000
# 4 0.0000 0.0000 0.0000-1425.8807 0.0000 340.6819
# 5 -9.9709 -12.8291 -24.3177 0.0000 58.1417 0.0000
# 6 0.0000 0.0000 0.0000 340.6819 0.0000 -53.0967
#
#
#
# Elastic Compliance Matrix: (Units=1/GPa)
#
#
# Indices 1 2 3 4 5 6 
#
# 1 0.005241 -0.000061 -0.003268 0.000000 -0.000481 0.000000
# 2 -0.000061 0.005817 -0.000412 0.000000 0.001101 0.000000
# 3 -0.003268 -0.000412 0.014743 0.000000 0.005515 0.000000
# 4 0.000000 0.000000 0.000000 0.001316 0.000000 0.008442
# 5 -0.000481 0.001101 0.005515 0.000000 0.019666 0.000000
# 6 0.000000 0.000000 0.000000 0.008442 0.000000 0.035334
#
#
# Mechanical properties :
#
#
# Convention : Reuss Voigt Hill
#
# Bulk Modulus (GPa) = 54.58281 70.38752 62.48516
# Shear Modulus (GPa) = 52.24369 -256.52151 -102.13891
#
# Velocity S-wave (km/s) = 4.61900 -10.23512 -6.45843
# Velocity P-wave (km/s) = 7.12301 10.53244 5.48612
#
# Compressibility (1/GPa) = 0.01832079
#
# Stress axis : x y z
#
# Youngs Moduli (GPa) = 190.80614 171.90210 67.82682
#
# Poissons Ratio (x) = 0.01054 0.22163
# Poissons Ratio (y) = 0.01170 0.02792
# Poissons Ratio (z) = 0.62346 0.07075
#
# Static dielectric constant tensor:
#      x y z
#    x 1.972240 0.000000 0.023660 
#    y 0.000000 1.814430 0.000000 
#    z 0.023660 0.000000 2.100040 
# 
# From -- ./inp_files/253615.got.cif
#   From: 2010.05.17/outbox.cif.g08.bks.cpg/sg12_127_cif.got.tgz:253615.got - 2010.06.03 13:09:07.
