data_PCOD9168715
_publ_section_title
;
Structure prediction by ZEFSAII (Michael W. Deem and Ramdas Pophale) SiO2 
 PCOD9168715
Probable space group: C 2/M
;
_chemical_formula_sum "Si O2"
_cell_formula_units_Z 64
_cell_length_a 28.011060
_cell_length_b 13.332166
_cell_length_c 13.803008
_cell_angle_alpha 90.000000
_cell_angle_beta 151.311544
_cell_angle_gamma 90.000000
_cell_volume 2474.500457
_symmetry_space_group_name_H-M "C 2/M"
_symmetry_group_IT_number 12
_symmetry_cell_setting 'monoclinic'
loop_
_space_group_symop_operation_xyz
x,y,z
-x,y,-z
-x,-y,-z
x,-y,z
1/2+x,1/2+y,z
1/2-x,1/2+y,-z
1/2-x,1/2-y,-z
1/2+x,1/2-y,z
loop_
_atom_site_type_symbol
_atom_site_label
_atom_site_fract_x
_atom_site_fract_y
_atom_site_fract_z
Si Si1 0.078989 0.111272 0.367808
Si Si2 0.391380 0.148223 0.039137
Si Si3 0.090907 0.109410 0.088843
Si Si4 0.067100 0.893649 0.730214
Si Si5 0.255843 0.341592 0.833824
Si Si6 0.381093 0.831147 0.809143
Si Si7 0.599337 0.835863 0.726929
Si Si8 0.131407 0.672955 0.428409
O O1 0.041102 0.114119 0.411084
O O2 0.144366 0.205658 0.455099
O O3 0.118731 0.000000 0.417016
O O4 0.976256 0.124452 0.125870
O O5 0.384872 0.112810 0.140055
O O6 0.512346 0.162008 0.241906
O O7 0.309596 0.236595 0.905107
O O8 0.364985 0.111497 0.882416
O O9 0.143224 0.213326 0.211286
O O10 0.141504 0.000000 0.177449
O O11 0.000000 0.100663 0.000000
O O12 0.085843 0.784868 0.718590
O O13 0.077395 0.000000 0.694629
O O14 0.151322 0.901870 0.961692
O O15 0.184462 0.342633 0.799069
O O16 0.194834 0.371727 0.629658
O O17 0.343254 0.863125 0.635390
O O18 0.500000 0.831985 0.000000
O O19 0.500000 0.874882 0.500000
#
# Coordination Sequence:
#
# PCOD9168715 Si02
#       8
#     8   8   8   8   8   8   8   8
#     4  10  16  27  46  71 105 139 167 205 252 306
#     4  10  18  33  46  73 105 133 177 213 254 306
#     4   9  12  17  34  59  89 131 165 189 235 292
#     4  10  20  34  52  75 106 135 170 218 263 311
#     4  11  21  33  55  76 101 139 175 215 265 306
#     4   9  16  26  43  65 103 142 168 215 245 294
#     4  11  19  34  56  80 103 135 176 210 263 319
#     4  11  18  31  48  75 108 140 179 210 248 310
#
# _framework density 25.863807000000001
#
# number of rings (size 3 to 8) (size 9 to 14) (size 15 to 20)
#    0.000    1.875    7.500    1.500    0.000    0.750 
#    0.000    0.625    0.000    0.375    0.000    0.875 
#    0.000    8.500    0.000    0.000    0.000    0.000 
#
# Total GULP energy -178186.519872 kJ/mol
# GULP energy per Si atom -5568.328746 kJ/mol
# Density = 2.580494 g / cm^3
# Si number density = 25.863807 Si / 1000 Ang^3
#
#
#
# Elastic Constant Matrix: (Units=GPa)
#
#
# Indices 1 2 3 4 5 6 
#
# 1 209.0189 33.3478 56.3245 0.0000 -31.3758 0.0000
# 2 33.3478 96.3197 15.3521 0.0000 -9.4803 0.0000
# 3 56.3245 15.3521 145.7150 0.0000 -33.7267 0.0000
# 4 0.0000 0.0000 0.0000 -5.3973 0.0000 9.0695
# 5 -31.3758 -9.4803 -33.7267 0.0000 47.7840 0.0000
# 6 0.0000 0.0000 0.0000 9.0695 0.0000 -1.3426
#
#
#
# Elastic Compliance Matrix: (Units=1/GPa)
#
#
# Indices 1 2 3 4 5 6 
#
# 1 0.005803 -0.001527 -0.001518 0.000000 0.002435 0.000000
# 2 -0.001527 0.011060 -0.000358 0.000000 0.000939 0.000000
# 3 -0.001518 -0.000358 0.008654 0.000000 0.005040 0.000000
# 4 0.000000 0.000000 0.000000 0.017899 0.000000 0.120912
# 5 0.002435 0.000939 0.005040 0.000000 0.026270 0.000000
# 6 0.000000 0.000000 0.000000 0.120912 0.000000 0.071955
#
#
# Mechanical properties :
#
#
# Convention : Reuss Voigt Hill
#
# Bulk Modulus (GPa) = 53.44612 73.45583 63.45097
# Shear Modulus (GPa) = 32.32404 31.27745 31.80075
#
# Velocity S-wave (km/s) = 3.53906 3.48129 3.51029
# Velocity P-wave (km/s) = 6.11631 6.67996 6.40434
#
# Compressibility (1/GPa) = 0.01871043
#
# Stress axis : x y z
#
# Youngs Moduli (GPa) = 172.33479 90.41348 115.55555
#
# Poissons Ratio (x) = 0.13809 0.17545
# Poissons Ratio (y) = 0.26320 0.04132
# Poissons Ratio (z) = 0.26166 0.03233
#
# Static dielectric constant tensor:
#      x y z
#    x 1.755180 0.000000 -0.037580 
#    y 0.000000 2.076650 0.000000 
#    z -0.037580 0.000000 2.052300 
# 
# From -- ./inp_files/251676.got.cif
#   From: 2010.05.17/outbox.cif.g08.bks.cpg/sg12_126_cif.got.tgz:251676.got - 2010.06.03 13:09:07.
