data_PCOD9168176
_publ_section_title
;
Structure prediction by ZEFSAII (Michael W. Deem and Ramdas Pophale) SiO2 
 PCOD9168176
Probable space group: P 21/M
;
_chemical_formula_sum "Si O2"
_cell_formula_units_Z 32
_cell_length_a 12.000000
_cell_length_b 18.000000
_cell_length_c 15.000000
_cell_angle_alpha 90.000000
_cell_angle_beta 30.000000
_cell_angle_gamma 90.000000
_cell_volume 1620.000000
_symmetry_space_group_name_H-M "P 21/M"
_symmetry_group_IT_number 11
_symmetry_cell_setting 'monoclinic'
loop_
_space_group_symop_operation_xyz
x,y,z
-x,1/2+y,-z
-x,-y,-z
x,1/2-y,z
loop_
_atom_site_type_symbol
_atom_site_label
_atom_site_fract_x
_atom_site_fract_y
_atom_site_fract_z
Si Si1 0.620823 0.164137 0.148574
Si Si2 0.785463 0.162700 0.558426
Si Si3 0.721668 0.429671 0.437438
Si Si4 0.317932 0.162072 0.184342
Si Si5 0.850713 0.475227 0.805122
Si Si6 0.479154 0.919355 0.602081
Si Si7 0.938615 0.663300 0.264529
Si Si8 0.462235 0.936662 0.125005
O O1 0.574716 0.250000 0.204486
O O2 0.459716 0.147478 0.175959
O O3 0.573527 0.113865 0.265733
O O4 0.880173 0.159523 0.940187
O O5 0.749402 0.250000 0.601211
O O6 0.707059 0.139537 0.513585
O O7 0.643793 0.110444 0.722609
O O8 0.052999 0.148469 0.380425
O O9 0.709809 0.408686 0.341808
O O10 0.532153 0.493195 0.576791
O O11 0.942513 0.472859 0.315774
O O12 0.342489 0.250000 0.148831
O O13 0.424468 0.117920 0.027272
O O14 0.736360 0.479916 0.788008
O O15 0.938984 0.390823 0.749784
O O16 0.657282 0.503162 0.007124
O O17 0.701080 0.875788 0.413302
O O18 0.915731 0.750000 0.306110
#
# Coordination Sequence:
#
# PCOD9168176 Si02
#       8
#     4   4   4   4   4   4   4   4
#     4  10  21  37  64  95 121 159 204 255 321 366
#     4  11  25  40  63  93 125 172 211 251 317 379
#     4  10  23  45  61  91 127 162 213 258 307 371
#     4  10  21  38  60  94 132 159 203 262 308 373
#     4  10  22  39  63  92 127 166 200 258 315 362
#     4  10  23  42  65  87 123 167 209 261 311 364
#     4  10  21  38  61  93 123 154 208 261 309 367
#     4  11  22  39  63  92 129 166 211 246 316 382
#
# _framework density 19.753086
#
# number of rings (size 3 to 8) (size 9 to 14) (size 15 to 20)
#    0.000    1.750    2.500    0.750    5.250    2.000 
#    2.250    1.875    0.000    0.000    0.000    0.000 
#    0.000    0.000    0.000    0.000    0.000    0.000 
#
# Total GULP energy -178512.088801 kJ/mol
# GULP energy per Si atom -5578.502775 kJ/mol
# Density = 1.970813 g / cm^3
# Si number density = 19.753086 Si / 1000 Ang^3
#
#
#
# Elastic Constant Matrix: (Units=GPa)
#
#
# Indices 1 2 3 4 5 6 
#
# 1 46.0495 9.1295 3.0719 0.0000 3.8181 0.0000
# 2 9.1295 81.7086 4.7930 0.0000 -0.0086 0.0000
# 3 3.0719 4.7930 30.8134 0.0000 4.3098 0.0000
# 4 0.0000 0.0000 0.0000 39.7367 0.0000 2.6030
# 5 3.8181 -0.0086 4.3098 0.0000 16.2416 0.0000
# 6 0.0000 0.0000 0.0000 2.6030 0.0000 23.6082
#
#
#
# Elastic Compliance Matrix: (Units=1/GPa)
#
#
# Indices 1 2 3 4 5 6 
#
# 1 0.022700 -0.002468 -0.001176 0.000000 -0.005026 0.000000
# 2 -0.002468 0.012624 -0.001869 0.000000 0.001083 0.000000
# 3 -0.001176 -0.001869 0.034088 0.000000 -0.008770 0.000000
# 4 0.000000 0.000000 0.000000 0.025349 0.000000 -0.002795
# 5 -0.005026 0.001083 -0.008770 0.000000 0.065080 0.000000
# 6 0.000000 0.000000 0.000000 -0.002795 0.000000 0.042666
#
#
# Mechanical properties :
#
#
# Convention : Reuss Voigt Hill
#
# Bulk Modulus (GPa) = 17.12741 21.39558 19.26149
# Shear Modulus (GPa) = 21.45964 25.35576 23.40770
#
# Velocity S-wave (km/s) = 3.29963 3.58667 3.44614
# Velocity P-wave (km/s) = 4.81729 5.29219 5.06032
#
# Compressibility (1/GPa) = 0.05838595
#
# Stress axis : x y z
#
# Youngs Moduli (GPa) = 44.05252 79.21347 29.33576
#
# Poissons Ratio (x) = 0.19549 0.03451
# Poissons Ratio (y) = 0.10872 0.05483
# Poissons Ratio (z) = 0.05182 0.14806
#
# Static dielectric constant tensor:
#      x y z
#    x 1.683970 0.000000 -0.008150 
#    y 0.000000 1.744050 0.000000 
#    z -0.008150 0.000000 1.704060 
# 
# From -- ./inp_files/50673.got.cif
#   From: 2010.05.17/outbox.ucp.g08.bks.cvg/sg11_26_cif.got.tgz:50673.got - 2010.06.11 11:38:39.
