data_PCOD9168598
_publ_section_title
;
Structure prediction by ZEFSAII (Michael W. Deem and Ramdas Pophale) SiO2 
 PCOD9168598
Probable space group: C 2/M
;
_chemical_formula_sum "Si O2"
_cell_formula_units_Z 56
_cell_length_a 11.105862
_cell_length_b 16.424703
_cell_length_c 13.510141
_cell_angle_alpha 90.000000
_cell_angle_beta 101.469143
_cell_angle_gamma 90.000000
_cell_volume 2415.182240
_symmetry_space_group_name_H-M "C 2/M"
_symmetry_group_IT_number 12
_symmetry_cell_setting 'monoclinic'
loop_
_space_group_symop_operation_xyz
x,y,z
-x,y,-z
-x,-y,-z
x,-y,z
1/2+x,1/2+y,z
1/2-x,1/2+y,-z
1/2-x,1/2-y,-z
1/2+x,1/2-y,z
loop_
_atom_site_type_symbol
_atom_site_label
_atom_site_fract_x
_atom_site_fract_y
_atom_site_fract_z
Si Si1 0.767146 0.409049 0.610145
Si Si2 0.049485 0.652805 0.218214
Si Si3 0.216048 0.651189 0.877688
Si Si4 0.234660 0.849593 0.887161
Si Si5 0.861184 0.758057 0.436373
Si Si6 0.371318 0.913805 0.418034
Si Si7 0.526106 0.332414 0.123490
O O1 0.750636 0.500000 0.645698
O O2 0.896024 0.370402 0.667094
O O3 0.668166 0.341546 0.624029
O O4 0.772923 0.415531 0.492233
O O5 0.158795 0.619662 0.166492
O O6 0.039859 0.748119 0.187059
O O7 0.914044 0.619485 0.180209
O O8 0.224109 0.750696 0.873240
O O9 0.343617 0.622670 0.850476
O O10 0.222555 0.633286 0.994962
O O11 0.094008 0.878104 0.856718
O O12 0.750000 0.750000 0.500000
O O13 0.853056 0.675844 0.370143
O O14 0.000000 0.762255 0.500000
O O15 0.500000 0.914696 0.500000
O O16 0.363543 0.000000 0.361985
O O17 0.500000 0.313767 0.000000
#
# Coordination Sequence:
#
# PCOD9168598 Si02
#       7
#     8   8   8   8   8   8   8
#     4  10  21  34  49  74 110 148 175 215 270 310
#     4  10  16  25  41  68  99 132 167 214 264 312
#     4   8  13  23  41  63  92 131 173 216 261 301
#     4   8  13  23  40  63  94 131 169 215 261 309
#     4   9  18  36  57  82 101 129 174 217 249 316
#     4   8  15  33  58  78  99 128 166 212 262 314
#     4   8  14  26  42  66  98 132 172 222 271 308
#
# _framework density 23.186657
#
# number of rings (size 3 to 8) (size 9 to 14) (size 15 to 20)
#    0.000    3.286    0.000    3.000    0.000    0.286 
#   23.143    0.000    0.000    3.857    0.000    1.000 
#    0.000    3.429    0.000    0.000    0.000    2.429 
#
# Total GULP energy -155987.058354 kJ/mol
# GULP energy per Si atom -5570.966370 kJ/mol
# Density = 2.313388 g / cm^3
# Si number density = 23.186657 Si / 1000 Ang^3
#
#
#
# Elastic Constant Matrix: (Units=GPa)
#
#
# Indices 1 2 3 4 5 6 
#
# 1 166.7642 18.2327 56.6691 0.0000 26.2132 0.0000
# 2 18.2327 131.0414 30.0707 0.0000 13.7279 0.0000
# 3 56.6691 30.0707 67.1104 0.0000 20.9195 0.0000
# 4 0.0000 0.0000 0.0000 8.6884 0.0000 -4.6916
# 5 26.2132 13.7279 20.9195 0.0000 42.1900 0.0000
# 6 0.0000 0.0000 0.0000 -4.6916 0.0000 0.1644
#
#
#
# Elastic Compliance Matrix: (Units=1/GPa)
#
#
# Indices 1 2 3 4 5 6 
#
# 1 0.008599 0.000603 -0.006866 0.000000 -0.002134 0.000000
# 2 0.000603 0.008587 -0.003985 0.000000 -0.001193 0.000000
# 3 -0.006866 -0.003985 0.024544 0.000000 -0.006607 0.000000
# 4 0.000000 0.000000 0.000000 -0.007986 0.000000 -0.227937
# 5 -0.002134 -0.001193 -0.006607 0.000000 0.028693 0.000000
# 6 0.000000 0.000000 0.000000 -0.227937 0.000000 -0.422118
#
#
# Mechanical properties :
#
#
# Convention : Reuss Voigt Hill
#
# Bulk Modulus (GPa) = 47.09525 63.87344 55.48435
# Shear Modulus (GPa) = -15.05533 27.53813 6.24140
#
# Velocity S-wave (km/s) = -2.55092 3.45000 1.64245
# Velocity P-wave (km/s) = 3.41748 6.59373 5.25150
#
# Compressibility (1/GPa) = 0.02123356
#
# Stress axis : x y z
#
# Youngs Moduli (GPa) = 116.28832 116.46006 40.74365
#
# Poissons Ratio (x) = -0.07019 0.27975
# Poissons Ratio (y) = -0.07009 0.16235
# Poissons Ratio (z) = 0.79845 0.46405
#
# Static dielectric constant tensor:
#      x y z
#    x 1.977090 0.000000 -0.049770 
#    y 0.000000 1.888070 0.000000 
#    z -0.049770 0.000000 1.953010 
# 
# From -- ./inp_files/264304.got.cif
#   From: 2010.05.17/outbox.cif.g08.bks.cpg/sg12_133_cif.got.tgz:264304.got - 2010.06.03 13:09:07.
