data_PCOD9168565
_publ_section_title
;
Structure prediction by ZEFSAII (Michael W. Deem and Ramdas Pophale) SiO2 
 PCOD9168565
Probable space group: C 2/M
;
_chemical_formula_sum "Si O2"
_cell_formula_units_Z 28
_cell_length_a 14.455673
_cell_length_b 8.318711
_cell_length_c 11.247846
_cell_angle_alpha 90.000000
_cell_angle_beta 76.213000
_cell_angle_gamma 90.000000
_cell_volume 1313.612250
_symmetry_space_group_name_H-M "C 2/M"
_symmetry_group_IT_number 12
_symmetry_cell_setting 'monoclinic'
loop_
_space_group_symop_operation_xyz
x,y,z
-x,y,-z
-x,-y,-z
x,-y,z
1/2+x,1/2+y,z
1/2-x,1/2+y,-z
1/2-x,1/2-y,-z
1/2+x,1/2-y,z
loop_
_atom_site_type_symbol
_atom_site_label
_atom_site_fract_x
_atom_site_fract_y
_atom_site_fract_z
Si Si1 0.231263 0.500000 0.755874
Si Si2 0.139852 0.176226 0.683232
Si Si3 0.391600 0.000000 0.973828
Si Si4 0.112400 0.000000 0.466723
Si Si5 0.051955 0.825823 0.113139
O O1 0.189877 0.335546 0.712077
O O2 0.187563 0.500000 0.900446
O O3 0.339110 0.500000 0.675189
O O4 0.031280 0.185729 0.763844
O O5 0.175650 0.000000 0.718952
O O6 0.142297 0.151038 0.540614
O O7 0.500000 0.000000 0.000000
O O8 0.385635 0.165532 0.902858
O O9 0.000000 0.000000 0.500000
O O10 0.100146 0.000000 0.104885
O O11 0.000000 0.825260 0.000000
#
# Coordination Sequence:
#
# PCOD9168565 Si02
#       5
#     4   8   4   4   8
#     4  12  18  34  59  84 102 134 182 227 251 310
#     4   9  19  32  56  81 103 135 180 222 255 305
#     4  10  16  24  48  84 109 119 156 225 273 290
#     4  10  24  40  51  72 114 149 174 213 272 308
#     4   9  14  25  44  80 109 123 155 216 272 298
#
# _framework density 21.315270999999999
#
# number of rings (size 3 to 8) (size 9 to 14) (size 15 to 20)
#    0.857    1.429    5.714    0.857    0.000    0.000 
#    0.000    0.714    0.000    1.714    0.000    0.000 
#    0.000    0.000    0.000    0.000    0.000    0.000 
#
# Total GULP energy -77953.520604 kJ/mol
# GULP energy per Si atom -5568.108615 kJ/mol
# Density = 2.126676 g / cm^3
# Si number density = 21.315271 Si / 1000 Ang^3
#
#
#
# Elastic Constant Matrix: (Units=GPa)
#
#
# Indices 1 2 3 4 5 6 
#
# 1 53.8298 30.9410 26.6724 0.0000 -27.4200 0.0000
# 2 30.9410 216.8044 35.7938 0.0000 -13.5234 0.0000
# 3 26.6724 35.7938 119.3640 0.0000 -30.0078 0.0000
# 4 0.0000 0.0000 0.0000 52.4691 0.0000 -20.8011
# 5 -27.4200 -13.5234 -30.0078 0.0000 33.2012 0.0000
# 6 0.0000 0.0000 0.0000 -20.8011 0.0000 -5.9426
#
#
#
# Elastic Compliance Matrix: (Units=1/GPa)
#
#
# Indices 1 2 3 4 5 6 
#
# 1 0.034091 -0.003204 0.000120 0.000000 0.026959 0.000000
# 2 -0.003204 0.005173 -0.001256 0.000000 -0.001674 0.000000
# 3 0.000120 -0.001256 0.011160 0.000000 0.009674 0.000000
# 4 0.000000 0.000000 0.000000 0.007982 0.000000 -0.027940
# 5 0.026959 -0.001674 0.009674 0.000000 0.060446 0.000000
# 6 0.000000 0.000000 0.000000 -0.027940 0.000000 -0.070477
#
#
# Mechanical properties :
#
#
# Convention : Reuss Voigt Hill
#
# Bulk Modulus (GPa) = 23.95527 64.09029 44.02278
# Shear Modulus (GPa) = 70.45404 35.71827 53.08615
#
# Velocity S-wave (km/s) = 5.75544 4.09799 4.99593
# Velocity P-wave (km/s) = 7.44511 7.24737 7.34691
#
# Compressibility (1/GPa) = 0.04174447
#
# Stress axis : x y z
#
# Youngs Moduli (GPa) = 29.33294 193.32626 89.60963
#
# Poissons Ratio (x) = 0.61933 -0.01077
# Poissons Ratio (y) = 0.09397 0.11256
# Poissons Ratio (z) = -0.00353 0.24285
#
# Static dielectric constant tensor:
#      x y z
#    x 1.776510 0.000000 0.009580 
#    y 0.000000 2.449320 0.000000 
#    z 0.009580 0.000000 1.766250 
# 
# From -- ./inp_files/138315.got.cif
#   From: 2010.05.17/outbox.cif.g08.bks.cpg/sg12_70_cif.got.tgz:138315.got - 2010.06.03 13:09:07.
