data_PCOD9168358
_publ_section_title
;
Structure prediction by ZEFSAII (Michael W. Deem and Ramdas Pophale) SiO2 
 PCOD9168358
Probable space group: C 2/M
;
_chemical_formula_sum "Si O2"
_cell_formula_units_Z 40
_cell_length_a 8.337508
_cell_length_b 32.352762
_cell_length_c 7.770979
_cell_angle_alpha 90.000000
_cell_angle_beta 121.005016
_cell_angle_gamma 90.000000
_cell_volume 1796.660872
_symmetry_space_group_name_H-M "C 2/M"
_symmetry_group_IT_number 12
_symmetry_cell_setting 'monoclinic'
loop_
_space_group_symop_operation_xyz
x,y,z
-x,y,-z
-x,-y,-z
x,-y,z
1/2+x,1/2+y,z
1/2-x,1/2+y,-z
1/2-x,1/2-y,-z
1/2+x,1/2-y,z
loop_
_atom_site_type_symbol
_atom_site_label
_atom_site_fract_x
_atom_site_fract_y
_atom_site_fract_z
Si Si1 0.713140 0.500000 0.562535
Si Si2 0.035862 0.335753 0.250306
Si Si3 0.497848 0.931365 0.708202
Si Si4 0.242472 0.205133 0.298353
Si Si5 0.716893 0.500000 0.152535
Si Si6 0.631402 0.701849 0.721410
O O1 0.500000 0.500000 0.500000
O O2 0.823972 0.458848 0.677668
O O3 0.735853 0.500000 0.369043
O O4 0.015579 0.384812 0.237966
O O5 0.156908 0.317065 0.481845
O O6 0.173397 0.322351 0.171899
O O7 0.832262 0.317444 0.184223
O O8 0.500000 0.929026 0.500000
O O9 0.678101 0.959016 0.856012
O O10 0.309185 0.252338 0.310291
O O11 0.019565 0.205143 0.208376
O O12 0.500000 0.500000 0.000000
O O13 0.500000 0.682497 0.500000
#
# Coordination Sequence:
#
# PCOD9168358 Si02
#       6
#     4   8   8   8   4   8
#     4   9  19  33  54  80 106 125 165 213 264 318
#     4  10  16  23  37  56  89 125 160 200 243 296
#     4   9  17  32  48  70  99 131 161 210 259 308
#     4  10  15  21  33  51  87 132 160 193 245 298
#     4   9  19  37  58  72  98 139 173 203 262 328
#     4  10  15  21  31  53  83 134 161 192 240 306
#
# _framework density 22.263522999999999
#
# number of rings (size 3 to 8) (size 9 to 14) (size 15 to 20)
#    0.000    2.400    6.000    2.400    0.000    2.400 
#    0.000    2.000    0.000    0.000    0.000    0.000 
#    0.000    1.600    0.000    0.000    0.000    0.400 
#
# Total GULP energy -111536.065396 kJ/mol
# GULP energy per Si atom -5576.803270 kJ/mol
# Density = 2.221285 g / cm^3
# Si number density = 22.263523 Si / 1000 Ang^3
#
#
#
# Elastic Constant Matrix: (Units=GPa)
#
#
# Indices 1 2 3 4 5 6 
#
# 1 242.2924 71.7840 52.9630 0.0000 46.9657 0.0000
# 2 71.7840 175.7327 21.6116 0.0000 40.3130 0.0000
# 3 52.9630 21.6116 53.1998 0.0000 26.2753 0.0000
# 4 0.0000 0.0000 0.0000 -6.9715 0.0000 10.6076
# 5 46.9657 40.3130 26.2753 0.0000 63.3841 0.0000
# 6 0.0000 0.0000 0.0000 10.6076 0.0000 3.4023
#
#
#
# Elastic Compliance Matrix: (Units=1/GPa)
#
#
# Indices 1 2 3 4 5 6 
#
# 1 0.005838 -0.001485 -0.004450 0.000000 -0.001537 0.000000
# 2 -0.001485 0.007066 0.000357 0.000000 -0.003542 0.000000
# 3 -0.004450 0.000357 0.027118 0.000000 -0.008172 0.000000
# 4 0.000000 0.000000 0.000000 -0.024973 0.000000 0.077859
# 5 -0.001537 -0.003542 -0.008172 0.000000 0.022555 0.000000
# 6 0.000000 0.000000 0.000000 0.077859 0.000000 0.051171
#
#
# Mechanical properties :
#
#
# Convention : Reuss Voigt Hill
#
# Bulk Modulus (GPa) = 34.64248 84.88244 59.76246
# Shear Modulus (GPa) = 45.64102 33.62074 39.63088
#
# Velocity S-wave (km/s) = 4.53264 3.89025 4.22368
# Velocity P-wave (km/s) = 6.55646 7.64119 7.11951
#
# Compressibility (1/GPa) = 0.02886630
#
# Stress axis : x y z
#
# Youngs Moduli (GPa) = 171.30174 141.53247 36.87647
#
# Poissons Ratio (x) = 0.21016 0.16408
# Poissons Ratio (y) = 0.25436 -0.01317
# Poissons Ratio (z) = 0.76221 -0.05055
#
# Static dielectric constant tensor:
#      x y z
#    x 1.864550 0.000000 -0.048260 
#    y 0.000000 1.764850 0.000000 
#    z -0.048260 0.000000 1.966800 
# 
# From -- ./inp_files/124914.got.cif
#   From: 2010.05.17/outbox.cif.g08.bks.cpg/sg12_63_cif.got.tgz:124914.got - 2010.06.03 13:09:07.
