data_PCOD9168921
_publ_section_title
;
Structure prediction by ZEFSAII (Michael W. Deem and Ramdas Pophale) SiO2 
 PCOD9168921
Probable space group: C 2/M
;
_chemical_formula_sum "Si O2"
_cell_formula_units_Z 30
_cell_length_a 20.237783
_cell_length_b 13.782004
_cell_length_c 5.024232
_cell_angle_alpha 90.000000
_cell_angle_beta 118.265613
_cell_angle_gamma 90.000000
_cell_volume 1234.250824
_symmetry_space_group_name_H-M "C 2/M"
_symmetry_group_IT_number 12
_symmetry_cell_setting 'monoclinic'
loop_
_space_group_symop_operation_xyz
x,y,z
-x,y,-z
-x,-y,-z
x,-y,z
1/2+x,1/2+y,z
1/2-x,1/2+y,-z
1/2-x,1/2-y,-z
1/2+x,1/2-y,z
loop_
_atom_site_type_symbol
_atom_site_label
_atom_site_fract_x
_atom_site_fract_y
_atom_site_fract_z
Si Si1 0.590435 0.325280 0.403103
Si Si2 0.500000 0.840956 0.500000
Si Si3 0.500000 0.500000 0.500000
Si Si4 0.807950 0.500000 0.348119
Si Si5 0.167549 0.111145 0.040020
Si Si6 0.596531 0.000000 0.969417
O O1 0.551860 0.226788 0.417571
O O2 0.534767 0.413356 0.368733
O O3 0.620146 0.330141 0.161810
O O4 0.659982 0.344543 0.735918
O O5 0.549149 0.907743 0.786858
O O6 0.752386 0.590870 0.289333
O O7 0.830974 0.500000 0.085052
O O8 0.877596 0.500000 0.677452
O O9 0.132873 0.000000 0.957692
#
# Coordination Sequence:
#
# PCOD9168921 Si02
#       6
#     8   4   2   4   8   4
#     4  11  21  36  61  95 131 159 206 253 320 390
#     4  10  28  42  66  92 130 174 218 260 310 372
#     4  10  16  30  52  82 120 164 180 242 308 372
#     4  10  22  41  76  87 122 176 212 262 324 364
#     4  10  20  38  63  95 128 158 197 256 329 382
#     4  11  24  49  64  87 126 177 226 262 298 365
#
# _framework density 24.306239999999999
#
# number of rings (size 3 to 8) (size 9 to 14) (size 15 to 20)
#    0.800    0.800    2.667    1.600    0.000   11.733 
#    0.000    8.000    0.000    0.000    0.000    0.000 
#    0.000    0.000    0.000    0.000    0.000    0.000 
#
# Total GULP energy -83810.156183 kJ/mol
# GULP energy per Si atom -5587.343746 kJ/mol
# Density = 2.425092 g / cm^3
# Si number density = 24.306240 Si / 1000 Ang^3
#
#
#
# Elastic Constant Matrix: (Units=GPa)
#
#
# Indices 1 2 3 4 5 6 
#
# 1 53.2776 10.7980 2.4611 0.0000 2.7235 0.0000
# 2 10.7980 113.5392 11.2421 0.0000 17.9857 0.0000
# 3 2.4611 11.2421 100.2170 0.0000 7.4534 0.0000
# 4 0.0000 0.0000 0.0000 -5.1098 0.0000 -3.4021
# 5 2.7235 17.9857 7.4534 0.0000 35.3548 0.0000
# 6 0.0000 0.0000 0.0000 -3.4021 0.0000 19.0496
#
#
#
# Elastic Compliance Matrix: (Units=1/GPa)
#
#
# Indices 1 2 3 4 5 6 
#
# 1 0.019156 -0.001710 -0.000237 0.000000 -0.000556 0.000000
# 2 -0.001710 0.009784 -0.000706 0.000000 -0.004697 0.000000
# 3 -0.000237 -0.000706 0.010195 0.000000 -0.001772 0.000000
# 4 0.000000 0.000000 0.000000 -0.174906 0.000000 -0.031236
# 5 -0.000556 -0.004697 -0.001772 0.000000 0.031090 0.000000
# 6 0.000000 0.000000 0.000000 -0.031236 0.000000 0.046916
#
#
# Mechanical properties :
#
#
# Convention : Reuss Voigt Hill
#
# Bulk Modulus (GPa) = 29.56183 35.11511 32.33847
# Shear Modulus (GPa) = -121.41503 26.02776 -47.69363
#
# Velocity S-wave (km/s) = -7.07535 3.27590 -4.43448
# Velocity P-wave (km/s) = 7.38640 5.36535 3.58970
#
# Compressibility (1/GPa) = 0.03382740
#
# Stress axis : x y z
#
# Youngs Moduli (GPa) = 52.20401 102.20641 98.08563
#
# Poissons Ratio (x) = 0.17480 0.02327
# Poissons Ratio (y) = 0.08928 0.06927
# Poissons Ratio (z) = 0.01239 0.07218
#
# Static dielectric constant tensor:
#      x y z
#    x 2.903200 0.000000 0.884960 
#    y 0.000000 1.910530 0.000000 
#    z 0.884960 0.000000 2.577550 
# 
# From -- ./inp_files/11094.got.cif
#   From: 2010.05.17/outbox.cif.g08.bks.cpg/sg12_6_cif.got.tgz:11094.got - 2010.06.03 13:09:07.
