data_PCOD9168706
_publ_section_title
;
Structure prediction by ZEFSAII (Michael W. Deem and Ramdas Pophale) SiO2 
 PCOD9168706
Probable space group: C 2/M
;
_chemical_formula_sum "Si O2"
_cell_formula_units_Z 48
_cell_length_a 7.911479
_cell_length_b 21.941380
_cell_length_c 22.607830
_cell_angle_alpha 90.000000
_cell_angle_beta 32.060974
_cell_angle_gamma 90.000000
_cell_volume 2083.190397
_symmetry_space_group_name_H-M "C 2/M"
_symmetry_group_IT_number 12
_symmetry_cell_setting 'monoclinic'
loop_
_space_group_symop_operation_xyz
x,y,z
-x,y,-z
-x,-y,-z
x,-y,z
1/2+x,1/2+y,z
1/2-x,1/2+y,-z
1/2-x,1/2-y,-z
1/2+x,1/2-y,z
loop_
_atom_site_type_symbol
_atom_site_label
_atom_site_fract_x
_atom_site_fract_y
_atom_site_fract_z
Si Si1 0.302968 0.070496 0.998683
Si Si2 0.848368 0.069047 0.427150
Si Si3 0.791791 0.653051 0.810305
Si Si4 0.001951 0.572316 0.351956
Si Si5 0.332811 0.268058 0.865200
Si Si6 0.132900 0.121120 0.231975
O O1 0.549815 0.082477 0.873339
O O2 0.223019 0.000000 0.029160
O O3 0.500000 0.089116 0.000000
O O4 0.985351 0.108711 0.084650
O O5 0.500000 0.064781 0.500000
O O6 0.762761 0.085847 0.519737
O O7 0.032805 0.114731 0.329623
O O8 0.984461 0.000000 0.385034
O O9 0.015358 0.612350 0.702115
O O10 0.598193 0.700056 0.826043
O O11 0.919725 0.699426 0.821057
O O12 0.995442 0.500000 0.342475
O O13 0.344344 0.589274 0.280023
O O14 0.314658 0.313735 0.814463
O O15 0.000000 0.266386 0.000000
#
# Coordination Sequence:
#
# PCOD9168706 Si02
#       6
#     8   8   8   8   8   8
#     4  11  18  27  47  75 100 121 162 215 253 289
#     4   8  14  24  43  70 101 127 153 204 263 297
#     4  11  21  34  51  77  98 139 167 203 245 298
#     4   9  16  29  49  74 100 126 163 210 256 294
#     4  11  21  34  50  71 104 137 174 196 243 292
#     4  10  16  27  44  74 100 127 159 206 253 293
#
# _framework density 23.041578999999999
#
# number of rings (size 3 to 8) (size 9 to 14) (size 15 to 20)
#    0.000    2.000    5.000    3.500    0.000    0.000 
#    0.000    0.833    0.000    2.000    0.000    0.000 
#    0.000    2.667    0.000    0.000    0.000    0.000 
#
# Total GULP energy -134267.230655 kJ/mol
# GULP energy per Si atom -5594.467944 kJ/mol
# Density = 2.298914 g / cm^3
# Si number density = 23.041579 Si / 1000 Ang^3
#
#
#
# Elastic Constant Matrix: (Units=GPa)
#
#
# Indices 1 2 3 4 5 6 
#
# 1 85.4324 25.2937 26.3378 -0.0004 1.2042 -0.0165
# 2 25.2937 140.1072 74.6314 -0.0013 6.8748 -0.0106
# 3 26.3378 74.6314 166.8731 -0.0104 26.0524 0.0120
# 4 -0.0004 -0.0013 -0.0104 38.5576 -0.0012 9.0812
# 5 1.2042 6.8748 26.0524 -0.0012 15.0813 0.0006
# 6 -0.0165 -0.0106 0.0120 9.0812 0.0006 20.6281
#
#
#
# Elastic Compliance Matrix: (Units=1/GPa)
#
#
# Indices 1 2 3 4 5 6 
#
# 1 0.012647 -0.001481 -0.001755 -0.000003 0.002697 0.000012
# 2 -0.001481 0.009728 -0.004715 -0.000003 0.003828 0.000008
# 3 -0.001755 -0.004715 0.010983 0.000005 -0.016683 -0.000012
# 4 -0.000003 -0.000003 0.000005 0.028935 -0.000005 -0.012738
# 5 0.002697 0.003828 -0.016683 -0.000005 0.093166 0.000013
# 6 0.000012 0.000008 -0.000012 -0.012738 0.000013 0.054086
#
#
# Mechanical properties :
#
#
# Convention : Reuss Voigt Hill
#
# Bulk Modulus (GPa) = 57.28365 71.65983 64.47174
# Shear Modulus (GPa) = 21.62034 32.59673 27.10853
#
# Velocity S-wave (km/s) = 3.06652 3.76532 3.43374
# Velocity P-wave (km/s) = 6.11989 7.07610 6.61530
#
# Compressibility (1/GPa) = 0.01745699
#
# Stress axis : x y z
#
# Youngs Moduli (GPa) = 79.07317 102.79275 91.05226
#
# Poissons Ratio (x) = 0.15220 0.15978
# Poissons Ratio (y) = 0.11708 0.42929
# Poissons Ratio (z) = 0.13876 0.48465
#
# Static dielectric constant tensor:
#      x y z
#    x 1.984650 0.000000 0.004900 
#    y 0.000000 1.808190 0.000000 
#    z 0.004900 0.000000 1.861770 
# 
# From -- ./inp_files/334046.got.cif
#   From: 2010.05.17/outbox.cif.g08.bks.cpg/sg12_168_cif.got.tgz:334046.got - 2010.06.03 13:09:07.
