data_PCOD9168596
_publ_section_title
;
Structure prediction by ZEFSAII (Michael W. Deem and Ramdas Pophale) SiO2 
 PCOD9168596
Probable space group: C 2/M
;
_chemical_formula_sum "Si O2"
_cell_formula_units_Z 60
_cell_length_a 5.294566
_cell_length_b 24.310210
_cell_length_c 26.281613
_cell_angle_alpha 90.000000
_cell_angle_beta 77.787661
_cell_angle_gamma 90.000000
_cell_volume 3306.208651
_symmetry_space_group_name_H-M "C 2/M"
_symmetry_group_IT_number 12
_symmetry_cell_setting 'monoclinic'
loop_
_space_group_symop_operation_xyz
x,y,z
-x,y,-z
-x,-y,-z
x,-y,z
1/2+x,1/2+y,z
1/2-x,1/2+y,-z
1/2-x,1/2-y,-z
1/2+x,1/2-y,z
loop_
_atom_site_type_symbol
_atom_site_label
_atom_site_fract_x
_atom_site_fract_y
_atom_site_fract_z
Si Si1 0.678837 0.313102 0.895772
Si Si2 0.711906 0.286045 0.776886
Si Si3 0.369057 0.560336 0.450526
Si Si4 0.000000 0.348235 0.500000
Si Si5 0.582221 0.563985 0.334204
Si Si6 0.860331 0.285291 0.409440
Si Si7 0.867157 0.687985 0.060433
Si Si8 0.084704 0.369308 0.316017
O O1 0.677824 0.309471 0.835264
O O2 0.414616 0.338567 0.927730
O O3 0.685161 0.250398 0.917653
O O4 0.936832 0.338727 0.907904
O O5 0.443147 0.258512 0.771184
O O6 0.801473 0.331518 0.733328
O O7 0.500000 0.560350 0.500000
O O8 0.241496 0.500000 0.448401
O O9 0.571010 0.566308 0.396420
O O10 0.176723 0.611165 0.459340
O O11 0.156028 0.311994 0.533746
O O12 0.579850 0.500000 0.319437
O O13 0.320968 0.593905 0.326943
O O14 0.844291 0.594123 0.307094
O O15 0.584426 0.261178 0.404282
O O16 0.967154 0.329300 0.364425
O O17 0.000000 0.690300 0.000000
#
# Coordination Sequence:
#
# PCOD9168596 Si02
#       8
#     8   8   8   4   8   8   8   8
#     4  10  16  27  40  65  97 138 192 234 259 299
#     4  12  21  36  54  77 111 151 193 241 260 303
#     4  10  22  38  62  89 109 135 169 222 283 344
#     4  12  23  38  62  76 118 136 181 212 278 328
#     4  11  24  44  65  88 110 132 170 228 289 354
#     4  12  26  42  57  82 112 150 186 215 256 318
#     4  10  16  25  41  64  99 141 196 236 265 307
#     4  12  24  42  63  83 109 143 187 226 281 323
#
# _framework density 18.147675
#
# number of rings (size 3 to 8) (size 9 to 14) (size 15 to 20)
#    0.000    0.933    4.000    6.200    1.867    0.000 
#    0.000    0.000    0.000    0.000    0.000    0.000 
#    0.000    0.000    0.000    0.000    0.000   77.333 
#
# Total GULP energy -167588.969143 kJ/mol
# GULP energy per Si atom -5586.298971 kJ/mol
# Density = 1.810637 g / cm^3
# Si number density = 18.147675 Si / 1000 Ang^3
#
#
#
# Elastic Constant Matrix: (Units=GPa)
#
#
# Indices 1 2 3 4 5 6 
#
# 1 73.5537 2.7198 -18.1271 0.0000 -6.0147 0.0000
# 2 2.7198 46.7855 18.6471 0.0000 -1.9918 0.0000
# 3 -18.1271 18.6471 59.2765 0.0000 -11.5022 0.0000
# 4 0.0000 0.0000 0.0000 5.3712 0.0000 -0.0604
# 5 -6.0147 -1.9918 -11.5022 0.0000 22.2335 0.0000
# 6 0.0000 0.0000 0.0000 -0.0604 0.0000 14.8552
#
#
#
# Elastic Compliance Matrix: (Units=1/GPa)
#
#
# Indices 1 2 3 4 5 6 
#
# 1 0.016288 -0.003673 0.007701 0.000000 0.008061 0.000000
# 2 -0.003673 0.025346 -0.009836 0.000000 -0.003812 0.000000
# 3 0.007701 -0.009836 0.025069 0.000000 0.014171 0.000000
# 4 0.000000 0.000000 0.000000 0.186185 0.000000 0.000757
# 5 0.008061 -0.003812 0.014171 0.000000 0.054148 0.000000
# 6 0.000000 0.000000 0.000000 0.000757 0.000000 0.067320
#
#
# Mechanical properties :
#
#
# Convention : Reuss Voigt Hill
#
# Bulk Modulus (GPa) = 18.15324 20.67725 19.41524
# Shear Modulus (GPa) = 12.36600 20.25037 16.30819
#
# Velocity S-wave (km/s) = 2.61321 3.34408 3.00098
# Velocity P-wave (km/s) = 4.37378 5.13119 4.76755
#
# Compressibility (1/GPa) = 0.05508658
#
# Stress axis : x y z
#
# Youngs Moduli (GPa) = 61.39367 39.45443 39.88987
#
# Poissons Ratio (x) = 0.14491 -0.30718
# Poissons Ratio (y) = 0.22550 0.39236
# Poissons Ratio (z) = -0.47277 0.38807
#
# Static dielectric constant tensor:
#      x y z
#    x 1.705800 0.000000 0.006770 
#    y 0.000000 1.665870 0.000000 
#    z 0.006770 0.000000 1.611970 
# 
# From -- ./inp_files/355058.got.cif
#   From: 2010.05.17/outbox.cif.g08.bks.cpg/sg12_178_cif.got.tgz:355058.got - 2010.06.03 13:09:07.
