data_PCOD9168705
_publ_section_title
;
Structure prediction by ZEFSAII (Michael W. Deem and Ramdas Pophale) SiO2 
 PCOD9168705
Probable space group: C 2/M
;
_chemical_formula_sum "Si O2"
_cell_formula_units_Z 44
_cell_length_a 20.859834
_cell_length_b 13.863975
_cell_length_c 10.553354
_cell_angle_alpha 90.000000
_cell_angle_beta 143.321930
_cell_angle_gamma 90.000000
_cell_volume 1823.034491
_symmetry_space_group_name_H-M "C 2/M"
_symmetry_group_IT_number 12
_symmetry_cell_setting 'monoclinic'
loop_
_space_group_symop_operation_xyz
x,y,z
-x,y,-z
-x,-y,-z
x,-y,z
1/2+x,1/2+y,z
1/2-x,1/2+y,-z
1/2-x,1/2-y,-z
1/2+x,1/2-y,z
loop_
_atom_site_type_symbol
_atom_site_label
_atom_site_fract_x
_atom_site_fract_y
_atom_site_fract_z
Si Si1 0.849492 0.000000 0.229214
Si Si2 0.329930 0.000000 0.854835
Si Si3 0.297735 0.671509 0.978252
Si Si4 0.404049 0.500000 0.595390
Si Si5 0.648445 0.207377 0.167142
Si Si6 0.901365 0.213344 0.639496
Si Si7 0.578946 0.892771 0.505931
O O1 0.727686 0.000000 0.098094
O O2 0.859415 0.905446 0.161152
O O3 0.082222 0.000000 0.534815
O O4 0.226286 0.000000 0.595630
O O5 0.388821 0.099695 0.924725
O O6 0.364174 0.723747 0.973443
O O7 0.199055 0.618556 0.751830
O O8 0.250000 0.750000 0.000000
O O9 0.443245 0.603089 0.706141
O O10 0.777859 0.202540 0.392869
O O11 0.603030 0.247950 0.225049
O O12 0.942337 0.300024 0.615117
O O13 0.500000 0.888766 0.500000
O O14 0.568236 0.000000 0.429124
#
# Coordination Sequence:
#
# PCOD9168705 Si02
#       7
#     4   4   8   4   8   8   8
#     4  10  16  27  44  70 103 131 164 212 262 309
#     4   8  14  26  38  67 103 130 156 212 267 307
#     4  11  18  31  51  77 102 137 178 217 266 312
#     4   8  16  31  46  71 105 127 168 227 264 304
#     4   9  17  26  46  74 100 134 172 222 270 306
#     4   9  17  31  48  70 103 139 175 217 268 316
#     4  10  21  35  51  78 112 145 178 218 267 325
#
# _framework density 24.135583
#
# number of rings (size 3 to 8) (size 9 to 14) (size 15 to 20)
#    0.545    2.000    2.727    1.091    1.273    0.727 
#    4.909    0.455    0.000    1.091    0.000    3.818 
#    0.000    4.364    0.000    0.000    0.000    0.000 
#
# Total GULP energy -123045.022005 kJ/mol
# GULP energy per Si atom -5592.955546 kJ/mol
# Density = 2.408065 g / cm^3
# Si number density = 24.135583 Si / 1000 Ang^3
#
#
#
# Elastic Constant Matrix: (Units=GPa)
#
#
# Indices 1 2 3 4 5 6 
#
# 1 124.3072 110.6066 1.9608 0.0000 -32.5773 0.0000
# 2 110.6066 287.0620 44.7886 0.0000 -31.2274 0.0000
# 3 1.9608 44.7886 74.1573 0.0000 1.7417 0.0000
# 4 0.0000 0.0000 0.0000 28.8334 0.0000 1.1046
# 5 -32.5773 -31.2274 1.7417 0.0000 30.4979 0.0000
# 6 0.0000 0.0000 0.0000 1.1046 0.0000 19.9164
#
#
#
# Elastic Compliance Matrix: (Units=1/GPa)
#
#
# Indices 1 2 3 4 5 6 
#
# 1 0.015503 -0.005139 0.002432 0.000000 0.011160 0.000000
# 2 -0.005139 0.006132 -0.003591 0.000000 0.000995 0.000000
# 3 0.002432 -0.003591 0.015636 0.000000 -0.001972 0.000000
# 4 0.000000 0.000000 0.000000 0.034756 0.000000 -0.001928
# 5 0.011160 0.000995 -0.001972 0.000000 0.045841 0.000000
# 6 0.000000 0.000000 0.000000 -0.001928 0.000000 0.050317
#
#
# Mechanical properties :
#
#
# Convention : Reuss Voigt Hill
#
# Bulk Modulus (GPa) = 40.52728 88.91536 64.72132
# Shear Modulus (GPa) = 26.45412 37.72756 32.09084
#
# Velocity S-wave (km/s) = 3.31428 3.95796 3.65033
# Velocity P-wave (km/s) = 5.61016 7.60310 6.68136
#
# Compressibility (1/GPa) = 0.02467474
#
# Stress axis : x y z
#
# Youngs Moduli (GPa) = 64.50162 163.07523 63.95587
#
# Poissons Ratio (x) = 0.83804 -0.15553
# Poissons Ratio (y) = 0.33147 0.22967
# Poissons Ratio (z) = -0.15685 0.58562
#
# Static dielectric constant tensor:
#      x y z
#    x 1.937520 0.000000 0.136860 
#    y 0.000000 1.911900 0.000000 
#    z 0.136860 0.000000 2.027740 
# 
# From -- ./inp_files/167434.got.cif
#   From: 2010.05.17/outbox.cif.g08.bks.cpg/sg12_84_cif.got.tgz:167434.got - 2010.06.03 13:09:07.
