data_PCOD9168418
_publ_section_title
;
Structure prediction by ZEFSAII (Michael W. Deem and Ramdas Pophale) SiO2 
 PCOD9168418
Probable space group: C 2/M
;
_chemical_formula_sum "Si O2"
_cell_formula_units_Z 48
_cell_length_a 20.523772
_cell_length_b 13.353226
_cell_length_c 7.527167
_cell_angle_alpha 90.000000
_cell_angle_beta 104.126449
_cell_angle_gamma 90.000000
_cell_volume 2000.501837
_symmetry_space_group_name_H-M "C 2/M"
_symmetry_group_IT_number 12
_symmetry_cell_setting 'monoclinic'
loop_
_space_group_symop_operation_xyz
x,y,z
-x,y,-z
-x,-y,-z
x,-y,z
1/2+x,1/2+y,z
1/2-x,1/2+y,-z
1/2-x,1/2-y,-z
1/2+x,1/2-y,z
loop_
_atom_site_type_symbol
_atom_site_label
_atom_site_fract_x
_atom_site_fract_y
_atom_site_fract_z
Si Si1 0.194790 0.112664 0.260260
Si Si2 0.745696 0.893659 0.096688
Si Si3 0.398439 0.113050 0.141857
Si Si4 0.931448 0.179640 0.033756
Si Si5 0.183346 0.728398 0.625055
Si Si6 0.923096 0.115992 0.423521
O O1 0.254924 0.163832 0.415702
O O2 0.180969 0.000000 0.311801
O O3 0.231504 0.103229 0.091841
O O4 0.127224 0.167353 0.148975
O O5 0.776774 0.797997 0.208520
O O6 0.766140 0.000000 0.195006
O O7 0.665376 0.888481 0.034000
O O8 0.442477 0.205070 0.101460
O O9 0.366625 0.150605 0.307818
O O10 0.425637 0.000000 0.171228
O O11 0.910698 0.124775 0.202807
O O12 0.000000 0.137644 0.000000
O O13 0.130634 0.811522 0.515577
O O14 0.000000 0.150859 0.500000
O O15 0.920194 0.000000 0.474221
#
# Coordination Sequence:
#
# PCOD9168418 Si02
#       6
#     8   8   8   8   8   8
#     4  10  17  27  45  74 100 123 162 213 254 290
#     4   9  13  21  42  68  93 119 152 203 250 286
#     4   9  16  26  43  70 100 126 159 205 254 291
#     4  11  21  33  50  73 104 138 167 203 253 303
#     4  10  15  27  47  71  99 126 161 206 253 290
#     4  10  21  35  52  76 105 134 165 203 249 302
#
# _framework density 23.993981000000002
#
# number of rings (size 3 to 8) (size 9 to 14) (size 15 to 20)
#    0.000    2.167    5.000    3.500    0.000    1.667 
#    0.000    0.000    0.000   13.500    0.000    0.000 
#    0.000    0.000    0.000    0.000    0.000    0.000 
#
# Total GULP energy -133914.350088 kJ/mol
# GULP energy per Si atom -5579.764587 kJ/mol
# Density = 2.393937 g / cm^3
# Si number density = 23.993981 Si / 1000 Ang^3
#
#
#
# Elastic Constant Matrix: (Units=GPa)
#
#
# Indices 1 2 3 4 5 6 
#
# 1 121.9203 10.2357 12.2329 0.0000 5.4986 0.0000
# 2 10.2357 162.7517 7.4455 0.0000 4.9636 0.0000
# 3 12.2329 7.4455 72.2221 0.0000 -2.1464 0.0000
# 4 0.0000 0.0000 0.0000 13.2954 0.0000 11.3201
# 5 5.4986 4.9636 -2.1464 0.0000 25.8292 0.0000
# 6 0.0000 0.0000 0.0000 11.3201 0.0000 18.9270
#
#
#
# Elastic Compliance Matrix: (Units=1/GPa)
#
#
# Indices 1 2 3 4 5 6 
#
# 1 0.008465 -0.000410 -0.001446 0.000000 -0.001843 0.000000
# 2 -0.000410 0.006233 -0.000608 0.000000 -0.001161 0.000000
# 3 -0.001446 -0.000608 0.014201 0.000000 0.001605 0.000000
# 4 0.000000 0.000000 0.000000 0.153257 0.000000 -0.091662
# 5 -0.001843 -0.001161 0.001605 0.000000 0.039465 0.000000
# 6 0.000000 0.000000 0.000000 -0.091662 0.000000 0.107657
#
#
# Mechanical properties :
#
#
# Convention : Reuss Voigt Hill
#
# Bulk Modulus (GPa) = 41.71581 46.30248 44.00915
# Shear Modulus (GPa) = 14.61147 33.40898 24.01023
#
# Velocity S-wave (km/s) = 2.47040 3.73552 3.16678
# Velocity P-wave (km/s) = 5.05577 6.15995 5.63497
#
# Compressibility (1/GPa) = 0.02397173
#
# Stress axis : x y z
#
# Youngs Moduli (GPa) = 118.13701 160.42812 70.41514
#
# Poissons Ratio (x) = 0.06577 0.10184
# Poissons Ratio (y) = 0.04843 0.04279
# Poissons Ratio (z) = 0.17086 0.09749
#
# Static dielectric constant tensor:
#      x y z
#    x 1.937910 0.000000 -0.043510 
#    y 0.000000 2.022720 0.000000 
#    z -0.043510 0.000000 2.001390 
# 
# From -- ./inp_files/95866.got.cif
#   From: 2010.05.17/outbox.cif.g08.bks.cpg/sg12_48_cif.got.tgz:95866.got - 2010.06.03 13:09:07.
