data_PCOD9168609
_publ_section_title
;
Structure prediction by ZEFSAII (Michael W. Deem and Ramdas Pophale) SiO2 
 PCOD9168609
Probable space group: C 2/M
;
_chemical_formula_sum "Si O2"
_cell_formula_units_Z 50
_cell_length_a 13.945834
_cell_length_b 20.496602
_cell_length_c 6.682415
_cell_angle_alpha 90.000000
_cell_angle_beta 65.896587
_cell_angle_gamma 90.000000
_cell_volume 1743.572946
_symmetry_space_group_name_H-M "C 2/M"
_symmetry_group_IT_number 12
_symmetry_cell_setting 'monoclinic'
loop_
_space_group_symop_operation_xyz
x,y,z
-x,y,-z
-x,-y,-z
x,-y,z
1/2+x,1/2+y,z
1/2-x,1/2+y,-z
1/2-x,1/2-y,-z
1/2+x,1/2-y,z
loop_
_atom_site_type_symbol
_atom_site_label
_atom_site_fract_x
_atom_site_fract_y
_atom_site_fract_z
Si Si1 0.000000 0.000000 0.500000
Si Si2 0.145007 0.107062 0.450445
Si Si3 0.318557 0.428266 0.053561
Si Si4 0.163874 0.243113 0.320907
Si Si5 0.623417 0.077524 0.748242
Si Si6 0.380774 0.707633 0.091002
Si Si7 0.908518 0.619280 0.779134
O O1 0.056953 0.942762 0.586201
O O2 0.162051 0.082458 0.201662
O O3 0.114986 0.183709 0.489382
O O4 0.262127 0.094818 0.430235
O O5 0.355391 0.500000 0.070456
O O6 0.371298 0.369684 0.130674
O O7 0.192150 0.424148 0.189525
O O8 0.391024 0.121309 0.038449
O O9 0.286016 0.253110 0.274051
O O10 0.109907 0.312785 0.323958
O O11 0.527346 0.092383 0.680277
O O12 0.619294 0.000000 0.802953
O O13 0.500000 0.731173 0.000000
O O14 0.343112 0.713032 0.893927
#
# Coordination Sequence:
#
# PCOD9168609 Si02
#       7
#     2   8   8   8   8   8   8
#     4  12  20  36  56  62  82 124 164 224 258 276
#     4  10  19  31  46  66  87 120 166 202 249 281
#     4   9  15  28  41  65 102 125 151 191 221 282
#     4   9  19  29  40  68  97 128 163 189 227 292
#     4  10  16  25  43  76 101 123 160 192 231 291
#     4   9  17  26  42  66  98 135 159 171 222 288
#     4   9  16  24  43  66 101 131 141 181 241 286
#
# _framework density 28.676745
#
# number of rings (size 3 to 8) (size 9 to 14) (size 15 to 20)
#    0.000    2.560    1.600    5.760    4.480    0.320 
#    0.000    0.000    0.000    0.960    0.000    0.000 
#    0.000    0.000    0.000   23.360    1.280    0.000 
#
# Total GULP energy -139715.607993 kJ/mol
# GULP energy per Si atom -5588.624320 kJ/mol
# Density = 2.861148 g / cm^3
# Si number density = 28.676745 Si / 1000 Ang^3
#
#
#
# Elastic Constant Matrix: (Units=GPa)
#
#
# Indices 1 2 3 4 5 6 
#
# 1 212.4572 61.6633 58.5631 0.0000 -29.6570 0.0000
# 2 61.6633 226.1641 19.5899 0.0000 -6.2637 0.0000
# 3 58.5631 19.5899 73.6803 0.0000 -3.0352 0.0000
# 4 0.0000 0.0000 0.0000 37.8839 0.0000 14.8130
# 5 -29.6570 -6.2637 -3.0352 0.0000 55.3842 0.0000
# 6 0.0000 0.0000 0.0000 14.8130 0.0000 37.0118
#
#
#
# Elastic Compliance Matrix: (Units=1/GPa)
#
#
# Indices 1 2 3 4 5 6 
#
# 1 0.006948 -0.001368 -0.005023 0.000000 0.003290 0.000000
# 2 -0.001368 0.004806 -0.000199 0.000000 -0.000200 0.000000
# 3 -0.005023 -0.000199 0.017545 0.000000 -0.001751 0.000000
# 4 0.000000 0.000000 0.000000 0.031294 0.000000 -0.012524
# 5 0.003290 -0.000200 -0.001751 0.000000 0.019699 0.000000
# 6 0.000000 0.000000 0.000000 -0.012524 0.000000 0.032031
#
#
# Mechanical properties :
#
#
# Convention : Reuss Voigt Hill
#
# Bulk Modulus (GPa) = 62.03586 87.99270 75.01428
# Shear Modulus (GPa) = 38.20417 50.88834 44.54626
#
# Velocity S-wave (km/s) = 3.65394 4.21711 3.94559
# Velocity P-wave (km/s) = 6.28343 7.37990 6.85363
#
# Compressibility (1/GPa) = 0.01611971
#
# Stress axis : x y z
#
# Youngs Moduli (GPa) = 143.93089 208.06230 56.99542
#
# Poissons Ratio (x) = 0.28465 0.28629
# Poissons Ratio (y) = 0.19691 0.01133
# Poissons Ratio (z) = 0.72296 0.04134
#
# Static dielectric constant tensor:
#      x y z
#    x 2.242920 0.000000 0.028440 
#    y 0.000000 2.205810 0.000000 
#    z 0.028440 0.000000 2.519810 
# 
# From -- ./inp_files/146570.got.cif
#   From: 2010.05.17/outbox.cif.g08.bks.cpg/sg12_74_cif.got.tgz:146570.got - 2010.06.03 13:09:07.
