data_PCOD9168488
_publ_section_title
;
Structure prediction by ZEFSAII (Michael W. Deem and Ramdas Pophale) SiO2 
 PCOD9168488
Probable space group: C 2/M
;
_chemical_formula_sum "Si O2"
_cell_formula_units_Z 48
_cell_length_a 14.018147
_cell_length_b 8.981185
_cell_length_c 18.532390
_cell_angle_alpha 90.000000
_cell_angle_beta 62.098739
_cell_angle_gamma 90.000000
_cell_volume 2061.995580
_symmetry_space_group_name_H-M "C 2/M"
_symmetry_group_IT_number 12
_symmetry_cell_setting 'monoclinic'
loop_
_space_group_symop_operation_xyz
x,y,z
-x,y,-z
-x,-y,-z
x,-y,z
1/2+x,1/2+y,z
1/2-x,1/2+y,-z
1/2-x,1/2-y,-z
1/2+x,1/2-y,z
loop_
_atom_site_type_symbol
_atom_site_label
_atom_site_fract_x
_atom_site_fract_y
_atom_site_fract_z
Si Si1 0.070355 0.833712 0.408903
Si Si2 0.684305 0.829680 0.243920
Si Si3 0.970191 0.677962 0.906499
Si Si4 0.410099 0.330387 0.255879
Si Si5 0.292698 0.834347 0.415923
Si Si6 0.665215 0.681209 0.932478
O O1 0.097525 0.755904 0.323377
O O2 0.188847 0.847875 0.401504
O O3 0.000000 0.763723 0.500000
O O4 0.024531 0.000000 0.412732
O O5 0.797052 0.830217 0.250416
O O6 0.726772 0.777488 0.150204
O O7 0.648844 0.000000 0.249098
O O8 0.966226 0.500000 0.914667
O O9 0.003883 0.727177 0.814780
O O10 0.068938 0.748990 0.917794
O O11 0.864042 0.750421 0.979473
O O12 0.448316 0.500000 0.244641
O O13 0.378282 0.264743 0.343820
O O14 0.250000 0.750000 0.500000
O O15 0.333271 0.000000 0.418167
O O16 0.658533 0.500000 0.936497
#
# Coordination Sequence:
#
# PCOD9168488 Si02
#       6
#     8   8   8   8   8   8
#     4   9  18  31  46  64  87 116 148 182 220 261
#     4   8  15  25  38  56  78 107 141 176 214 256
#     4  10  16  21  32  52  76 104 139 174 211 255
#     4   9  16  27  40  55  79 110 142 175 215 259
#     4  10  19  31  47  66  89 116 148 184 221 262
#     4   9  15  23  33  48  74 107 140 172 210 256
#
# _framework density 23.278420000000001
#
# number of rings (size 3 to 8) (size 9 to 14) (size 15 to 20)
#    0.000    2.833    0.000    5.000    0.000    5.667 
#    0.000    0.000    0.000    0.000    0.000    0.000 
#    0.000    1.333    0.000    4.000    0.000   11.833 
#
# Total GULP energy -133960.052053 kJ/mol
# GULP energy per Si atom -5581.668836 kJ/mol
# Density = 2.322544 g / cm^3
# Si number density = 23.278420 Si / 1000 Ang^3
#
#
#
# Elastic Constant Matrix: (Units=GPa)
#
#
# Indices 1 2 3 4 5 6 
#
# 1 70.0999 4.2361 7.1163 0.0000 -19.6212 0.0000
# 2 4.2361 104.7088 78.8999 0.0000 -8.1633 0.0000
# 3 7.1163 78.8999 264.4770 0.0000 -16.9758 0.0000
# 4 0.0000 0.0000 0.0000 43.9573 0.0000 -5.4398
# 5 -19.6212 -8.1633 -16.9758 0.0000 25.3275 0.0000
# 6 0.0000 0.0000 0.0000 -5.4398 0.0000 -1.4199
#
#
#
# Elastic Compliance Matrix: (Units=1/GPa)
#
#
# Indices 1 2 3 4 5 6 
#
# 1 0.018263 0.000076 0.000413 0.000000 0.014450 0.000000
# 2 0.000076 0.012380 -0.003590 0.000000 0.001643 0.000000
# 3 0.000413 -0.003590 0.005002 0.000000 0.002516 0.000000
# 4 0.000000 0.000000 0.000000 0.015433 0.000000 -0.059125
# 5 0.014450 0.001643 0.002516 0.000000 0.052894 0.000000
# 6 0.000000 0.000000 0.000000 -0.059125 0.000000 -0.477772
#
#
# Mechanical properties :
#
#
# Convention : Reuss Voigt Hill
#
# Bulk Modulus (GPa) = 33.96098 68.86559 51.41329
# Shear Modulus (GPa) = -13.97493 36.84188 11.43347
#
# Velocity S-wave (km/s) = -2.45284 3.98258 2.21862
# Velocity P-wave (km/s) = 2.56882 7.12711 5.35698
#
# Compressibility (1/GPa) = 0.02944555
#
# Stress axis : x y z
#
# Youngs Moduli (GPa) = 54.75408 80.77274 199.90442
#
# Poissons Ratio (x) = -0.00616 -0.08263
# Poissons Ratio (y) = -0.00417 0.71765
# Poissons Ratio (z) = -0.02263 0.28997
#
# Static dielectric constant tensor:
#      x y z
#    x 1.957570 0.000000 0.023350 
#    y 0.000000 1.816720 0.000000 
#    z 0.023350 0.000000 1.875540 
# 
# From -- ./inp_files/291333.got.cif
#   From: 2010.05.17/outbox.cif.g08.bks.cpg/sg12_146_cif.got.tgz:291333.got - 2010.06.03 13:09:07.
