data_PCOD9168074
_publ_section_title
;
Structure prediction by ZEFSAII (Michael W. Deem and Ramdas Pophale) SiO2 
 PCOD9168074
Probable space group: P 21/M
;
_chemical_formula_sum "Si O2"
_cell_formula_units_Z 32
_cell_length_a 15.000000
_cell_length_b 9.000000
_cell_length_c 24.000000
_cell_angle_alpha 90.000000
_cell_angle_beta 30.000000
_cell_angle_gamma 90.000000
_cell_volume 1620.000000
_symmetry_space_group_name_H-M "P 21/M"
_symmetry_group_IT_number 11
_symmetry_cell_setting 'monoclinic'
loop_
_space_group_symop_operation_xyz
x,y,z
-x,1/2+y,-z
-x,-y,-z
x,1/2-y,z
loop_
_atom_site_type_symbol
_atom_site_label
_atom_site_fract_x
_atom_site_fract_y
_atom_site_fract_z
Si Si1 0.221755 0.569796 0.546097
Si Si2 0.194430 0.069838 0.893950
Si Si3 0.476441 0.570679 0.213931
Si Si4 0.864749 0.427864 0.529577
Si Si5 0.364097 0.429967 0.683945
Si Si6 0.103474 0.427823 0.725832
Si Si7 0.766431 0.919991 0.881830
Si Si8 0.372991 0.922127 0.148601
O O1 0.211991 0.750000 0.554446
O O2 0.127114 0.523612 0.539348
O O3 0.430209 0.525748 0.430827
O O4 0.148386 0.497395 0.641658
O O5 0.182985 0.250000 0.902235
O O6 0.329040 0.020907 0.870570
O O7 0.282816 0.026771 0.787202
O O8 0.000000 0.000000 0.000000
O O9 0.488286 0.750000 0.200862
O O10 0.333791 0.541608 0.339676
O O11 0.396850 0.516248 0.198209
O O12 0.889708 0.250000 0.517297
O O13 0.000000 0.500000 0.500000
O O14 0.362474 0.250000 0.683472
O O15 0.242018 0.479915 0.698229
O O16 0.108944 0.250000 0.720344
O O17 0.902969 0.484169 0.844272
O O18 0.828182 0.750000 0.845671
O O19 0.744116 0.985728 0.831687
O O20 0.572113 0.921913 0.015041
O O21 0.310364 0.750000 0.184278
#
# Coordination Sequence:
#
# PCOD9168074 Si02
#       8
#     4   4   4   4   4   4   4   4
#     4  10  20  39  61  81 109 146 189 234 281 333
#     4  10  20  37  60  86 116 151 189 228 278 338
#     4   9  18  36  61  84 110 150 188 223 277 342
#     4  10  21  37  59  85 114 149 187 229 280 337
#     4   9  19  38  60  81 110 148 187 228 279 338
#     4  11  23  36  56  83 111 145 187 233 281 332
#     4  10  21  37  55  81 114 147 183 230 280 331
#     4   9  19  36  58  81 110 146 187 228 274 331
#
# _framework density 19.753086
#
# number of rings (size 3 to 8) (size 9 to 14) (size 15 to 20)
#    0.000    2.250    1.250    1.125    3.500    1.000 
#    0.000    3.125    0.000    0.000    0.000    0.000 
#    0.000    0.000    0.000    0.000    0.000    0.000 
#
# Total GULP energy -178602.360616 kJ/mol
# GULP energy per Si atom -5581.323769 kJ/mol
# Density = 1.970813 g / cm^3
# Si number density = 19.753086 Si / 1000 Ang^3
#
#
#
# Elastic Constant Matrix: (Units=GPa)
#
#
# Indices 1 2 3 4 5 6 
#
# 1 118.8993 18.5214 -0.5407 0.0000 -4.4994 0.0000
# 2 18.5214 30.3546 2.9852 0.0000 -1.0075 0.0000
# 3 -0.5407 2.9852 32.7031 0.0000 -8.3824 0.0000
# 4 0.0000 0.0000 0.0000 25.9207 0.0000 -2.8347
# 5 -4.4994 -1.0075 -8.3824 0.0000 36.9424 0.0000
# 6 0.0000 0.0000 0.0000 -2.8347 0.0000 24.8974
#
#
#
# Elastic Compliance Matrix: (Units=1/GPa)
#
#
# Indices 1 2 3 4 5 6 
#
# 1 0.009359 -0.005768 0.000991 0.000000 0.001207 0.000000
# 2 -0.005768 0.036799 -0.003586 0.000000 -0.000513 0.000000
# 3 0.000991 -0.003586 0.032838 0.000000 0.007474 0.000000
# 4 0.000000 0.000000 0.000000 0.039066 0.000000 0.004448
# 5 0.001207 -0.000513 0.007474 0.000000 0.028898 0.000000
# 6 0.000000 0.000000 0.000000 0.004448 0.000000 0.040671
#
#
# Mechanical properties :
#
#
# Convention : Reuss Voigt Hill
#
# Bulk Modulus (GPa) = 16.05922 24.87654 20.46788
# Shear Modulus (GPa) = 22.21103 28.28484 25.24793
#
# Velocity S-wave (km/s) = 3.35689 3.78818 3.57904
# Velocity P-wave (km/s) = 4.81379 5.63514 5.24058
#
# Compressibility (1/GPa) = 0.06226952
#
# Stress axis : x y z
#
# Youngs Moduli (GPa) = 106.84696 27.17464 30.45295
#
# Poissons Ratio (x) = 0.15674 -0.03017
# Poissons Ratio (y) = 0.61630 0.10920
# Poissons Ratio (z) = -0.10586 0.09744
#
# Static dielectric constant tensor:
#      x y z
#    x 1.693240 0.000000 -0.004800 
#    y 0.000000 1.671140 0.000000 
#    z -0.004800 0.000000 1.734630 
# 
# From -- ./inp_files/51731.got.cif
#   From: 2010.05.17/outbox.ucp.g08.bks.cvg/sg11_26_cif.got.tgz:51731.got - 2010.06.11 11:38:39.
