data_PCOD9168793
_publ_section_title
;
Structure prediction by ZEFSAII (Michael W. Deem and Ramdas Pophale) SiO2 
 PCOD9168793
Probable space group: C 2/M
;
_chemical_formula_sum "Si O2"
_cell_formula_units_Z 48
_cell_length_a 15.632205
_cell_length_b 19.262670
_cell_length_c 16.101594
_cell_angle_alpha 90.000000
_cell_angle_beta 142.314761
_cell_angle_gamma 90.000000
_cell_volume 2963.988133
_symmetry_space_group_name_H-M "C 2/M"
_symmetry_group_IT_number 12
_symmetry_cell_setting 'monoclinic'
loop_
_space_group_symop_operation_xyz
x,y,z
-x,y,-z
-x,-y,-z
x,-y,z
1/2+x,1/2+y,z
1/2-x,1/2+y,-z
1/2-x,1/2-y,-z
1/2+x,1/2-y,z
loop_
_atom_site_type_symbol
_atom_site_label
_atom_site_fract_x
_atom_site_fract_y
_atom_site_fract_z
Si Si1 0.993304 0.080357 0.815402
Si Si2 0.000000 0.146612 0.000000
Si Si3 0.132605 0.788418 0.856852
Si Si4 0.707147 0.140092 0.523899
Si Si5 0.000000 0.653781 0.500000
Si Si6 0.337050 0.214345 0.668313
Si Si7 0.242408 0.746976 0.768605
O O1 0.985171 0.100824 0.906143
O O2 0.106139 0.133252 0.865008
O O3 0.846269 0.099850 0.658064
O O4 0.024807 0.000000 0.829046
O O5 0.864486 0.196410 0.896158
O O6 0.176222 0.787071 0.794638
O O7 0.989140 0.746357 0.764951
O O8 0.250000 0.750000 0.000000
O O9 0.581364 0.115447 0.487142
O O10 0.684121 0.147797 0.407330
O O11 0.732258 0.221886 0.565213
O O12 0.882057 0.699815 0.364077
O O13 0.309094 0.207450 0.745186
#
# Coordination Sequence:
#
# PCOD9168793 Si02
#       7
#     8   4   8   8   4   8   8
#     4  11  23  36  51  77 118 153 179 221 282 346
#     4  12  19  36  54  82 117 148 176 222 293 338
#     4  11  19  32  56  80 108 142 187 231 271 325
#     4   9  17  31  49  72 103 144 181 219 274 322
#     4  10  16  28  53  76 105 132 174 232 276 312
#     4   9  17  30  49  76 105 132 174 235 282 303
#     4  11  19  30  54  85 110 134 183 238 276 323
#
# _framework density 16.194396999999999
#
# number of rings (size 3 to 8) (size 9 to 14) (size 15 to 20)
#    0.000    1.667    8.333    0.250    2.333    0.000 
#    0.000    0.417    0.000    3.000    0.000    4.083 
#    0.000    0.000    0.000    0.000    0.000    0.000 
#
# Total GULP energy -133607.757697 kJ/mol
# GULP energy per Si atom -5566.989904 kJ/mol
# Density = 1.615754 g / cm^3
# Si number density = 16.194397 Si / 1000 Ang^3
#
#
#
# Elastic Constant Matrix: (Units=GPa)
#
#
# Indices 1 2 3 4 5 6 
#
# 1 131.8162 37.8090 30.1443 0.0000 -18.6345 -0.0001
# 2 37.8090 69.3392 24.7040 0.0001 -5.4664 0.0000
# 3 30.1443 24.7040 65.9543 0.0000 1.8344 -0.0001
# 4 0.0000 0.0001 0.0000 8.7948 0.0000 3.1772
# 5 -18.6345 -5.4664 1.8344 0.0000 33.7843 -0.0001
# 6 -0.0001 0.0000 -0.0001 3.1772 -0.0001 0.5883
#
#
#
# Elastic Compliance Matrix: (Units=1/GPa)
#
#
# Indices 1 2 3 4 5 6 
#
# 1 0.010219 -0.003980 -0.003324 0.000000 0.005173 -0.000001
# 2 -0.003980 0.018510 -0.005144 0.000000 0.001079 0.000001
# 3 -0.003324 -0.005144 0.018710 0.000001 -0.003682 -0.000003
# 4 0.000000 0.000000 0.000001 -0.119567 0.000001 0.645714
# 5 0.005173 0.001079 -0.003682 0.000001 0.032827 -0.000004
# 6 -0.000001 0.000001 -0.000003 0.645714 -0.000004 -1.787400
#
#
# Mechanical properties :
#
#
# Convention : Reuss Voigt Hill
#
# Bulk Modulus (GPa) = 44.35864 50.26937 47.31400
# Shear Modulus (GPa) = -2.78662 20.26365 8.73851
#
# Velocity S-wave (km/s) = -1.31319 3.54117 2.32545
# Velocity P-wave (km/s) = 5.01513 6.91581 6.04070
#
# Compressibility (1/GPa) = 0.02254352
#
# Stress axis : x y z
#
# Youngs Moduli (GPa) = 97.85278 54.02487 53.44665
#
# Poissons Ratio (x) = 0.21504 0.17764
# Poissons Ratio (y) = 0.38949 0.27493
# Poissons Ratio (z) = 0.32524 0.27790
#
# Static dielectric constant tensor:
#      x y z
#    x 1.606460 0.000000 -0.033360 
#    y 0.000000 1.505230 0.000000 
#    z -0.033360 0.000000 1.585180 
# 
# From -- ./inp_files/217479.got.cif
#   From: 2010.05.17/outbox.cif.g08.bks.cpg/sg12_109_cif.got.tgz:217479.got - 2010.06.03 13:09:07.
