data_PCOD9168141
_publ_section_title
;
Structure prediction by ZEFSAII (Michael W. Deem and Ramdas Pophale) SiO2 
 PCOD9168141
Probable space group: P 21/M
;
_chemical_formula_sum "Si O2"
_cell_formula_units_Z 28
_cell_length_a 12.000000
_cell_length_b 9.000000
_cell_length_c 15.000000
_cell_angle_alpha 90.000000
_cell_angle_beta 60.000000
_cell_angle_gamma 90.000000
_cell_volume 1402.961154
_symmetry_space_group_name_H-M "P 21/M"
_symmetry_group_IT_number 11
_symmetry_cell_setting 'monoclinic'
loop_
_space_group_symop_operation_xyz
x,y,z
-x,1/2+y,-z
-x,-y,-z
x,1/2-y,z
loop_
_atom_site_type_symbol
_atom_site_label
_atom_site_fract_x
_atom_site_fract_y
_atom_site_fract_z
Si Si1 0.199576 0.413000 0.077506
Si Si2 0.880171 0.579841 0.696324
Si Si3 0.023016 0.081093 0.898313
Si Si4 0.481921 0.079046 0.912392
Si Si5 0.131545 0.429090 0.671165
Si Si6 0.363851 0.429057 0.307799
Si Si7 0.386519 0.928057 0.488362
O O1 0.134948 0.250000 0.086616
O O2 0.212954 0.416536 0.178935
O O3 0.115536 0.555939 0.090790
O O4 0.327321 0.415573 0.968769
O O5 0.924091 0.750000 0.664635
O O6 0.785527 0.534289 0.655295
O O7 0.002199 0.480278 0.671504
O O8 0.056539 0.250000 0.901799
O O9 0.116010 0.025056 0.782039
O O10 0.000000 0.000000 0.000000
O O11 0.529217 0.250000 0.895584
O O12 0.546944 0.989694 0.807091
O O13 0.500000 0.000000 0.000000
O O14 0.143100 0.250000 0.663005
O O15 0.252576 0.509392 0.580134
O O16 0.373377 0.250000 0.310773
O O17 0.400946 0.511244 0.382795
O O18 0.390333 0.750000 0.489936
O O19 0.500000 0.000000 0.500000
#
# Coordination Sequence:
#
# PCOD9168141 Si02
#       7
#     4   4   4   4   4   4   4
#     4   9  18  34  54  81 120 162 199 246 300 355
#     4   9  18  36  61  91 125 161 202 249 308 372
#     4  10  21  36  58  88 119 156 201 250 302 362
#     4  11  21  35  57  89 128 169 208 253 308 370
#     4  10  22  41  65  93 124 161 204 258 315 371
#     4  11  23  41  64  94 129 168 213 265 317 378
#     4  12  27  48  70  92 120 163 212 264 318 376
#
# _framework density 19.957787
#
# number of rings (size 3 to 8) (size 9 to 14) (size 15 to 20)
#    0.000    1.714    1.429    3.000    0.000    5.714 
#    0.000    1.429    0.000    0.000    0.000    0.000 
#    0.000    0.000    0.000    0.000    0.000    0.000 
#
# Total GULP energy -156094.313991 kJ/mol
# GULP energy per Si atom -5574.796928 kJ/mol
# Density = 1.991236 g / cm^3
# Si number density = 19.957787 Si / 1000 Ang^3
#
#
#
# Elastic Constant Matrix: (Units=GPa)
#
#
# Indices 1 2 3 4 5 6 
#
# 1 82.4282 44.7651 60.7002 0.0000 8.2997 0.0000
# 2 44.7651 103.1693 66.8648 0.0000 2.2478 0.0000
# 3 60.7002 66.8648 131.9696 0.0000 3.4057 0.0000
# 4 0.0000 0.0000 0.0000 36.0282 0.0000 1.3087
# 5 8.2997 2.2478 3.4057 0.0000 34.1093 0.0000
# 6 0.0000 0.0000 0.0000 1.3087 0.0000 29.1126
#
#
#
# Elastic Compliance Matrix: (Units=1/GPa)
#
#
# Indices 1 2 3 4 5 6 
#
# 1 0.019847 -0.003984 -0.007011 0.000000 -0.003867 0.000000
# 2 -0.003984 0.015233 -0.005900 0.000000 0.000555 0.000000
# 3 -0.007011 -0.005900 0.013773 0.000000 0.000719 0.000000
# 4 0.000000 0.000000 0.000000 0.027801 0.000000 -0.001250
# 5 -0.003867 0.000555 0.000719 0.000000 0.030150 0.000000
# 6 0.000000 0.000000 0.000000 -0.001250 0.000000 0.034406
#
#
# Mechanical properties :
#
#
# Convention : Reuss Voigt Hill
#
# Bulk Modulus (GPa) = 66.38214 73.58081 69.98148
# Shear Modulus (GPa) = 27.77454 29.53249 28.65352
#
# Velocity S-wave (km/s) = 3.73455 3.85092 3.79318
# Velocity P-wave (km/s) = 7.20620 7.53134 7.37056
#
# Compressibility (1/GPa) = 0.01506429
#
# Stress axis : x y z
#
# Youngs Moduli (GPa) = 50.38464 65.64599 72.60638
#
# Poissons Ratio (x) = 0.26153 0.50901
# Poissons Ratio (y) = 0.20073 0.42838
# Poissons Ratio (z) = 0.35323 0.38732
#
# Static dielectric constant tensor:
#      x y z
#    x 1.785430 0.000000 0.051110 
#    y 0.000000 1.717730 0.000000 
#    z 0.051110 0.000000 1.750830 
# 
# From -- ./inp_files/48861.got.cif
#   From: 2010.05.17/outbox.ucp.g08.bks.cvg/sg11_25_cif.got.tgz:48861.got - 2010.06.11 11:38:39.
