data_PCOD9168873
_publ_section_title
;
Structure prediction by ZEFSAII (Michael W. Deem and Ramdas Pophale) SiO2 
 PCOD9168873
Probable space group: C 2/M
;
_chemical_formula_sum "Si O2"
_cell_formula_units_Z 64
_cell_length_a 26.122676
_cell_length_b 17.930792
_cell_length_c 9.473491
_cell_angle_alpha 90.000000
_cell_angle_beta 107.871471
_cell_angle_gamma 90.000000
_cell_volume 4223.270015
_symmetry_space_group_name_H-M "C 2/M"
_symmetry_group_IT_number 12
_symmetry_cell_setting 'monoclinic'
loop_
_space_group_symop_operation_xyz
x,y,z
-x,y,-z
-x,-y,-z
x,-y,z
1/2+x,1/2+y,z
1/2-x,1/2+y,-z
1/2-x,1/2-y,-z
1/2+x,1/2-y,z
loop_
_atom_site_type_symbol
_atom_site_label
_atom_site_fract_x
_atom_site_fract_y
_atom_site_fract_z
Si Si1 0.307646 0.271673 0.620108
Si Si2 0.757068 0.084943 0.528768
Si Si3 0.260253 0.413835 0.189795
Si Si4 0.159496 0.673673 0.577069
Si Si5 0.556510 0.088123 0.127589
Si Si6 0.946077 0.588793 0.538337
Si Si7 0.156152 0.677634 0.083498
Si Si8 0.193756 0.765119 0.873527
O O1 0.250000 0.250000 0.500000
O O2 0.302292 0.359803 0.627947
O O3 0.350022 0.239285 0.544998
O O4 0.317511 0.228731 0.772126
O O5 0.758874 0.089880 0.359865
O O6 0.699622 0.114555 0.536648
O O7 0.764604 0.000000 0.576833
O O8 0.270220 0.500000 0.158314
O O9 0.201196 0.385710 0.090064
O O10 0.302370 0.351827 0.168458
O O11 0.104638 0.632812 0.565861
O O12 0.188352 0.713315 0.731893
O O13 0.550960 0.103421 0.290564
O O14 0.603082 0.138157 0.097653
O O15 0.570684 0.000000 0.125400
O O16 0.500000 0.099707 0.000000
O O17 0.937849 0.500000 0.514629
O O18 0.000000 0.608755 0.500000
O O19 0.149739 0.732842 0.945138
O O20 0.250000 0.750000 0.000000
#
# Coordination Sequence:
#
# PCOD9168873 Si02
#       8
#     8   8   8   8   8   8   8   8
#     4  10  16  30  48  68  93 123 164 201 237 282
#     4  10  17  27  47  72  95 125 164 198 235 287
#     4  10  17  29  47  69  96 127 163 195 236 293
#     4  11  18  32  50  68  96 133 169 198 242 289
#     4  10  21  36  52  72  99 132 170 209 248 290
#     4  10  21  35  51  74 101 130 168 213 250 281
#     4  11  19  33  49  69  96 135 168 195 240 297
#     4  10  21  32  45  71 100 130 164 203 244 287
#
# _framework density 15.154135
#
# number of rings (size 3 to 8) (size 9 to 14) (size 15 to 20)
#    0.000    1.750    5.000    3.000    1.750    2.000 
#    0.000    8.750    0.000    0.000    0.000    0.000 
#    0.000    6.000    0.000    0.000    0.000    0.000 
#
# Total GULP energy -178241.703300 kJ/mol
# GULP energy per Si atom -5570.053228 kJ/mol
# Density = 1.511964 g / cm^3
# Si number density = 15.154135 Si / 1000 Ang^3
#
#
#
# Elastic Constant Matrix: (Units=GPa)
#
#
# Indices 1 2 3 4 5 6 
#
# 1 81.5758 53.9749 22.8745 0.0000 -15.0862 0.0000
# 2 53.9749 130.4402 39.4985 0.0000 -7.9520 0.0000
# 3 22.8745 39.4985 61.7067 0.0000 -9.0342 0.0000
# 4 0.0000 0.0000 0.0000 23.9002 0.0000 -3.3720
# 5 -15.0862 -7.9520 -9.0342 0.0000 20.7110 0.0000
# 6 0.0000 0.0000 0.0000 -3.3720 0.0000 24.7326
#
#
#
# Elastic Compliance Matrix: (Units=1/GPa)
#
#
# Indices 1 2 3 4 5 6 
#
# 1 0.019152 -0.006941 -0.001073 0.000000 0.010818 0.000000
# 2 -0.006941 0.012047 -0.005556 0.000000 -0.002854 0.000000
# 3 -0.001073 -0.005556 0.021079 0.000000 0.006280 0.000000
# 4 0.000000 0.000000 0.000000 0.042661 0.000000 0.005816
# 5 0.010818 -0.002854 0.006280 0.000000 0.057807 0.000000
# 6 0.000000 0.000000 0.000000 0.005816 0.000000 0.041225
#
#
# Mechanical properties :
#
#
# Convention : Reuss Voigt Hill
#
# Bulk Modulus (GPa) = 39.77937 56.26870 48.02404
# Shear Modulus (GPa) = 21.78729 24.36042 23.07386
#
# Velocity S-wave (km/s) = 3.79583 4.01373 3.90630
# Velocity P-wave (km/s) = 6.74670 7.66104 7.21836
#
# Compressibility (1/GPa) = 0.02513866
#
# Stress axis : x y z
#
# Youngs Moduli (GPa) = 52.21303 83.01004 47.43966
#
# Poissons Ratio (x) = 0.57614 0.05091
# Poissons Ratio (y) = 0.36239 0.26358
# Poissons Ratio (z) = 0.05604 0.46121
#
# Static dielectric constant tensor:
#      x y z
#    x 1.510320 0.000000 -0.029970 
#    y 0.000000 1.538480 0.000000 
#    z -0.029970 0.000000 1.540170 
# 
# From -- ./inp_files/97767.got.cif
#   From: 2010.05.17/outbox.cif.g08.bks.cpg/sg12_49_cif.got.tgz:97767.got - 2010.06.03 13:09:07.
