data_PCOD9168930
_publ_section_title
;
Structure prediction by ZEFSAII (Michael W. Deem and Ramdas Pophale) SiO2 
 PCOD9168930
Probable space group: C 2/M
;
_chemical_formula_sum "Si O2"
_cell_formula_units_Z 40
_cell_length_a 13.367454
_cell_length_b 25.043917
_cell_length_c 5.381196
_cell_angle_alpha 90.000000
_cell_angle_beta 114.064017
_cell_angle_gamma 90.000000
_cell_volume 1644.915373
_symmetry_space_group_name_H-M "C 2/M"
_symmetry_group_IT_number 12
_symmetry_cell_setting 'monoclinic'
loop_
_space_group_symop_operation_xyz
x,y,z
-x,y,-z
-x,-y,-z
x,-y,z
1/2+x,1/2+y,z
1/2-x,1/2+y,-z
1/2-x,1/2-y,-z
1/2+x,1/2-y,z
loop_
_atom_site_type_symbol
_atom_site_label
_atom_site_fract_x
_atom_site_fract_y
_atom_site_fract_z
Si Si1 0.140395 0.339276 0.893225
Si Si2 0.776476 0.000000 0.987844
Si Si3 0.105766 0.617486 0.357622
Si Si4 0.073111 0.223586 0.823912
Si Si5 0.573294 0.395903 0.824113
Si Si6 0.862666 0.500000 0.653759
O O1 0.172469 0.367743 0.670624
O O2 0.148257 0.275864 0.899584
O O3 0.007293 0.350096 0.757813
O O4 0.173840 0.366491 0.184231
O O5 0.848072 0.053304 0.092357
O O6 0.688848 0.000000 0.123487
O O7 0.725433 0.000000 0.659820
O O8 0.074932 0.555437 0.317999
O O9 0.124184 0.164210 0.874945
O O10 0.000000 0.226917 0.500000
O O11 0.000000 0.226903 0.000000
O O12 0.500000 0.399130 0.500000
O O13 0.500000 0.398645 0.000000
#
# Coordination Sequence:
#
# PCOD9168930 Si02
#       6
#     8   4   8   8   8   4
#     4  10  17  32  57  84 113 137 186 251 275 311
#     4  12  24  43  57  78 122 152 190 230 268 338
#     4  10  20  33  54  81 111 153 190 228 277 322
#     4  10  16  30  54  93 111 134 164 235 307 328
#     4  10  21  36  65  92 109 134 185 239 296 329
#     4  12  26  39  55  76 116 170 192 214 270 340
#
# _framework density 24.317361999999999
#
# number of rings (size 3 to 8) (size 9 to 14) (size 15 to 20)
#    0.000    1.600    4.000    3.000    0.000    3.200 
#    0.000    0.000    0.000    7.200    0.000    0.000 
#    0.000    0.000    0.000    0.000    0.000    0.000 
#
# Total GULP energy -111920.992832 kJ/mol
# GULP energy per Si atom -5596.049642 kJ/mol
# Density = 2.426201 g / cm^3
# Si number density = 24.317362 Si / 1000 Ang^3
#
#
#
# Elastic Constant Matrix: (Units=GPa)
#
#
# Indices 1 2 3 4 5 6 
#
# 1 52.1662 46.7531 32.6632 0.0000 -19.7430 0.0000
# 2 46.7531 232.0092 35.3330 0.0000 3.9875 0.0000
# 3 32.6632 35.3330 183.6304 0.0000 -45.7830 0.0000
# 4 0.0000 0.0000 0.0000 26.0972 0.0000 -0.2274
# 5 -19.7430 3.9875 -45.7830 0.0000 43.3581 0.0000
# 6 0.0000 0.0000 0.0000 -0.2274 0.0000 31.2340
#
#
#
# Elastic Compliance Matrix: (Units=1/GPa)
#
#
# Indices 1 2 3 4 5 6 
#
# 1 0.030399 -0.006231 -0.000834 0.000000 0.013535 0.000000
# 2 -0.006231 0.005821 -0.001157 0.000000 -0.004595 0.000000
# 3 -0.000834 -0.001157 0.007803 0.000000 0.007966 0.000000
# 4 0.000000 0.000000 0.000000 0.038321 0.000000 0.000279
# 5 0.013535 -0.004595 0.007966 0.000000 0.038061 0.000000
# 6 0.000000 0.000000 0.000000 0.000279 0.000000 0.032018
#
#
# Mechanical properties :
#
#
# Convention : Reuss Voigt Hill
#
# Bulk Modulus (GPa) = 36.26074 77.47826 56.86950
# Shear Modulus (GPa) = 28.08045 43.67496 35.87770
#
# Velocity S-wave (km/s) = 3.40185 4.24257 3.84525
# Velocity P-wave (km/s) = 5.51125 7.47861 6.56900
#
# Compressibility (1/GPa) = 0.02757804
#
# Stress axis : x y z
#
# Youngs Moduli (GPa) = 32.89613 171.78901 128.15978
#
# Poissons Ratio (x) = 1.07049 0.10684
# Poissons Ratio (y) = 0.20499 0.14831
# Poissons Ratio (z) = 0.02742 0.19880
#
# Static dielectric constant tensor:
#      x y z
#    x 2.171070 0.000000 -0.403690 
#    y 0.000000 1.886790 0.000000 
#    z -0.403690 0.000000 2.805060 
# 
# From -- ./inp_files/11720.got.cif
#   From: 2010.05.17/outbox.cif.g08.bks.cpg/sg12_6_cif.got.tgz:11720.got - 2010.06.03 13:09:07.
