data_PCOD9168448
_publ_section_title
;
Structure prediction by ZEFSAII (Michael W. Deem and Ramdas Pophale) SiO2 
 PCOD9168448
Probable space group: C 2/M
;
_chemical_formula_sum "Si O2"
_cell_formula_units_Z 48
_cell_length_a 10.886726
_cell_length_b 25.071905
_cell_length_c 11.928872
_cell_angle_alpha 90.000000
_cell_angle_beta 34.917330
_cell_angle_gamma 90.000000
_cell_volume 1863.712907
_symmetry_space_group_name_H-M "C 2/M"
_symmetry_group_IT_number 12
_symmetry_cell_setting 'monoclinic'
loop_
_space_group_symop_operation_xyz
x,y,z
-x,y,-z
-x,-y,-z
x,-y,z
1/2+x,1/2+y,z
1/2-x,1/2+y,-z
1/2-x,1/2-y,-z
1/2+x,1/2-y,z
loop_
_atom_site_type_symbol
_atom_site_label
_atom_site_fract_x
_atom_site_fract_y
_atom_site_fract_z
Si Si1 0.433434 0.768279 0.776524
Si Si2 0.971581 0.438124 0.397982
Si Si3 0.807627 0.059931 0.860490
Si Si4 0.205841 0.288062 0.761176
Si Si5 0.322031 0.625956 0.045894
Si Si6 0.806973 0.411111 0.288361
O O1 0.395095 0.736824 0.691626
O O2 0.642674 0.758498 0.693912
O O3 0.368703 0.830474 0.811046
O O4 0.250000 0.750000 0.000000
O O5 0.924116 0.500000 0.448793
O O6 0.211084 0.427911 0.172266
O O7 0.000000 0.412191 0.500000
O O8 0.806598 0.421005 0.422478
O O9 0.831162 0.062921 0.708564
O O10 0.867607 0.000000 0.850819
O O11 0.905608 0.108626 0.860857
O O12 0.551967 0.070283 0.075059
O O13 0.229916 0.349162 0.709657
O O14 0.000000 0.286162 0.000000
O O15 0.500000 0.644701 0.000000
#
# Coordination Sequence:
#
# PCOD9168448 Si02
#       6
#     8   8   8   8   8   8
#     4  10  18  28  44  75 107 139 171 216 269 322
#     4  10  21  36  55  77 104 141 180 217 265 325
#     4  10  17  26  46  74 103 130 166 220 269 310
#     4  10  16  27  44  69 106 135 171 211 267 311
#     4  11  20  33  51  79 111 140 171 222 274 318
#     4  10  15  29  48  71  99 131 170 220 261 306
#
# _framework density 25.755039
#
# number of rings (size 3 to 8) (size 9 to 14) (size 15 to 20)
#    0.000    1.833    5.000    6.000    0.000    1.333 
#    0.000    0.000    0.000    2.000    0.000    3.500 
#    0.000    0.000    0.000    0.000    0.000    0.000 
#
# Total GULP energy -133952.932056 kJ/mol
# GULP energy per Si atom -5581.372169 kJ/mol
# Density = 2.569642 g / cm^3
# Si number density = 25.755039 Si / 1000 Ang^3
#
#
#
# Elastic Constant Matrix: (Units=GPa)
#
#
# Indices 1 2 3 4 5 6 
#
# 1 195.4324 54.9995 49.8045 0.0000 50.7529 0.0000
# 2 54.9995 93.7418 2.7810 0.0000 31.3602 0.0000
# 3 49.8045 2.7810 101.1595 0.0000 32.4468 0.0000
# 4 0.0000 0.0000 0.0000 5.2670 0.0000 20.9491
# 5 50.7529 31.3602 32.4468 0.0000 59.1330 0.0000
# 6 0.0000 0.0000 0.0000 20.9491 0.0000 39.6106
#
#
#
# Elastic Compliance Matrix: (Units=1/GPa)
#
#
# Indices 1 2 3 4 5 6 
#
# 1 0.007549 -0.003226 -0.002547 0.000000 -0.003371 0.000000
# 2 -0.003226 0.014781 0.003408 0.000000 -0.006940 0.000000
# 3 -0.002547 0.003408 0.013257 0.000000 -0.006896 0.000000
# 4 0.000000 0.000000 0.000000 -0.172044 0.000000 0.090990
# 5 -0.003371 -0.006940 -0.006896 0.000000 0.027269 0.000000
# 6 0.000000 0.000000 0.000000 0.090990 0.000000 -0.022877
#
#
# Mechanical properties :
#
#
# Convention : Reuss Voigt Hill
#
# Bulk Modulus (GPa) = 32.40660 67.27819 49.84240
# Shear Modulus (GPa) = -42.71703 39.65204 -1.53249
#
# Velocity S-wave (km/s) = -4.07700 3.92801 -0.77222
# Velocity P-wave (km/s) = 3.09073 6.83750 4.31270
#
# Compressibility (1/GPa) = 0.03085791
#
# Stress axis : x y z
#
# Youngs Moduli (GPa) = 132.46452 67.65501 75.42942
#
# Poissons Ratio (x) = 0.21825 0.19210
# Poissons Ratio (y) = 0.42732 -0.25705
# Poissons Ratio (z) = 0.33736 -0.23056
#
# Static dielectric constant tensor:
#      x y z
#    x 2.108450 0.000000 0.009490 
#    y 0.000000 1.485850 0.000000 
#    z 0.009490 0.000000 2.162510 
# 
# From -- ./inp_files/136274.got.cif
#   From: 2010.05.17/outbox.cif.g08.bks.cpg/sg12_69_cif.got.tgz:136274.got - 2010.06.03 13:09:07.
