data_PCOD9168161
_publ_section_title
;
Structure prediction by ZEFSAII (Michael W. Deem and Ramdas Pophale) SiO2 
 PCOD9168161
Probable space group: P 21/M
;
_chemical_formula_sum "Si O2"
_cell_formula_units_Z 28
_cell_length_a 27.000000
_cell_length_b 9.000000
_cell_length_c 9.000000
_cell_angle_alpha 90.000000
_cell_angle_beta 140.000000
_cell_angle_gamma 90.000000
_cell_volume 1405.776502
_symmetry_space_group_name_H-M "P 21/M"
_symmetry_group_IT_number 11
_symmetry_cell_setting 'monoclinic'
loop_
_space_group_symop_operation_xyz
x,y,z
-x,1/2+y,-z
-x,-y,-z
x,1/2-y,z
loop_
_atom_site_type_symbol
_atom_site_label
_atom_site_fract_x
_atom_site_fract_y
_atom_site_fract_z
Si Si1 0.071150 0.574326 0.746732
Si Si2 0.243370 0.572285 0.190762
Si Si3 0.383702 0.073075 0.346995
Si Si4 0.231952 0.418192 0.481002
Si Si5 0.663742 0.417511 0.059883
Si Si6 0.493158 0.917125 0.136982
Si Si7 0.942467 0.581764 0.973160
O O1 0.063334 0.750000 0.716104
O O2 0.063839 0.517553 0.896643
O O3 0.000000 0.500000 0.500000
O O4 0.161208 0.538577 0.922056
O O5 0.256896 0.750000 0.211701
O O6 0.308781 0.474469 0.266415
O O7 0.243181 0.522598 0.362915
O O8 0.388613 0.250000 0.334181
O O9 0.456510 0.020600 0.611698
O O10 0.373903 0.989070 0.170669
O O11 0.259901 0.250000 0.513414
O O12 0.271064 0.483605 0.716323
O O13 0.140803 0.411299 0.292943
O O14 0.690643 0.250000 0.089839
O O15 0.595360 0.411879 0.021780
O O16 0.522666 0.750000 0.182955
O O17 0.500000 0.000000 0.000000
O O18 0.966034 0.750000 0.065697
O O19 0.000000 0.500000 0.000000
#
# Coordination Sequence:
#
# PCOD9168161 Si02
#       7
#     4   4   4   4   4   4   4
#     4  10  21  37  58  83 113 148 188 233 282 335
#     4  10  21  38  59  84 113 148 189 233 280 335
#     4  11  23  39  59  85 116 150 188 233 282 332
#     4  10  21  38  59  84 113 148 189 233 280 335
#     4  11  23  39  59  85 116 150 188 233 282 332
#     4  10  23  40  60  86 114 148 189 230 277 332
#     4  10  21  37  58  83 113 148 188 233 282 335
#
# _framework density 19.917818
#
# number of rings (size 3 to 8) (size 9 to 14) (size 15 to 20)
#    0.000    1.714    0.000    3.857    0.000    9.143 
#    0.000    0.000    0.000    0.000    0.000    0.000 
#    0.000    0.000    0.000    0.000    0.000    0.000 
#
# Total GULP energy -156171.005474 kJ/mol
# GULP energy per Si atom -5577.535910 kJ/mol
# Density = 1.987248 g / cm^3
# Si number density = 19.917818 Si / 1000 Ang^3
#
#
#
# Elastic Constant Matrix: (Units=GPa)
#
#
# Indices 1 2 3 4 5 6 
#
# 1 36.2213 -3.1992 -3.5710 0.0000 -1.6397 0.0000
# 2 -3.1992 29.6660 23.1603 0.0000 -3.9968 0.0000
# 3 -3.5710 23.1603 114.4481 0.0000 -12.7242 0.0000
# 4 0.0000 0.0000 0.0000 33.6124 0.0000 -5.1720
# 5 -1.6397 -3.9968 -12.7242 0.0000 20.4020 0.0000
# 6 0.0000 0.0000 0.0000 -5.1720 0.0000 26.3275
#
#
#
# Elastic Compliance Matrix: (Units=1/GPa)
#
#
# Indices 1 2 3 4 5 6 
#
# 1 0.028079 0.002968 0.000635 0.000000 0.003234 0.000000
# 2 0.002968 0.040518 -0.007734 0.000000 0.003353 0.000000
# 3 0.000635 -0.007734 0.010917 0.000000 0.005344 0.000000
# 4 0.000000 0.000000 0.000000 0.030678 0.000000 0.006027
# 5 0.003234 0.003353 0.005344 0.000000 0.053265 0.000000
# 6 0.000000 0.000000 0.000000 0.006027 0.000000 0.039167
#
#
# Mechanical properties :
#
#
# Convention : Reuss Voigt Hill
#
# Bulk Modulus (GPa) = 14.03464 23.67949 18.85707
# Shear Modulus (GPa) = 21.30949 26.99806 24.15378
#
# Velocity S-wave (km/s) = 3.27444 3.68567 3.48612
# Velocity P-wave (km/s) = 4.62142 5.47965 5.06873
#
# Compressibility (1/GPa) = 0.07125225
#
# Stress axis : x y z
#
# Youngs Moduli (GPa) = 35.61349 24.68014 91.60271
#
# Poissons Ratio (x) = -0.07325 -0.05818
# Poissons Ratio (y) = -0.10570 0.70847
# Poissons Ratio (z) = -0.02262 0.19088
#
# Static dielectric constant tensor:
#      x y z
#    x 1.720420 0.000000 0.021970 
#    y 0.000000 1.708860 0.000000 
#    z 0.021970 0.000000 1.694370 
# 
# From -- ./inp_files/28584.got.cif
#   From: 2010.05.17/outbox.ucp.g08.bks.cvg/sg11_15_cif.got.tgz:28584.got - 2010.06.11 11:38:39.
