data_PCOD9168547
_publ_section_title
;
Structure prediction by ZEFSAII (Michael W. Deem and Ramdas Pophale) SiO2 
 PCOD9168547
Probable space group: C 2/M
;
_chemical_formula_sum "Si O2"
_cell_formula_units_Z 56
_cell_length_a 21.104542
_cell_length_b 20.433642
_cell_length_c 7.052238
_cell_angle_alpha 90.000000
_cell_angle_beta 56.947612
_cell_angle_gamma 90.000000
_cell_volume 2549.071050
_symmetry_space_group_name_H-M "C 2/M"
_symmetry_group_IT_number 12
_symmetry_cell_setting 'monoclinic'
loop_
_space_group_symop_operation_xyz
x,y,z
-x,y,-z
-x,-y,-z
x,-y,z
1/2+x,1/2+y,z
1/2-x,1/2+y,-z
1/2-x,1/2-y,-z
1/2+x,1/2-y,z
loop_
_atom_site_type_symbol
_atom_site_label
_atom_site_fract_x
_atom_site_fract_y
_atom_site_fract_z
Si Si1 0.815092 0.928252 0.440258
Si Si2 0.136590 0.076541 0.086032
Si Si3 0.431128 0.820367 0.718252
Si Si4 0.733280 0.827529 0.057427
Si Si5 0.792417 0.682020 0.459978
Si Si6 0.441544 0.757636 0.311365
Si Si7 0.473282 0.393208 0.246418
O O1 0.842101 0.919808 0.175563
O O2 0.753389 0.872466 0.579919
O O3 0.893532 0.925137 0.428761
O O4 0.780928 0.000000 0.516652
O O5 0.194973 0.125771 0.093018
O O6 0.144892 0.000000 0.122441
O O7 0.049115 0.099313 0.245597
O O8 0.500000 0.861187 0.500000
O O9 0.348196 0.845429 0.901626
O O10 0.418740 0.765553 0.572895
O O11 0.475129 0.788183 0.819965
O O12 0.716469 0.837529 0.307092
O O13 0.750000 0.750000 0.000000
O O14 0.750000 0.750000 0.500000
O O15 0.879916 0.700666 0.300048
O O16 0.448823 0.682100 0.253956
O O17 0.500000 0.421278 0.000000
#
# Coordination Sequence:
#
# PCOD9168547 Si02
#       7
#     8   8   8   8   8   8   8
#     4   9  17  27  41  63  94 126 150 182 233 285
#     4   9  18  28  42  66  96 122 151 191 230 274
#     4   7  16  29  43  61  89 118 145 187 239 266
#     4  10  18  30  50  70  88 121 162 192 228 276
#     4  10  17  29  46  70  92 118 154 198 235 265
#     4   8  15  27  42  63  88 117 149 187 230 271
#     4  10  16  24  40  65  96 120 149 180 228 278
#
# _framework density 21.968786000000001
#
# number of rings (size 3 to 8) (size 9 to 14) (size 15 to 20)
#    0.857    2.000    1.429    1.286    0.000    1.714 
#    0.000    0.000    0.000    2.143    0.000    6.000 
#    0.000    0.571    0.000    0.143    0.000    0.000 
#
# Total GULP energy -155942.319958 kJ/mol
# GULP energy per Si atom -5569.368570 kJ/mol
# Density = 2.191878 g / cm^3
# Si number density = 21.968786 Si / 1000 Ang^3
#
#
#
# Elastic Constant Matrix: (Units=GPa)
#
#
# Indices 1 2 3 4 5 6 
#
# 1 135.2536 65.3472 42.9141 0.0000 -52.1862 0.0000
# 2 65.3472 136.2149 46.1441 0.0000 -47.9464 0.0000
# 3 42.9141 46.1441 110.0714 0.0000 -24.7206 0.0000
# 4 0.0000 0.0000 0.0000 14.6909 0.0000 1.9764
# 5 -52.1862 -47.9464 -24.7206 0.0000 47.7397 0.0000
# 6 0.0000 0.0000 0.0000 1.9764 0.0000 17.6822
#
#
#
# Elastic Compliance Matrix: (Units=1/GPa)
#
#
# Indices 1 2 3 4 5 6 
#
# 1 0.013416 -0.001521 -0.001858 0.000000 0.012176 0.000000
# 2 -0.001521 0.012164 -0.002417 0.000000 0.009303 0.000000
# 3 -0.001858 -0.002417 0.011114 0.000000 0.001296 0.000000
# 4 0.000000 0.000000 0.000000 0.069108 0.000000 -0.007724
# 5 0.012176 0.009303 0.001296 0.000000 0.044271 0.000000
# 6 0.000000 0.000000 0.000000 -0.007724 0.000000 0.057417
#
#
# Mechanical properties :
#
#
# Convention : Reuss Voigt Hill
#
# Bulk Modulus (GPa) = 39.83908 76.70565 58.27237
# Shear Modulus (GPa) = 21.98282 31.16488 26.57385
#
# Velocity S-wave (km/s) = 3.16672 3.77051 3.48173
# Velocity P-wave (km/s) = 5.61646 7.34488 6.53804
#
# Compressibility (1/GPa) = 0.02510098
#
# Stress axis : x y z
#
# Youngs Moduli (GPa) = 74.53923 82.20768 89.97691
#
# Poissons Ratio (x) = 0.12502 0.16722
# Poissons Ratio (y) = 0.11336 0.21750
# Poissons Ratio (z) = 0.13853 0.19872
#
# Static dielectric constant tensor:
#      x y z
#    x 1.903520 0.000000 -0.013640 
#    y 0.000000 1.858980 0.000000 
#    z -0.013640 0.000000 1.864350 
# 
# From -- ./inp_files/168404.got.cif
#   From: 2010.05.17/outbox.cif.g08.bks.cpg/sg12_85_cif.got.tgz:168404.got - 2010.06.03 13:09:07.
