data_PCOD9168889
_publ_section_title
;
Structure prediction by ZEFSAII (Michael W. Deem and Ramdas Pophale) SiO2 
 PCOD9168889
Probable space group: C 2/M
;
_chemical_formula_sum "Si O2"
_cell_formula_units_Z 40
_cell_length_a 5.203209
_cell_length_b 28.898055
_cell_length_c 20.719308
_cell_angle_alpha 90.000000
_cell_angle_beta 124.742656
_cell_angle_gamma 90.000000
_cell_volume 2559.994213
_symmetry_space_group_name_H-M "C 2/M"
_symmetry_group_IT_number 12
_symmetry_cell_setting 'monoclinic'
loop_
_space_group_symop_operation_xyz
x,y,z
-x,y,-z
-x,-y,-z
x,-y,z
1/2+x,1/2+y,z
1/2-x,1/2+y,-z
1/2-x,1/2-y,-z
1/2+x,1/2-y,z
loop_
_atom_site_type_symbol
_atom_site_label
_atom_site_fract_x
_atom_site_fract_y
_atom_site_fract_z
Si Si1 0.000000 0.217879 0.000000
Si Si2 0.168661 0.197711 0.464146
Si Si3 0.137565 0.352518 0.856126
Si Si4 0.238977 0.781470 0.719837
Si Si5 0.748432 0.403099 0.905483
Si Si6 0.128973 0.000000 0.943726
O O1 0.215581 0.184808 0.074022
O O2 0.250000 0.250000 0.000000
O O3 0.500000 0.174498 0.500000
O O4 0.250000 0.250000 0.500000
O O5 0.000000 0.174530 0.500000
O O6 0.958271 0.202879 0.371076
O O7 0.448485 0.369937 0.864360
O O8 0.899013 0.325108 0.776565
O O9 0.954616 0.392081 0.871317
O O10 0.505170 0.745928 0.733623
O O11 0.583941 0.452740 0.897277
O O12 0.000000 0.395171 0.000000
O O13 0.500000 0.000000 0.000000
O O14 0.000000 0.000000 0.000000
#
# Coordination Sequence:
#
# PCOD9168889 Si02
#       6
#     4   8   8   8   8   4
#     4  12  22  36  46  59  92 141 186 202 232 266
#     4  10  16  30  49  67  88 122 165 208 258 287
#     4  12  23  34  50  69 100 134 167 220 246 281
#     4  12  21  33  48  70  97 132 182 206 241 293
#     4  11  20  38  53  73  97 125 163 211 266 299
#     4  10  20  34  60  82  90 118 166 212 262 338
#
# _framework density 15.625036
#
# number of rings (size 3 to 8) (size 9 to 14) (size 15 to 20)
#    0.000    0.800    6.000    6.000    0.000    0.000 
#    0.000    0.000    0.000    0.000    0.000    0.000 
#    0.000    0.000    0.000   18.000    0.000    0.000 
#
# Total GULP energy -111379.798395 kJ/mol
# GULP energy per Si atom -5568.989920 kJ/mol
# Density = 1.558947 g / cm^3
# Si number density = 15.625036 Si / 1000 Ang^3
#
#
#
# Elastic Constant Matrix: (Units=GPa)
#
#
# Indices 1 2 3 4 5 6 
#
# 1 118.5055 11.8053 10.7726 0.0000 20.6139 0.0000
# 2 11.8053 45.7918 25.1465 0.0000 3.9643 0.0000
# 3 10.7726 25.1465 98.6919 0.0000 4.0295 0.0000
# 4 0.0000 0.0000 0.0000 52.2709 0.0000 28.2747
# 5 20.6139 3.9643 4.0295 0.0000 20.3402 0.0000
# 6 0.0000 0.0000 0.0000 28.2747 0.0000 34.3759
#
#
#
# Elastic Compliance Matrix: (Units=1/GPa)
#
#
# Indices 1 2 3 4 5 6 
#
# 1 0.010396 -0.001634 -0.000304 0.000000 -0.010157 0.000000
# 2 -0.001634 0.025926 -0.006340 0.000000 -0.002141 0.000000
# 3 -0.000304 -0.006340 0.011814 0.000000 -0.000797 0.000000
# 4 0.000000 0.000000 0.000000 0.034465 0.000000 -0.028348
# 5 -0.010157 -0.002141 -0.000797 0.000000 0.060033 0.000000
# 6 0.000000 0.000000 0.000000 -0.028348 0.000000 0.052407
#
#
# Mechanical properties :
#
#
# Convention : Reuss Voigt Hill
#
# Bulk Modulus (GPa) = 31.66574 39.82644 35.74609
# Shear Modulus (GPa) = 22.51007 35.74837 29.12922
#
# Velocity S-wave (km/s) = 3.79970 4.78838 4.32240
# Velocity P-wave (km/s) = 6.28970 7.49104 6.91650
#
# Compressibility (1/GPa) = 0.03157987
#
# Stress axis : x y z
#
# Youngs Moduli (GPa) = 96.19470 38.57093 84.64749
#
# Poissons Ratio (x) = 0.06302 0.02571
# Poissons Ratio (y) = 0.15718 0.53668
# Poissons Ratio (z) = 0.02921 0.24455
#
# Static dielectric constant tensor:
#      x y z
#    x 1.524900 0.000000 -0.009100 
#    y 0.000000 1.608500 0.000000 
#    z -0.009100 0.000000 1.490150 
# 
# From -- ./inp_files/331569.got.cif
#   From: 2010.05.17/outbox.cif.g08.bks.cpg/sg12_166_cif.got.tgz:331569.got - 2010.06.03 13:09:07.
