data_PCOD9168250
_publ_section_title
;
Structure prediction by ZEFSAII (Michael W. Deem and Ramdas Pophale) SiO2 
 PCOD9168250
Probable space group: P 21/M
;
_chemical_formula_sum "Si O2"
_cell_formula_units_Z 28
_cell_length_a 15.000000
_cell_length_b 9.000000
_cell_length_c 12.000000
_cell_angle_alpha 90.000000
_cell_angle_beta 120.000000
_cell_angle_gamma 90.000000
_cell_volume 1402.961154
_symmetry_space_group_name_H-M "P 21/M"
_symmetry_group_IT_number 11
_symmetry_cell_setting 'monoclinic'
loop_
_space_group_symop_operation_xyz
x,y,z
-x,1/2+y,-z
-x,-y,-z
x,1/2-y,z
loop_
_atom_site_type_symbol
_atom_site_label
_atom_site_fract_x
_atom_site_fract_y
_atom_site_fract_z
Si Si1 0.695652 0.922360 0.843752
Si Si2 0.478550 0.424632 0.103965
Si Si3 0.387810 0.926330 0.425294
Si Si4 0.068289 0.075625 0.952441
Si Si5 0.993105 0.928276 0.323541
Si Si6 0.144743 0.078094 0.559680
Si Si7 0.633876 0.578484 0.365732
O O1 0.673368 0.750000 0.797371
O O2 0.635875 0.949004 0.921501
O O3 0.661560 0.026665 0.721973
O O4 0.814209 0.940660 0.942173
O O5 0.497899 0.250000 0.105841
O O6 0.546552 0.491479 0.246104
O O7 0.500000 0.500000 0.000000
O O8 0.392553 0.750000 0.440008
O O9 0.500000 0.000000 0.500000
O O10 0.335848 0.001228 0.499963
O O11 0.044763 0.250000 0.934851
O O12 0.041604 0.011955 0.815707
O O13 0.000000 0.000000 0.000000
O O14 0.990877 0.750000 0.321027
O O15 0.912959 0.978519 0.367482
O O16 0.103455 0.984346 0.430938
O O17 0.115572 0.250000 0.522166
O O18 0.265832 0.074249 0.648364
O O19 0.604088 0.750000 0.366931
#
# Coordination Sequence:
#
# PCOD9168250 Si02
#       7
#     4   4   4   4   4   4   4
#     4  10  23  43  65  88 121 165 207 252 309 368
#     4  11  24  41  64  92 126 165 206 251 305 366
#     4  12  24  40  63  89 122 158 200 249 303 361
#     4  10  23  41  62  87 119 160 205 252 304 362
#     4   9  19  38  61  85 116 154 199 249 301 357
#     4   9  20  37  61  88 117 155 196 245 304 361
#     4  11  23  39  63  92 123 158 202 251 305 366
#
# _framework density 19.957787
#
# number of rings (size 3 to 8) (size 9 to 14) (size 15 to 20)
#    0.000    1.714    1.429    2.143    4.000    2.857 
#    0.000    0.000    0.000    0.000    0.000    0.000 
#    0.000    0.000    0.000    0.000    0.000    0.000 
#
# Total GULP energy -156179.232666 kJ/mol
# GULP energy per Si atom -5577.829738 kJ/mol
# Density = 1.991236 g / cm^3
# Si number density = 19.957787 Si / 1000 Ang^3
#
#
#
# Elastic Constant Matrix: (Units=GPa)
#
#
# Indices 1 2 3 4 5 6 
#
# 1 69.6970 56.1802 2.8124 0.0000 -26.7639 0.0000
# 2 56.1802 72.0785 47.0756 0.0000 -12.6011 0.0000
# 3 2.8124 47.0756 29.9277 0.0000 -51.0362 0.0000
# 4 0.0000 0.0000 0.0000 31.5867 0.0000 -5.1334
# 5 -26.7639 -12.6011 -51.0362 0.0000 2.1661 0.0000
# 6 0.0000 0.0000 0.0000 -5.1334 0.0000 20.5181
#
#
#
# Elastic Compliance Matrix: (Units=1/GPa)
#
#
# Indices 1 2 3 4 5 6 
#
# 1 0.019020 -0.012523 -0.007515 0.000000 -0.014910 0.000000
# 2 -0.012523 0.027477 0.000851 0.000000 0.025153 0.000000
# 3 -0.007515 0.000851 0.002989 0.000000 -0.017470 0.000000
# 4 0.000000 0.000000 0.000000 0.033001 0.000000 0.008256
# 5 -0.014910 0.025153 -0.017470 0.000000 0.012135 0.000000
# 6 0.000000 0.000000 0.000000 0.008256 0.000000 0.050803
#
#
# Mechanical properties :
#
#
# Convention : Reuss Voigt Hill
#
# Bulk Modulus (GPa) = 90.00176 42.64885 66.32531
# Shear Modulus (GPa) = 26.66616 15.22984 20.94800
#
# Velocity S-wave (km/s) = 3.65927 2.76543 3.24329
# Velocity P-wave (km/s) = 7.94026 5.62252 6.87969
#
# Compressibility (1/GPa) = 0.01111089
#
# Stress axis : x y z
#
# Youngs Moduli (GPa) = 52.57605 36.39467 334.50928
#
# Poissons Ratio (x) = 0.45578 2.51386
# Poissons Ratio (y) = 0.65843 -0.28459
# Poissons Ratio (z) = 0.39511 -0.03096
#
# Static dielectric constant tensor:
#      x y z
#    x 1.736150 0.000000 -0.018460 
#    y 0.000000 1.688740 0.000000 
#    z -0.018460 0.000000 1.647140 
# 
# From -- ./inp_files/37896.got.cif
#   From: 2010.05.17/outbox.ucp.g08.bks.cvg/sg11_19_cif.got.tgz:37896.got - 2010.06.11 11:38:39.
