data_PCOD9168143
_publ_section_title
;
Structure prediction by ZEFSAII (Michael W. Deem and Ramdas Pophale) SiO2 
 PCOD9168143
Probable space group: P 21/M
;
_chemical_formula_sum "Si O2"
_cell_formula_units_Z 32
_cell_length_a 24.000000
_cell_length_b 9.000000
_cell_length_c 15.000000
_cell_angle_alpha 90.000000
_cell_angle_beta 30.000000
_cell_angle_gamma 90.000000
_cell_volume 1620.000000
_symmetry_space_group_name_H-M "P 21/M"
_symmetry_group_IT_number 11
_symmetry_cell_setting 'monoclinic'
loop_
_space_group_symop_operation_xyz
x,y,z
-x,1/2+y,-z
-x,-y,-z
x,1/2-y,z
loop_
_atom_site_type_symbol
_atom_site_label
_atom_site_fract_x
_atom_site_fract_y
_atom_site_fract_z
Si Si1 0.209302 0.929027 0.632721
Si Si2 0.966638 0.428799 0.641137
Si Si3 0.611286 0.928766 0.305755
Si Si4 0.270956 0.427547 0.040884
Si Si5 0.970743 0.429942 0.266204
Si Si6 0.361211 0.925770 0.094594
Si Si7 0.182939 0.569418 0.874686
Si Si8 0.601510 0.428359 0.759358
O O1 0.204755 0.750000 0.641982
O O2 0.185336 0.977426 0.766742
O O3 0.328465 0.967139 0.425393
O O4 0.122608 0.974422 0.676473
O O5 0.974087 0.250000 0.628302
O O6 0.840099 0.483918 0.832673
O O7 0.037827 0.496431 0.624318
O O8 0.000000 0.500000 0.500000
O O9 0.612111 0.750000 0.317263
O O10 0.500000 0.000000 0.500000
O O11 0.708393 0.008021 0.226929
O O12 0.636836 0.954124 0.164544
O O13 0.249227 0.250000 0.072948
O O14 0.303889 0.483731 0.094060
O O15 0.972652 0.250000 0.272585
O O16 0.082138 0.492271 0.066144
O O17 0.346613 0.750000 0.098346
O O18 0.331344 0.953559 0.240509
O O19 0.490334 0.975119 0.913770
O O20 0.176293 0.750000 0.889054
O O21 0.575880 0.250000 0.793711
#
# Coordination Sequence:
#
# PCOD9168143 Si02
#       8
#     4   4   4   4   4   4   4   4
#     4   9  21  38  62  90 119 161 208 254 309 368
#     4  12  26  44  67  96 129 167 211 261 315 379
#     4  11  25  43  65  92 127 168 210 262 320 379
#     4  11  24  43  66  93 127 168 209 257 318 380
#     4  11  22  41  65  91 125 164 207 258 314 370
#     4  10  21  36  60  90 122 161 204 253 308 365
#     4  11  22  40  64  91 124 164 209 256 312 374
#     4   9  19  39  60  85 121 162 203 252 308 366
#
# _framework density 19.753086
#
# number of rings (size 3 to 8) (size 9 to 14) (size 15 to 20)
#    0.000    1.500    1.250    3.375    3.500    2.000 
#    0.000    3.750    0.000    0.000    0.000    0.000 
#    0.000    0.000    0.000    0.000    0.000    0.000 
#
# Total GULP energy -178727.163402 kJ/mol
# GULP energy per Si atom -5585.223856 kJ/mol
# Density = 1.970813 g / cm^3
# Si number density = 19.753086 Si / 1000 Ang^3
#
#
#
# Elastic Constant Matrix: (Units=GPa)
#
#
# Indices 1 2 3 4 5 6 
#
# 1 90.3616 21.0962 -2.8912 0.0000 26.2403 0.0000
# 2 21.0962 94.6276 8.8622 0.0000 14.0895 0.0000
# 3 -2.8912 8.8622 58.0193 0.0000 20.2804 0.0000
# 4 0.0000 0.0000 0.0000 30.9374 0.0000 5.0073
# 5 26.2403 14.0895 20.2804 0.0000 39.9234 0.0000
# 6 0.0000 0.0000 0.0000 5.0073 0.0000 38.4750
#
#
#
# Elastic Compliance Matrix: (Units=1/GPa)
#
#
# Indices 1 2 3 4 5 6 
#
# 1 0.015179 -0.002103 0.005235 0.000000 -0.011894 0.000000
# 2 -0.002103 0.011453 -0.001124 0.000000 -0.002088 0.000000
# 3 0.005235 -0.001124 0.022777 0.000000 -0.014614 0.000000
# 4 0.000000 0.000000 0.000000 0.033019 0.000000 -0.004297
# 5 -0.011894 -0.002088 -0.014614 0.000000 0.041026 0.000000
# 6 0.000000 0.000000 0.000000 -0.004297 0.000000 0.026550
#
#
# Mechanical properties :
#
#
# Convention : Reuss Voigt Hill
#
# Bulk Modulus (GPa) = 18.71843 33.01590 25.86716
# Shear Modulus (GPa) = 30.52572 36.26326 33.39449
#
# Velocity S-wave (km/s) = 3.93538 4.28930 4.11615
# Velocity P-wave (km/s) = 5.49057 6.42506 5.97611
#
# Compressibility (1/GPa) = 0.05342328
#
# Stress axis : x y z
#
# Youngs Moduli (GPa) = 65.88034 87.31423 43.90486
#
# Poissons Ratio (x) = 0.18366 -0.22984
# Poissons Ratio (y) = 0.13857 0.04936
# Poissons Ratio (z) = -0.34489 0.09816
#
# Static dielectric constant tensor:
#      x y z
#    x 1.733420 0.000000 -0.047730 
#    y 0.000000 1.646430 0.000000 
#    z -0.047730 0.000000 1.787780 
# 
# From -- ./inp_files/55580.got.cif
#   From: 2010.05.17/outbox.ucp.g08.bks.cvg/sg11_28_cif.got.tgz:55580.got - 2010.06.11 11:38:39.
