data_PCOD9168922
_publ_section_title
;
Structure prediction by ZEFSAII (Michael W. Deem and Ramdas Pophale) SiO2 
 PCOD9168922
Probable space group: C 2/M
;
_chemical_formula_sum "Si O2"
_cell_formula_units_Z 64
_cell_length_a 28.591209
_cell_length_b 17.296792
_cell_length_c 12.066704
_cell_angle_alpha 90.000000
_cell_angle_beta 30.693899
_cell_angle_gamma 90.000000
_cell_volume 3046.078591
_symmetry_space_group_name_H-M "C 2/M"
_symmetry_group_IT_number 12
_symmetry_cell_setting 'monoclinic'
loop_
_space_group_symop_operation_xyz
x,y,z
-x,y,-z
-x,-y,-z
x,-y,z
1/2+x,1/2+y,z
1/2-x,1/2+y,-z
1/2-x,1/2-y,-z
1/2+x,1/2-y,z
loop_
_atom_site_type_symbol
_atom_site_label
_atom_site_fract_x
_atom_site_fract_y
_atom_site_fract_z
Si Si1 0.833565 0.366695 0.942632
Si Si2 0.639939 0.608836 0.289180
Si Si3 0.559349 0.416366 0.210953
Si Si4 0.904199 0.321220 0.146238
Si Si5 0.083279 0.723927 0.413426
Si Si6 0.497943 0.884731 0.747080
Si Si7 0.684369 0.087654 0.468870
Si Si8 0.168822 0.215772 0.889494
O O1 0.739327 0.413610 0.131302
O O2 0.825101 0.287088 0.034753
O O3 0.859425 0.342065 0.765068
O O4 0.923441 0.408991 0.808131
O O5 0.548206 0.584331 0.539815
O O6 0.617492 0.589454 0.207285
O O7 0.643511 0.700955 0.296348
O O8 0.580679 0.500000 0.116084
O O9 0.584758 0.340814 0.090609
O O10 0.850001 0.370291 0.348077
O O11 0.846208 0.256802 0.198794
O O12 0.940938 0.378091 0.975499
O O13 0.000000 0.288246 0.000000
O O14 0.000000 0.743899 0.500000
O O15 0.036008 0.696944 0.621955
O O16 0.593566 0.922798 0.579941
O O17 0.749279 0.152804 0.280904
O O18 0.721707 0.000000 0.410705
#
# Coordination Sequence:
#
# PCOD9168922 Si02
#       8
#     8   8   8   8   8   8   8   8
#     4  10  20  32  58  90 119 152 197 254 290 331
#     4  11  18  32  53  82 118 162 200 237 283 336
#     4  11  23  37  53  80 121 163 200 237 289 355
#     4   9  20  39  63  90 113 145 196 256 303 347
#     4  10  16  30  52  85 120 149 192 252 292 333
#     4   9  20  35  56  88 117 151 194 239 299 352
#     4  11  23  39  61  87 120 158 196 246 306 363
#     4  11  21  39  62  91 118 152 201 244 294 352
#
# _framework density 21.010619999999999
#
# number of rings (size 3 to 8) (size 9 to 14) (size 15 to 20)
#    0.000    1.750    2.500    4.125    1.750    3.250 
#    0.000    1.250    0.000    9.375    0.000    0.000 
#    0.000    0.000    0.000    0.000    0.000    0.000 
#
# Total GULP energy -178305.416750 kJ/mol
# GULP energy per Si atom -5572.044273 kJ/mol
# Density = 2.096280 g / cm^3
# Si number density = 21.010620 Si / 1000 Ang^3
#
#
#
# Elastic Constant Matrix: (Units=GPa)
#
#
# Indices 1 2 3 4 5 6 
#
# 1 61.4807 34.5602 29.2432 0.0000 -20.8284 0.0000
# 2 34.5602 112.4695 33.3686 0.0000 -6.5390 0.0000
# 3 29.2432 33.3686 90.0528 0.0000 -8.8924 0.0000
# 4 0.0000 0.0000 0.0000 23.8080 0.0000 18.1052
# 5 -20.8284 -6.5390 -8.8924 0.0000 39.5831 0.0000
# 6 0.0000 0.0000 0.0000 18.1052 0.0000 10.1605
#
#
#
# Elastic Compliance Matrix: (Units=1/GPa)
#
#
# Indices 1 2 3 4 5 6 
#
# 1 0.025825 -0.005748 -0.005122 0.000000 0.011489 0.000000
# 2 -0.005748 0.011296 -0.002489 0.000000 -0.001718 0.000000
# 3 -0.005122 -0.002489 0.013687 0.000000 -0.000031 0.000000
# 4 0.000000 0.000000 0.000000 -0.118288 0.000000 0.210779
# 5 0.011489 -0.001718 -0.000031 0.000000 0.031018 0.000000
# 6 0.000000 0.000000 0.000000 0.210779 0.000000 -0.277171
#
#
# Mechanical properties :
#
#
# Convention : Reuss Voigt Hill
#
# Bulk Modulus (GPa) = 41.50994 50.92744 46.21869
# Shear Modulus (GPa) = -17.92846 25.83238 3.95196
#
# Velocity S-wave (km/s) = -2.92431 3.51021 1.37296
# Velocity P-wave (km/s) = 2.89783 6.38125 4.95569
#
# Compressibility (1/GPa) = 0.02409061
#
# Stress axis : x y z
#
# Youngs Moduli (GPa) = 38.72264 88.52617 73.06249
#
# Poissons Ratio (x) = 0.50885 0.37421
# Poissons Ratio (y) = 0.22258 0.18183
# Poissons Ratio (z) = 0.19833 0.22032
#
# Static dielectric constant tensor:
#      x y z
#    x 1.770190 0.000000 -0.036710 
#    y 0.000000 1.772930 0.000000 
#    z -0.036710 0.000000 1.792100 
# 
# From -- ./inp_files/190033.got.cif
#   From: 2010.05.17/outbox.cif.g08.bks.cpg/sg12_96_cif.got.tgz:190033.got - 2010.06.03 13:09:07.
