data_PCOD9168957
_publ_section_title
;
Structure prediction by ZEFSAII (Michael W. Deem and Ramdas Pophale) SiO2 
 PCOD9168957
Probable space group: C 2/M
;
_chemical_formula_sum "Si O2"
_cell_formula_units_Z 56
_cell_length_a 16.132568
_cell_length_b 21.979337
_cell_length_c 25.243276
_cell_angle_alpha 90.000000
_cell_angle_beta 158.516373
_cell_angle_gamma 90.000000
_cell_volume 3278.113974
_symmetry_space_group_name_H-M "C 2/M"
_symmetry_group_IT_number 12
_symmetry_cell_setting 'monoclinic'
loop_
_space_group_symop_operation_xyz
x,y,z
-x,y,-z
-x,-y,-z
x,-y,z
1/2+x,1/2+y,z
1/2-x,1/2+y,-z
1/2-x,1/2-y,-z
1/2+x,1/2-y,z
loop_
_atom_site_type_symbol
_atom_site_label
_atom_site_fract_x
_atom_site_fract_y
_atom_site_fract_z
Si Si1 0.545336 0.797488 0.937596
Si Si2 0.617669 0.569326 0.422336
Si Si3 0.962590 0.747586 0.769636
Si Si4 0.422825 0.738044 0.321261
Si Si5 0.349901 0.646519 0.461111
Si Si6 0.426936 0.931110 0.895250
Si Si7 0.764593 0.322119 0.443123
O O1 0.485514 0.768503 0.844918
O O2 0.334441 0.773915 0.846733
O O3 0.531993 0.871353 0.929860
O O4 0.790108 0.772584 0.098838
O O5 0.677148 0.500000 0.449060
O O6 0.714111 0.594786 0.535151
O O7 0.345424 0.574239 0.267079
O O8 0.698579 0.610878 0.421791
O O9 0.863603 0.686006 0.684815
O O10 0.783084 0.799746 0.644686
O O11 0.494209 0.691893 0.411047
O O12 0.585292 0.719872 0.369566
O O13 0.496243 0.802593 0.389280
O O14 0.500000 0.626578 0.500000
O O15 0.485254 0.000000 0.910392
O O16 0.500000 0.927955 0.000000
#
# Coordination Sequence:
#
# PCOD9168957 Si02
#       7
#     8   8   8   8   8   8   8
#     4  11  19  32  46  77 101 131 170 207 242 303
#     4  10  19  31  48  71  99 132 170 200 238 307
#     4  10  21  29  49  71 103 129 165 212 255 288
#     4   9  17  28  49  67  97 129 157 206 245 291
#     4  10  16  31  47  69 102 129 156 206 253 296
#     4  10  19  31  49  72 105 141 162 190 244 305
#     4   9  17  31  45  71  93 132 164 197 252 290
#
# _framework density 17.082993999999999
#
# number of rings (size 3 to 8) (size 9 to 14) (size 15 to 20)
#    0.000    2.143    4.286    1.714    0.000    0.286 
#    0.000    0.714    0.000    0.000    0.000    8.000 
#    0.000    0.000    0.000    0.000    0.000    0.000 
#
# Total GULP energy -155878.576154 kJ/mol
# GULP energy per Si atom -5567.092006 kJ/mol
# Density = 1.704411 g / cm^3
# Si number density = 17.082994 Si / 1000 Ang^3
#
#
#
# Elastic Constant Matrix: (Units=GPa)
#
#
# Indices 1 2 3 4 5 6 
#
# 1 38.1726 26.1866 2.7419 -0.0045 -12.1529 0.0074
# 2 26.1866 121.9898 34.8424 0.0371 -1.9407 -0.0006
# 3 2.7419 34.8424 67.4948 0.0255 0.4136 0.0046
# 4 -0.0045 0.0371 0.0255 17.0653 0.0022 -0.6448
# 5 -12.1529 -1.9407 0.4136 0.0022 28.0216 0.0014
# 6 0.0074 -0.0006 0.0046 -0.6448 0.0014 22.0866
#
#
#
# Elastic Compliance Matrix: (Units=1/GPa)
#
#
# Indices 1 2 3 4 5 6 
#
# 1 0.036624 -0.008407 0.002759 0.000021 0.015261 -0.000013
# 2 -0.008407 0.011560 -0.005609 -0.000019 -0.002763 0.000004
# 3 0.002759 -0.005609 0.017596 -0.000014 0.000548 -0.000005
# 4 0.000021 -0.000019 -0.000014 0.058663 0.000004 0.001713
# 5 0.015261 -0.002763 0.000548 0.000004 0.042106 -0.000008
# 6 -0.000013 0.000004 -0.000005 0.001713 -0.000008 0.045326
#
#
# Mechanical properties :
#
#
# Convention : Reuss Voigt Hill
#
# Bulk Modulus (GPa) = 23.11312 39.46655 31.28983
# Shear Modulus (GPa) = 20.09539 24.36046 22.22793
#
# Velocity S-wave (km/s) = 3.43350 3.78035 3.61109
# Velocity P-wave (km/s) = 5.41090 6.49674 5.97853
#
# Compressibility (1/GPa) = 0.04326547
#
# Stress axis : x y z
#
# Youngs Moduli (GPa) = 27.30420 86.50377 56.83068
#
# Poissons Ratio (x) = 0.72723 -0.15677
# Poissons Ratio (y) = 0.22955 0.31877
# Poissons Ratio (z) = -0.07532 0.48522
#
# Static dielectric constant tensor:
#      x y z
#    x 1.673010 0.000000 -0.006600 
#    y 0.000000 1.601340 -0.000010 
#    z -0.006600 -0.000010 1.613110 
# 
# From -- ./inp_files/364714.got.cif
#   From: 2010.05.17/outbox.cif.g08.bks.cpg/sg12_183_cif.got.tgz:364714.got - 2010.06.03 13:09:07.
