data_PCOD9168455
_publ_section_title
;
Structure prediction by ZEFSAII (Michael W. Deem and Ramdas Pophale) SiO2 
 PCOD9168455
Probable space group: C 2/M
;
_chemical_formula_sum "Si O2"
_cell_formula_units_Z 44
_cell_length_a 28.281416
_cell_length_b 10.491404
_cell_length_c 9.541646
_cell_angle_alpha 90.000000
_cell_angle_beta 134.123507
_cell_angle_gamma 90.000000
_cell_volume 2032.292211
_symmetry_space_group_name_H-M "C 2/M"
_symmetry_group_IT_number 12
_symmetry_cell_setting 'monoclinic'
loop_
_space_group_symop_operation_xyz
x,y,z
-x,y,-z
-x,-y,-z
x,-y,z
1/2+x,1/2+y,z
1/2-x,1/2+y,-z
1/2-x,1/2-y,-z
1/2+x,1/2-y,z
loop_
_atom_site_type_symbol
_atom_site_label
_atom_site_fract_x
_atom_site_fract_y
_atom_site_fract_z
Si Si1 0.558751 0.717010 0.807095
Si Si2 0.456692 0.000000 0.140946
Si Si3 0.214378 0.139752 0.628061
Si Si4 0.892783 0.500000 0.473631
Si Si5 0.827117 0.779493 0.758824
Si Si6 0.592750 0.284574 0.567722
Si Si7 0.640274 0.000000 0.289412
O O1 0.479815 0.695361 0.652404
O O2 0.583835 0.669353 0.708450
O O3 0.566358 0.871039 0.831518
O O4 0.606947 0.672180 0.029959
O O5 0.534279 0.000000 0.310758
O O6 0.431795 0.000000 0.930759
O O7 0.190822 0.143462 0.417059
O O8 0.267569 0.254617 0.745589
O O9 0.151100 0.158316 0.596008
O O10 0.243039 0.000000 0.719998
O O11 0.890011 0.633523 0.389188
O O12 0.849202 0.500000 0.523292
O O13 0.834572 0.634714 0.715762
#
# Coordination Sequence:
#
# PCOD9168455 Si02
#       7
#     8   4   8   4   8   8   4
#     4   9  19  36  57  85 113 148 184 229 281 329
#     4   8  16  26  51  83 117 137 173 228 276 327
#     4  11  23  39  57  82 112 151 188 232 275 327
#     4  10  16  28  51  87 113 142 172 220 282 328
#     4  10  21  38  60  80 112 146 189 230 277 331
#     4  10  20  35  58  86 117 144 183 229 280 335
#     4  10  15  30  54  84 106 139 180 229 277 323
#
# _framework density 21.650428999999999
#
# number of rings (size 3 to 8) (size 9 to 14) (size 15 to 20)
#    0.000    2.182    2.727    0.818    0.000    3.636 
#    0.000    4.545    0.000    0.000    0.000    0.000 
#    0.000    0.000    0.000    0.000    0.000    0.000 
#
# Total GULP energy -122574.967385 kJ/mol
# GULP energy per Si atom -5571.589427 kJ/mol
# Density = 2.160115 g / cm^3
# Si number density = 21.650429 Si / 1000 Ang^3
#
#
#
# Elastic Constant Matrix: (Units=GPa)
#
#
# Indices 1 2 3 4 5 6 
#
# 1 93.8041 5.4618 -12.3345 0.0000 -7.7145 0.0000
# 2 5.4618 47.4857 -6.2390 0.0000 1.0837 0.0000
# 3 -12.3345 -6.2390 34.2989 0.0000 -0.0794 0.0000
# 4 0.0000 0.0000 0.0000 12.4476 0.0000 4.8230
# 5 -7.7145 1.0837 -0.0794 0.0000 19.0434 0.0000
# 6 0.0000 0.0000 0.0000 4.8230 0.0000 10.0892
#
#
#
# Elastic Compliance Matrix: (Units=1/GPa)
#
#
# Indices 1 2 3 4 5 6 
#
# 1 0.011637 -0.000918 0.004029 0.000000 0.004783 0.000000
# 2 -0.000918 0.021675 0.003609 0.000000 -0.001590 0.000000
# 3 0.004029 0.003609 0.031264 0.000000 0.001557 0.000000
# 4 0.000000 0.000000 0.000000 0.098600 0.000000 -0.047134
# 5 0.004783 -0.001590 0.001557 0.000000 0.054546 0.000000
# 6 0.000000 0.000000 0.000000 -0.047134 0.000000 0.121647
#
#
# Mechanical properties :
#
#
# Convention : Reuss Voigt Hill
#
# Bulk Modulus (GPa) = 12.81797 16.59614 14.70705
# Shear Modulus (GPa) = 14.20712 20.89608 17.55160
#
# Velocity S-wave (km/s) = 2.56443 3.11007 2.85034
# Velocity P-wave (km/s) = 3.83428 4.53639 4.20003
#
# Compressibility (1/GPa) = 0.07801548
#
# Stress axis : x y z
#
# Youngs Moduli (GPa) = 85.93187 46.13599 31.98527
#
# Poissons Ratio (x) = 0.04237 -0.12887
# Poissons Ratio (y) = 0.07891 -0.11543
# Poissons Ratio (z) = -0.34621 -0.16650
#
# Static dielectric constant tensor:
#      x y z
#    x 1.860950 0.000000 0.025040 
#    y 0.000000 1.814970 0.000000 
#    z 0.025040 0.000000 1.782610 
# 
# From -- ./inp_files/110198.got.cif
#   From: 2010.05.17/outbox.cif.g08.bks.cpg/sg12_56_cif.got.tgz:110198.got - 2010.06.03 13:09:07.
