data_PCOD9168369
_publ_section_title
;
Structure prediction by ZEFSAII (Michael W. Deem and Ramdas Pophale) SiO2 
 PCOD9168369
Probable space group: C 2/M
;
_chemical_formula_sum "Si O2"
_cell_formula_units_Z 36
_cell_length_a 13.360127
_cell_length_b 19.224026
_cell_length_c 10.073433
_cell_angle_alpha 90.000000
_cell_angle_beta 150.212340
_cell_angle_gamma 90.000000
_cell_volume 1285.294666
_symmetry_space_group_name_H-M "C 2/M"
_symmetry_group_IT_number 12
_symmetry_cell_setting 'monoclinic'
loop_
_space_group_symop_operation_xyz
x,y,z
-x,y,-z
-x,-y,-z
x,-y,z
1/2+x,1/2+y,z
1/2-x,1/2+y,-z
1/2-x,1/2-y,-z
1/2+x,1/2-y,z
loop_
_atom_site_type_symbol
_atom_site_label
_atom_site_fract_x
_atom_site_fract_y
_atom_site_fract_z
Si Si1 0.259161 0.000000 0.560860
Si Si2 0.769731 0.150509 0.448423
Si Si3 0.264120 0.707143 0.726619
Si Si4 0.341610 0.500000 0.197517
Si Si5 0.740317 0.375516 0.043952
Si Si6 0.233211 0.000000 0.235531
O O1 0.305669 0.074136 0.676999
O O2 0.012417 0.000000 0.277552
O O3 0.332081 0.000000 0.493683
O O4 0.732238 0.211314 0.301868
O O5 0.684707 0.171112 0.497700
O O6 0.011113 0.145673 0.743752
O O7 0.500000 0.683954 0.000000
O O8 0.184585 0.691833 0.784466
O O9 0.500000 0.500000 0.500000
O O10 0.219878 0.428427 0.034474
O O11 0.778121 0.430589 0.207210
O O12 0.000000 0.000000 0.000000
#
# Coordination Sequence:
#
# PCOD9168369 Si02
#       6
#     4   8   8   4   8   4
#     4  10  15  23  39  52  74  96 120 154 181 233
#     4   9  15  21  36  56  74  98 123 147 179 225
#     4   9  15  23  34  55  79  99 121 145 179 222
#     4   9  17  24  38  59  72  93 121 160 195 211
#     4   9  15  23  39  53  79  95 119 151 183 232
#     4  11  10  20  38  58  66  88 120 142 192 224
#
# _framework density 28.009141
#
# number of rings (size 3 to 8) (size 9 to 14) (size 15 to 20)
#    0.000    2.667    6.667    0.667    0.000    0.000 
#    0.000    0.556    0.000    5.333    0.000    0.000 
#    0.000    0.000    0.000   73.000    0.000    0.000 
#
# Total GULP energy -100319.936382 kJ/mol
# GULP energy per Si atom -5573.329799 kJ/mol
# Density = 2.794539 g / cm^3
# Si number density = 28.009141 Si / 1000 Ang^3
#
#
#
# Elastic Constant Matrix: (Units=GPa)
#
#
# Indices 1 2 3 4 5 6 
#
# 1 86.2029 4.4281 31.1980 0.0000 2.1424 0.0000
# 2 4.4281 215.1309 60.9050 0.0000 -36.1052 0.0000
# 3 31.1980 60.9050 141.8405 0.0000 -23.2710 0.0000
# 4 0.0000 0.0000 0.0000 47.1290 0.0000 -7.3190
# 5 2.1424 -36.1052 -23.2710 0.0000 48.9284 0.0000
# 6 0.0000 0.0000 0.0000 -7.3190 0.0000 -1.1132
#
#
#
# Elastic Compliance Matrix: (Units=1/GPa)
#
#
# Indices 1 2 3 4 5 6 
#
# 1 0.012814 0.000351 -0.003274 0.000000 -0.001859 0.000000
# 2 0.000351 0.005761 -0.002013 0.000000 0.003278 0.000000
# 3 -0.003274 -0.002013 0.009127 0.000000 0.002999 0.000000
# 4 0.000000 0.000000 0.000000 0.010499 0.000000 -0.069027
# 5 -0.001859 0.003278 0.002999 0.000000 0.024365 0.000000
# 6 0.000000 0.000000 0.000000 -0.069027 0.000000 -0.444478
#
#
# Mechanical properties :
#
#
# Convention : Reuss Voigt Hill
#
# Bulk Modulus (GPa) = 56.08760 70.69296 63.39028
# Shear Modulus (GPa) = -13.65758 42.09839 14.22041
#
# Velocity S-wave (km/s) = -2.21059 3.88109 2.25568
# Velocity P-wave (km/s) = 3.68139 6.73631 5.42819
#
# Compressibility (1/GPa) = 0.01782925
#
# Stress axis : x y z
#
# Youngs Moduli (GPa) = 78.04157 173.57267 109.56804
#
# Poissons Ratio (x) = -0.06095 0.35875
# Poissons Ratio (y) = -0.02741 0.22058
# Poissons Ratio (z) = 0.25552 0.34944
#
# Static dielectric constant tensor:
#      x y z
#    x 2.403040 0.000000 -0.016040 
#    y 0.000000 2.270350 0.000000 
#    z -0.016040 0.000000 2.210450 
# 
# From -- ./inp_files/47949.got.cif
#   From: 2010.05.17/outbox.cif.g08.bks.cpg/sg12_24_cif.got.tgz:47949.got - 2010.06.03 13:09:07.
