data_PCOD9168321
_publ_section_title
;
Structure prediction by ZEFSAII (Michael W. Deem and Ramdas Pophale) SiO2 
 PCOD9168321
Probable space group: C 2/M
;
_chemical_formula_sum "Si O2"
_cell_formula_units_Z 40
_cell_length_a 5.378944
_cell_length_b 14.635837
_cell_length_c 25.396616
_cell_angle_alpha 90.000000
_cell_angle_beta 71.460387
_cell_angle_gamma 90.000000
_cell_volume 1895.598873
_symmetry_space_group_name_H-M "C 2/M"
_symmetry_group_IT_number 12
_symmetry_cell_setting 'monoclinic'
loop_
_space_group_symop_operation_xyz
x,y,z
-x,y,-z
-x,-y,-z
x,-y,z
1/2+x,1/2+y,z
1/2-x,1/2+y,-z
1/2-x,1/2-y,-z
1/2+x,1/2-y,z
loop_
_atom_site_type_symbol
_atom_site_label
_atom_site_fract_x
_atom_site_fract_y
_atom_site_fract_z
Si Si1 0.795549 0.109626 0.469512
Si Si2 0.957810 0.190838 0.059231
Si Si3 0.161995 0.643388 0.181251
Si Si4 0.405568 0.354921 0.773714
Si Si5 0.977398 0.806877 0.650465
O O1 0.500000 0.143014 0.500000
O O2 0.897177 0.136562 0.405297
O O3 0.000000 0.142564 0.500000
O O4 0.788904 0.000000 0.473372
O O5 0.735568 0.267692 0.060037
O O6 0.828095 0.139339 0.116688
O O7 0.000000 0.142552 0.000000
O O8 0.340810 0.604645 0.215466
O O9 0.106846 0.749673 0.202932
O O10 0.874338 0.604128 0.192933
O O11 0.433547 0.355839 0.709166
O O12 0.196492 0.730639 0.650036
#
# Coordination Sequence:
#
# PCOD9168321 Si02
#       5
#     8   8   8   8   8
#     4  10  23  42  57  71  98 133 158 184 237 296
#     4  10  16  20  29  45  65 103 155 183 201 253
#     4  10  14  25  36  49  83 117 139 179 231 271
#     4  10  16  25  38  59  84 111 137 179 227 274
#     4  12  21  32  53  80 100 117 158 206 231 275
#
# _framework density 21.101510000000001
#
# number of rings (size 3 to 8) (size 9 to 14) (size 15 to 20)
#    0.000    1.600    8.000    1.200    0.000    2.400 
#    0.000    0.000    0.000    0.000    0.000    0.000 
#    0.000    0.000    0.000    0.000    0.000   11.000 
#
# Total GULP energy -111557.985715 kJ/mol
# GULP energy per Si atom -5577.899286 kJ/mol
# Density = 2.105348 g / cm^3
# Si number density = 21.101510 Si / 1000 Ang^3
#
#
#
# Elastic Constant Matrix: (Units=GPa)
#
#
# Indices 1 2 3 4 5 6 
#
# 1 99.4617 -2.8526 -19.1281 0.0000 -0.6214 0.0000
# 2 -2.8526 42.0135 -0.8546 0.0000 4.7180 0.0000
# 3 -19.1281 -0.8546 129.6262 0.0000 3.1004 0.0000
# 4 0.0000 0.0000 0.0000 -24.6577 0.0000 -3.2679
# 5 -0.6214 4.7180 3.1004 0.0000 38.5099 0.0000
# 6 0.0000 0.0000 0.0000 -3.2679 0.0000 -11.9057
#
#
#
# Elastic Compliance Matrix: (Units=1/GPa)
#
#
# Indices 1 2 3 4 5 6 
#
# 1 0.010371 0.000741 0.001536 0.000000 -0.000047 0.000000
# 2 0.000741 0.024194 0.000340 0.000000 -0.002979 0.000000
# 3 0.001536 0.000340 0.007959 0.000000 -0.000658 0.000000
# 4 0.000000 0.000000 0.000000 -0.042086 0.000000 0.011552
# 5 -0.000047 -0.002979 -0.000658 0.000000 0.026385 0.000000
# 6 0.000000 0.000000 0.000000 0.011552 0.000000 -0.087164
#
#
# Mechanical properties :
#
#
# Convention : Reuss Voigt Hill
#
# Bulk Modulus (GPa) = 20.93912 25.04786 22.99349
# Shear Modulus (GPa) = -100.69000 19.98508 -40.35246
#
# Velocity S-wave (km/s) = -6.91524 3.08083 -4.37773
# Velocity P-wave (km/s) = 7.33595 4.95492 3.82524
#
# Compressibility (1/GPa) = 0.04775750
#
# Stress axis : x y z
#
# Youngs Moduli (GPa) = 96.42705 41.33313 125.64133
#
# Poissons Ratio (x) = -0.03061 -0.19303
# Poissons Ratio (y) = -0.07142 -0.04273
# Poissons Ratio (z) = -0.14814 -0.01406
#
# Static dielectric constant tensor:
#      x y z
#    x 1.802860 0.000000 -0.009740 
#    y 0.000000 2.062900 0.000000 
#    z -0.009740 0.000000 1.756590 
# 
# From -- ./inp_files/330931.got.cif
#   From: 2010.05.17/outbox.cif.g08.bks.cpg/sg12_166_cif.got.tgz:330931.got - 2010.06.03 13:09:07.
