data_PCOD9168222
_publ_section_title
;
Structure prediction by ZEFSAII (Michael W. Deem and Ramdas Pophale) SiO2 
 PCOD9168222
Probable space group: P 21/M
;
_chemical_formula_sum "Si O2"
_cell_formula_units_Z 32
_cell_length_a 15.000000
_cell_length_b 21.000000
_cell_length_c 15.000000
_cell_angle_alpha 90.000000
_cell_angle_beta 160.000000
_cell_angle_gamma 90.000000
_cell_volume 1616.045177
_symmetry_space_group_name_H-M "P 21/M"
_symmetry_group_IT_number 11
_symmetry_cell_setting 'monoclinic'
loop_
_space_group_symop_operation_xyz
x,y,z
-x,1/2+y,-z
-x,-y,-z
x,1/2-y,z
loop_
_atom_site_type_symbol
_atom_site_label
_atom_site_fract_x
_atom_site_fract_y
_atom_site_fract_z
Si Si1 0.147570 0.676250 0.435317
Si Si2 0.084613 0.175302 0.396191
Si Si3 0.393393 0.118983 0.026055
Si Si4 0.522303 0.174193 0.958560
Si Si5 0.663828 0.983757 0.878682
Si Si6 0.783336 0.325817 0.708207
Si Si7 0.262466 0.400644 0.233062
Si Si8 0.817131 0.562139 0.641869
O O1 0.075568 0.750000 0.372246
O O2 0.418697 0.665507 0.740442
O O3 0.175462 0.658529 0.357842
O O4 0.910228 0.637634 0.254470
O O5 0.100693 0.250000 0.386919
O O6 0.301540 0.163059 0.676355
O O7 0.127935 0.130522 0.351452
O O8 0.802829 0.164037 0.176553
O O9 0.414069 0.054925 0.105129
O O10 0.481817 0.129333 0.006991
O O11 0.505952 0.250000 0.969885
O O12 0.692044 0.940848 0.815090
O O13 0.442935 0.034398 0.646529
O O14 0.940446 0.017000 0.153364
O O15 0.773928 0.250000 0.707650
O O16 0.516880 0.358143 0.486948
O O17 0.018007 0.355737 0.983512
O O18 0.212171 0.437598 0.278096
#
# Coordination Sequence:
#
# PCOD9168222 Si02
#       8
#     4   4   4   4   4   4   4   4
#     4  11  20  34  56  88 130 170 201 244 310 381
#     4  10  23  45  68  92 124 156 211 276 319 368
#     4  12  22  38  63  94 132 167 205 251 316 384
#     4  10  21  40  67  97 124 161 206 256 321 386
#     4  12  24  43  62  96 130 169 216 257 307 379
#     4  11  22  37  59  94 133 166 205 263 318 371
#     4  12  23  43  64  91 131 175 219 262 309 372
#     4  12  26  44  68  90 120 173 221 264 316 367
#
# _framework density 19.801427
#
# number of rings (size 3 to 8) (size 9 to 14) (size 15 to 20)
#    0.000    0.750    2.500    6.000    0.000    4.000 
#    0.000    5.000    0.000    0.000    0.000    0.000 
#    0.000    0.000    0.000    0.000    0.000    0.000 
#
# Total GULP energy -178904.265752 kJ/mol
# GULP energy per Si atom -5590.758305 kJ/mol
# Density = 1.975636 g / cm^3
# Si number density = 19.801427 Si / 1000 Ang^3
#
#
#
# Elastic Constant Matrix: (Units=GPa)
#
#
# Indices 1 2 3 4 5 6 
#
# 1 56.3794 28.3370 -1.1006 0.0000 3.3727 0.0000
# 2 28.3370 47.3969 0.6975 0.0000 9.5983 0.0000
# 3 -1.1006 0.6975 69.4991 0.0000 24.6998 0.0000
# 4 0.0000 0.0000 0.0000 39.1295 0.0000 0.6139
# 5 3.3727 9.5983 24.6998 0.0000 24.9154 0.0000
# 6 0.0000 0.0000 0.0000 0.6139 0.0000 30.3744
#
#
#
# Elastic Compliance Matrix: (Units=1/GPa)
#
#
# Indices 1 2 3 4 5 6 
#
# 1 0.025530 -0.015916 -0.000597 0.000000 0.003268 0.000000
# 2 -0.015916 0.033748 0.005040 0.000000 -0.015843 0.000000
# 3 -0.000597 0.005040 0.023144 0.000000 -0.024804 0.000000
# 4 0.000000 0.000000 0.000000 0.025564 0.000000 -0.000517
# 5 0.003268 -0.015843 -0.024804 0.000000 0.070386 0.000000
# 6 0.000000 0.000000 0.000000 -0.000517 0.000000 0.032933
#
#
# Mechanical properties :
#
#
# Convention : Reuss Voigt Hill
#
# Bulk Modulus (GPa) = 16.81406 25.46038 21.13722
# Shear Modulus (GPa) = 19.67900 28.57330 24.12615
#
# Velocity S-wave (km/s) = 3.15591 3.80279 3.49435
# Velocity P-wave (km/s) = 4.66792 5.67163 5.19408
#
# Compressibility (1/GPa) = 0.05947404
#
# Stress axis : x y z
#
# Youngs Moduli (GPa) = 39.17035 29.63117 43.20756
#
# Poissons Ratio (x) = 0.47162 0.02581
# Poissons Ratio (y) = 0.62344 -0.21775
# Poissons Ratio (z) = 0.02340 -0.14933
#
# Static dielectric constant tensor:
#      x y z
#    x 1.674920 0.000000 0.007260 
#    y 0.000000 1.706000 0.000000 
#    z 0.007260 0.000000 1.660720 
# 
# From -- ./inp_files/52733.got.cif
#   From: 2010.05.17/outbox.ucp.g08.bks.cvg/sg11_27_cif.got.tgz:52733.got - 2010.06.11 11:38:39.
