data_PCOD9168511
_publ_section_title
;
Structure prediction by ZEFSAII (Michael W. Deem and Ramdas Pophale) SiO2 
 PCOD9168511
Probable space group: C 2/M
;
_chemical_formula_sum "Si O2"
_cell_formula_units_Z 56
_cell_length_a 8.731337
_cell_length_b 23.533502
_cell_length_c 19.169866
_cell_angle_alpha 90.000000
_cell_angle_beta 45.123279
_cell_angle_gamma 90.000000
_cell_volume 2791.282675
_symmetry_space_group_name_H-M "C 2/M"
_symmetry_group_IT_number 12
_symmetry_cell_setting 'monoclinic'
loop_
_space_group_symop_operation_xyz
x,y,z
-x,y,-z
-x,-y,-z
x,-y,z
1/2+x,1/2+y,z
1/2-x,1/2+y,-z
1/2-x,1/2-y,-z
1/2+x,1/2-y,z
loop_
_atom_site_type_symbol
_atom_site_label
_atom_site_fract_x
_atom_site_fract_y
_atom_site_fract_z
Si Si1 0.145765 0.063548 0.521279
Si Si2 0.938804 0.263595 0.886113
Si Si3 0.915001 0.336607 0.417193
Si Si4 0.527894 0.283520 0.393917
Si Si5 0.210396 0.935223 0.243790
Si Si6 0.475100 0.853498 0.245931
Si Si7 0.390410 0.683166 0.784349
O O1 0.344582 0.104581 0.474271
O O2 0.000000 0.080469 0.500000
O O3 0.984069 0.063422 0.637944
O O4 0.222015 0.000000 0.481614
O O5 0.987321 0.208147 0.823785
O O6 0.880656 0.313127 0.848568
O O7 0.151279 0.288476 0.854973
O O8 0.750000 0.250000 0.000000
O O9 0.673175 0.307279 0.497461
O O10 0.030270 0.357164 0.308931
O O11 0.048632 0.283278 0.401807
O O12 0.747614 0.318949 0.327966
O O13 0.485909 0.293417 0.324230
O O14 0.412264 0.910135 0.223967
O O15 0.146313 0.884584 0.211009
O O16 0.244564 0.000000 0.207677
#
# Coordination Sequence:
#
# PCOD9168511 Si02
#       7
#     8   8   8   8   8   8   8
#     4  10  16  22  37  62  94 134 164 190 235 285
#     4  10  20  34  52  72 100 127 162 212 258 305
#     4  11  15  26  40  60 100 127 158 194 239 287
#     4   9  18  24  39  65  96 126 154 196 241 291
#     4   9  17  28  43  69 104 134 165 203 243 297
#     4  10  18  28  44  67  97 127 167 198 253 294
#     4  10  19  34  51  79 100 132 167 200 260 304
#
# _framework density 20.062462
#
# number of rings (size 3 to 8) (size 9 to 14) (size 15 to 20)
#    0.000    2.429    5.714    0.857    0.000    0.000 
#    0.000    0.000    0.000    6.857    0.000    8.000 
#    0.000   31.143    0.000    0.000    0.000    0.000 
#
# Total GULP energy -155880.077754 kJ/mol
# GULP energy per Si atom -5567.145634 kJ/mol
# Density = 2.001680 g / cm^3
# Si number density = 20.062462 Si / 1000 Ang^3
#
#
#
# Elastic Constant Matrix: (Units=GPa)
#
#
# Indices 1 2 3 4 5 6 
#
# 1 24.0096 25.6055 10.5771 0.0000 -5.7136 0.0000
# 2 25.6055 169.3520 21.7887 0.0000 -1.3250 0.0000
# 3 10.5771 21.7887 102.3393 0.0000 2.6145 0.0000
# 4 0.0000 0.0000 0.0000 15.2398 0.0000 1.6630
# 5 -5.7136 -1.3250 2.6145 0.0000 15.4332 0.0000
# 6 0.0000 0.0000 0.0000 1.6630 0.0000 18.5145
#
#
#
# Elastic Compliance Matrix: (Units=1/GPa)
#
#
# Indices 1 2 3 4 5 6 
#
# 1 0.057224 -0.007870 -0.004783 0.000000 0.021320 0.000000
# 2 -0.007870 0.007162 -0.000656 0.000000 -0.002188 0.000000
# 3 -0.004783 -0.000656 0.010497 0.000000 -0.003606 0.000000
# 4 0.000000 0.000000 0.000000 0.066267 0.000000 -0.005952
# 5 0.021320 -0.002188 -0.003606 0.000000 0.073111 0.000000
# 6 0.000000 0.000000 0.000000 -0.005952 0.000000 0.054546
#
#
# Mechanical properties :
#
#
# Convention : Reuss Voigt Hill
#
# Bulk Modulus (GPa) = 20.71869 45.73818 33.22844
# Shear Modulus (GPa) = 16.05064 25.68615 20.86839
#
# Velocity S-wave (km/s) = 2.83155 3.58202 3.22867
# Velocity P-wave (km/s) = 4.58691 6.32101 5.52245
#
# Compressibility (1/GPa) = 0.04826560
#
# Stress axis : x y z
#
# Youngs Moduli (GPa) = 17.47528 139.62610 95.26097
#
# Poissons Ratio (x) = 1.09883 0.45567
# Poissons Ratio (y) = 0.13753 0.06245
# Poissons Ratio (z) = 0.08359 0.09154
#
# Static dielectric constant tensor:
#      x y z
#    x 1.901280 0.000000 0.052010 
#    y 0.000000 1.773550 0.000000 
#    z 0.052010 0.000000 1.709030 
# 
# From -- ./inp_files/307009.got.cif
#   From: 2010.05.17/outbox.cif.g08.bks.cpg/sg12_154_cif.got.tgz:307009.got - 2010.06.03 13:09:07.
