data_PCOD9168315
_publ_section_title
;
Structure prediction by ZEFSAII (Michael W. Deem and Ramdas Pophale) SiO2 
 PCOD9168315
Probable space group: C 2/M
;
_chemical_formula_sum "Si O2"
_cell_formula_units_Z 48
_cell_length_a 14.178332
_cell_length_b 18.799988
_cell_length_c 20.581484
_cell_angle_alpha 90.000000
_cell_angle_beta 28.459299
_cell_angle_gamma 90.000000
_cell_volume 2614.289134
_symmetry_space_group_name_H-M "C 2/M"
_symmetry_group_IT_number 12
_symmetry_cell_setting 'monoclinic'
loop_
_space_group_symop_operation_xyz
x,y,z
-x,y,-z
-x,-y,-z
x,-y,z
1/2+x,1/2+y,z
1/2-x,1/2+y,-z
1/2-x,1/2-y,-z
1/2+x,1/2-y,z
loop_
_atom_site_type_symbol
_atom_site_label
_atom_site_fract_x
_atom_site_fract_y
_atom_site_fract_z
Si Si1 0.657189 0.000000 0.676144
Si Si2 0.000000 0.767537 0.000000
Si Si3 0.454851 0.782446 0.215120
Si Si4 0.253074 0.000000 0.989622
Si Si5 0.887685 0.847788 0.943299
Si Si6 0.867154 0.500000 0.160061
Si Si7 0.261430 0.343154 0.784605
Si Si8 0.359877 0.643598 0.520709
O O1 0.729330 0.000000 0.708454
O O2 0.742176 0.069467 0.590539
O O3 0.419534 0.000000 0.830795
O O4 0.002838 0.819603 0.059196
O O5 0.815688 0.712238 0.114853
O O6 0.514823 0.700779 0.170949
O O7 0.349988 0.813830 0.213206
O O8 0.306284 0.797976 0.363413
O O9 0.659512 0.825341 0.092905
O O10 0.120944 0.069721 0.065804
O O11 0.399036 0.000000 0.963930
O O12 0.805201 0.425261 0.165782
O O13 0.493093 0.342841 0.627734
O O14 0.500000 0.640468 0.500000
#
# Coordination Sequence:
#
# PCOD9168315 Si02
#       8
#     4   4   8   4   8   4   8   8
#     4  10  14  23  43  84  93 109 150 207 233 266
#     4  10  24  34  42  66 102 134 156 190 232 280
#     4   9  16  28  50  70  94 119 154 196 231 271
#     4  10  16  29  52  74  86 121 163 203 231 253
#     4  10  18  32  47  69  96 124 159 196 229 274
#     4  10  15  27  48  79  94 118 151 194 236 287
#     4  10  18  30  47  73 101 123 151 189 240 291
#     4  10  14  24  46  76  96 117 149 196 240 270
#
# _framework density 18.360631999999999
#
# number of rings (size 3 to 8) (size 9 to 14) (size 15 to 20)
#    0.500    1.667    6.667    0.750    0.000    0.667 
#    0.000    0.833    0.000    0.000    0.000   15.750 
#    0.000    0.000    0.000    0.000    0.000    0.000 
#
# Total GULP energy -133699.116316 kJ/mol
# GULP energy per Si atom -5570.796513 kJ/mol
# Density = 1.831884 g / cm^3
# Si number density = 18.360632 Si / 1000 Ang^3
#
#
#
# Elastic Constant Matrix: (Units=GPa)
#
#
# Indices 1 2 3 4 5 6 
#
# 1 13.8470 13.1805 6.0054 0.0074 0.1445 0.0073
# 2 13.1805 175.2896 63.6576 0.0114 -1.9723 0.0091
# 3 6.0054 63.6576 90.6783 0.0342 8.3894 -0.0083
# 4 0.0074 0.0114 0.0342 27.7046 -0.0207 -3.9740
# 5 0.1445 -1.9723 8.3894 -0.0207 13.4943 0.0014
# 6 0.0073 0.0091 -0.0083 -3.9740 0.0014 4.9024
#
#
#
# Elastic Compliance Matrix: (Units=1/GPa)
#
#
# Indices 1 2 3 4 5 6 
#
# 1 0.077927 -0.005398 -0.001296 -0.000037 -0.000818 -0.000138
# 2 -0.005398 0.008327 -0.005948 0.000007 0.004973 -0.000013
# 3 -0.001296 -0.005948 0.016307 -0.000022 -0.010993 0.000026
# 4 -0.000037 0.000007 -0.000022 0.040844 0.000074 0.033109
# 5 -0.000818 0.004973 -0.010993 0.000074 0.081676 0.000011
# 6 -0.000138 -0.000013 0.000026 0.033109 0.000011 0.230822
#
#
# Mechanical properties :
#
#
# Convention : Reuss Voigt Hill
#
# Bulk Modulus (GPa) = 12.94057 49.50022 31.22039
# Shear Modulus (GPa) = 9.86300 22.35168 16.10734
#
# Velocity S-wave (km/s) = 2.32023 3.49287 2.96510
# Velocity P-wave (km/s) = 3.77376 6.57916 5.36314
#
# Compressibility (1/GPa) = 0.07727637
#
# Stress axis : x y z
#
# Youngs Moduli (GPa) = 12.83256 120.09411 61.32501
#
# Poissons Ratio (x) = 0.64830 0.07945
# Poissons Ratio (y) = 0.06927 0.36477
# Poissons Ratio (z) = 0.01662 0.71433
#
# Static dielectric constant tensor:
#      x y z
#    x 1.665480 0.000000 0.018830 
#    y 0.000000 1.644010 0.000000 
#    z 0.018830 0.000000 1.656350 
# 
# From -- ./inp_files/364630.got.cif
#   From: 2010.05.17/outbox.cif.g08.bks.cpg/sg12_183_cif.got.tgz:364630.got - 2010.06.03 13:09:07.
