data_PCOD9168890
_publ_section_title
;
Structure prediction by ZEFSAII (Michael W. Deem and Ramdas Pophale) SiO2 
 PCOD9168890
Probable space group: C 2/M
;
_chemical_formula_sum "Si O2"
_cell_formula_units_Z 48
_cell_length_a 21.764786
_cell_length_b 17.731690
_cell_length_c 22.484076
_cell_angle_alpha 90.000000
_cell_angle_beta 19.839682
_cell_angle_gamma 90.000000
_cell_volume 2944.950143
_symmetry_space_group_name_H-M "C 2/M"
_symmetry_group_IT_number 12
_symmetry_cell_setting 'monoclinic'
loop_
_space_group_symop_operation_xyz
x,y,z
-x,y,-z
-x,-y,-z
x,-y,z
1/2+x,1/2+y,z
1/2-x,1/2+y,-z
1/2-x,1/2-y,-z
1/2+x,1/2-y,z
loop_
_atom_site_type_symbol
_atom_site_label
_atom_site_fract_x
_atom_site_fract_y
_atom_site_fract_z
Si Si1 0.819182 0.664066 0.431729
Si Si2 0.863457 0.590783 0.264755
Si Si3 0.731023 0.195471 0.074886
Si Si4 0.781465 0.412954 0.210136
Si Si5 0.760876 0.154786 0.872598
Si Si6 0.483477 0.411017 0.779961
O O1 0.750000 0.750000 0.500000
O O2 0.803577 0.633454 0.378523
O O3 0.692165 0.612962 0.588399
O O4 0.029419 0.662842 0.257784
O O5 0.855488 0.500000 0.279765
O O6 0.756417 0.610193 0.301459
O O7 0.071058 0.615567 0.063669
O O8 0.757519 0.255207 0.103375
O O9 0.750000 0.250000 0.000000
O O10 0.876753 0.130811 0.930093
O O11 0.725491 0.500000 0.255089
O O12 0.695513 0.367084 0.234589
O O13 0.000000 0.410445 0.000000
O O14 0.902308 0.122418 0.791896
O O15 0.457808 0.500000 0.804676
#
# Coordination Sequence:
#
# PCOD9168890 Si02
#       6
#     8   8   8   8   8   8
#     4  12  20  33  47  68  98 131 169 204 246 287
#     4  10  18  29  47  71 100 132 164 200 239 284
#     4  10  19  33  49  68  95 134 165 203 247 289
#     4   8  15  26  44  70  98 130 165 195 230 282
#     4  10  16  30  49  68  96 135 164 198 238 289
#     4  11  21  31  49  73  96 128 167 205 247 294
#
# _framework density 16.299088999999999
#
# number of rings (size 3 to 8) (size 9 to 14) (size 15 to 20)
#    0.000    1.833    6.667    3.000    0.000    0.667 
#    0.000    0.833    0.000    3.000    0.000    0.000 
#    0.000   18.000    0.000   40.333    0.000    0.000 
#
# Total GULP energy -133803.269047 kJ/mol
# GULP energy per Si atom -5575.136210 kJ/mol
# Density = 1.626199 g / cm^3
# Si number density = 16.299089 Si / 1000 Ang^3
#
#
#
# Elastic Constant Matrix: (Units=GPa)
#
#
# Indices 1 2 3 4 5 6 
#
# 1 64.1814 41.8393 17.0106 0.0042 13.2939 0.0026
# 2 41.8393 103.0600 37.4029 -0.0205 12.7191 -0.0015
# 3 17.0106 37.4029 84.4514 0.0056 6.0165 0.0026
# 4 0.0042 -0.0205 0.0056 17.9657 0.0006 -1.0032
# 5 13.2939 12.7191 6.0165 0.0006 12.9107 0.0016
# 6 0.0026 -0.0015 0.0026 -1.0032 0.0016 26.6300
#
#
#
# Elastic Compliance Matrix: (Units=1/GPa)
#
#
# Indices 1 2 3 4 5 6 
#
# 1 0.024179 -0.007579 -0.000281 -0.000014 -0.017300 -0.000002
# 2 -0.007579 0.015132 -0.004829 0.000021 -0.004852 0.000003
# 3 -0.000281 -0.004829 0.014147 -0.000010 -0.001545 -0.000002
# 4 -0.000014 0.000021 -0.000010 0.055779 -0.000005 0.002101
# 5 -0.017300 -0.004852 -0.001545 -0.000005 0.100769 -0.000005
# 6 -0.000002 0.000003 -0.000002 0.002101 -0.000005 0.037631
#
#
# Mechanical properties :
#
#
# Convention : Reuss Voigt Hill
#
# Bulk Modulus (GPa) = 35.61442 49.35538 42.48490
# Shear Modulus (GPa) = 17.70695 21.86394 19.78545
#
# Velocity S-wave (km/s) = 3.29960 3.66651 3.48789
# Velocity P-wave (km/s) = 6.03444 6.94775 6.50714
#
# Compressibility (1/GPa) = 0.02807851
#
# Stress axis : x y z
#
# Youngs Moduli (GPa) = 41.35760 66.08724 70.68777
#
# Poissons Ratio (x) = 0.50088 0.01987
# Poissons Ratio (y) = 0.31345 0.34137
# Poissons Ratio (z) = 0.01163 0.31916
#
# Static dielectric constant tensor:
#      x y z
#    x 1.557260 -0.000010 -0.006980 
#    y -0.000010 1.543520 0.000000 
#    z -0.006980 0.000000 1.635510 
# 
# From -- ./inp_files/322544.got.cif
#   From: 2010.05.17/outbox.cif.g08.bks.cpg/sg12_162_cif.got.tgz:322544.got - 2010.06.03 13:09:07.
