data_PCOD9168791
_publ_section_title
;
Structure prediction by ZEFSAII (Michael W. Deem and Ramdas Pophale) SiO2 
 PCOD9168791
Probable space group: C 2/M
;
_chemical_formula_sum "Si O2"
_cell_formula_units_Z 52
_cell_length_a 12.305057
_cell_length_b 26.154891
_cell_length_c 10.218716
_cell_angle_alpha 90.000000
_cell_angle_beta 132.627072
_cell_angle_gamma 90.000000
_cell_volume 2419.798427
_symmetry_space_group_name_H-M "C 2/M"
_symmetry_group_IT_number 12
_symmetry_cell_setting 'monoclinic'
loop_
_space_group_symop_operation_xyz
x,y,z
-x,y,-z
-x,-y,-z
x,-y,z
1/2+x,1/2+y,z
1/2-x,1/2+y,-z
1/2-x,1/2-y,-z
1/2+x,1/2-y,z
loop_
_atom_site_type_symbol
_atom_site_label
_atom_site_fract_x
_atom_site_fract_y
_atom_site_fract_z
Si Si1 0.300678 0.887831 0.955611
Si Si2 0.824005 0.897375 0.859157
Si Si3 0.860632 0.500000 0.980878
Si Si4 0.668205 0.316569 0.625949
Si Si5 0.356383 0.000000 0.291063
Si Si6 0.500000 0.254293 0.000000
Si Si7 0.307296 0.200741 0.279366
Si Si8 0.448448 0.172474 0.732207
O O1 0.248260 0.843508 0.815082
O O2 0.215978 0.884131 0.023210
O O3 0.281180 0.945658 0.890282
O O4 0.470799 0.875974 0.134846
O O5 0.743875 0.950532 0.764622
O O6 0.743893 0.853925 0.706338
O O7 0.000000 0.900000 0.000000
O O8 0.893880 0.500000 0.165174
O O9 0.000000 0.500000 0.000000
O O10 0.500000 0.334117 0.500000
O O11 0.664577 0.254642 0.626554
O O12 0.771791 0.332659 0.589037
O O13 0.500000 0.000000 0.500000
O O14 0.647649 0.285048 0.083542
O O15 0.530598 0.219353 0.150094
O O16 0.451869 0.187465 0.310784
#
# Coordination Sequence:
#
# PCOD9168791 Si02
#       8
#     8   8   4   8   4   4   8   8
#     4  10  20  37  60  84 112 151 201 253 299 359
#     4  10  21  37  64  88 112 154 206 247 288 365
#     4  10  20  37  67  93 111 153 217 252 285 368
#     4  11  23  36  52  80 122 158 189 244 313 360
#     4  10  23  43  62  91 130 159 191 254 327 357
#     4  10  16  28  52  82 108 136 190 238 294 338
#     4  10  20  31  56  84 111 146 200 245 288 353
#     4  10  18  33  56  77 108 151 193 239 300 358
#
# _framework density 21.489394000000001
#
# number of rings (size 3 to 8) (size 9 to 14) (size 15 to 20)
#    0.000    1.846    3.846    1.615    2.154    1.231 
#    0.000    6.538    0.000    0.000    0.000    0.000 
#    0.000    0.000    0.000    0.000    0.000    0.000 
#
# Total GULP energy -144843.951739 kJ/mol
# GULP energy per Si atom -5570.921221 kJ/mol
# Density = 2.144048 g / cm^3
# Si number density = 21.489394 Si / 1000 Ang^3
#
#
#
# Elastic Constant Matrix: (Units=GPa)
#
#
# Indices 1 2 3 4 5 6 
#
# 1 148.8990 41.0815 66.3477 0.0000 38.3672 0.0000
# 2 41.0815 148.6188 38.8056 0.0000 3.6620 0.0000
# 3 66.3477 38.8056 66.4836 0.0000 20.1891 0.0000
# 4 0.0000 0.0000 0.0000 14.3668 0.0000 4.5517
# 5 38.3672 3.6620 20.1891 0.0000 44.6088 0.0000
# 6 0.0000 0.0000 0.0000 4.5517 0.0000 22.4844
#
#
#
# Elastic Compliance Matrix: (Units=1/GPa)
#
#
# Indices 1 2 3 4 5 6 
#
# 1 0.013559 -0.000677 -0.011143 0.000000 -0.006563 0.000000
# 2 -0.000677 0.008082 -0.004657 0.000000 0.002026 0.000000
# 3 -0.011143 -0.004657 0.029973 0.000000 -0.003599 0.000000
# 4 0.000000 0.000000 0.000000 0.074375 0.000000 -0.015056
# 5 -0.006563 0.002026 -0.003599 0.000000 0.029524 0.000000
# 6 0.000000 0.000000 0.000000 -0.015056 0.000000 0.047523
#
#
# Mechanical properties :
#
#
# Convention : Reuss Voigt Hill
#
# Bulk Modulus (GPa) = 53.59253 72.94123 63.26688
# Shear Modulus (GPa) = 20.64316 30.80979 25.72648
#
# Velocity S-wave (km/s) = 3.10275 3.79056 3.46377
# Velocity P-wave (km/s) = 6.15055 7.29208 6.74550
#
# Compressibility (1/GPa) = 0.01865932
#
# Stress axis : x y z
#
# Youngs Moduli (GPa) = 73.75069 123.73482 33.36315
#
# Poissons Ratio (x) = 0.08373 0.37178
# Poissons Ratio (y) = 0.04991 0.15538
# Poissons Ratio (z) = 0.82184 0.57627
#
# Static dielectric constant tensor:
#      x y z
#    x 1.820970 0.000000 -0.016510 
#    y 0.000000 1.807980 0.000000 
#    z -0.016510 0.000000 1.910340 
# 
# From -- ./inp_files/136039.got.cif
#   From: 2010.05.17/outbox.cif.g08.bks.cpg/sg12_69_cif.got.tgz:136039.got - 2010.06.03 13:09:07.
