data_PCOD9168653
_publ_section_title
;
Structure prediction by ZEFSAII (Michael W. Deem and Ramdas Pophale) SiO2 
 PCOD9168653
Probable space group: C 2/M
;
_chemical_formula_sum "Si O2"
_cell_formula_units_Z 28
_cell_length_a 35.129221
_cell_length_b 7.751215
_cell_length_c 5.455641
_cell_angle_alpha 90.000000
_cell_angle_beta 108.095864
_cell_angle_gamma 90.000000
_cell_volume 1412.061597
_symmetry_space_group_name_H-M "C 2/M"
_symmetry_group_IT_number 12
_symmetry_cell_setting 'monoclinic'
loop_
_space_group_symop_operation_xyz
x,y,z
-x,y,-z
-x,-y,-z
x,-y,z
1/2+x,1/2+y,z
1/2-x,1/2+y,-z
1/2-x,1/2-y,-z
1/2+x,1/2-y,z
loop_
_atom_site_type_symbol
_atom_site_label
_atom_site_fract_x
_atom_site_fract_y
_atom_site_fract_z
Si Si1 0.726537 0.296063 0.703072
Si Si2 0.635565 0.799626 0.520935
Si Si3 0.896515 0.301967 0.043228
Si Si4 0.025273 0.500000 0.800547
O O1 0.719745 0.500000 0.689494
O O2 0.750000 0.250000 0.500000
O O3 0.683310 0.206645 0.616590
O O4 0.750000 0.250000 0.000000
O O5 0.618748 0.719932 0.237344
O O6 0.621108 0.000000 0.491946
O O7 0.618708 0.719940 0.737079
O O8 0.878633 0.500000 0.007539
O O9 0.943890 0.338160 0.137807
O O10 0.000000 0.500000 0.500000
O O11 0.000000 0.500000 0.000000
#
# Coordination Sequence:
#
# PCOD9168653 Si02
#       4
#     8   8   8   4
#     4  12  25  40  58  84 112 148 198 243 297 343
#     4  10  17  33  51  70 104 142 180 225 275 336
#     4   8  17  27  45  72  99 143 172 208 278 325
#     4  10  16  26  44  74 116 140 172 222 278 342
#
# _framework density 19.829163999999999
#
# number of rings (size 3 to 8) (size 9 to 14) (size 15 to 20)
#    0.857    1.143    0.000    6.000    0.000    2.286 
#    0.000    0.000    0.000    0.000    0.000    0.000 
#    0.000   22.857    0.000    0.000    0.000    0.000 
#
# Total GULP energy -78018.167978 kJ/mol
# GULP energy per Si atom -5572.726284 kJ/mol
# Density = 1.978403 g / cm^3
# Si number density = 19.829164 Si / 1000 Ang^3
#
#
#
# Elastic Constant Matrix: (Units=GPa)
#
#
# Indices 1 2 3 4 5 6 
#
# 1 154.8741 -15.5180 103.1868 0.0000 -21.8677 0.0000
# 2 -15.5180 47.8325 -2.5068 0.0000 -6.0752 0.0000
# 3 103.1868 -2.5068 247.4823 0.0000 -21.5235 0.0000
# 4 0.0000 0.0000 0.0000 9.3218 0.0000 2.4571
# 5 -21.8677 -6.0752 -21.5235 0.0000 49.0291 0.0000
# 6 0.0000 0.0000 0.0000 2.4571 0.0000 14.5547
#
#
#
# Elastic Compliance Matrix: (Units=1/GPa)
#
#
# Indices 1 2 3 4 5 6 
#
# 1 0.009733 0.003356 -0.003754 0.000000 0.003109 0.000000
# 2 0.003356 0.022448 -0.000831 0.000000 0.003913 0.000000
# 3 -0.003754 -0.000831 0.005659 0.000000 0.000707 0.000000
# 4 0.000000 0.000000 0.000000 0.112271 0.000000 -0.018953
# 5 0.003109 0.003913 0.000707 0.000000 0.022578 0.000000
# 6 0.000000 0.000000 0.000000 -0.018953 0.000000 0.071906
#
#
# Mechanical properties :
#
#
# Convention : Reuss Voigt Hill
#
# Bulk Modulus (GPa) = 28.26335 68.94589 48.60462
# Shear Modulus (GPa) = 19.31636 38.91626 29.11631
#
# Velocity S-wave (km/s) = 3.12451 4.43490 3.83607
# Velocity P-wave (km/s) = 5.22504 7.81472 6.64722
#
# Compressibility (1/GPa) = 0.03538151
#
# Stress axis : x y z
#
# Youngs Moduli (GPa) = 102.74219 44.54652 176.71323
#
# Poissons Ratio (x) = -0.14949 0.66335
# Poissons Ratio (y) = -0.34478 0.14693
# Poissons Ratio (z) = 0.38567 0.03704
#
# Static dielectric constant tensor:
#      x y z
#    x 1.713130 0.000000 -0.118960 
#    y 0.000000 1.702080 0.000000 
#    z -0.118960 0.000000 1.967890 
# 
# From -- ./inp_files/30108.got.cif
#   From: 2010.05.17/outbox.cif.g08.bks.cpg/sg12_16_cif.got.tgz:30108.got - 2010.06.03 13:09:07.
