data_PCOD9168497
_publ_section_title
;
Structure prediction by ZEFSAII (Michael W. Deem and Ramdas Pophale) SiO2 
 PCOD9168497
Probable space group: C 2/M
;
_chemical_formula_sum "Si O2"
_cell_formula_units_Z 48
_cell_length_a 14.191974
_cell_length_b 8.531892
_cell_length_c 18.749364
_cell_angle_alpha 90.000000
_cell_angle_beta 62.431248
_cell_angle_gamma 90.000000
_cell_volume 2012.481698
_symmetry_space_group_name_H-M "C 2/M"
_symmetry_group_IT_number 12
_symmetry_cell_setting 'monoclinic'
loop_
_space_group_symop_operation_xyz
x,y,z
-x,y,-z
-x,-y,-z
x,-y,z
1/2+x,1/2+y,z
1/2-x,1/2+y,-z
1/2-x,1/2-y,-z
1/2+x,1/2-y,z
loop_
_atom_site_type_symbol
_atom_site_label
_atom_site_fract_x
_atom_site_fract_y
_atom_site_fract_z
Si Si1 0.067072 0.677010 0.410882
Si Si2 0.703177 0.809759 0.238650
Si Si3 0.973985 0.815616 0.909058
Si Si4 0.408487 0.182312 0.251966
Si Si5 0.290035 0.674492 0.414256
Si Si6 0.673377 0.814153 0.929965
O O1 0.021921 0.500000 0.417298
O O2 0.098254 0.739237 0.320814
O O3 0.184357 0.664099 0.403595
O O4 0.000000 0.753321 0.500000
O O5 0.801916 0.731222 0.246180
O O6 0.729269 0.759937 0.148495
O O7 0.708906 0.000000 0.240638
O O8 0.997995 0.777891 0.818536
O O9 0.068629 0.725043 0.917914
O O10 0.986682 0.000000 0.917002
O O11 0.863813 0.759785 0.981982
O O12 0.377075 0.224378 0.343084
O O13 0.431277 0.000000 0.236436
O O14 0.331864 0.500000 0.411256
O O15 0.250000 0.750000 0.500000
O O16 0.687468 0.000000 0.931178
#
# Coordination Sequence:
#
# PCOD9168497 Si02
#       6
#     8   8   8   8   8   8
#     4   8  15  28  46  66  87 114 149 186 221 259
#     4   9  15  24  38  56  79 108 141 176 216 259
#     4  10  16  23  34  50  74 104 139 174 211 255
#     4  10  17  26  39  56  80 109 141 175 215 260
#     4  10  19  31  47  66  89 117 149 184 222 262
#     4  10  16  22  32  49  75 106 139 172 210 256
#
# _framework density 23.851147999999998
#
# number of rings (size 3 to 8) (size 9 to 14) (size 15 to 20)
#    0.000    2.500    0.000    9.500    0.000    0.000 
#    0.000    0.000    0.000   18.000    0.000    0.000 
#    0.000    1.333    0.000    3.667    0.000   14.000 
#
# Total GULP energy -133903.759336 kJ/mol
# GULP energy per Si atom -5579.323306 kJ/mol
# Density = 2.379686 g / cm^3
# Si number density = 23.851148 Si / 1000 Ang^3
#
#
#
# Elastic Constant Matrix: (Units=GPa)
#
#
# Indices 1 2 3 4 5 6 
#
# 1 60.3586 -19.7333 1.7761 0.0000 -16.5365 0.0000
# 2 -19.7333 96.0824 32.8016 0.0000 5.3753 0.0000
# 3 1.7761 32.8016 271.2050 0.0000 -20.4195 0.0000
# 4 0.0000 0.0000 0.0000 38.8390 0.0000 1.0259
# 5 -16.5365 5.3753 -20.4195 0.0000 23.4420 0.0000
# 6 0.0000 0.0000 0.0000 1.0259 0.0000 -9.9361
#
#
#
# Elastic Compliance Matrix: (Units=1/GPa)
#
#
# Indices 1 2 3 4 5 6 
#
# 1 0.021812 0.003437 0.000579 0.000000 0.015102 0.000000
# 2 0.003437 0.011739 -0.001565 0.000000 -0.001630 0.000000
# 3 0.000579 -0.001565 0.004206 0.000000 0.004431 0.000000
# 4 0.000000 0.000000 0.000000 0.025677 0.000000 0.002651
# 5 0.015102 -0.001630 0.004431 0.000000 0.057545 0.000000
# 6 0.000000 0.000000 0.000000 0.002651 0.000000 -0.100369
#
#
# Mechanical properties :
#
#
# Convention : Reuss Voigt Hill
#
# Bulk Modulus (GPa) = 23.44163 50.81498 37.12830
# Shear Modulus (GPa) = 167.06118 37.98909 102.52513
#
# Velocity S-wave (km/s) = 8.37826 3.99527 6.56344
# Velocity P-wave (km/s) = 10.17071 6.52948 8.54627
#
# Compressibility (1/GPa) = 0.04265915
#
# Stress axis : x y z
#
# Youngs Moduli (GPa) = 45.84618 85.18465 237.73461
#
# Poissons Ratio (x) = -0.29281 -0.13753
# Poissons Ratio (y) = -0.15759 0.37208
# Poissons Ratio (z) = -0.02652 0.13332
#
# Static dielectric constant tensor:
#      x y z
#    x 2.021780 0.000000 0.104940 
#    y 0.000000 1.816160 0.000000 
#    z 0.104940 0.000000 2.048760 
# 
# From -- ./inp_files/318984.got.cif
#   From: 2010.05.17/outbox.cif.g08.bks.cpg/sg12_160_cif.got.tgz:318984.got - 2010.06.03 13:09:07.
