data_PCOD9168092
_publ_section_title
;
Structure prediction by ZEFSAII (Michael W. Deem and Ramdas Pophale) SiO2 
 PCOD9168092
Probable space group: P 21/M
;
_chemical_formula_sum "Si O2"
_cell_formula_units_Z 24
_cell_length_a 9.000000
_cell_length_b 9.000000
_cell_length_c 30.000000
_cell_angle_alpha 90.000000
_cell_angle_beta 30.000000
_cell_angle_gamma 90.000000
_cell_volume 1215.000000
_symmetry_space_group_name_H-M "P 21/M"
_symmetry_group_IT_number 11
_symmetry_cell_setting 'monoclinic'
loop_
_space_group_symop_operation_xyz
x,y,z
-x,1/2+y,-z
-x,-y,-z
x,1/2-y,z
loop_
_atom_site_type_symbol
_atom_site_label
_atom_site_fract_x
_atom_site_fract_y
_atom_site_fract_z
Si Si1 0.502550 0.428169 0.874617
Si Si2 0.373235 0.069570 0.806631
Si Si3 0.845816 0.570019 0.320861
Si Si4 0.245882 0.430632 0.035432
Si Si5 0.236838 0.070425 0.472151
Si Si6 0.008693 0.069691 0.374165
O O1 0.482145 0.250000 0.880163
O O2 0.391893 0.473979 0.854442
O O3 0.852931 0.464085 0.784519
O O4 0.324317 0.478925 0.964110
O O5 0.392471 0.250000 0.797832
O O6 0.653249 0.990606 0.710864
O O7 0.065022 0.003622 0.869956
O O8 0.813771 0.750000 0.332269
O O9 0.559857 0.491214 0.374894
O O10 0.890946 0.499935 0.358378
O O11 0.238450 0.250000 0.039764
O O12 0.500000 0.500000 0.000000
O O13 0.225290 0.250000 0.475895
O O14 0.000000 0.000000 0.500000
O O15 0.167597 0.001044 0.538766
O O16 0.992734 0.250000 0.378142
#
# Coordination Sequence:
#
# PCOD9168092 Si02
#       6
#     4   4   4   4   4   4
#     4   8  18  36  60  84 111 146 189 235 284 336
#     4  10  20  38  61  86 112 146 190 241 293 344
#     4  10  20  39  63  88 115 150 194 243 292 344
#     4  11  22  37  55  82 117 155 193 235 286 346
#     4  12  25  41  59  85 119 157 195 238 288 345
#     4  11  22  39  62  89 116 150 193 240 290 347
#
# _framework density 19.753086
#
# number of rings (size 3 to 8) (size 9 to 14) (size 15 to 20)
#    0.000    1.667    0.000    6.500    0.000    1.333 
#    0.000   14.167    0.000    0.000    0.000    0.000 
#    0.000    0.000    0.000    0.000    0.000    0.000 
#
# Total GULP energy -134086.216416 kJ/mol
# GULP energy per Si atom -5586.925684 kJ/mol
# Density = 1.970813 g / cm^3
# Si number density = 19.753086 Si / 1000 Ang^3
#
#
#
# Elastic Constant Matrix: (Units=GPa)
#
#
# Indices 1 2 3 4 5 6 
#
# 1 23.2513 11.3311 9.9203 0.0000 -33.7911 0.0000
# 2 11.3311 144.0954 24.7275 0.0000 -17.4564 0.0000
# 3 9.9203 24.7275 74.1367 0.0000 -30.3886 0.0000
# 4 0.0000 0.0000 0.0000 33.1542 0.0000 -5.3318
# 5 -33.7911 -17.4564 -30.3886 0.0000 42.8905 0.0000
# 6 0.0000 0.0000 0.0000 -5.3318 0.0000 32.7708
#
#
#
# Elastic Compliance Matrix: (Units=1/GPa)
#
#
# Indices 1 2 3 4 5 6 
#
# 1 -0.140573 0.000915 -0.037682 0.000000 -0.137076 0.000000
# 2 0.000915 0.007452 -0.001507 0.000000 0.002686 0.000000
# 3 -0.037682 -0.001507 0.009320 0.000000 -0.023698 0.000000
# 4 0.000000 0.000000 0.000000 0.030972 0.000000 0.005039
# 5 -0.137076 0.002686 -0.023698 0.000000 -0.100377 0.000000
# 6 0.000000 0.000000 0.000000 0.005039 0.000000 0.031335
#
#
# Mechanical properties :
#
#
# Convention : Reuss Voigt Hill
#
# Bulk Modulus (GPa) = -4.99123 37.04903 16.02890
# Shear Modulus (GPa) = -32.87182 34.79675 0.96247
#
# Velocity S-wave (km/s) = -4.08381 4.20168 0.69879
# Velocity P-wave (km/s) = 4.97684 6.50658 2.96367
#
# Compressibility (1/GPa) = -0.20035150
#
# Stress axis : x y z
#
# Youngs Moduli (GPa) = -7.11372 134.19398 107.29948
#
# Poissons Ratio (x) = -0.12272 4.04330
# Poissons Ratio (y) = 0.00651 0.16170
# Poissons Ratio (z) = -0.26806 0.20223
#
# Static dielectric constant tensor:
#      x y z
#    x 1.737600 0.000000 -0.022860 
#    y 0.000000 1.644370 0.000000 
#    z -0.022860 0.000000 1.714270 
# 
# From -- ./inp_files/61839.got.cif
#   From: 2010.05.17/outbox.ucp.g08.bks.cvg/sg11_31_cif.got.tgz:61839.got - 2010.06.11 11:38:39.
