data_PCOD9168973
_publ_section_title
;
Structure prediction by ZEFSAII (Michael W. Deem and Ramdas Pophale) SiO2 
 PCOD9168973
Probable space group: C 2/M
;
_chemical_formula_sum "Si O2"
_cell_formula_units_Z 40
_cell_length_a 24.858772
_cell_length_b 12.834483
_cell_length_c 20.244453
_cell_angle_alpha 90.000000
_cell_angle_beta 22.671334
_cell_angle_gamma 90.000000
_cell_volume 2489.578787
_symmetry_space_group_name_H-M "C 2/M"
_symmetry_group_IT_number 12
_symmetry_cell_setting 'monoclinic'
loop_
_space_group_symop_operation_xyz
x,y,z
-x,y,-z
-x,-y,-z
x,-y,z
1/2+x,1/2+y,z
1/2-x,1/2+y,-z
1/2-x,1/2-y,-z
1/2+x,1/2-y,z
loop_
_atom_site_type_symbol
_atom_site_label
_atom_site_fract_x
_atom_site_fract_y
_atom_site_fract_z
Si Si1 0.581776 0.164216 0.745147
Si Si2 0.140153 0.884363 0.646235
Si Si3 0.556678 0.661644 0.255171
Si Si4 0.370679 0.000000 0.195773
Si Si5 0.621583 0.117229 0.136209
Si Si6 0.549619 0.500000 0.519251
O O1 0.701092 0.133452 0.556681
O O2 0.594267 0.287413 0.742550
O O3 0.612097 0.098715 0.775412
O O4 0.439903 0.136440 0.867812
O O5 0.049806 0.872792 0.681632
O O6 0.122433 0.000000 0.693524
O O7 0.562590 0.787888 0.247528
O O8 0.510247 0.600780 0.373286
O O9 0.711761 0.627517 0.057859
O O10 0.217875 0.000000 0.336080
O O11 0.500000 0.000000 0.000000
O O12 0.584483 0.000000 0.199335
O O13 0.500000 0.500000 0.500000
#
# Coordination Sequence:
#
# PCOD9168973 Si02
#       6
#     8   8   8   4   8   4
#     4  10  19  30  50  78 104 129 169 212 267 308
#     4  10  16  31  53  75 104 132 159 219 270 311
#     4  10  19  32  50  76 108 137 173 206 259 311
#     4  12  24  38  52  74 108 142 179 220 246 310
#     4  10  18  29  53  81 108 130 161 222 266 308
#     4  12  24  38  54  70 108 150 179 206 249 319
#
# _framework density 16.066974999999999
#
# number of rings (size 3 to 8) (size 9 to 14) (size 15 to 20)
#    0.000    1.600    6.000    0.000    2.800    0.000 
#    0.000    0.000    0.000    1.200    0.000    0.000 
#    0.000    0.000    0.000    0.000    0.000    0.000 
#
# Total GULP energy -111475.026268 kJ/mol
# GULP energy per Si atom -5573.751313 kJ/mol
# Density = 1.603041 g / cm^3
# Si number density = 16.066975 Si / 1000 Ang^3
#
#
#
# Elastic Constant Matrix: (Units=GPa)
#
#
# Indices 1 2 3 4 5 6 
#
# 1 74.3553 34.8591 20.6083 0.0000 1.2124 0.0000
# 2 34.8591 185.9701 23.0455 0.0000 15.5711 0.0000
# 3 20.6083 23.0455 49.0902 0.0000 -2.1199 0.0000
# 4 0.0000 0.0000 0.0000 14.8517 0.0000 -6.0284
# 5 1.2124 15.5711 -2.1199 0.0000 24.4982 0.0000
# 6 0.0000 0.0000 0.0000 -6.0284 0.0000 11.2471
#
#
#
# Elastic Compliance Matrix: (Units=1/GPa)
#
#
# Indices 1 2 3 4 5 6 
#
# 1 0.016108 -0.002335 -0.005658 0.000000 0.000197 0.000000
# 2 -0.002335 0.006439 -0.002223 0.000000 -0.004170 0.000000
# 3 -0.005658 -0.002223 0.023952 0.000000 0.003765 0.000000
# 4 0.000000 0.000000 0.000000 0.086055 0.000000 0.046125
# 5 0.000197 -0.004170 0.003765 0.000000 0.043786 0.000000
# 6 0.000000 0.000000 0.000000 0.046125 0.000000 0.113634
#
#
# Mechanical properties :
#
#
# Convention : Reuss Voigt Hill
#
# Bulk Modulus (GPa) = 38.35999 51.82680 45.09339
# Shear Modulus (GPa) = 15.66931 25.51292 20.59111
#
# Velocity S-wave (km/s) = 3.12629 3.98918 3.58380
# Velocity P-wave (km/s) = 6.07935 7.31743 6.72693
#
# Compressibility (1/GPa) = 0.02606883
#
# Stress axis : x y z
#
# Youngs Moduli (GPa) = 62.07917 155.29275 41.75016
#
# Poissons Ratio (x) = 0.36258 0.23621
# Poissons Ratio (y) = 0.14494 0.09281
# Poissons Ratio (z) = 0.35123 0.34520
#
# Static dielectric constant tensor:
#      x y z
#    x 1.514090 0.000000 -0.032570 
#    y 0.000000 1.599420 0.000000 
#    z -0.032570 0.000000 1.532020 
# 
# From -- ./inp_files/328102.got.cif
#   From: 2010.05.17/outbox.cif.g08.bks.cpg/sg12_165_cif.got.tgz:328102.got - 2010.06.03 13:09:07.
