data_PCOD9168406
_publ_section_title
;
Structure prediction by ZEFSAII (Michael W. Deem and Ramdas Pophale) SiO2 
 PCOD9168406
Probable space group: C 2/M
;
_chemical_formula_sum "Si O2"
_cell_formula_units_Z 48
_cell_length_a 6.941114
_cell_length_b 20.618721
_cell_length_c 14.196185
_cell_angle_alpha 90.000000
_cell_angle_beta 72.886716
_cell_angle_gamma 90.000000
_cell_volume 1941.759383
_symmetry_space_group_name_H-M "C 2/M"
_symmetry_group_IT_number 12
_symmetry_cell_setting 'monoclinic'
loop_
_space_group_symop_operation_xyz
x,y,z
-x,y,-z
-x,-y,-z
x,-y,z
1/2+x,1/2+y,z
1/2-x,1/2+y,-z
1/2-x,1/2-y,-z
1/2+x,1/2-y,z
loop_
_atom_site_type_symbol
_atom_site_label
_atom_site_fract_x
_atom_site_fract_y
_atom_site_fract_z
Si Si1 0.953383 0.570234 0.761321
Si Si2 0.763719 0.931050 0.007756
Si Si3 0.676655 0.200459 0.229162
Si Si4 0.423200 0.427235 0.333097
Si Si5 0.889980 0.841083 0.843362
Si Si6 0.781596 0.313295 0.558431
O O1 0.061118 0.500000 0.731121
O O2 0.004768 0.647569 0.748506
O O3 0.776120 0.569044 0.706200
O O4 0.865188 0.567387 0.879479
O O5 0.743668 0.869741 0.942885
O O6 0.728449 0.000000 0.961230
O O7 0.000000 0.932009 0.000000
O O8 0.653769 0.269416 0.185464
O O9 0.718861 0.210608 0.333615
O O10 0.877524 0.168155 0.155997
O O11 0.464382 0.500000 0.359585
O O12 0.591062 0.395696 0.240931
O O13 0.373748 0.373022 0.418482
O O14 0.750000 0.250000 0.500000
O O15 0.000000 0.340374 0.500000
#
# Coordination Sequence:
#
# PCOD9168406 Si02
#       6
#     8   8   8   8   8   8
#     4   8  15  28  46  71  96 123 163 207 239 271
#     4  10  15  26  49  74  97 128 173 210 232 269
#     4  10  20  32  49  73  99 129 158 199 252 294
#     4   9  17  30  50  73  96 122 162 209 242 274
#     4  10  19  31  48  74 104 129 159 198 246 292
#     4  10  19  33  53  74  98 129 162 200 249 300
#
# _framework density 24.719850000000001
#
# number of rings (size 3 to 8) (size 9 to 14) (size 15 to 20)
#    0.000    2.833    3.333    2.500    0.000    1.000 
#    0.000    0.000    0.000    7.500    0.000    2.333 
#    0.000    0.000    0.000    0.000    0.000    0.000 
#
# Total GULP energy -133821.047729 kJ/mol
# GULP energy per Si atom -5575.876989 kJ/mol
# Density = 2.466359 g / cm^3
# Si number density = 24.719850 Si / 1000 Ang^3
#
#
#
# Elastic Constant Matrix: (Units=GPa)
#
#
# Indices 1 2 3 4 5 6 
#
# 1 54.5376 13.9519 11.8510 0.0000 0.8693 0.0000
# 2 13.9519 259.6380 51.2081 0.0000 25.7381 0.0000
# 3 11.8510 51.2081 83.5997 0.0000 -1.1480 0.0000
# 4 0.0000 0.0000 0.0000 41.1883 0.0000 4.9619
# 5 0.8693 25.7381 -1.1480 0.0000 12.2283 0.0000
# 6 0.0000 0.0000 0.0000 4.9619 0.0000 12.9423
#
#
#
# Elastic Compliance Matrix: (Units=1/GPa)
#
#
# Indices 1 2 3 4 5 6 
#
# 1 0.018992 -0.000495 -0.002396 0.000000 -0.000533 0.000000
# 2 -0.000495 0.005860 -0.003693 0.000000 -0.012646 0.000000
# 3 -0.002396 -0.003693 0.014692 0.000000 0.009323 0.000000
# 4 0.000000 0.000000 0.000000 0.025454 0.000000 -0.009759
# 5 -0.000533 -0.012646 0.009323 0.000000 0.109308 0.000000
# 6 0.000000 0.000000 0.000000 -0.009759 0.000000 0.081008
#
#
# Mechanical properties :
#
#
# Convention : Reuss Voigt Hill
#
# Bulk Modulus (GPa) = 37.91512 61.31079 49.61295
# Shear Modulus (GPa) = 18.03273 34.65605 26.34439
#
# Velocity S-wave (km/s) = 2.70383 3.74833 3.26808
# Velocity P-wave (km/s) = 5.01186 6.60222 5.86124
#
# Compressibility (1/GPa) = 0.02637470
#
# Stress axis : x y z
#
# Youngs Moduli (GPa) = 52.65417 170.64633 68.06611
#
# Poissons Ratio (x) = 0.08448 0.16311
# Poissons Ratio (y) = 0.02607 0.25137
# Poissons Ratio (z) = 0.12618 0.63020
#
# Static dielectric constant tensor:
#      x y z
#    x 2.145000 0.000000 0.016670 
#    y 0.000000 2.042010 0.000000 
#    z 0.016670 0.000000 1.929130 
# 
# From -- ./inp_files/196892.got.cif
#   From: 2010.05.17/outbox.cif.g08.bks.cpg/sg12_99_cif.got.tgz:196892.got - 2010.06.03 13:09:07.
