data_PCOD9168323
_publ_section_title
;
Structure prediction by ZEFSAII (Michael W. Deem and Ramdas Pophale) SiO2 
 PCOD9168323
Probable space group: C 2/M
;
_chemical_formula_sum "Si O2"
_cell_formula_units_Z 44
_cell_length_a 5.403306
_cell_length_b 14.074171
_cell_length_c 30.785931
_cell_angle_alpha 90.000000
_cell_angle_beta 121.771743
_cell_angle_gamma 90.000000
_cell_volume 1990.359383
_symmetry_space_group_name_H-M "C 2/M"
_symmetry_group_IT_number 12
_symmetry_cell_setting 'monoclinic'
loop_
_space_group_symop_operation_xyz
x,y,z
-x,y,-z
-x,-y,-z
x,-y,z
1/2+x,1/2+y,z
1/2-x,1/2+y,-z
1/2-x,1/2-y,-z
1/2+x,1/2-y,z
loop_
_atom_site_type_symbol
_atom_site_label
_atom_site_fract_x
_atom_site_fract_y
_atom_site_fract_z
Si Si1 0.325756 0.115376 0.941919
Si Si2 0.667885 0.135008 0.722629
Si Si3 0.703536 0.150946 0.234512
Si Si4 0.144385 0.615318 0.881462
Si Si5 0.000000 0.186119 0.500000
Si Si6 0.665983 0.185745 0.388661
O O1 0.488366 0.140290 0.912291
O O2 0.985379 0.140290 0.912291
O O3 0.333614 0.000000 0.944538
O O4 0.500000 0.151760 0.000000
O O5 0.494885 0.100871 0.748318
O O6 0.707807 0.248228 0.735936
O O7 0.485895 0.122645 0.661965
O O8 0.995023 0.100871 0.748318
O O9 0.521755 0.163187 0.173918
O O10 0.121510 0.500000 0.873837
O O11 0.750000 0.250000 0.500000
O O12 0.833636 0.136670 0.444545
O O13 0.407615 0.249999 0.385872
#
# Coordination Sequence:
#
# PCOD9168323 Si02
#       6
#     8   8   8   8   4   8
#     4   9  17  30  47  66  86 106 130 163 208 256
#     4  10  17  28  43  60  81 114 149 172 192 236
#     4  10  18  28  42  62  83 111 142 170 199 233
#     4  10  19  30  45  67  90 108 130 166 209 249
#     4   8  16  20  34  52  78 108 128 166 216 248
#     4  10  14  25  36  56  80 107 140 170 206 246
#
# _framework density 22.106562
#
# number of rings (size 3 to 8) (size 9 to 14) (size 15 to 20)
#    0.000    2.364    3.636    1.636    0.000    2.182 
#    0.000    0.000    0.000    0.000    0.000   50.909 
#    0.000    0.000    0.000    9.000    0.000    0.000 
#
# Total GULP energy -122801.228803 kJ/mol
# GULP energy per Si atom -5581.874036 kJ/mol
# Density = 2.205625 g / cm^3
# Si number density = 22.106562 Si / 1000 Ang^3
#
#
#
# Elastic Constant Matrix: (Units=GPa)
#
#
# Indices 1 2 3 4 5 6 
#
# 1 239.8147 -0.9153 83.9417 0.0001 1.8329 0.0000
# 2 -0.9153 77.1661 -3.2932 0.0000 0.0587 0.0000
# 3 83.9417 -3.2932 246.6224 0.0001 -2.0006 0.0000
# 4 0.0001 0.0000 0.0001 -70.4235 0.0001 1.0131
# 5 1.8329 0.0587 -2.0006 0.0001 40.9017 0.0000
# 6 0.0000 0.0000 0.0000 1.0131 0.0000 -29.3811
#
#
#
# Elastic Compliance Matrix: (Units=1/GPa)
#
#
# Indices 1 2 3 4 5 6 
#
# 1 0.004737 -0.000013 -0.001615 0.000000 -0.000291 0.000000
# 2 -0.000013 0.012966 0.000177 0.000000 -0.000009 0.000000
# 3 -0.001615 0.000177 0.004609 0.000000 0.000298 0.000000
# 4 0.000000 0.000000 0.000000 -0.014207 0.000000 -0.000490
# 5 -0.000291 -0.000009 0.000298 0.000000 0.024476 0.000000
# 6 0.000000 0.000000 0.000000 -0.000490 0.000000 -0.034052
#
#
# Mechanical properties :
#
#
# Convention : Reuss Voigt Hill
#
# Bulk Modulus (GPa) = 51.51242 80.34106 65.92674
# Shear Modulus (GPa) = 632.78671 20.47742 326.63206
#
# Velocity S-wave (km/s) = 16.93710 3.04683 12.16857
# Velocity P-wave (km/s) = 20.14546 6.98563 15.07711
#
# Compressibility (1/GPa) = 0.01941279
#
# Stress axis : x y z
#
# Youngs Moduli (GPa) = 211.08874 77.12188 216.95559
#
# Poissons Ratio (x) = 0.00096 0.35037
# Poissons Ratio (y) = 0.00264 -0.03847
# Poissons Ratio (z) = 0.34090 -0.01368
#
# Static dielectric constant tensor:
#      x y z
#    x 1.779570 0.000000 -0.000020 
#    y 0.000000 2.111360 0.000000 
#    z -0.000020 0.000000 1.780250 
# 
# From -- ./inp_files/354801.got.cif
#   From: 2010.05.17/outbox.cif.g08.bks.cpg/sg12_178_cif.got.tgz:354801.got - 2010.06.03 13:09:07.
