data_PCOD9168218
_publ_section_title
;
Structure prediction by ZEFSAII (Michael W. Deem and Ramdas Pophale) SiO2 
 PCOD9168218
Probable space group: P 21/M
;
_chemical_formula_sum "Si O2"
_cell_formula_units_Z 32
_cell_length_a 12.000000
_cell_length_b 9.000000
_cell_length_c 30.000000
_cell_angle_alpha 90.000000
_cell_angle_beta 150.000000
_cell_angle_gamma 90.000000
_cell_volume 1620.000000
_symmetry_space_group_name_H-M "P 21/M"
_symmetry_group_IT_number 11
_symmetry_cell_setting 'monoclinic'
loop_
_space_group_symop_operation_xyz
x,y,z
-x,1/2+y,-z
-x,-y,-z
x,1/2-y,z
loop_
_atom_site_type_symbol
_atom_site_label
_atom_site_fract_x
_atom_site_fract_y
_atom_site_fract_z
Si Si1 0.163130 0.071637 0.518934
Si Si2 0.822714 0.074462 0.220793
Si Si3 0.518643 0.080024 0.785945
Si Si4 0.357951 0.428253 0.009710
Si Si5 0.010335 0.078586 0.629767
Si Si6 0.369463 0.570615 0.270972
Si Si7 0.811914 0.070390 0.965685
Si Si8 0.939930 0.425140 0.163942
O O1 0.126272 0.250000 0.505014
O O2 0.410699 0.042086 0.623590
O O3 0.000000 0.000000 0.500000
O O4 0.130125 0.006542 0.457248
O O5 0.799177 0.250000 0.223817
O O6 0.970344 0.056526 0.227561
O O7 0.933335 0.993660 0.301967
O O8 0.587493 0.026771 0.115112
O O9 0.601584 0.250000 0.814384
O O10 0.254844 0.082233 0.692387
O O11 0.602662 0.009254 0.769722
O O12 0.595455 0.025682 0.860822
O O13 0.361898 0.250000 0.006755
O O14 0.272844 0.498304 0.933851
O O15 0.182490 0.488196 0.985392
O O16 0.934281 0.250000 0.609146
O O17 0.344274 0.750000 0.260525
O O18 0.154853 0.496449 0.216849
O O19 0.824341 0.250000 0.975920
O O20 0.000000 0.000000 0.000000
O O21 0.916477 0.250000 0.147417
#
# Coordination Sequence:
#
# PCOD9168218 Si02
#       8
#     4   4   4   4   4   4   4   4
#     4  11  22  38  63  94 126 158 196 245 300 360
#     4  10  23  42  62  88 122 158 202 255 301 350
#     4   9  18  34  55  81 116 152 188 238 293 347
#     4  11  22  38  60  86 118 159 205 249 299 358
#     4  11  21  38  63  91 120 154 198 245 298 357
#     4  10  21  40  62  87 123 160 197 244 301 360
#     4  11  21  34  53  82 120 158 197 244 297 353
#     4  11  24  41  61  88 121 157 203 255 302 352
#
# _framework density 19.753086
#
# number of rings (size 3 to 8) (size 9 to 14) (size 15 to 20)
#    0.000    1.500    2.500    3.000    0.000    3.500 
#    0.000    1.250    0.000    0.000    0.000    0.000 
#    0.000    0.000    0.000    0.000    0.000    0.000 
#
# Total GULP energy -178264.536054 kJ/mol
# GULP energy per Si atom -5570.766752 kJ/mol
# Density = 1.970813 g / cm^3
# Si number density = 19.753086 Si / 1000 Ang^3
#
#
#
# Elastic Constant Matrix: (Units=GPa)
#
#
# Indices 1 2 3 4 5 6 
#
# 1 81.6137 22.1879 63.5846 0.0000 -20.1312 0.0000
# 2 22.1879 61.3109 63.2545 0.0000 -15.5662 0.0000
# 3 63.5846 63.2545 94.6576 0.0000 -30.7929 0.0000
# 4 0.0000 0.0000 0.0000 34.5829 0.0000 -10.8655
# 5 -20.1312 -15.5662 -30.7929 0.0000 37.5710 0.0000
# 6 0.0000 0.0000 0.0000 -10.8655 0.0000 17.9538
#
#
#
# Elastic Compliance Matrix: (Units=1/GPa)
#
#
# Indices 1 2 3 4 5 6 
#
# 1 0.062773 0.070643 -0.093963 0.000000 -0.014108 0.000000
# 2 0.070643 0.134655 -0.145864 0.000000 -0.025908 0.000000
# 3 -0.093963 -0.145864 0.184240 0.000000 0.040221 0.000000
# 4 0.000000 0.000000 0.000000 0.035705 0.000000 0.021608
# 5 -0.014108 -0.025908 0.040221 0.000000 0.041288 0.000000
# 6 0.000000 0.000000 0.000000 0.021608 0.000000 0.068776
#
#
# Mechanical properties :
#
#
# Convention : Reuss Voigt Hill
#
# Bulk Modulus (GPa) = 23.09479 59.51514 41.30496
# Shear Modulus (GPa) = 5.68028 23.92522 14.80275
#
# Velocity S-wave (km/s) = 1.69761 3.48403 2.74047
# Velocity P-wave (km/s) = 3.94457 6.81025 5.56503
#
# Compressibility (1/GPa) = 0.04329982
#
# Stress axis : x y z
#
# Youngs Moduli (GPa) = 15.93029 7.42636 5.42772
#
# Poissons Ratio (x) = -0.52462 0.51001
# Poissons Ratio (y) = -1.12536 0.79171
# Poissons Ratio (z) = 1.49686 1.08324
#
# Static dielectric constant tensor:
#      x y z
#    x 1.789150 0.000000 0.051760 
#    y 0.000000 1.667500 0.000000 
#    z 0.051760 0.000000 1.769080 
# 
# From -- ./inp_files/73110.got.cif
#   From: 2010.05.17/outbox.ucp.g08.bks.cvg/sg11_37_cif.got.tgz:73110.got - 2010.06.11 11:38:39.
