data_PCOD9168808
_publ_section_title
;
Structure prediction by ZEFSAII (Michael W. Deem and Ramdas Pophale) SiO2 
 PCOD9168808
Probable space group: C 2/M
;
_chemical_formula_sum "Si O2"
_cell_formula_units_Z 42
_cell_length_a 12.496475
_cell_length_b 19.155741
_cell_length_c 11.910591
_cell_angle_alpha 90.000000
_cell_angle_beta 52.691351
_cell_angle_gamma 90.000000
_cell_volume 2267.751948
_symmetry_space_group_name_H-M "C 2/M"
_symmetry_group_IT_number 12
_symmetry_cell_setting 'monoclinic'
loop_
_space_group_symop_operation_xyz
x,y,z
-x,y,-z
-x,-y,-z
x,-y,z
1/2+x,1/2+y,z
1/2-x,1/2+y,-z
1/2-x,1/2-y,-z
1/2+x,1/2-y,z
loop_
_atom_site_type_symbol
_atom_site_label
_atom_site_fract_x
_atom_site_fract_y
_atom_site_fract_z
Si Si1 0.082740 0.599676 0.737845
Si Si2 0.814934 0.861194 0.916339
Si Si3 0.847893 0.000000 0.047222
Si Si4 0.500000 0.000000 0.000000
Si Si5 0.563101 0.000000 0.336544
Si Si6 0.364059 0.418837 0.640336
Si Si7 0.542519 0.772237 0.101989
O O1 0.031630 0.560452 0.883896
O O2 0.240650 0.583848 0.632624
O O3 0.997859 0.566272 0.691781
O O4 0.064087 0.682054 0.762407
O O5 0.821690 0.881496 0.781746
O O6 0.929921 0.805195 0.871936
O O7 0.677212 0.819476 0.026746
O O8 0.826584 0.931185 0.983222
O O9 0.725194 0.000000 0.216059
O O10 0.000000 0.000000 0.000000
O O11 0.500000 0.000000 0.500000
O O12 0.500000 0.390580 0.500000
O O13 0.386819 0.500000 0.656208
O O14 0.500000 0.768223 0.000000
#
# Coordination Sequence:
#
# PCOD9168808 Si02
#       7
#     8   8   4   2   4   8   8
#     4  11  20  37  66  93 120 163 213 263 309 374
#     4  11  23  38  63  94 124 163 210 268 319 377
#     4  12  25  41  63  91 129 172 216 267 328 381
#     4  10  16  28  66 100 102 140 214 260 300 338
#     4  11  25  40  61  94 134 176 220 250 319 396
#     4  11  22  37  64  98 127 158 207 268 321 371
#     4  11  21  37  66  95 122 155 217 272 309 366
#
# _framework density 18.520544999999998
#
# number of rings (size 3 to 8) (size 9 to 14) (size 15 to 20)
#    0.000    0.952    7.619    0.571    2.667    1.524 
#    0.000    1.905    0.000    0.000    0.000    0.000 
#    0.000    0.000    0.000    0.000    0.000    0.000 
#
# Total GULP energy -116950.518569 kJ/mol
# GULP energy per Si atom -5569.072313 kJ/mol
# Density = 1.847839 g / cm^3
# Si number density = 18.520545 Si / 1000 Ang^3
#
#
#
# Elastic Constant Matrix: (Units=GPa)
#
#
# Indices 1 2 3 4 5 6 
#
# 1 89.1618 20.5498 32.2733 0.0000 -6.8137 0.0000
# 2 20.5498 111.0884 12.6047 0.0000 1.8503 0.0000
# 3 32.2733 12.6047 89.2249 0.0000 -6.7376 0.0000
# 4 0.0000 0.0000 0.0000 5.5265 0.0000 -3.9813
# 5 -6.8137 1.8503 -6.7376 0.0000 23.3263 0.0000
# 6 0.0000 0.0000 0.0000 -3.9813 0.0000 31.8519
#
#
#
# Elastic Compliance Matrix: (Units=1/GPa)
#
#
# Indices 1 2 3 4 5 6 
#
# 1 0.013488 -0.002046 -0.004375 0.000000 0.002838 0.000000
# 2 -0.002046 0.009488 -0.000718 0.000000 -0.001558 0.000000
# 3 -0.004375 -0.000718 0.013085 0.000000 0.002558 0.000000
# 4 0.000000 0.000000 0.000000 0.198851 0.000000 0.024855
# 5 0.002838 -0.001558 0.002558 0.000000 0.044562 0.000000
# 6 0.000000 0.000000 0.000000 0.024855 0.000000 0.034502
#
#
# Mechanical properties :
#
#
# Convention : Reuss Voigt Hill
#
# Bulk Modulus (GPa) = 45.90926 46.70342 46.30634
# Shear Modulus (GPa) = 14.90250 27.07743 20.98997
#
# Velocity S-wave (km/s) = 2.83971 3.82779 3.37015
# Velocity P-wave (km/s) = 5.96607 6.69386 6.34042
#
# Compressibility (1/GPa) = 0.02178210
#
# Stress axis : x y z
#
# Youngs Moduli (GPa) = 74.14177 105.39962 76.42449
#
# Poissons Ratio (x) = 0.21563 0.33438
# Poissons Ratio (y) = 0.15168 0.05487
# Poissons Ratio (z) = 0.32439 0.07567
#
# Static dielectric constant tensor:
#      x y z
#    x 1.677760 0.000000 -0.051680 
#    y 0.000000 1.664760 0.000000 
#    z -0.051680 0.000000 1.638560 
# 
# From -- ./inp_files/132938.got.cif
#   From: 2010.05.17/outbox.cif.g08.bks.cpg/sg12_67_cif.got.tgz:132938.got - 2010.06.03 13:09:07.
