data_PCOD9168068
_publ_section_title
;
Structure prediction by ZEFSAII (Michael W. Deem and Ramdas Pophale) SiO2 
 PCOD9168068
Probable space group: P 21/M
;
_chemical_formula_sum "Si O2"
_cell_formula_units_Z 32
_cell_length_a 27.000000
_cell_length_b 9.000000
_cell_length_c 21.000000
_cell_angle_alpha 90.000000
_cell_angle_beta 160.000000
_cell_angle_gamma 90.000000
_cell_volume 1745.328791
_symmetry_space_group_name_H-M "P 21/M"
_symmetry_group_IT_number 11
_symmetry_cell_setting 'monoclinic'
loop_
_space_group_symop_operation_xyz
x,y,z
-x,1/2+y,-z
-x,-y,-z
x,1/2-y,z
loop_
_atom_site_type_symbol
_atom_site_label
_atom_site_fract_x
_atom_site_fract_y
_atom_site_fract_z
Si Si1 0.095729 0.423323 0.807013
Si Si2 0.119119 0.926037 0.267977
Si Si3 0.307453 0.426701 0.392174
Si Si4 0.639720 0.073296 0.810828
Si Si5 0.646356 0.430551 0.204968
Si Si6 0.225158 0.425783 0.147897
Si Si7 0.936422 0.421670 0.483728
Si Si8 0.189793 0.427471 0.481355
O O1 0.086038 0.250000 0.815274
O O2 0.050750 0.432242 0.679289
O O3 0.969847 0.515813 0.690092
O O4 0.252435 0.488330 0.011386
O O5 0.137394 0.750000 0.299527
O O6 0.190004 0.979268 0.288250
O O7 0.199530 0.015277 0.421136
O O8 0.946975 0.956916 0.060514
O O9 0.283487 0.250000 0.373846
O O10 0.470187 0.463831 0.611052
O O11 0.289403 0.453076 0.295258
O O12 0.655771 0.250000 0.837914
O O13 0.695420 0.023195 0.808773
O O14 0.639240 0.250000 0.199280
O O15 0.781795 0.475643 0.323381
O O16 0.694119 0.495353 0.331368
O O17 0.500000 0.500000 0.000000
O O18 0.243888 0.250000 0.155814
O O19 0.915002 0.250000 0.442346
O O20 0.000000 0.500000 0.500000
O O21 0.199945 0.250000 0.498115
#
# Coordination Sequence:
#
# PCOD9168068 Si02
#       8
#     4   4   4   4   4   4   4   4
#     4  10  20  37  59  84 115 151 194 238 282 342
#     4  11  22  37  59  86 114 152 195 238 292 348
#     4  10  23  40  55  82 119 153 192 241 294 346
#     4  11  22  36  58  86 114 150 195 239 288 345
#     4  10  21  39  61  89 121 155 194 238 284 341
#     4  10  21  38  61  83 112 151 193 242 291 348
#     4   9  20  37  59  86 116 149 188 234 282 335
#     4  11  21  36  61  88 115 152 194 241 288 339
#
# _framework density 18.334654
#
# number of rings (size 3 to 8) (size 9 to 14) (size 15 to 20)
#    0.000    1.750    1.250    4.125    0.000    5.000 
#    2.250    0.000    0.000    0.000    0.000    0.000 
#    0.000    0.000    0.000    0.000    0.000    0.000 
#
# Total GULP energy -178690.118207 kJ/mol
# GULP energy per Si atom -5584.066194 kJ/mol
# Density = 1.829292 g / cm^3
# Si number density = 18.334654 Si / 1000 Ang^3
#
#
#
# Elastic Constant Matrix: (Units=GPa)
#
#
# Indices 1 2 3 4 5 6 
#
# 1 33.9227 13.0383 -4.5177 0.0000 -0.1431 0.0000
# 2 13.0383 61.3415 23.2640 0.0000 -4.3197 0.0000
# 3 -4.5177 23.2640 80.2434 0.0000 -16.9337 0.0000
# 4 0.0000 0.0000 0.0000 31.3036 0.0000 -3.0506
# 5 -0.1431 -4.3197 -16.9337 0.0000 14.1279 0.0000
# 6 0.0000 0.0000 0.0000 -3.0506 0.0000 29.8442
#
#
#
# Elastic Compliance Matrix: (Units=1/GPa)
#
#
# Indices 1 2 3 4 5 6 
#
# 1 0.033614 -0.008877 0.005308 0.000000 0.003988 0.000000
# 2 -0.008877 0.020671 -0.006931 0.000000 -0.002077 0.000000
# 3 0.005308 -0.006931 0.019188 0.000000 0.020933 0.000000
# 4 0.000000 0.000000 0.000000 0.032267 0.000000 0.003298
# 5 0.003988 -0.002077 0.020933 0.000000 0.095278 0.000000
# 6 0.000000 0.000000 0.000000 0.003298 0.000000 0.033844
#
#
# Mechanical properties :
#
#
# Convention : Reuss Voigt Hill
#
# Bulk Modulus (GPa) = 19.05747 26.56410 22.81078
# Shear Modulus (GPa) = 18.29126 24.63667 21.46397
#
# Velocity S-wave (km/s) = 3.16196 3.66966 3.42523
# Velocity P-wave (km/s) = 4.87314 5.69869 5.30201
#
# Compressibility (1/GPa) = 0.05247286
#
# Stress axis : x y z
#
# Youngs Moduli (GPa) = 29.74924 48.37607 52.11617
#
# Poissons Ratio (x) = 0.42943 -0.27662
# Poissons Ratio (y) = 0.26408 0.36122
# Poissons Ratio (z) = -0.15790 0.33530
#
# Static dielectric constant tensor:
#      x y z
#    x 1.651110 0.000000 -0.002230 
#    y 0.000000 1.616200 0.000000 
#    z -0.002230 0.000000 1.618830 
# 
# From -- ./inp_files/66991.got.cif
#   From: 2010.05.17/outbox.ucp.g08.bks.cvg/sg11_34_cif.got.tgz:66991.got - 2010.06.11 11:38:39.
