data_PCOD9168180
_publ_section_title
;
Structure prediction by ZEFSAII (Michael W. Deem and Ramdas Pophale) SiO2 
 PCOD9168180
Probable space group: P 21/M
;
_chemical_formula_sum "Si O2"
_cell_formula_units_Z 32
_cell_length_a 15.000000
_cell_length_b 9.000000
_cell_length_c 24.000000
_cell_angle_alpha 90.000000
_cell_angle_beta 30.000000
_cell_angle_gamma 90.000000
_cell_volume 1620.000000
_symmetry_space_group_name_H-M "P 21/M"
_symmetry_group_IT_number 11
_symmetry_cell_setting 'monoclinic'
loop_
_space_group_symop_operation_xyz
x,y,z
-x,1/2+y,-z
-x,-y,-z
x,1/2-y,z
loop_
_atom_site_type_symbol
_atom_site_label
_atom_site_fract_x
_atom_site_fract_y
_atom_site_fract_z
Si Si1 0.229046 0.573292 0.540847
Si Si2 0.195302 0.927337 0.892983
Si Si3 0.493895 0.572055 0.207416
Si Si4 0.862019 0.427484 0.531677
Si Si5 0.346593 0.426726 0.700477
Si Si6 0.112476 0.426950 0.719482
Si Si7 0.769232 0.920758 0.876758
Si Si8 0.382863 0.922290 0.144471
O O1 0.195769 0.750000 0.563720
O O2 0.135184 0.520617 0.534213
O O3 0.441905 0.553853 0.419986
O O4 0.171685 0.493565 0.628271
O O5 0.183476 0.750000 0.903675
O O6 0.327485 0.990745 0.869241
O O7 0.278968 0.978564 0.788969
O O8 0.000000 0.000000 0.000000
O O9 0.528349 0.750000 0.185247
O O10 0.337790 0.547448 0.336934
O O11 0.413709 0.524650 0.190902
O O12 0.891559 0.250000 0.515905
O O13 0.000000 0.500000 0.500000
O O14 0.313835 0.250000 0.728827
O O15 0.241935 0.468838 0.700515
O O16 0.112089 0.250000 0.716500
O O17 0.912333 0.487401 0.834446
O O18 0.825918 0.750000 0.842968
O O19 0.743553 0.985939 0.828432
O O20 0.577776 0.926610 0.010278
O O21 0.323134 0.750000 0.178340
#
# Coordination Sequence:
#
# PCOD9168180 Si02
#       8
#     4   4   4   4   4   4   4   4
#     4  10  21  41  64  87 121 160 199 250 311 363
#     4  12  26  42  65  95 127 165 208 255 307 371
#     4  10  21  42  66  91 124 163 206 255 311 366
#     4  10  22  39  62  90 126 165 202 253 307 364
#     4  10  22  44  66  88 121 159 202 254 308 362
#     4  11  24  38  61  91 120 156 202 252 303 363
#     4  10  21  38  58  87 123 158 199 249 301 360
#     4   9  20  38  62  87 118 159 201 246 302 360
#
# _framework density 19.753086
#
# number of rings (size 3 to 8) (size 9 to 14) (size 15 to 20)
#    0.000    1.750    1.250    2.250    3.500    3.500 
#    0.000    0.000    0.000    0.000    0.000    0.000 
#    0.000    0.000    0.000    0.000    0.000    0.000 
#
# Total GULP energy -178828.853800 kJ/mol
# GULP energy per Si atom -5588.401681 kJ/mol
# Density = 1.970813 g / cm^3
# Si number density = 19.753086 Si / 1000 Ang^3
#
#
#
# Elastic Constant Matrix: (Units=GPa)
#
#
# Indices 1 2 3 4 5 6 
#
# 1 119.0149 23.1792 -9.0464 0.0000 -2.6714 0.0000
# 2 23.1792 48.1430 7.0791 0.0000 -3.9866 0.0000
# 3 -9.0464 7.0791 25.0564 0.0000 -4.9061 0.0000
# 4 0.0000 0.0000 0.0000 28.5375 0.0000 -0.8962
# 5 -2.6714 -3.9866 -4.9061 0.0000 35.9189 0.0000
# 6 0.0000 0.0000 0.0000 -0.8962 0.0000 37.0059
#
#
#
# Elastic Compliance Matrix: (Units=1/GPa)
#
#
# Indices 1 2 3 4 5 6 
#
# 1 0.009887 -0.005467 0.005281 0.000000 0.000850 0.000000
# 2 -0.005467 0.024785 -0.008751 0.000000 0.001149 0.000000
# 3 0.005281 -0.008751 0.045390 0.000000 0.005621 0.000000
# 4 0.000000 0.000000 0.000000 0.035068 0.000000 0.000849
# 5 0.000850 0.001149 0.005621 0.000000 0.028799 0.000000
# 6 0.000000 0.000000 0.000000 0.000849 0.000000 0.027043
#
#
# Mechanical properties :
#
#
# Convention : Reuss Voigt Hill
#
# Bulk Modulus (GPa) = 16.08023 26.07090 21.07556
# Shear Modulus (GPa) = 23.85762 31.69260 27.77511
#
# Velocity S-wave (km/s) = 3.47910 4.00989 3.75389
# Velocity P-wave (km/s) = 4.92921 5.88778 5.42969
#
# Compressibility (1/GPa) = 0.06218817
#
# Stress axis : x y z
#
# Youngs Moduli (GPa) = 101.13852 40.34642 22.03146
#
# Poissons Ratio (x) = 0.22056 -0.11634
# Poissons Ratio (y) = 0.55288 0.19280
# Poissons Ratio (z) = -0.53408 0.35308
#
# Static dielectric constant tensor:
#      x y z
#    x 1.678020 0.000000 0.005860 
#    y 0.000000 1.667330 0.000000 
#    z 0.005860 0.000000 1.716810 
# 
# From -- ./inp_files/55667.got.cif
#   From: 2010.05.17/outbox.ucp.g08.bks.cvg/sg11_28_cif.got.tgz:55667.got - 2010.06.11 11:38:39.
