data_PCOD9168587
_publ_section_title
;
Structure prediction by ZEFSAII (Michael W. Deem and Ramdas Pophale) SiO2 
 PCOD9168587
Probable space group: C 2/M
;
_chemical_formula_sum "Si O2"
_cell_formula_units_Z 56
_cell_length_a 18.972686
_cell_length_b 17.541531
_cell_length_c 10.113853
_cell_angle_alpha 90.000000
_cell_angle_beta 42.261036
_cell_angle_gamma 90.000000
_cell_volume 2263.660498
_symmetry_space_group_name_H-M "C 2/M"
_symmetry_group_IT_number 12
_symmetry_cell_setting 'monoclinic'
loop_
_space_group_symop_operation_xyz
x,y,z
-x,y,-z
-x,-y,-z
x,-y,z
1/2+x,1/2+y,z
1/2-x,1/2+y,-z
1/2-x,1/2-y,-z
1/2+x,1/2-y,z
loop_
_atom_site_type_symbol
_atom_site_label
_atom_site_fract_x
_atom_site_fract_y
_atom_site_fract_z
Si Si1 0.821087 0.801644 0.797586
Si Si2 0.480999 0.413747 0.715924
Si Si3 0.106319 0.865395 0.895595
Si Si4 0.143958 0.409247 0.044630
Si Si5 0.203835 0.088789 0.483619
Si Si6 0.086258 0.590392 0.693280
Si Si7 0.830362 0.651144 0.693009
O O1 0.905399 0.854935 0.750059
O O2 0.876190 0.735748 0.637863
O O3 0.750000 0.750000 0.000000
O O4 0.736863 0.859955 0.853174
O O5 0.473669 0.500000 0.674949
O O6 0.600737 0.384882 0.547486
O O7 0.440303 0.416851 0.923352
O O8 0.155772 0.906294 0.700047
O O9 0.209482 0.831045 0.820332
O O10 0.000000 0.820070 0.000000
O O11 0.155298 0.500000 0.011387
O O12 0.152914 0.391896 0.190610
O O13 0.033493 0.382989 0.136644
O O14 0.320280 0.123057 0.345215
O O15 0.216365 0.000000 0.430481
O O16 0.082917 0.500000 0.724271
O O17 0.120153 0.603848 0.494464
#
# Coordination Sequence:
#
# PCOD9168587 Si02
#       7
#     8   8   8   8   8   8   8
#     4  10  19  28  39  61  92 130 151 179 222 267
#     4  10  16  25  41  60  86 118 148 184 221 263
#     4   9  15  23  38  59  82 116 143 180 222 259
#     4  10  18  28  45  67  93 121 150 183 225 277
#     4   8  15  24  38  63  87 110 144 183 221 262
#     4   9  17  29  46  70  94 120 151 182 224 274
#     4  10  18  28  40  62  94 125 150 183 220 266
#
# _framework density 24.738693000000001
#
# number of rings (size 3 to 8) (size 9 to 14) (size 15 to 20)
#    0.000    2.571    2.857    1.714    0.000    4.000 
#    0.000    0.000    0.000    3.429    3.714    0.000 
#    0.000   62.857    0.000    0.000    0.000    0.000 
#
# Total GULP energy -156176.507353 kJ/mol
# GULP energy per Si atom -5577.732405 kJ/mol
# Density = 2.468239 g / cm^3
# Si number density = 24.738693 Si / 1000 Ang^3
#
#
#
# Elastic Constant Matrix: (Units=GPa)
#
#
# Indices 1 2 3 4 5 6 
#
# 1 148.3079 41.7277 65.0045 0.0000 -51.8237 0.0000
# 2 41.7277 64.7576 17.5059 0.0000 -24.1397 0.0000
# 3 65.0045 17.5059 123.6085 0.0000 -44.0065 0.0000
# 4 0.0000 0.0000 0.0000 -9.3154 0.0000 10.6648
# 5 -51.8237 -24.1397 -44.0065 0.0000 62.9646 0.0000
# 6 0.0000 0.0000 0.0000 10.6648 0.0000 1.7731
#
#
#
# Elastic Compliance Matrix: (Units=1/GPa)
#
#
# Indices 1 2 3 4 5 6 
#
# 1 0.011328 -0.004422 -0.003482 0.000000 0.005195 0.000000
# 2 -0.004422 0.019744 0.001236 0.000000 0.004794 0.000000
# 3 -0.003482 0.001236 0.011841 0.000000 0.005884 0.000000
# 4 0.000000 0.000000 0.000000 -0.013612 0.000000 0.081876
# 5 0.005195 0.004794 0.005884 0.000000 0.026108 0.000000
# 6 0.000000 0.000000 0.000000 0.081876 0.000000 0.071517
#
#
# Mechanical properties :
#
#
# Convention : Reuss Voigt Hill
#
# Bulk Modulus (GPa) = 33.80846 65.01669 49.41257
# Shear Modulus (GPa) = 33.30661 25.24683 29.27672
#
# Velocity S-wave (km/s) = 3.67323 3.19806 3.44385
# Velocity P-wave (km/s) = 5.62903 6.32259 5.98587
#
# Compressibility (1/GPa) = 0.02957840
#
# Stress axis : x y z
#
# Youngs Moduli (GPa) = 88.27505 50.64721 84.45450
#
# Poissons Ratio (x) = 0.22395 0.29403
# Poissons Ratio (y) = 0.39033 -0.10437
# Poissons Ratio (z) = 0.30734 -0.06259
#
# Static dielectric constant tensor:
#      x y z
#    x 2.055240 0.000000 0.026790 
#    y 0.000000 1.926670 0.000000 
#    z 0.026790 0.000000 2.058870 
# 
# From -- ./inp_files/233663.got.cif
#   From: 2010.05.17/outbox.cif.g08.bks.cpg/sg12_117_cif.got.tgz:233663.got - 2010.06.03 13:09:07.
