data_PCOD9168480
_publ_section_title
;
Structure prediction by ZEFSAII (Michael W. Deem and Ramdas Pophale) SiO2 
 PCOD9168480
Probable space group: C 2/M
;
_chemical_formula_sum "Si O2"
_cell_formula_units_Z 56
_cell_length_a 13.706026
_cell_length_b 7.759637
_cell_length_c 20.643312
_cell_angle_alpha 90.000000
_cell_angle_beta 70.683469
_cell_angle_gamma 90.000000
_cell_volume 2071.900252
_symmetry_space_group_name_H-M "C 2/M"
_symmetry_group_IT_number 12
_symmetry_cell_setting 'monoclinic'
loop_
_space_group_symop_operation_xyz
x,y,z
-x,y,-z
-x,-y,-z
x,-y,z
1/2+x,1/2+y,z
1/2-x,1/2+y,-z
1/2-x,1/2-y,-z
1/2+x,1/2-y,z
loop_
_atom_site_type_symbol
_atom_site_label
_atom_site_fract_x
_atom_site_fract_y
_atom_site_fract_z
Si Si1 0.337794 0.210811 0.723933
Si Si2 0.881992 0.204408 0.295349
Si Si3 0.956216 0.693676 0.578512
Si Si4 0.106524 0.206894 0.013625
Si Si5 0.764029 0.800777 0.127760
Si Si6 0.751208 0.802590 0.572967
Si Si7 0.529084 0.196248 0.848840
O O1 0.227659 0.255846 0.714417
O O2 0.431344 0.273131 0.656333
O O3 0.314534 0.275738 0.802091
O O4 0.345658 0.000000 0.724153
O O5 0.860435 0.272744 0.371555
O O6 0.966971 0.281457 0.229236
O O7 0.891423 0.000000 0.293252
O O8 0.000952 0.500000 0.573866
O O9 0.836053 0.680605 0.585183
O O10 0.000000 0.772600 0.500000
O O11 0.078648 0.259858 0.092713
O O12 0.112787 0.000000 0.010019
O O13 0.200449 0.278126 0.949167
O O14 0.000000 0.259314 0.000000
O O15 0.876318 0.804708 0.141179
O O16 0.733803 0.000000 0.124172
O O17 0.750000 0.750000 0.500000
O O18 0.782206 0.000000 0.575044
O O19 0.553762 0.000000 0.858530
#
# Coordination Sequence:
#
# PCOD9168480 Si02
#       7
#     8   8   8   8   8   8   8
#     4   7  11  21  37  54  72  99 136 175 211 251
#     4   9  16  28  42  55  75 104 138 174 213 259
#     4   9  17  30  48  69  93 122 155 189 227 271
#     4   8  13  20  28  39  59  92 131 167 204 246
#     4   8  13  21  31  42  62  96 135 170 205 249
#     4  11  21  33  49  69  92 118 151 189 230 273
#     4  10  16  20  29  47  69  94 127 167 209 252
#
# _framework density 27.02833
#
# number of rings (size 3 to 8) (size 9 to 14) (size 15 to 20)
#    0.000    3.143    0.000    5.571    0.000    2.857 
#    0.000    0.000    0.000    0.000    0.000    0.000 
#    0.000    0.000    0.000    1.286    0.000   14.286 
#
# Total GULP energy -156246.794130 kJ/mol
# GULP energy per Si atom -5580.242648 kJ/mol
# Density = 2.696681 g / cm^3
# Si number density = 27.028330 Si / 1000 Ang^3
#
#
#
# Elastic Constant Matrix: (Units=GPa)
#
#
# Indices 1 2 3 4 5 6 
#
# 1 88.3043 3.8475 26.0783 0.0000 -36.1258 0.0000
# 2 3.8475 103.8664 16.2086 0.0000 -5.2087 0.0000
# 3 26.0783 16.2086 326.6962 0.0000 -48.9304 0.0000
# 4 0.0000 0.0000 0.0000 17.1567 0.0000 -1.6368
# 5 -36.1258 -5.2087 -48.9304 0.0000 41.1347 0.0000
# 6 0.0000 0.0000 0.0000 -1.6368 0.0000 13.8476
#
#
#
# Elastic Compliance Matrix: (Units=1/GPa)
#
#
# Indices 1 2 3 4 5 6 
#
# 1 0.018013 0.000017 0.001133 0.000000 0.017169 0.000000
# 2 0.000017 0.009724 -0.000362 0.000000 0.000816 0.000000
# 3 0.001133 -0.000362 0.003809 0.000000 0.005480 0.000000
# 4 0.000000 0.000000 0.000000 0.058951 0.000000 0.006968
# 5 0.017169 0.000816 0.005480 0.000000 0.046011 0.000000
# 6 0.000000 0.000000 0.000000 0.006968 0.000000 0.073038
#
#
# Mechanical properties :
#
#
# Convention : Reuss Voigt Hill
#
# Bulk Modulus (GPa) = 30.19010 67.90396 49.04703
# Shear Modulus (GPa) = 22.82974 45.94330 34.38652
#
# Velocity S-wave (km/s) = 2.90946 4.12736 3.57072
# Velocity P-wave (km/s) = 4.74137 6.92035 5.93177
#
# Compressibility (1/GPa) = 0.03312344
#
# Stress axis : x y z
#
# Youngs Moduli (GPa) = 55.51446 102.83332 262.51833
#
# Poissons Ratio (x) = -0.00175 -0.29738
# Poissons Ratio (y) = -0.00094 0.09492
# Poissons Ratio (z) = -0.06289 0.03718
#
# Static dielectric constant tensor:
#      x y z
#    x 2.187710 0.000000 0.200440 
#    y 0.000000 1.967020 0.000000 
#    z 0.200440 0.000000 2.385260 
# 
# From -- ./inp_files/319031.got.cif
#   From: 2010.05.17/outbox.cif.g08.bks.cpg/sg12_160_cif.got.tgz:319031.got - 2010.06.03 13:09:07.
