data_PCOD9168700
_publ_section_title
;
Structure prediction by ZEFSAII (Michael W. Deem and Ramdas Pophale) SiO2 
 PCOD9168700
Probable space group: C 2/M
;
_chemical_formula_sum "Si O2"
_cell_formula_units_Z 64
_cell_length_a 20.077749
_cell_length_b 24.202519
_cell_length_c 17.664575
_cell_angle_alpha 90.000000
_cell_angle_beta 151.246629
_cell_angle_gamma 90.000000
_cell_volume 4129.146489
_symmetry_space_group_name_H-M "C 2/M"
_symmetry_group_IT_number 12
_symmetry_cell_setting 'monoclinic'
loop_
_space_group_symop_operation_xyz
x,y,z
-x,y,-z
-x,-y,-z
x,-y,z
1/2+x,1/2+y,z
1/2-x,1/2+y,-z
1/2-x,1/2-y,-z
1/2+x,1/2-y,z
loop_
_atom_site_type_symbol
_atom_site_label
_atom_site_fract_x
_atom_site_fract_y
_atom_site_fract_z
Si Si1 0.850923 0.436995 0.509154
Si Si2 0.067581 0.726619 0.883113
Si Si3 0.393608 0.719299 0.831176
Si Si4 0.827214 0.334661 0.583808
Si Si5 0.596054 0.873488 0.668806
Si Si6 0.355070 0.246171 0.213174
Si Si7 0.352075 0.264413 0.485713
Si Si8 0.845740 0.091382 0.822956
O O1 0.873882 0.500000 0.555006
O O2 0.806411 0.395224 0.530880
O O3 0.733307 0.435876 0.326412
O O4 0.992182 0.409788 0.616304
O O5 0.108845 0.745736 0.840491
O O6 0.968024 0.770656 0.824999
O O7 0.970829 0.673484 0.773240
O O8 0.207585 0.724331 0.071042
O O9 0.251758 0.752856 0.686269
O O10 0.364652 0.655601 0.818298
O O11 0.500000 0.739757 0.000000
O O12 0.707634 0.311443 0.518905
O O13 0.841556 0.292329 0.526241
O O14 0.500000 0.859055 0.500000
O O15 0.647347 0.817026 0.759422
O O16 0.731455 0.906888 0.776016
O O17 0.491768 0.273005 0.384308
O O18 0.000000 0.071350 0.000000
#
# Coordination Sequence:
#
# PCOD9168700 Si02
#       8
#     8   8   8   8   8   8   8   8
#     4  11  21  34  48  61  85 123 168 200 225 261
#     4   9  18  26  44  65  92 110 141 184 229 284
#     4  10  17  28  42  66  91 122 146 178 227 277
#     4   9  16  31  44  65  86 113 148 186 233 276
#     4  10  19  32  47  65  91 123 158 192 221 268
#     4  10  16  27  43  70  86 111 144 184 232 274
#     4   9  15  26  48  63  89 111 140 184 226 286
#     4  10  20  31  46  64  89 120 161 200 231 257
#
# _framework density 15.499571
#
# number of rings (size 3 to 8) (size 9 to 14) (size 15 to 20)
#    0.000    2.250    3.750    3.000    0.000    2.500 
#    0.000    0.000    0.000    0.000    0.000    0.000 
#    0.000    8.000    0.000    0.000    0.000   26.750 
#
# Total GULP energy -178175.780015 kJ/mol
# GULP energy per Si atom -5567.993125 kJ/mol
# Density = 1.546429 g / cm^3
# Si number density = 15.499571 Si / 1000 Ang^3
#
#
#
# Elastic Constant Matrix: (Units=GPa)
#
#
# Indices 1 2 3 4 5 6 
#
# 1 20.6044 22.6461 12.0659 0.0000 8.0079 0.0000
# 2 22.6461 74.8718 29.0091 0.0000 -2.3862 0.0000
# 3 12.0659 29.0091 116.9907 0.0000 18.4992 0.0000
# 4 0.0000 0.0000 0.0000 10.7454 0.0000 -1.9980
# 5 8.0079 -2.3862 18.4992 0.0000 23.2580 0.0000
# 6 0.0000 0.0000 0.0000 -1.9980 0.0000 7.0022
#
#
#
# Elastic Compliance Matrix: (Units=1/GPa)
#
#
# Indices 1 2 3 4 5 6 
#
# 1 0.097214 -0.032381 0.004371 0.000000 -0.040270 0.000000
# 2 -0.032381 0.026103 -0.006084 0.000000 0.018667 0.000000
# 3 0.004371 -0.006084 0.011373 0.000000 -0.011175 0.000000
# 4 0.000000 0.000000 0.000000 0.098278 0.000000 0.028043
# 5 -0.040270 0.018667 -0.011175 0.000000 0.067665 0.000000
# 6 0.000000 0.000000 0.000000 0.028043 0.000000 0.150815
#
#
# Mechanical properties :
#
#
# Convention : Reuss Voigt Hill
#
# Bulk Modulus (GPa) = 15.03750 37.76767 26.40258
# Shear Modulus (GPa) = 9.22844 18.11749 13.67297
#
# Velocity S-wave (km/s) = 2.44273 3.42263 2.97333
# Velocity P-wave (km/s) = 4.20462 6.32764 5.37205
#
# Compressibility (1/GPa) = 0.06650043
#
# Stress axis : x y z
#
# Youngs Moduli (GPa) = 10.28655 38.31039 87.93010
#
# Poissons Ratio (x) = 1.24052 -0.38432
# Poissons Ratio (y) = 0.33309 0.53501
# Poissons Ratio (z) = -0.04496 0.23310
#
# Static dielectric constant tensor:
#      x y z
#    x 1.551490 0.000000 0.020780 
#    y 0.000000 1.479540 0.000000 
#    z 0.020780 0.000000 1.618540 
# 
# From -- ./inp_files/286220.got.cif
#   From: 2010.05.17/outbox.cif.g08.bks.cpg/sg12_144_cif.got.tgz:286220.got - 2010.06.03 13:09:07.
