data_PCOD9168194
_publ_section_title
;
Structure prediction by ZEFSAII (Michael W. Deem and Ramdas Pophale) SiO2 
 PCOD9168194
Probable space group: P 21/M
;
_chemical_formula_sum "Si O2"
_cell_formula_units_Z 28
_cell_length_a 27.000000
_cell_length_b 9.000000
_cell_length_c 9.000000
_cell_angle_alpha 90.000000
_cell_angle_beta 40.000000
_cell_angle_gamma 90.000000
_cell_volume 1405.776502
_symmetry_space_group_name_H-M "P 21/M"
_symmetry_group_IT_number 11
_symmetry_cell_setting 'monoclinic'
loop_
_space_group_symop_operation_xyz
x,y,z
-x,1/2+y,-z
-x,-y,-z
x,1/2-y,z
loop_
_atom_site_type_symbol
_atom_site_label
_atom_site_fract_x
_atom_site_fract_y
_atom_site_fract_z
Si Si1 0.974790 0.073688 0.213484
Si Si2 0.189136 0.573303 0.513560
Si Si3 0.441983 0.925317 0.925270
Si Si4 0.681678 0.573333 0.970530
Si Si5 0.883540 0.427108 0.995295
Si Si6 0.262034 0.571472 0.853768
Si Si7 0.611702 0.926028 0.643880
O O1 0.985013 0.250000 0.180288
O O2 0.883424 0.046099 0.430243
O O3 0.034229 0.007610 0.195036
O O4 0.000000 0.000000 0.000000
O O5 0.207289 0.750000 0.467893
O O6 0.260443 0.478511 0.293464
O O7 0.159799 0.538102 0.747867
O O8 0.424007 0.750000 0.965597
O O9 0.534082 0.941814 0.723459
O O10 0.401042 0.005766 0.882576
O O11 0.408463 0.999679 0.152313
O O12 0.678318 0.750000 0.989260
O O13 0.713891 0.502331 0.047340
O O14 0.896506 0.250000 0.967192
O O15 0.824881 0.464306 0.998554
O O16 0.268729 0.750000 0.847153
O O17 0.318920 0.508496 0.596792
O O18 0.626949 0.750000 0.627382
#
# Coordination Sequence:
#
# PCOD9168194 Si02
#       7
#     4   4   4   4   4   4   4
#     4   9  17  30  53  82 110 140 177 225 275 324
#     4   9  18  35  57  82 111 142 180 226 279 335
#     4  10  21  39  62  86 114 147 181 223 278 332
#     4  12  25  38  55  81 112 148 191 235 275 323
#     4   9  19  35  57  83 109 141 182 226 274 330
#     4  11  23  39  58  80 113 154 187 224 279 335
#     4  10  21  38  62  90 114 140 182 231 273 323
#
# _framework density 19.917818
#
# number of rings (size 3 to 8) (size 9 to 14) (size 15 to 20)
#    0.000    2.000    0.000    4.714    0.000    7.429 
#    0.000    0.714    0.000    0.000    0.000    0.000 
#    0.000    0.000    0.000    0.000    0.000    0.000 
#
# Total GULP energy -156440.855346 kJ/mol
# GULP energy per Si atom -5587.173405 kJ/mol
# Density = 1.987248 g / cm^3
# Si number density = 19.917818 Si / 1000 Ang^3
#
#
#
# Elastic Constant Matrix: (Units=GPa)
#
#
# Indices 1 2 3 4 5 6 
#
# 1 138.4543 56.3422 1.3853 0.0000 -19.3944 0.0000
# 2 56.3422 92.8063 4.9441 0.0000 -17.9449 0.0000
# 3 1.3853 4.9441 1.1630 0.0000 -13.2632 0.0000
# 4 0.0000 0.0000 0.0000 27.1228 0.0000 -4.4012
# 5 -19.3944 -17.9449 -13.2632 0.0000 22.3808 0.0000
# 6 0.0000 0.0000 0.0000 -4.4012 0.0000 34.2571
#
#
#
# Elastic Compliance Matrix: (Units=1/GPa)
#
#
# Indices 1 2 3 4 5 6 
#
# 1 0.009292 -0.005512 -0.009342 0.000000 -0.001903 0.000000
# 2 -0.005512 0.015281 -0.004665 0.000000 0.004711 0.000000
# 3 -0.009342 -0.004665 -0.131255 0.000000 -0.089620 0.000000
# 4 0.000000 0.000000 0.000000 0.037654 0.000000 0.004838
# 5 -0.001903 0.004711 -0.089620 0.000000 -0.006301 0.000000
# 6 0.000000 0.000000 0.000000 0.004838 0.000000 0.029813
#
#
# Mechanical properties :
#
#
# Convention : Reuss Voigt Hill
#
# Bulk Modulus (GPa) = -6.86251 39.75188 16.44468
# Shear Modulus (GPa) = -90.82376 28.06892 -31.37742
#
# Velocity S-wave (km/s) = -6.76005 3.75805 -3.97337
# Velocity P-wave (km/s) = 8.02396 6.23152 3.57435
#
# Compressibility (1/GPa) = -0.14571925
#
# Stress axis : x y z
#
# Youngs Moduli (GPa) = 107.61491 65.44189 -7.61875
#
# Poissons Ratio (x) = 0.36069 -0.07118
# Poissons Ratio (y) = 0.59314 -0.03554
# Poissons Ratio (z) = 1.00536 0.30527
#
# Static dielectric constant tensor:
#      x y z
#    x 1.760150 0.000000 -0.019720 
#    y 0.000000 1.656140 0.000000 
#    z -0.019720 0.000000 1.689400 
# 
# From -- ./inp_files/28329.got.cif
#   From: 2010.05.17/outbox.ucp.g08.bks.cvg/sg11_15_cif.got.tgz:28329.got - 2010.06.11 11:38:39.
