data_PCOD9168557
_publ_section_title
;
Structure prediction by ZEFSAII (Michael W. Deem and Ramdas Pophale) SiO2 
 PCOD9168557
Probable space group: C 2/M
;
_chemical_formula_sum "Si O2"
_cell_formula_units_Z 52
_cell_length_a 19.200950
_cell_length_b 18.521131
_cell_length_c 13.925183
_cell_angle_alpha 90.000000
_cell_angle_beta 29.581823
_cell_angle_gamma 90.000000
_cell_volume 2444.693090
_symmetry_space_group_name_H-M "C 2/M"
_symmetry_group_IT_number 12
_symmetry_cell_setting 'monoclinic'
loop_
_space_group_symop_operation_xyz
x,y,z
-x,y,-z
-x,-y,-z
x,-y,z
1/2+x,1/2+y,z
1/2-x,1/2+y,-z
1/2-x,1/2-y,-z
1/2+x,1/2-y,z
loop_
_atom_site_type_symbol
_atom_site_label
_atom_site_fract_x
_atom_site_fract_y
_atom_site_fract_z
Si Si1 0.421362 0.657833 0.197066
Si Si2 0.202360 0.353665 0.908558
Si Si3 0.544927 0.338690 0.253053
Si Si4 0.565325 0.500000 0.817836
Si Si5 0.435031 0.500000 0.785506
Si Si6 0.240534 0.212484 0.352176
Si Si7 0.576073 0.083687 0.803224
Si Si8 0.665160 0.500000 0.278009
O O1 0.525535 0.673483 0.162314
O O2 0.360513 0.576705 0.285223
O O3 0.303869 0.718533 0.328710
O O4 0.500000 0.657600 0.000000
O O5 0.303704 0.333235 0.876058
O O6 0.203606 0.293350 0.824189
O O7 0.272353 0.423435 0.769790
O O8 0.044999 0.380959 0.119046
O O9 0.499978 0.423196 0.320403
O O10 0.427861 0.290605 0.444753
O O11 0.434616 0.500000 0.899372
O O12 0.500000 0.500000 0.000000
O O13 0.300224 0.500000 0.878952
O O14 0.299945 0.141715 0.336073
O O15 0.611574 0.000000 0.738495
O O16 0.500000 0.082646 0.000000
O O17 0.500000 0.500000 0.500000
#
# Coordination Sequence:
#
# PCOD9168557 Si02
#       8
#     8   8   8   4   4   8   8   4
#     4  10  20  38  56  80 106 140 185 241 282 319
#     4  10  18  32  50  78 110 151 185 213 256 327
#     4  10  20  33  56  83 110 140 187 231 268 314
#     4   8  16  32  56  71  92 127 184 237 278 297
#     4   8  16  28  45  78 105 127 169 219 259 303
#     4  11  21  32  52  81 121 144 174 218 279 336
#     4   9  18  31  46  73 116 161 179 197 251 333
#     4  10  16  24  42  71 109 138 172 212 247 298
#
# _framework density 21.270562999999999
#
# number of rings (size 3 to 8) (size 9 to 14) (size 15 to 20)
#    0.000    2.308    0.769    4.154    2.154    0.000 
#    0.000    3.077    0.000    0.000    0.000    2.154 
#    0.000    0.154    0.000    0.000    0.000    0.000 
#
# Total GULP energy -144805.247449 kJ/mol
# GULP energy per Si atom -5569.432594 kJ/mol
# Density = 2.122215 g / cm^3
# Si number density = 21.270563 Si / 1000 Ang^3
#
#
#
# Elastic Constant Matrix: (Units=GPa)
#
#
# Indices 1 2 3 4 5 6 
#
# 1 141.1998 54.5966 16.3612 0.0003 -15.8423 -0.0001
# 2 54.5966 102.5492 13.4330 0.0003 -9.5910 0.0000
# 3 16.3612 13.4330 20.7985 0.0008 -14.1251 -0.0002
# 4 0.0003 0.0003 0.0008 19.2319 -0.0002 -6.6876
# 5 -15.8423 -9.5910 -14.1251 -0.0002 39.3108 0.0001
# 6 -0.0001 0.0000 -0.0002 -6.6876 0.0001 30.7218
#
#
#
# Elastic Compliance Matrix: (Units=1/GPa)
#
#
# Indices 1 2 3 4 5 6 
#
# 1 0.009346 -0.004377 -0.003562 0.000000 0.001419 0.000000
# 2 -0.004377 0.012703 -0.005099 0.000000 -0.000497 0.000000
# 3 -0.003562 -0.005099 0.069256 -0.000003 0.022206 0.000000
# 4 0.000000 0.000000 -0.000003 0.056255 -0.000001 0.012246
# 5 0.001419 -0.000497 0.022206 -0.000001 0.033868 0.000000
# 6 0.000000 0.000000 0.000000 0.012246 0.000000 0.035216
#
#
# Mechanical properties :
#
#
# Convention : Reuss Voigt Hill
#
# Bulk Modulus (GPa) = 15.33018 48.14768 31.73893
# Shear Modulus (GPa) = 18.90625 29.86336 24.38480
#
# Velocity S-wave (km/s) = 2.98459 3.75103 3.38954
# Velocity P-wave (km/s) = 4.37034 6.43780 5.50205
#
# Compressibility (1/GPa) = 0.06523082
#
# Stress axis : x y z
#
# Youngs Moduli (GPa) = 106.99324 78.72177 14.43911
#
# Poissons Ratio (x) = 0.34454 0.05143
# Poissons Ratio (y) = 0.46827 0.07362
# Poissons Ratio (z) = 0.38111 0.40138
#
# Static dielectric constant tensor:
#      x y z
#    x 1.836460 0.000000 0.004530 
#    y 0.000000 1.840180 0.000000 
#    z 0.004530 0.000000 1.765000 
# 
# From -- ./inp_files/227401.got.cif
#   From: 2010.05.17/outbox.cif.g08.bks.cpg/sg12_114_cif.got.tgz:227401.got - 2010.06.03 13:09:07.
