data_PCOD9168363
_publ_section_title
;
Structure prediction by ZEFSAII (Michael W. Deem and Ramdas Pophale) SiO2 
 PCOD9168363
Probable space group: C 2/M
;
_chemical_formula_sum "Si O2"
_cell_formula_units_Z 60
_cell_length_a 7.018195
_cell_length_b 21.222486
_cell_length_c 21.500613
_cell_angle_alpha 90.000000
_cell_angle_beta 57.320081
_cell_angle_gamma 90.000000
_cell_volume 2695.441396
_symmetry_space_group_name_H-M "C 2/M"
_symmetry_group_IT_number 12
_symmetry_cell_setting 'monoclinic'
loop_
_space_group_symop_operation_xyz
x,y,z
-x,y,-z
-x,-y,-z
x,-y,z
1/2+x,1/2+y,z
1/2-x,1/2+y,-z
1/2-x,1/2-y,-z
1/2+x,1/2-y,z
loop_
_atom_site_type_symbol
_atom_site_label
_atom_site_fract_x
_atom_site_fract_y
_atom_site_fract_z
Si Si1 0.547296 0.500000 0.875642
Si Si2 0.286383 0.574997 0.720892
Si Si3 0.463354 0.845469 0.857474
Si Si4 0.122964 0.797290 0.131946
Si Si5 0.369764 0.574565 0.439747
Si Si6 0.176465 0.893953 0.754799
Si Si7 0.978066 0.425222 0.403341
Si Si8 0.255431 0.890308 0.011239
O O1 0.661773 0.445370 0.811020
O O2 0.404247 0.445372 0.938134
O O3 0.235542 0.500000 0.727386
O O4 0.075697 0.615826 0.781899
O O5 0.404076 0.596339 0.635520
O O6 0.482059 0.584397 0.739142
O O7 0.672633 0.828232 0.865788
O O8 0.364345 0.776928 0.861709
O O9 0.297839 0.885833 0.930272
O O10 0.162168 0.824138 0.055657
O O11 0.900686 0.827826 0.202152
O O12 0.403736 0.500000 0.443886
O O13 0.171365 0.579995 0.422774
O O14 0.253386 0.598760 0.523711
O O15 0.410108 0.893416 0.676005
O O16 0.953743 0.500000 0.394221
O O17 0.500000 0.902470 0.000000
#
# Coordination Sequence:
#
# PCOD9168363 Si02
#       8
#     4   8   8   8   8   8   8   8
#     4  10  15  22  36  63  91 106 129 186 233 250
#     4   9  15  23  39  64  87 107 139 186 223 247
#     4  10  19  31  46  63  87 116 149 181 210 262
#     4   9  19  31  43  64  85 117 149 177 215 250
#     4   7  11  17  28  52  84 111 133 163 213 265
#     4   9  14  22  38  61  90 108 135 177 221 257
#     4   8  10  16  31  52  82 114 134 161 214 264
#     4   9  18  26  41  62  87 109 142 180 221 258
#
# _framework density 22.259806999999999
#
# number of rings (size 3 to 8) (size 9 to 14) (size 15 to 20)
#    0.000    3.200    1.333    3.000    0.933    0.000 
#    0.000    0.000    0.000    0.800    6.933    3.733 
#    0.000    0.000    0.000    4.800    0.000    2.800 
#
# Total GULP energy -167068.896827 kJ/mol
# GULP energy per Si atom -5568.963228 kJ/mol
# Density = 2.220914 g / cm^3
# Si number density = 22.259807 Si / 1000 Ang^3
#
#
#
# Elastic Constant Matrix: (Units=GPa)
#
#
# Indices 1 2 3 4 5 6 
#
# 1 71.8744 29.5207 51.7963 0.0000 -6.0580 0.0000
# 2 29.5207 58.7547 54.3055 0.0000 -3.4394 0.0000
# 3 51.7963 54.3055 243.2845 0.0000 1.2149 0.0000
# 4 0.0000 0.0000 0.0000 15.1620 0.0000 2.1622
# 5 -6.0580 -3.4394 1.2149 0.0000 22.4067 0.0000
# 6 0.0000 0.0000 0.0000 2.1622 0.0000 -7.5704
#
#
#
# Elastic Compliance Matrix: (Units=1/GPa)
#
#
# Indices 1 2 3 4 5 6 
#
# 1 0.018922 -0.006954 -0.002497 0.000000 0.004184 0.000000
# 2 -0.006954 0.024286 -0.003951 0.000000 0.002062 0.000000
# 3 -0.002497 -0.003951 0.005532 0.000000 -0.001582 0.000000
# 4 0.000000 0.000000 0.000000 0.063373 0.000000 0.018100
# 5 0.004184 0.002062 -0.001582 0.000000 0.046163 0.000000
# 6 0.000000 0.000000 0.000000 0.018100 0.000000 -0.126923
#
#
# Mechanical properties :
#
#
# Convention : Reuss Voigt Hill
#
# Bulk Modulus (GPa) = 45.58781 71.68427 58.63604
# Shear Modulus (GPa) = 76.37241 21.88572 49.12906
#
# Velocity S-wave (km/s) = 5.86379 3.13899 4.70305
# Velocity P-wave (km/s) = 8.14676 6.73877 7.47599
#
# Compressibility (1/GPa) = 0.02193569
#
# Stress axis : x y z
#
# Youngs Moduli (GPa) = 52.84987 41.17546 180.77064
#
# Poissons Ratio (x) = 0.28633 0.45140
# Poissons Ratio (y) = 0.36752 0.71421
# Poissons Ratio (z) = 0.13197 0.16268
#
# Static dielectric constant tensor:
#      x y z
#    x 1.964410 0.000000 -0.006950 
#    y 0.000000 1.743520 0.000000 
#    z -0.006950 0.000000 1.836800 
# 
# From -- ./inp_files/357018.got.cif
#   From: 2010.05.17/outbox.cif.g08.bks.cpg/sg12_179_cif.got.tgz:357018.got - 2010.06.03 13:09:07.
