data_PCOD9168395
_publ_section_title
;
Structure prediction by ZEFSAII (Michael W. Deem and Ramdas Pophale) SiO2 
 PCOD9168395
Probable space group: C 2/M
;
_chemical_formula_sum "Si O2"
_cell_formula_units_Z 40
_cell_length_a 8.888820
_cell_length_b 27.606949
_cell_length_c 7.866489
_cell_angle_alpha 90.000000
_cell_angle_beta 118.134352
_cell_angle_gamma 90.000000
_cell_volume 1702.297186
_symmetry_space_group_name_H-M "C 2/M"
_symmetry_group_IT_number 12
_symmetry_cell_setting 'monoclinic'
loop_
_space_group_symop_operation_xyz
x,y,z
-x,y,-z
-x,-y,-z
x,-y,z
1/2+x,1/2+y,z
1/2-x,1/2+y,-z
1/2-x,1/2-y,-z
1/2+x,1/2-y,z
loop_
_atom_site_type_symbol
_atom_site_label
_atom_site_fract_x
_atom_site_fract_y
_atom_site_fract_z
Si Si1 0.338176 0.234556 0.730105
Si Si2 0.542032 0.553265 0.824452
Si Si3 0.317001 0.363522 0.312699
Si Si4 0.637412 0.183860 0.728965
Si Si5 0.681262 0.088918 0.562878
O O1 0.250000 0.250000 0.500000
O O2 0.226900 0.191406 0.753102
O O3 0.522547 0.209908 0.810588
O O4 0.308285 0.284582 0.809138
O O5 0.614007 0.500000 0.823525
O O6 0.660095 0.596555 0.820209
O O7 0.352699 0.558179 0.643229
O O8 0.500000 0.556362 0.000000
O O9 0.500000 0.361543 0.500000
O O10 0.183930 0.381794 0.385346
O O11 0.500000 0.190132 0.500000
O O12 0.692767 0.128620 0.721643
O O13 0.500000 0.063852 0.500000
#
# Coordination Sequence:
#
# PCOD9168395 Si02
#       5
#     8   8   8   8   8
#     4  10  15  25  46  85 122 146 177 229 276 339
#     4  10  24  43  59  77 111 158 200 240 297 355
#     4  10  18  30  57  85 112 147 192 239 282 338
#     4   9  16  24  44  81 122 142 174 221 279 330
#     4  10  18  34  58  91 116 139 187 248 290 333
#
# _framework density 23.497661000000001
#
# number of rings (size 3 to 8) (size 9 to 14) (size 15 to 20)
#    0.000    2.200    6.000    1.800    2.800    4.000 
#    0.000    1.000    0.000    3.600    0.000    0.000 
#    0.000    0.000    0.000    0.000    0.000    0.000 
#
# Total GULP energy -111401.278042 kJ/mol
# GULP energy per Si atom -5570.063902 kJ/mol
# Density = 2.344418 g / cm^3
# Si number density = 23.497661 Si / 1000 Ang^3
#
#
#
# Elastic Constant Matrix: (Units=GPa)
#
#
# Indices 1 2 3 4 5 6 
#
# 1 70.3866 14.6536 10.6862 0.0000 -23.0097 0.0000
# 2 14.6536 124.8808 26.8934 0.0000 -12.5644 0.0000
# 3 10.6862 26.8934 50.3061 0.0000 0.1358 0.0000
# 4 0.0000 0.0000 0.0000 4.6917 0.0000 -67.1892
# 5 -23.0097 -12.5644 0.1358 0.0000 19.9435 0.0000
# 6 0.0000 0.0000 0.0000 -67.1892 0.0000 -244.9745
#
#
#
# Elastic Compliance Matrix: (Units=1/GPa)
#
#
# Indices 1 2 3 4 5 6 
#
# 1 0.024278 0.001340 -0.005952 0.000000 0.028895 0.000000
# 2 0.001340 0.009830 -0.005561 0.000000 0.007777 0.000000
# 3 -0.005952 -0.005561 0.024144 0.000000 -0.010534 0.000000
# 4 0.000000 0.000000 0.000000 0.043253 0.000000 -0.011863
# 5 0.028895 0.007777 -0.010534 0.000000 0.088451 0.000000
# 6 0.000000 0.000000 0.000000 -0.011863 0.000000 -0.000828
#
#
# Mechanical properties :
#
#
# Convention : Reuss Voigt Hill
#
# Bulk Modulus (GPa) = 26.38024 38.89332 32.63678
# Shear Modulus (GPa) = 22.51155 -31.17851 -4.33348
#
# Velocity S-wave (km/s) = 3.09857 -3.64658 -1.35949
# Velocity P-wave (km/s) = 4.90435 1.06873 3.38456
#
# Compressibility (1/GPa) = 0.03790716
#
# Stress axis : x y z
#
# Youngs Moduli (GPa) = 41.18997 101.72493 41.41834
#
# Poissons Ratio (x) = -0.13632 0.24650
# Poissons Ratio (y) = -0.05520 0.23033
# Poissons Ratio (z) = 0.24515 0.56569
#
# Static dielectric constant tensor:
#      x y z
#    x 1.925710 0.000000 -0.035420 
#    y 0.000000 1.921470 0.000000 
#    z -0.035420 0.000000 2.039060 
# 
# From -- ./inp_files/40425.got.cif
#   From: 2010.05.17/outbox.cif.g08.bks.cpg/sg12_21_cif.got.tgz:40425.got - 2010.06.03 13:09:07.
