data_PCOD9168987
_publ_section_title
;
Structure prediction by ZEFSAII (Michael W. Deem and Ramdas Pophale) SiO2 
 PCOD9168987
Probable space group: C 2/M
;
_chemical_formula_sum "Si O2"
_cell_formula_units_Z 48
_cell_length_a 14.449331
_cell_length_b 19.016780
_cell_length_c 13.463081
_cell_angle_alpha 90.000000
_cell_angle_beta 145.001426
_cell_angle_gamma 90.000000
_cell_volume 2121.802931
_symmetry_space_group_name_H-M "C 2/M"
_symmetry_group_IT_number 12
_symmetry_cell_setting 'monoclinic'
loop_
_space_group_symop_operation_xyz
x,y,z
-x,y,-z
-x,-y,-z
x,-y,z
1/2+x,1/2+y,z
1/2-x,1/2+y,-z
1/2-x,1/2-y,-z
1/2+x,1/2-y,z
loop_
_atom_site_type_symbol
_atom_site_label
_atom_site_fract_x
_atom_site_fract_y
_atom_site_fract_z
Si Si1 0.868025 0.142995 0.314141
Si Si2 0.892032 0.302255 0.280625
Si Si3 0.293477 0.128775 0.023654
Si Si4 0.423788 0.213699 0.831741
Si Si5 0.240587 0.500000 0.640783
Si Si6 0.627779 0.000000 0.763721
Si Si7 0.738724 0.845322 0.619881
O O1 0.925648 0.220947 0.331577
O O2 0.718308 0.162786 0.253566
O O3 0.000000 0.107613 0.500000
O O4 0.822108 0.108774 0.168807
O O5 0.759933 0.312108 0.078252
O O6 0.821009 0.336865 0.317932
O O7 0.068385 0.335172 0.413693
O O8 0.445188 0.163966 0.102180
O O9 0.334342 0.065056 0.131904
O O10 0.354815 0.278578 0.707104
O O11 0.500000 0.244777 0.000000
O O12 0.230427 0.500000 0.752052
O O13 0.308773 0.423711 0.667982
O O14 0.056951 0.500000 0.436936
#
# Coordination Sequence:
#
# PCOD9168987 Si02
#       7
#     8   8   8   8   4   4   8
#     4  10  19  37  55  79 115 152 190 242 299 334
#     4  10  16  31  56  84 111 141 189 240 280 338
#     4  11  21  33  58  89 114 146 200 248 283 340
#     4   9  20  36  54  83 119 152 189 242 293 335
#     4  11  18  34  59  80 126 155 179 232 294 345
#     4  11  20  36  56  90 117 150 197 234 286 351
#     4  10  17  32  57  85 116 152 186 229 295 346
#
# _framework density 22.622271000000001
#
# number of rings (size 3 to 8) (size 9 to 14) (size 15 to 20)
#    0.000    1.833    6.667    1.500    0.000    0.667 
#    0.000    4.583    0.000    0.000    4.333    0.000 
#    0.000    0.000    0.000    0.000    0.000    0.000 
#
# Total GULP energy -133850.571631 kJ/mol
# GULP energy per Si atom -5577.107151 kJ/mol
# Density = 2.257078 g / cm^3
# Si number density = 22.622271 Si / 1000 Ang^3
#
#
#
# Elastic Constant Matrix: (Units=GPa)
#
#
# Indices 1 2 3 4 5 6 
#
# 1 42.2711 8.3426 29.5483 0.0000 -13.9339 0.0000
# 2 8.3426 73.4325 13.0123 0.0000 -10.3081 0.0000
# 3 29.5483 13.0123 126.1005 0.0000 -36.3586 0.0000
# 4 0.0000 0.0000 0.0000 31.3321 0.0000 -11.9456
# 5 -13.9339 -10.3081 -36.3586 0.0000 34.5497 0.0000
# 6 0.0000 0.0000 0.0000 -11.9456 0.0000 16.6170
#
#
#
# Elastic Compliance Matrix: (Units=1/GPa)
#
#
# Indices 1 2 3 4 5 6 
#
# 1 0.029480 -0.001601 -0.004956 0.000000 0.006196 0.000000
# 2 -0.001601 0.014311 -0.000081 0.000000 0.003538 0.000000
# 3 -0.004956 -0.000081 0.012226 0.000000 0.010843 0.000000
# 4 0.000000 0.000000 0.000000 0.043966 0.000000 0.031606
# 5 0.006196 0.003538 0.010843 0.000000 0.043909 0.000000
# 6 0.000000 0.000000 0.000000 0.031606 0.000000 0.082901
#
#
# Mechanical properties :
#
#
# Convention : Reuss Voigt Hill
#
# Bulk Modulus (GPa) = 23.39739 38.17896 30.78818
# Shear Modulus (GPa) = 19.66050 29.22650 24.44350
#
# Velocity S-wave (km/s) = 2.95121 3.59825 3.29067
# Velocity P-wave (km/s) = 4.68806 5.84607 5.29880
#
# Compressibility (1/GPa) = 0.04273981
#
# Stress axis : x y z
#
# Youngs Moduli (GPa) = 33.92181 69.87648 81.79032
#
# Poissons Ratio (x) = 0.11188 0.40536
# Poissons Ratio (y) = 0.05431 0.00665
# Poissons Ratio (z) = 0.16812 0.00568
#
# Static dielectric constant tensor:
#      x y z
#    x 1.855950 0.000000 0.005920 
#    y 0.000000 1.930780 0.000000 
#    z 0.005920 0.000000 1.930050 
# 
# From -- ./inp_files/226952.got.cif
#   From: 2010.05.17/outbox.cif.g08.bks.cpg/sg12_114_cif.got.tgz:226952.got - 2010.06.03 13:09:07.
