data_PCOD9168485
_publ_section_title
;
Structure prediction by ZEFSAII (Michael W. Deem and Ramdas Pophale) SiO2 
 PCOD9168485
Probable space group: C 2/M
;
_chemical_formula_sum "Si O2"
_cell_formula_units_Z 48
_cell_length_a 13.686202
_cell_length_b 8.489587
_cell_length_c 16.498029
_cell_angle_alpha 90.000000
_cell_angle_beta 89.029419
_cell_angle_gamma 90.000000
_cell_volume 1916.634302
_symmetry_space_group_name_H-M "C 2/M"
_symmetry_group_IT_number 12
_symmetry_cell_setting 'monoclinic'
loop_
_space_group_symop_operation_xyz
x,y,z
-x,y,-z
-x,-y,-z
x,-y,z
1/2+x,1/2+y,z
1/2-x,1/2+y,-z
1/2-x,1/2-y,-z
1/2+x,1/2-y,z
loop_
_atom_site_type_symbol
_atom_site_label
_atom_site_fract_x
_atom_site_fract_y
_atom_site_fract_z
Si Si1 0.816626 0.814303 0.234845
Si Si2 0.078728 0.188529 0.097203
Si Si3 0.532242 0.170977 0.590497
Si Si4 0.551346 0.317568 0.270727
Si Si5 0.637770 0.184363 0.936027
Si Si6 0.727004 0.678524 0.589522
O O1 0.807571 0.735372 0.146835
O O2 0.762205 0.752354 0.317726
O O3 0.934724 0.803454 0.250099
O O4 0.794400 0.000000 0.228480
O O5 0.105651 0.234803 0.188542
O O6 0.976549 0.276521 0.081664
O O7 0.060456 0.000000 0.098561
O O8 0.149855 0.226287 0.021738
O O9 0.500000 0.157133 0.500000
O O10 0.442726 0.212796 0.649676
O O11 0.609163 0.311299 0.589555
O O12 0.574826 0.000000 0.615049
O O13 0.572778 0.500000 0.287050
O O14 0.651328 0.000000 0.949042
O O15 0.762892 0.500000 0.588622
O O16 0.750000 0.750000 0.500000
#
# Coordination Sequence:
#
# PCOD9168485 Si02
#       6
#     8   8   8   8   8   8
#     4   8  15  27  39  54  79 111 142 173 217 266
#     4   9  15  23  33  47  73 107 139 172 213 261
#     4  10  20  32  47  68  94 123 154 190 231 273
#     4   8  15  26  40  57  78 110 148 182 220 265
#     4  10  16  20  31  52  75 103 139 175 211 254
#     4  10  20  33  50  69  91 121 155 192 232 274
#
# _framework density 25.043901000000002
#
# number of rings (size 3 to 8) (size 9 to 14) (size 15 to 20)
#    0.000    2.833    0.000    6.000    0.000    8.667 
#    0.000    0.000    0.000    0.000    0.000    0.000 
#    0.000    1.333    0.000    4.333    0.000   14.000 
#
# Total GULP energy -133861.246496 kJ/mol
# GULP energy per Si atom -5577.551937 kJ/mol
# Density = 2.498690 g / cm^3
# Si number density = 25.043901 Si / 1000 Ang^3
#
#
#
# Elastic Constant Matrix: (Units=GPa)
#
#
# Indices 1 2 3 4 5 6 
#
# 1 66.7167 -1.1108 24.8879 0.0000 -31.8717 0.0000
# 2 -1.1108 81.6165 68.1327 0.0000 -6.8594 0.0000
# 3 24.8879 68.1327 291.4220 0.0000 -28.6059 0.0000
# 4 0.0000 0.0000 0.0000 157.5138 0.0000 -29.5083
# 5 -31.8717 -6.8594 -28.6059 0.0000 38.7646 0.0000
# 6 0.0000 0.0000 0.0000 -29.5083 0.0000 18.7185
#
#
#
# Elastic Compliance Matrix: (Units=1/GPa)
#
#
# Indices 1 2 3 4 5 6 
#
# 1 0.025161 0.002708 -0.000759 0.000000 0.020606 0.000000
# 2 0.002708 0.015515 -0.003634 0.000000 0.002290 0.000000
# 3 -0.000759 -0.003634 0.004551 0.000000 0.002091 0.000000
# 4 0.000000 0.000000 0.000000 0.009009 0.000000 0.014203
# 5 0.020606 0.002290 0.002091 0.000000 0.044687 0.000000
# 6 0.000000 0.000000 0.000000 0.014203 0.000000 0.075812
#
#
# Mechanical properties :
#
#
# Convention : Reuss Voigt Hill
#
# Bulk Modulus (GPa) = 23.89075 69.28611 46.58843
# Shear Modulus (GPa) = 26.03374 66.18906 46.11140
#
# Velocity S-wave (km/s) = 3.22766 5.14651 4.29560
# Velocity P-wave (km/s) = 4.84259 7.93986 6.57617
#
# Compressibility (1/GPa) = 0.04185721
#
# Stress axis : x y z
#
# Youngs Moduli (GPa) = 39.74427 64.45271 219.72577
#
# Poissons Ratio (x) = -0.17454 0.16683
# Poissons Ratio (y) = -0.10763 0.79844
# Poissons Ratio (z) = 0.03018 0.23421
#
# Static dielectric constant tensor:
#      x y z
#    x 2.129860 0.000000 0.003180 
#    y 0.000000 1.868080 0.000000 
#    z 0.003180 0.000000 2.102320 
# 
# From -- ./inp_files/273586.got.cif
#   From: 2010.05.17/outbox.cif.g08.bks.cpg/sg12_137_cif.got.tgz:273586.got - 2010.06.03 13:09:07.
