data_PCOD9168749
_publ_section_title
;
Structure prediction by ZEFSAII (Michael W. Deem and Ramdas Pophale) SiO2 
 PCOD9168749
Probable space group: C 2/M
;
_chemical_formula_sum "Si O2"
_cell_formula_units_Z 60
_cell_length_a 30.252034
_cell_length_b 20.559536
_cell_length_c 15.560831
_cell_angle_alpha 90.000000
_cell_angle_beta 18.501401
_cell_angle_gamma 90.000000
_cell_volume 3071.205359
_symmetry_space_group_name_H-M "C 2/M"
_symmetry_group_IT_number 12
_symmetry_cell_setting 'monoclinic'
loop_
_space_group_symop_operation_xyz
x,y,z
-x,y,-z
-x,-y,-z
x,-y,z
1/2+x,1/2+y,z
1/2-x,1/2+y,-z
1/2-x,1/2-y,-z
1/2+x,1/2-y,z
loop_
_atom_site_type_symbol
_atom_site_label
_atom_site_fract_x
_atom_site_fract_y
_atom_site_fract_z
Si Si1 0.500000 0.674628 0.000000
Si Si2 0.871360 0.625986 0.395829
Si Si3 0.800353 0.075529 0.136968
Si Si4 0.481819 0.077799 0.431739
Si Si5 0.613334 0.573688 0.534531
Si Si6 0.756417 0.380723 0.434264
Si Si7 0.188456 0.250058 0.774331
Si Si8 0.147263 0.650452 0.986294
O O1 0.375018 0.631429 0.262223
O O2 0.447013 0.717431 0.018040
O O3 0.764551 0.583354 0.648743
O O4 0.870766 0.607882 0.296816
O O5 0.812115 0.698485 0.528207
O O6 0.026404 0.621117 0.146843
O O7 0.674816 0.099086 0.307343
O O8 0.815198 0.000000 0.090515
O O9 0.957651 0.101761 0.838286
O O10 0.500000 0.080884 0.500000
O O11 0.586847 0.126933 0.189072
O O12 0.500397 0.000000 0.372147
O O13 0.604491 0.500000 0.518686
O O14 0.701703 0.573204 0.460324
O O15 0.704452 0.617031 0.302944
O O16 0.785413 0.313207 0.332061
O O17 0.166766 0.276347 0.911420
#
# Coordination Sequence:
#
# PCOD9168749 Si02
#       8
#     4   8   8   8   8   8   8   8
#     4  10  16  28  45  66  95 130 178 218 244 282
#     4  10  19  32  49  71 100 138 180 213 242 287
#     4   9  19  34  52  74 101 131 164 205 252 302
#     4   9  18  36  61  83 101 125 160 203 253 312
#     4  10  20  33  47  70 105 138 168 208 255 296
#     4  10  19  28  43  67  98 136 177 212 243 282
#     4  10  18  28  45  70 100 132 169 213 254 287
#     4  10  20  33  52  75 101 132 169 211 258 304
#
# _framework density 19.536303
#
# number of rings (size 3 to 8) (size 9 to 14) (size 15 to 20)
#    0.000    2.267    0.000    5.200    0.000    3.733 
#    0.000    3.000    0.000    6.400    0.000    0.000 
#    0.000    0.000    0.000    0.000    0.000    0.000 
#
# Total GULP energy -167020.992446 kJ/mol
# GULP energy per Si atom -5567.366415 kJ/mol
# Density = 1.949184 g / cm^3
# Si number density = 19.536303 Si / 1000 Ang^3
#
#
#
# Elastic Constant Matrix: (Units=GPa)
#
#
# Indices 1 2 3 4 5 6 
#
# 1 78.6688 12.8095 25.2017 -0.0092 11.4751 -0.0071
# 2 12.8095 23.1013 8.1360 0.0063 0.7173 0.0018
# 3 25.2017 8.1360 110.0590 0.0046 0.2591 0.0015
# 4 -0.0092 0.0063 0.0046 228.3606 -0.0047 107.4636
# 5 11.4751 0.7173 0.2591 -0.0047 18.5996 -0.0009
# 6 -0.0071 0.0018 0.0015 107.4636 -0.0009 70.9386
#
#
#
# Elastic Compliance Matrix: (Units=1/GPa)
#
#
# Indices 1 2 3 4 5 6 
#
# 1 0.016402 -0.007676 -0.003165 0.000000 -0.009779 0.000002
# 2 -0.007676 0.048089 -0.001804 -0.000002 0.002906 0.000002
# 3 -0.003165 -0.001804 0.009940 0.000000 0.001884 0.000000
# 4 0.000000 -0.000002 0.000000 0.015252 0.000003 -0.023105
# 5 -0.009779 0.002906 0.001884 0.000003 0.059659 -0.000005
# 6 0.000002 0.000002 0.000000 -0.023105 -0.000005 0.049098
#
#
# Mechanical properties :
#
#
# Convention : Reuss Voigt Hill
#
# Bulk Modulus (GPa) = 20.35017 33.79149 27.07083
# Shear Modulus (GPa) = 20.82372 74.62520 47.72446
#
# Velocity S-wave (km/s) = 3.26835 6.18718 4.94789
# Velocity P-wave (km/s) = 4.96810 8.26897 6.82121
#
# Compressibility (1/GPa) = 0.04913964
#
# Stress axis : x y z
#
# Youngs Moduli (GPa) = 60.96874 20.79469 100.60604
#
# Poissons Ratio (x) = 0.15963 0.31845
# Poissons Ratio (y) = 0.46801 0.18150
# Poissons Ratio (z) = 0.19298 0.03751
#
# Static dielectric constant tensor:
#      x y z
#    x 1.752670 0.000000 -0.026090 
#    y 0.000000 1.734310 0.000000 
#    z -0.026090 0.000000 1.729400 
# 
# From -- ./inp_files/251980.got.cif
#   From: 2010.05.17/outbox.cif.g08.bks.cpg/sg12_126_cif.got.tgz:251980.got - 2010.06.03 13:09:07.
