data_PCOD9168499
_publ_section_title
;
Structure prediction by ZEFSAII (Michael W. Deem and Ramdas Pophale) SiO2 
 PCOD9168499
Probable space group: C 2/M
;
_chemical_formula_sum "Si O2"
_cell_formula_units_Z 48
_cell_length_a 5.441834
_cell_length_b 18.508634
_cell_length_c 21.866163
_cell_angle_alpha 90.000000
_cell_angle_beta 92.196882
_cell_angle_gamma 90.000000
_cell_volume 2200.761178
_symmetry_space_group_name_H-M "C 2/M"
_symmetry_group_IT_number 12
_symmetry_cell_setting 'monoclinic'
loop_
_space_group_symop_operation_xyz
x,y,z
-x,y,-z
-x,-y,-z
x,-y,z
1/2+x,1/2+y,z
1/2-x,1/2+y,-z
1/2-x,1/2-y,-z
1/2+x,1/2-y,z
loop_
_atom_site_type_symbol
_atom_site_label
_atom_site_fract_x
_atom_site_fract_y
_atom_site_fract_z
Si Si1 0.033008 0.337044 0.070636
Si Si2 0.960654 0.160779 0.618482
Si Si3 0.546454 0.175590 0.429348
Si Si4 0.604330 0.818889 0.805041
Si Si5 0.402035 0.339417 0.241716
Si Si6 0.467208 0.578747 0.926932
O O1 0.304853 0.367772 0.084137
O O2 0.962279 0.288396 0.128010
O O3 0.816458 0.395970 0.079185
O O4 0.000000 0.309873 0.000000
O O5 0.191611 0.138402 0.579069
O O6 0.937836 0.247755 0.606434
O O7 0.028859 0.143291 0.688518
O O8 0.690827 0.133652 0.597946
O O9 0.500000 0.191716 0.500000
O O10 0.626025 0.747852 0.763497
O O11 0.368188 0.864830 0.781480
O O12 0.865412 0.858347 0.799192
O O13 0.502940 0.500000 0.898370
O O14 0.500000 0.571535 0.000000
#
# Coordination Sequence:
#
# PCOD9168499 Si02
#       6
#     8   8   8   8   8   8
#     4  10  19  30  45  64  83 101 123 159 205 245
#     4  10  16  25  36  48  67  95 129 162 203 233
#     4  10  16  22  33  51  70  88 115 162 217 240
#     4  10  18  30  42  57  76  99 135 172 202 234
#     4  10  19  30  42  54  73 108 144 174 204 221
#     4   9  17  30  47  65  83 101 119 142 187 253
#
# _framework density 21.810634
#
# number of rings (size 3 to 8) (size 9 to 14) (size 15 to 20)
#    0.000    2.167    0.000    9.000    0.000    2.000 
#    0.000    3.333    0.000    0.000    0.000    0.000 
#    0.000    0.000    0.000    0.000    0.000    0.000 
#
# Total GULP energy -133664.620599 kJ/mol
# GULP energy per Si atom -5569.359192 kJ/mol
# Density = 2.176099 g / cm^3
# Si number density = 21.810634 Si / 1000 Ang^3
#
#
#
# Elastic Constant Matrix: (Units=GPa)
#
#
# Indices 1 2 3 4 5 6 
#
# 1 185.1051 12.8141 0.7999 0.0000 4.4303 0.0000
# 2 12.8141 16.7067 -3.0365 0.0000 1.5834 0.0000
# 3 0.7999 -3.0365 75.4711 0.0000 -1.6824 0.0000
# 4 0.0000 0.0000 0.0000 -111.3413 0.0000 111.2152
# 5 4.4303 1.5834 -1.6824 0.0000 37.4388 0.0000
# 6 0.0000 0.0000 0.0000 111.2152 0.0000 -111.4965
#
#
#
# Elastic Compliance Matrix: (Units=1/GPa)
#
#
# Indices 1 2 3 4 5 6 
#
# 1 0.005719 -0.004384 -0.000248 0.000000 -0.000502 0.000000
# 2 -0.004384 0.063882 0.002571 0.000000 -0.002067 0.000000
# 3 -0.000248 0.002571 0.013368 0.000000 0.000521 0.000000
# 4 0.000000 0.000000 0.000000 -2.458817 0.000000 -2.452613
# 5 -0.000502 -0.002067 0.000521 0.000000 0.026881 0.000000
# 6 0.000000 0.000000 0.000000 -2.452613 0.000000 -2.455394
#
#
# Mechanical properties :
#
#
# Convention : Reuss Voigt Hill
#
# Bulk Modulus (GPa) = 12.68302 33.15976 22.92139
# Shear Modulus (GPa) = -1.04735 -19.29944 -10.17339
#
# Velocity S-wave (km/s) = -0.69372 -2.97789 -2.16207
# Velocity P-wave (km/s) = 2.27729 1.84735 2.07349
#
# Compressibility (1/GPa) = 0.07884558
#
# Stress axis : x y z
#
# Youngs Moduli (GPa) = 174.85831 15.65390 74.80668
#
# Poissons Ratio (x) = 0.06863 0.01857
# Poissons Ratio (y) = 0.76656 -0.19230
# Poissons Ratio (z) = 0.04340 -0.04024
#
# Static dielectric constant tensor:
#      x y z
#    x 1.949990 0.000000 0.052870 
#    y 0.000000 1.814970 0.000000 
#    z 0.052870 0.000000 1.853970 
# 
# From -- ./inp_files/297761.got.cif
#   From: 2010.05.17/outbox.cif.g08.bks.cpg/sg12_149_cif.got.tgz:297761.got - 2010.06.03 13:09:07.
