data_PCOD9168577
_publ_section_title
;
Structure prediction by ZEFSAII (Michael W. Deem and Ramdas Pophale) SiO2 
 PCOD9168577
Probable space group: C 2/M
;
_chemical_formula_sum "Si O2"
_cell_formula_units_Z 56
_cell_length_a 26.299886
_cell_length_b 24.105368
_cell_length_c 5.477971
_cell_angle_alpha 90.000000
_cell_angle_beta 90.000000
_cell_angle_gamma 90.000000
_cell_volume 3472.860677
_symmetry_space_group_name_H-M "C 2/M"
_symmetry_group_IT_number 12
_symmetry_cell_setting 'monoclinic'
loop_
_space_group_symop_operation_xyz
x,y,z
-x,y,-z
-x,-y,-z
x,-y,z
1/2+x,1/2+y,z
1/2-x,1/2+y,-z
1/2-x,1/2-y,-z
1/2+x,1/2-y,z
loop_
_atom_site_type_symbol
_atom_site_label
_atom_site_fract_x
_atom_site_fract_y
_atom_site_fract_z
Si Si1 0.857999 0.785834 0.750000
Si Si2 0.742883 0.357805 0.250000
Si Si3 0.185327 0.748980 0.750000
Si Si4 0.475415 0.318587 0.750000
Si Si5 0.721611 0.372776 0.750000
Si Si6 0.881270 0.062337 0.250000
Si Si7 0.446098 0.437765 0.750000
O O1 0.815447 0.834595 0.750000
O O2 0.846831 0.752873 0.499461
O O3 0.915140 0.808023 0.750000
O O4 0.846831 0.752873 0.000540
O O5 0.779395 0.304659 0.250000
O O6 0.748144 0.390378 0.500967
O O7 0.748144 0.390378 0.999033
O O8 0.219781 0.805164 0.750000
O O9 0.500000 0.296773 0.500000
O O10 0.482853 0.385317 0.750000
O O11 0.500000 0.296773 0.000000
O O12 0.663743 0.393505 0.750000
O O13 0.913158 0.067132 0.500905
O O14 0.859319 0.000000 0.250000
O O15 0.913158 0.067132 0.999095
O O16 0.469048 0.500000 0.750000
#
# Coordination Sequence:
#
# PCOD9168577 Si02
#       7
#     8   8   8   8   8   8   8
#     4  10  18  30  44  58  82 106 124 160 205 250
#     4  10  18  27  45  68  84 100 125 159 217 269
#     4  10  17  28  46  67  84 100 125 159 217 268
#     4  12  24  35  46  61  80 108 146 178 218 272
#     4  10  16  25  39  59  87 106 122 158 202 250
#     4  10  19  31  47  64  80 107 144 175 218 273
#     4  10  20  34  48  59  73  97 138 193 237 264
#
# _framework density 16.125036000000001
#
# number of rings (size 3 to 8) (size 9 to 14) (size 15 to 20)
#    0.000    1.714    0.000   10.286    0.000    0.571 
#    0.000    0.000    0.000    0.000    0.000    0.000 
#    0.000    0.000    0.000    0.000    0.000    0.000 
#
# Total GULP energy -156249.445996 kJ/mol
# GULP energy per Si atom -5580.337357 kJ/mol
# Density = 1.608833 g / cm^3
# Si number density = 16.125036 Si / 1000 Ang^3
#
#
#
# Elastic Constant Matrix: (Units=GPa)
#
#
# Indices 1 2 3 4 5 6 
#
# 1 53.7356 15.4388 33.5288 0.0000 0.0000 0.0000
# 2 15.4388 9.5429 17.5482 0.0000 0.0000 0.0000
# 3 33.5288 17.5482 188.7048 0.0000 0.0000 0.0000
# 4 0.0000 0.0000 0.0000 14.6047 0.0000 0.0000
# 5 0.0000 0.0000 0.0000 0.0000 29.4796 0.0000
# 6 0.0000 0.0000 0.0000 0.0000 0.0000 12.9011
#
#
#
# Elastic Compliance Matrix: (Units=1/GPa)
#
#
# Indices 1 2 3 4 5 6 
#
# 1 0.034978 -0.054476 -0.001149 0.000000 0.000000 0.000000
# 2 -0.054476 0.211248 -0.009965 0.000000 0.000000 0.000000
# 3 -0.001149 -0.009965 0.006430 0.000000 0.000000 0.000000
# 4 0.000000 0.000000 0.000000 0.068471 0.000000 0.000000
# 5 0.000000 0.000000 0.000000 0.000000 0.033922 0.000000
# 6 0.000000 0.000000 0.000000 0.000000 0.000000 0.077513
#
#
# Mechanical properties :
#
#
# Convention : Reuss Voigt Hill
#
# Bulk Modulus (GPa) = 8.23210 42.77944 25.50577
# Shear Modulus (GPa) = 8.27495 23.76159 16.01827
#
# Velocity S-wave (km/s) = 2.26779 3.84289 3.15521
# Velocity P-wave (km/s) = 3.46026 6.80278 5.39682
#
# Compressibility (1/GPa) = 0.12147575
#
# Stress axis : x y z
#
# Youngs Moduli (GPa) = 28.58943 4.73378 155.51751
#
# Poissons Ratio (x) = 0.25788 0.17868
# Poissons Ratio (y) = 1.55743 1.54980
# Poissons Ratio (z) = 0.03285 0.04717
#
# Static dielectric constant tensor:
#      x y z
#    x 1.518440 0.000000 0.000000 
#    y 0.000000 1.524660 0.000000 
#    z 0.000000 0.000000 1.672510 
# 
# From -- ./inp_files/13164.got.cif
#   From: 2010.05.17/outbox.cif.g08.bks.cpg/sg12_7_cif.got.tgz:13164.got - 2010.06.03 13:09:07.
