data_PCOD9168114
_publ_section_title
;
Structure prediction by ZEFSAII (Michael W. Deem and Ramdas Pophale) SiO2 
 PCOD9168114
Probable space group: P 21/M
;
_chemical_formula_sum "Si O2"
_cell_formula_units_Z 32
_cell_length_a 27.000000
_cell_length_b 9.000000
_cell_length_c 21.000000
_cell_angle_alpha 90.000000
_cell_angle_beta 20.000000
_cell_angle_gamma 90.000000
_cell_volume 1745.328791
_symmetry_space_group_name_H-M "P 21/M"
_symmetry_group_IT_number 11
_symmetry_cell_setting 'monoclinic'
loop_
_space_group_symop_operation_xyz
x,y,z
-x,1/2+y,-z
-x,-y,-z
x,1/2-y,z
loop_
_atom_site_type_symbol
_atom_site_label
_atom_site_fract_x
_atom_site_fract_y
_atom_site_fract_z
Si Si1 0.908894 0.927862 0.903308
Si Si2 0.043714 0.071752 0.514125
Si Si3 0.151649 0.919621 0.892192
Si Si4 0.627466 0.928706 0.887856
Si Si5 0.207458 0.571671 0.082664
Si Si6 0.243253 0.927488 0.523801
Si Si7 0.194773 0.419299 0.713972
Si Si8 0.460206 0.928425 0.874246
O O1 0.901573 0.750000 0.915287
O O2 0.081788 0.967811 0.693325
O O3 0.824577 0.989890 0.944411
O O4 0.842817 0.998078 0.047192
O O5 0.038402 0.250000 0.513316
O O6 0.209312 0.032699 0.332028
O O7 0.924444 0.030457 0.710549
O O8 0.000000 0.000000 0.500000
O O9 0.203701 0.750000 0.833054
O O10 0.224811 0.009459 0.746284
O O11 0.979861 0.913448 0.082944
O O12 0.613102 0.750000 0.905132
O O13 0.500000 0.000000 0.000000
O O14 0.610547 0.993558 0.979170
O O15 0.202721 0.750000 0.078532
O O16 0.358473 0.537302 0.936067
O O17 0.259934 0.750000 0.498211
O O18 0.247400 0.979086 0.592441
O O19 0.376887 0.010727 0.329468
O O20 0.249152 0.250000 0.642632
O O21 0.460910 0.750000 0.881657
#
# Coordination Sequence:
#
# PCOD9168114 Si02
#       8
#     4   4   4   4   4   4   4   4
#     4  10  21  35  54  83 113 146 186 231 277 326
#     4  10  21  39  61  84 109 143 185 229 275 329
#     4   9  16  28  49  77 111 147 182 228 277 324
#     4  11  24  40  60  87 115 146 183 228 280 332
#     4  10  22  39  58  81 110 146 186 229 277 332
#     4  10  21  36  54  82 116 148 187 232 277 331
#     4   9  16  28  49  78 110 147 186 227 275 328
#     4  11  23  40  60  81 110 149 187 229 280 334
#
# _framework density 18.334654
#
# number of rings (size 3 to 8) (size 9 to 14) (size 15 to 20)
#    0.000    2.000    1.250    2.250    1.750    6.500 
#    0.000    0.000    0.000    0.750    0.000    0.000 
#    0.000    0.000    0.000    0.000    0.000    0.000 
#
# Total GULP energy -178627.421411 kJ/mol
# GULP energy per Si atom -5582.106919 kJ/mol
# Density = 1.829292 g / cm^3
# Si number density = 18.334654 Si / 1000 Ang^3
#
#
#
# Elastic Constant Matrix: (Units=GPa)
#
#
# Indices 1 2 3 4 5 6 
#
# 1 100.2997 32.4014 -8.0999 0.0000 -8.5995 0.0000
# 2 32.4014 62.6583 2.1082 0.0000 -9.2223 0.0000
# 3 -8.0999 2.1082 11.8555 0.0000 -12.1925 0.0000
# 4 0.0000 0.0000 0.0000 23.1575 0.0000 1.3059
# 5 -8.5995 -9.2223 -12.1925 0.0000 23.6997 0.0000
# 6 0.0000 0.0000 0.0000 1.3059 0.0000 36.6598
#
#
#
# Elastic Compliance Matrix: (Units=1/GPa)
#
#
# Indices 1 2 3 4 5 6 
#
# 1 0.016716 -0.006690 0.034339 0.000000 0.021128 0.000000
# 2 -0.006690 0.019971 -0.005576 0.000000 0.002475 0.000000
# 3 0.034339 -0.005576 0.253516 0.000000 0.140714 0.000000
# 4 0.000000 0.000000 0.000000 0.043269 0.000000 -0.001541
# 5 0.021128 0.002475 0.140714 0.000000 0.123216 0.000000
# 6 0.000000 0.000000 0.000000 -0.001541 0.000000 0.027333
#
#
# Mechanical properties :
#
#
# Convention : Reuss Voigt Hill
#
# Bulk Modulus (GPa) = 2.99089 25.29254 14.14171
# Shear Modulus (GPa) = 9.06908 26.59698 17.83303
#
# Velocity S-wave (km/s) = 2.22647 3.81286 3.12210
# Velocity P-wave (km/s) = 2.87130 5.76270 4.55264
#
# Compressibility (1/GPa) = 0.33434917
#
# Stress axis : x y z
#
# Youngs Moduli (GPa) = 59.82368 50.07322 3.94452
#
# Poissons Ratio (x) = 0.33497 -0.13545
# Poissons Ratio (y) = 0.40019 0.02200
# Poissons Ratio (z) = -2.05429 0.27922
#
# Static dielectric constant tensor:
#      x y z
#    x 1.612930 0.000000 0.008300 
#    y 0.000000 1.619410 0.000000 
#    z 0.008300 0.000000 1.632570 
# 
# From -- ./inp_files/67038.got.cif
#   From: 2010.05.17/outbox.ucp.g08.bks.cvg/sg11_34_cif.got.tgz:67038.got - 2010.06.11 11:38:39.
