data_PCOD9168938
_publ_section_title
;
Structure prediction by ZEFSAII (Michael W. Deem and Ramdas Pophale) SiO2 
 PCOD9168938
Probable space group: C 2/M
;
_chemical_formula_sum "Si O2"
_cell_formula_units_Z 48
_cell_length_a 14.629784
_cell_length_b 11.482001
_cell_length_c 28.433996
_cell_angle_alpha 90.000000
_cell_angle_beta 22.834217
_cell_angle_gamma 90.000000
_cell_volume 1853.527553
_symmetry_space_group_name_H-M "C 2/M"
_symmetry_group_IT_number 12
_symmetry_cell_setting 'monoclinic'
loop_
_space_group_symop_operation_xyz
x,y,z
-x,y,-z
-x,-y,-z
x,-y,z
1/2+x,1/2+y,z
1/2-x,1/2+y,-z
1/2-x,1/2-y,-z
1/2+x,1/2-y,z
loop_
_atom_site_type_symbol
_atom_site_label
_atom_site_fract_x
_atom_site_fract_y
_atom_site_fract_z
Si Si1 0.035562 0.000000 0.540513
Si Si2 0.024220 0.251349 0.717469
Si Si3 0.999704 0.500000 0.056100
Si Si4 0.554082 0.749392 0.552196
Si Si5 0.981750 0.000000 0.291401
Si Si6 0.458712 0.751281 0.107927
Si Si7 0.424352 0.000000 0.436525
Si Si8 0.906096 0.367993 0.867329
O O1 0.932162 0.122736 0.608685
O O2 0.000000 0.000000 0.500000
O O3 0.296818 0.000000 0.444673
O O4 0.019784 0.117903 0.737069
O O5 0.807801 0.260026 0.783408
O O6 0.970623 0.341208 0.783366
O O7 0.279897 0.259882 0.572916
O O8 0.728466 0.500000 0.201486
O O9 0.081007 0.372400 0.032026
O O10 0.000000 0.500000 0.000000
O O11 0.750000 0.750000 0.500000
O O12 0.446450 0.878079 0.611915
O O13 0.784562 0.000000 0.425130
O O14 0.475064 0.772123 0.155383
O O15 0.626052 0.651832 0.008468
O O16 0.962825 0.500000 0.853468
#
# Coordination Sequence:
#
# PCOD9168938 Si02
#       8
#     4   8   4   8   4   8   4   8
#     4  10  20  36  56  93 117 148 191 250 305 352
#     4  10  20  37  60  86 114 157 199 244 299 361
#     4  10  16  30  56  81  98 139 204 233 273 339
#     4   9  19  38  59  87 119 156 198 244 304 368
#     4   8  16  32  56  80  96 143 198 232 276 337
#     4  10  21  38  56  82 117 161 196 242 301 349
#     4   8  16  36  61  76 113 152 192 235 286 361
#     4  11  23  38  55  87 124 153 199 251 299 359
#
# _framework density 25.896567000000001
#
# number of rings (size 3 to 8) (size 9 to 14) (size 15 to 20)
#    0.000    2.333    0.833    2.500    1.167    1.333 
#   13.500    0.417    0.000    0.000    0.000    0.000 
#    0.000    0.000    0.000    0.000    0.000    0.000 
#
# Total GULP energy -134036.707830 kJ/mol
# GULP energy per Si atom -5584.862826 kJ/mol
# Density = 2.583763 g / cm^3
# Si number density = 25.896567 Si / 1000 Ang^3
#
#
#
# Elastic Constant Matrix: (Units=GPa)
#
#
# Indices 1 2 3 4 5 6 
#
# 1 107.2066 26.0433 30.9167 -0.0093 -16.9946 -0.0034
# 2 26.0433 190.5910 41.6190 0.0008 -5.4136 -0.0045
# 3 30.9167 41.6190 79.1274 0.0011 -4.8065 -0.0053
# 4 -0.0093 0.0008 0.0011 34.6800 -0.0128 2.0146
# 5 -16.9946 -5.4136 -4.8065 -0.0128 36.1781 0.0011
# 6 -0.0034 -0.0045 -0.0053 2.0146 0.0011 30.7518
#
#
#
# Elastic Compliance Matrix: (Units=1/GPa)
#
#
# Indices 1 2 3 4 5 6 
#
# 1 0.011322 -0.000576 -0.003834 0.000005 0.004723 0.000000
# 2 -0.000576 0.005965 -0.002898 0.000000 0.000237 0.000000
# 3 -0.003834 -0.002898 0.015651 -0.000002 -0.000155 0.000002
# 4 0.000005 0.000000 -0.000002 0.028945 0.000012 -0.001896
# 5 0.004723 0.000237 -0.000155 0.000012 0.029875 -0.000001
# 6 0.000000 0.000000 0.000002 -0.001896 -0.000001 0.032643
#
#
# Mechanical properties :
#
#
# Convention : Reuss Voigt Hill
#
# Bulk Modulus (GPa) = 54.57883 63.78700 59.18291
# Shear Modulus (GPa) = 34.45343 38.87837 36.66590
#
# Velocity S-wave (km/s) = 3.65146 3.87886 3.76687
# Velocity P-wave (km/s) = 6.23690 6.68922 6.46702
#
# Compressibility (1/GPa) = 0.01832212
#
# Stress axis : x y z
#
# Youngs Moduli (GPa) = 88.32358 167.64161 63.89447
#
# Poissons Ratio (x) = 0.09651 0.24497
# Poissons Ratio (y) = 0.05085 0.18518
# Poissons Ratio (z) = 0.33864 0.48585
#
# Static dielectric constant tensor:
#      x y z
#    x 2.057940 0.000010 -0.006280 
#    y 0.000010 2.120660 0.000010 
#    z -0.006280 0.000010 2.074680 
# 
# From -- ./inp_files/376057.got.cif
#   From: 2010.05.17/outbox.cif.g08.bks.cpg/sg12_189_cif.got.tgz:376057.got - 2010.06.03 13:09:07.
