data_PCOD9168585
_publ_section_title
;
Structure prediction by ZEFSAII (Michael W. Deem and Ramdas Pophale) SiO2 
 PCOD9168585
Probable space group: C 2/M
;
_chemical_formula_sum "Si O2"
_cell_formula_units_Z 52
_cell_length_a 5.560085
_cell_length_b 29.328189
_cell_length_c 23.442686
_cell_angle_alpha 90.000000
_cell_angle_beta 53.633745
_cell_angle_gamma 90.000000
_cell_volume 3078.230177
_symmetry_space_group_name_H-M "C 2/M"
_symmetry_group_IT_number 12
_symmetry_cell_setting 'monoclinic'
loop_
_space_group_symop_operation_xyz
x,y,z
-x,y,-z
-x,-y,-z
x,-y,z
1/2+x,1/2+y,z
1/2-x,1/2+y,-z
1/2-x,1/2-y,-z
1/2+x,1/2-y,z
loop_
_atom_site_type_symbol
_atom_site_label
_atom_site_fract_x
_atom_site_fract_y
_atom_site_fract_z
Si Si1 0.388561 0.621574 0.144576
Si Si2 0.706971 0.194228 0.417212
Si Si3 0.736055 0.161659 0.005578
Si Si4 0.345344 0.203577 0.361862
Si Si5 0.762074 0.224952 0.195170
Si Si6 0.640129 0.000000 0.043948
Si Si7 0.084863 0.592121 0.866055
O O1 0.605767 0.623404 0.057693
O O2 0.340435 0.674533 0.163826
O O3 0.077285 0.598186 0.171601
O O4 0.564711 0.598186 0.171601
O O5 0.500000 0.183436 0.500000
O O6 0.547967 0.178955 0.380879
O O7 0.733178 0.249325 0.406729
O O8 0.047640 0.178955 0.380878
O O9 0.500000 0.187775 0.000000
O O10 0.552380 0.134698 0.079048
O O11 0.000000 0.187775 0.000000
O O12 0.549134 0.218826 0.280346
O O13 0.561263 0.250000 0.175495
O O14 0.521128 0.954779 0.091549
O O15 0.500000 0.000000 0.000000
O O16 0.000000 0.000000 0.000000
#
# Coordination Sequence:
#
# PCOD9168585 Si02
#       7
#     8   8   8   8   8   4   8
#     4  10  20  32  48  64  87 121 146 181 233 272
#     4  10  16  25  41  60  83 108 132 181 244 277
#     4   8  14  27  44  58  77 102 125 158 210 261
#     4  10  16  27  38  58  81 105 141 192 227 242
#     4  12  21  34  47  61  84 116 165 208 228 241
#     4  12  20  30  54  84 100 112 134 168 225 300
#     4  10  19  33  49  71  94 113 136 174 228 288
#
# _framework density 16.892823
#
# number of rings (size 3 to 8) (size 9 to 14) (size 15 to 20)
#    0.000    1.846    3.077    6.923    0.000    0.000 
#    0.000    0.000    0.000   24.923    0.000    0.000 
#    0.000    0.000    0.000    0.000    0.000    0.000 
#
# Total GULP energy -144805.598718 kJ/mol
# GULP energy per Si atom -5569.446105 kJ/mol
# Density = 1.685437 g / cm^3
# Si number density = 16.892823 Si / 1000 Ang^3
#
#
#
# Elastic Constant Matrix: (Units=GPa)
#
#
# Indices 1 2 3 4 5 6 
#
# 1 228.4980 43.9350 8.9751 0.0000 24.2586 0.0000
# 2 43.9350 63.3603 7.0902 0.0000 4.3596 0.0000
# 3 8.9751 7.0902 12.3026 0.0000 1.3220 0.0000
# 4 0.0000 0.0000 0.0000 -3.2098 0.0000 2.2286
# 5 24.2586 4.3596 1.3220 0.0000 9.9641 0.0000
# 6 0.0000 0.0000 0.0000 2.2286 0.0000 15.6251
#
#
#
# Elastic Compliance Matrix: (Units=1/GPa)
#
#
# Indices 1 2 3 4 5 6 
#
# 1 0.006625 -0.003456 -0.001289 0.000000 -0.014447 0.000000
# 2 -0.003456 0.019057 -0.008592 0.000000 0.001215 0.000000
# 3 -0.001289 -0.008592 0.087685 0.000000 -0.004736 0.000000
# 4 0.000000 0.000000 0.000000 -0.283471 0.000000 0.040431
# 5 -0.014447 0.001215 -0.004736 0.000000 0.135629 0.000000
# 6 0.000000 0.000000 0.000000 0.040431 0.000000 0.058233
#
#
# Mechanical properties :
#
#
# Convention : Reuss Voigt Hill
#
# Bulk Modulus (GPa) = 11.53502 47.12905 29.33204
# Shear Modulus (GPa) = 63.02716 20.75323 41.89019
#
# Velocity S-wave (km/s) = 6.11482 3.50883 4.98512
# Velocity P-wave (km/s) = 7.52980 6.66148 7.10891
#
# Compressibility (1/GPa) = 0.08669251
#
# Stress axis : x y z
#
# Youngs Moduli (GPa) = 150.93715 52.47435 11.40444
#
# Poissons Ratio (x) = 0.18134 0.01470
# Poissons Ratio (y) = 0.52160 0.09799
# Poissons Ratio (z) = 0.19460 0.45088
#
# Static dielectric constant tensor:
#      x y z
#    x 1.778550 0.000000 0.021830 
#    y 0.000000 1.511650 0.000000 
#    z 0.021830 0.000000 1.594100 
# 
# From -- ./inp_files/253795.got.cif
#   From: 2010.05.17/outbox.cif.g08.bks.cpg/sg12_127_cif.got.tgz:253795.got - 2010.06.03 13:09:07.
