data_PCOD9168942
_publ_section_title
;
Structure prediction by ZEFSAII (Michael W. Deem and Ramdas Pophale) SiO2 
 PCOD9168942
Probable space group: C 2/M
;
_chemical_formula_sum "Si O2"
_cell_formula_units_Z 46
_cell_length_a 8.694861
_cell_length_b 21.048405
_cell_length_c 15.545156
_cell_angle_alpha 90.000000
_cell_angle_beta 126.938720
_cell_angle_gamma 90.000000
_cell_volume 2273.919933
_symmetry_space_group_name_H-M "C 2/M"
_symmetry_group_IT_number 12
_symmetry_cell_setting 'monoclinic'
loop_
_space_group_symop_operation_xyz
x,y,z
-x,y,-z
-x,-y,-z
x,-y,z
1/2+x,1/2+y,z
1/2-x,1/2+y,-z
1/2-x,1/2-y,-z
1/2+x,1/2-y,z
loop_
_atom_site_type_symbol
_atom_site_label
_atom_site_fract_x
_atom_site_fract_y
_atom_site_fract_z
Si Si1 0.330300 0.803411 0.091752
Si Si2 0.684024 0.500000 0.410746
Si Si3 0.815259 0.000000 0.788582
Si Si4 0.224495 0.800229 0.800964
Si Si5 0.903988 0.107975 0.376700
Si Si6 0.116810 0.500000 0.335354
Si Si7 0.000000 0.500000 0.000000
Si Si8 0.848603 0.098691 0.077403
O O1 0.549625 0.811855 0.136958
O O2 0.310789 0.771544 0.178895
O O3 0.250000 0.750000 0.000000
O O4 0.210590 0.866282 0.030845
O O5 0.746350 0.500000 0.333061
O O6 0.549834 0.561859 0.375534
O O7 0.823013 0.500000 0.542014
O O8 0.954694 0.059155 0.856067
O O9 0.607479 0.000000 0.763131
O O10 0.131556 0.826512 0.683131
O O11 0.143341 0.846699 0.847363
O O12 0.000000 0.119522 0.500000
O O13 0.717348 0.062878 0.328995
O O14 0.830840 0.554449 0.956610
#
# Coordination Sequence:
#
# PCOD9168942 Si02
#       8
#     8   4   4   8   8   4   2   8
#     4  10  21  39  59  86 113 158 214 249 293 358
#     4   9  16  34  62  87 124 161 200 243 309 389
#     4  11  19  31  57  96 130 159 192 252 311 364
#     4  11  20  40  62  82 113 162 209 258 295 362
#     4   9  19  38  62  88 119 160 205 250 305 375
#     4   9  20  35  53  93 131 157 195 253 310 369
#     4  10  16  30  56  92 122 156 190 246 300 362
#     4  10  19  32  59  89 124 156 203 242 302 369
#
# _framework density 20.229382000000001
#
# number of rings (size 3 to 8) (size 9 to 14) (size 15 to 20)
#    0.000    2.087    3.478    2.870    0.000    0.000 
#    9.391    0.870    0.000    1.043    0.000    0.000 
#    0.000    0.000    0.000    3.130    0.000    0.000 
#
# Total GULP energy -128067.659183 kJ/mol
# GULP energy per Si atom -5568.159095 kJ/mol
# Density = 2.018334 g / cm^3
# Si number density = 20.229382 Si / 1000 Ang^3
#
#
#
# Elastic Constant Matrix: (Units=GPa)
#
#
# Indices 1 2 3 4 5 6 
#
# 1 84.0918 28.8703 44.5672 0.0000 23.1291 0.0000
# 2 28.8703 58.9164 35.8882 0.0000 -2.5188 0.0000
# 3 44.5672 35.8882 46.0265 0.0000 13.8235 0.0000
# 4 0.0000 0.0000 0.0000 33.9277 0.0000 2.4152
# 5 23.1291 -2.5188 13.8235 0.0000 40.0106 0.0000
# 6 0.0000 0.0000 0.0000 2.4152 0.0000 -0.3892
#
#
#
# Elastic Compliance Matrix: (Units=1/GPa)
#
#
# Indices 1 2 3 4 5 6 
#
# 1 0.026252 0.002288 -0.025316 0.000000 -0.006285 0.000000
# 2 0.002288 0.038658 -0.036477 0.000000 0.013713 0.000000
# 3 -0.025316 -0.036477 0.079195 0.000000 -0.015023 0.000000
# 4 0.000000 0.000000 0.000000 0.020443 0.000000 0.126864
# 5 -0.006285 0.013713 -0.015023 0.000000 0.034680 0.000000
# 6 0.000000 0.000000 0.000000 0.126864 0.000000 -1.782148
#
#
# Mechanical properties :
#
#
# Convention : Reuss Voigt Hill
#
# Bulk Modulus (GPa) = 39.85000 45.29845 42.57422
# Shear Modulus (GPa) = -3.43514 20.02376 8.29431
#
# Velocity S-wave (km/s) = -1.30452 3.14958 2.02707
# Velocity P-wave (km/s) = 4.18005 5.97222 5.15462
#
# Compressibility (1/GPa) = 0.02509410
#
# Stress axis : x y z
#
# Youngs Moduli (GPa) = 38.09238 25.86812 12.62713
#
# Poissons Ratio (x) = -0.05920 0.31967
# Poissons Ratio (y) = -0.08717 0.46060
# Poissons Ratio (z) = 0.96436 0.94359
#
# Static dielectric constant tensor:
#      x y z
#    x 1.737330 0.000000 -0.027180 
#    y 0.000000 1.527760 0.000000 
#    z -0.027180 0.000000 1.750490 
# 
# From -- ./inp_files/122000.got.cif
#   From: 2010.05.17/outbox.cif.g08.bks.cpg/sg12_61_cif.got.tgz:122000.got - 2010.06.03 13:09:07.
