data_PCOD9168256
_publ_section_title
;
Structure prediction by ZEFSAII (Michael W. Deem and Ramdas Pophale) SiO2 
 PCOD9168256
Probable space group: P 21/M
;
_chemical_formula_sum "Si O2"
_cell_formula_units_Z 28
_cell_length_a 9.000000
_cell_length_b 15.000000
_cell_length_c 12.000000
_cell_angle_alpha 90.000000
_cell_angle_beta 110.000000
_cell_angle_gamma 90.000000
_cell_volume 1522.302046
_symmetry_space_group_name_H-M "P 21/M"
_symmetry_group_IT_number 11
_symmetry_cell_setting 'monoclinic'
loop_
_space_group_symop_operation_xyz
x,y,z
-x,1/2+y,-z
-x,-y,-z
x,1/2-y,z
loop_
_atom_site_type_symbol
_atom_site_label
_atom_site_fract_x
_atom_site_fract_y
_atom_site_fract_z
Si Si1 0.157271 0.501835 0.615123
Si Si2 0.765988 0.854626 0.052629
Si Si3 0.694182 0.149185 0.694259
Si Si4 0.387752 0.355067 0.751345
Si Si5 0.553289 0.085762 0.440019
Si Si6 0.737044 0.645199 0.791983
Si Si7 0.977791 0.489707 0.794462
O O1 0.250584 0.408071 0.651431
O O2 0.293767 0.564037 0.597531
O O3 0.000000 0.500000 0.500000
O O4 0.088088 0.520845 0.720019
O O5 0.820843 0.750000 0.077418
O O6 0.646746 0.869598 0.126120
O O7 0.906039 0.927919 0.100419
O O8 0.691199 0.862841 0.910920
O O9 0.745782 0.250000 0.736613
O O10 0.560797 0.118073 0.749750
O O11 0.609154 0.150995 0.552454
O O12 0.838522 0.079899 0.724415
O O13 0.374839 0.250000 0.725940
O O14 0.406600 0.117572 0.326828
O O15 0.500000 0.000000 0.500000
O O16 0.777015 0.750000 0.782394
O O17 0.883816 0.576789 0.813373
#
# Coordination Sequence:
#
# PCOD9168256 Si02
#       7
#     4   4   4   4   4   4   4
#     4  11  20  36  56  83 117 154 187 244 296 349
#     4   9  20  39  62  89 121 157 202 247 295 347
#     4  11  21  36  62  89 117 153 199 245 292 351
#     4   9  19  35  57  85 112 151 199 243 288 344
#     4  12  21  40  60  83 117 157 197 241 296 354
#     4  11  23  41  62  86 121 163 199 244 300 355
#     4  11  21  38  61  89 123 153 200 241 299 350
#
# _framework density 18.393196
#
# number of rings (size 3 to 8) (size 9 to 14) (size 15 to 20)
#    0.000    1.429    4.286    1.286    0.000    0.571 
#    0.000    9.286    0.000    3.429    0.000    0.000 
#    0.000    0.000    0.000    0.000    0.000    0.000 
#
# Total GULP energy -156106.172155 kJ/mol
# GULP energy per Si atom -5575.220434 kJ/mol
# Density = 1.835133 g / cm^3
# Si number density = 18.393196 Si / 1000 Ang^3
#
#
#
# Elastic Constant Matrix: (Units=GPa)
#
#
# Indices 1 2 3 4 5 6 
#
# 1 116.5383 35.9151 31.3712 0.0000 -18.6275 0.0000
# 2 35.9151 84.3814 30.8388 0.0000 -10.4884 0.0000
# 3 31.3712 30.8388 101.0476 0.0000 -3.8481 0.0000
# 4 0.0000 0.0000 0.0000 29.0530 0.0000 0.7273
# 5 -18.6275 -10.4884 -3.8481 0.0000 23.7563 0.0000
# 6 0.0000 0.0000 0.0000 0.7273 0.0000 22.7481
#
#
#
# Elastic Compliance Matrix: (Units=1/GPa)
#
#
# Indices 1 2 3 4 5 6 
#
# 1 0.011285 -0.003081 -0.002292 0.000000 0.007117 0.000000
# 2 -0.003081 0.014867 -0.003444 0.000000 0.003590 0.000000
# 3 -0.002292 -0.003444 0.011604 0.000000 -0.001438 0.000000
# 4 0.000000 0.000000 0.000000 0.034447 0.000000 -0.001101
# 5 0.007117 0.003590 -0.001438 0.000000 0.049027 0.000000
# 6 0.000000 0.000000 0.000000 -0.001101 0.000000 0.043995
#
#
# Mechanical properties :
#
#
# Convention : Reuss Voigt Hill
#
# Bulk Modulus (GPa) = 49.69657 55.35751 52.52704
# Shear Modulus (GPa) = 26.37582 28.70097 27.53840
#
# Velocity S-wave (km/s) = 3.79093 3.95449 3.87357
# Velocity P-wave (km/s) = 6.79994 7.14232 6.97323
#
# Compressibility (1/GPa) = 0.02012211
#
# Stress axis : x y z
#
# Youngs Moduli (GPa) = 88.61331 67.26206 86.17475
#
# Poissons Ratio (x) = 0.20722 0.19754
# Poissons Ratio (y) = 0.27300 0.29680
# Poissons Ratio (z) = 0.20313 0.23166
#
# Static dielectric constant tensor:
#      x y z
#    x 1.622250 0.000000 -0.019290 
#    y 0.000000 1.663460 0.000000 
#    z -0.019290 0.000000 1.647400 
# 
# From -- ./inp_files/31734.got.cif
#   From: 2010.05.17/outbox.ucp.g08.bks.cvg/sg11_16_cif.got.tgz:31734.got - 2010.06.11 11:38:39.
