data_PCOD9168744
_publ_section_title
;
Structure prediction by ZEFSAII (Michael W. Deem and Ramdas Pophale) SiO2 
 PCOD9168744
Probable space group: C 2/M
;
_chemical_formula_sum "Si O2"
_cell_formula_units_Z 64
_cell_length_a 25.622992
_cell_length_b 18.295988
_cell_length_c 24.865038
_cell_angle_alpha 90.000000
_cell_angle_beta 161.112731
_cell_angle_gamma 90.000000
_cell_volume 3773.350810
_symmetry_space_group_name_H-M "C 2/M"
_symmetry_group_IT_number 12
_symmetry_cell_setting 'monoclinic'
loop_
_space_group_symop_operation_xyz
x,y,z
-x,y,-z
-x,-y,-z
x,-y,z
1/2+x,1/2+y,z
1/2-x,1/2+y,-z
1/2-x,1/2-y,-z
1/2+x,1/2-y,z
loop_
_atom_site_type_symbol
_atom_site_label
_atom_site_fract_x
_atom_site_fract_y
_atom_site_fract_z
Si Si1 0.081586 0.274916 0.361783
Si Si2 0.817240 0.585911 0.892857
Si Si3 0.180581 0.582630 0.422746
Si Si4 0.630356 0.845804 0.256407
Si Si5 0.867500 0.823278 0.208784
Si Si6 0.327948 0.585431 0.360688
Si Si7 0.429655 0.274259 0.106778
Si Si8 0.560222 0.583771 0.822639
O O1 0.250000 0.250000 0.500000
O O2 0.095142 0.361342 0.380497
O O3 0.031987 0.222176 0.361640
O O4 0.952235 0.257989 0.189066
O O5 0.806701 0.500000 0.894027
O O6 0.666776 0.627813 0.773186
O O7 0.801860 0.594674 0.813957
O O8 0.976192 0.618012 0.075870
O O9 0.121695 0.500000 0.368728
O O10 0.153237 0.613911 0.336066
O O11 0.370918 0.583645 0.621573
O O12 0.778024 0.863130 0.361059
O O13 0.577615 0.762242 0.218029
O O14 0.852332 0.878796 0.143232
O O15 0.730798 0.760900 0.073222
O O16 0.500000 0.597588 0.500000
O O17 0.323820 0.500000 0.374523
O O18 0.424432 0.360691 0.112132
O O19 0.610189 0.500000 0.880267
#
# Coordination Sequence:
#
# PCOD9168744 Si02
#       8
#     8   8   8   8   8   8   8   8
#     4  10  16  28  43  60  87 119 150 186 229 260
#     4  10  20  33  48  67  92 124 160 192 230 269
#     4  10  19  28  45  69  90 120 162 193 223 271
#     4  10  20  33  50  64  92 126 158 190 232 275
#     4  10  19  31  45  66  92 124 158 188 225 273
#     4  10  21  33  47  69  95 120 152 195 232 267
#     4   9  19  32  45  66  90 121 158 190 228 276
#     4  10  18  29  46  68  94 121 155 195 231 266
#
# _framework density 16.961051999999999
#
# number of rings (size 3 to 8) (size 9 to 14) (size 15 to 20)
#    0.000    2.125    2.500    3.375    1.750    1.000 
#    0.000    5.000    0.000    0.000    0.000    0.000 
#    0.000    9.500    0.000    0.000    0.000    0.500 
#
# Total GULP energy -178380.513833 kJ/mol
# GULP energy per Si atom -5574.391057 kJ/mol
# Density = 1.692245 g / cm^3
# Si number density = 16.961052 Si / 1000 Ang^3
#
#
#
# Elastic Constant Matrix: (Units=GPa)
#
#
# Indices 1 2 3 4 5 6 
#
# 1 71.5480 45.6251 7.8644 -0.0005 11.3984 0.0000
# 2 45.6251 138.7924 11.4135 -0.0055 5.3314 -0.0011
# 3 7.8644 11.4135 43.6338 -0.0113 1.5715 -0.0028
# 4 -0.0005 -0.0055 -0.0113 21.5087 -0.0018 1.6285
# 5 11.3984 5.3314 1.5715 -0.0018 24.0942 0.0005
# 6 0.0000 -0.0011 -0.0028 1.6285 0.0005 24.0379
#
#
#
# Elastic Compliance Matrix: (Units=1/GPa)
#
#
# Indices 1 2 3 4 5 6 
#
# 1 0.019105 -0.005852 -0.001638 -0.000003 -0.007636 0.000000
# 2 -0.005852 0.009211 -0.001384 0.000002 0.000821 0.000000
# 3 -0.001638 -0.001384 0.023592 0.000012 -0.000458 0.000002
# 4 -0.000003 0.000002 0.000012 0.046733 0.000004 -0.003166
# 5 -0.007636 0.000821 -0.000458 0.000004 0.044965 -0.000001
# 6 0.000000 0.000000 0.000002 -0.003166 -0.000001 0.041816
#
#
# Mechanical properties :
#
#
# Convention : Reuss Voigt Hill
#
# Bulk Modulus (GPa) = 29.27418 42.64222 35.95820
# Shear Modulus (GPa) = 23.30396 26.53289 24.91842
#
# Velocity S-wave (km/s) = 3.71073 3.95947 3.83711
# Velocity P-wave (km/s) = 5.97130 6.78963 6.39357
#
# Compressibility (1/GPa) = 0.03415980
#
# Stress axis : x y z
#
# Youngs Moduli (GPa) = 52.34171 108.56376 42.38776
#
# Poissons Ratio (x) = 0.63536 0.06941
# Poissons Ratio (y) = 0.30633 0.05867
# Poissons Ratio (z) = 0.08571 0.15027
#
# Static dielectric constant tensor:
#      x y z
#    x 1.582070 0.000000 0.030570 
#    y 0.000000 1.603900 0.000000 
#    z 0.030570 0.000000 1.667570 
# 
# From -- ./inp_files/369732.got.cif
#   From: 2010.05.17/outbox.cif.g08.bks.cpg/sg12_185_cif.got.tgz:369732.got - 2010.06.03 13:09:07.
