data_PCOD9168033
_publ_section_title
;
Structure prediction by ZEFSAII (Michael W. Deem and Ramdas Pophale) SiO2 
 PCOD9168033
Probable space group: P 21/M
;
_chemical_formula_sum "Si O2"
_cell_formula_units_Z 20
_cell_length_a 15.000000
_cell_length_b 9.000000
_cell_length_c 21.000000
_cell_angle_alpha 90.000000
_cell_angle_beta 20.000000
_cell_angle_gamma 90.000000
_cell_volume 969.627106
_symmetry_space_group_name_H-M "P 21/M"
_symmetry_group_IT_number 11
_symmetry_cell_setting 'monoclinic'
loop_
_space_group_symop_operation_xyz
x,y,z
-x,1/2+y,-z
-x,-y,-z
x,1/2-y,z
loop_
_atom_site_type_symbol
_atom_site_label
_atom_site_fract_x
_atom_site_fract_y
_atom_site_fract_z
Si Si1 0.573169 0.571802 0.275512
Si Si2 0.790833 0.927020 0.934570
Si Si3 0.743684 0.573605 0.701294
Si Si4 0.904575 0.074138 0.150474
Si Si5 0.986106 0.929769 0.668932
O O1 0.567669 0.750000 0.275495
O O2 0.665903 0.516376 0.282233
O O3 0.281473 0.517106 0.456294
O O4 0.819767 0.524632 0.066864
O O5 0.736885 0.750000 0.968460
O O6 0.873043 0.986253 0.810843
O O7 0.037079 0.947135 0.815028
O O8 0.529334 0.003535 0.135385
O O9 0.746767 0.750000 0.688612
O O10 0.784859 0.539913 0.748208
O O11 0.000000 0.500000 0.500000
O O12 0.870106 0.250000 0.160216
O O13 0.005788 0.750000 0.661009
#
# Coordination Sequence:
#
# PCOD9168033 Si02
#       5
#     4   4   4   4   4
#     4   9  17  32  52  73 101 138 178 215 254 305
#     4  10  20  36  56  78 107 140 174 214 264 315
#     4  11  22  37  57  80 106 137 176 217 260 311
#     4   9  18  32  51  75 104 138 175 216 259 303
#     4   9  19  35  55  78 106 140 174 215 266 314
#
# _framework density 20.626486
#
# number of rings (size 3 to 8) (size 9 to 14) (size 15 to 20)
#    0.000    2.400    0.000    2.400    0.000    4.800 
#    0.000    8.000    0.000    0.000    0.000    0.000 
#    0.000    0.000    0.000    0.000    0.000    0.000 
#
# Total GULP energy -111496.993097 kJ/mol
# GULP energy per Si atom -5574.849655 kJ/mol
# Density = 2.057954 g / cm^3
# Si number density = 20.626486 Si / 1000 Ang^3
#
#
#
# Elastic Constant Matrix: (Units=GPa)
#
#
# Indices 1 2 3 4 5 6 
#
# 1 43.0256 9.8317 6.2390 0.0000 -4.9823 0.0000
# 2 9.8317 -1.7613 -13.9214 0.0000 -0.9683 0.0000
# 3 6.2390 -13.9214 22.3719 0.0000 -11.2943 0.0000
# 4 0.0000 0.0000 0.0000 19.2841 0.0000 -6.5957
# 5 -4.9823 -0.9683 -11.2943 0.0000 34.8913 0.0000
# 6 0.0000 0.0000 0.0000 -6.5957 0.0000 22.3585
#
#
#
# Elastic Compliance Matrix: (Units=1/GPa)
#
#
# Indices 1 2 3 4 5 6 
#
# 1 0.018179 0.019040 0.009988 0.000000 0.006357 0.000000
# 2 0.019040 -0.059331 -0.049832 0.000000 -0.015058 0.000000
# 3 0.009988 -0.049832 0.013061 0.000000 0.004271 0.000000
# 4 0.000000 0.000000 0.000000 0.057675 0.000000 0.017014
# 5 0.006357 -0.015058 0.004271 0.000000 0.030533 0.000000
# 6 0.000000 0.000000 0.000000 0.017014 0.000000 0.049745
#
#
# Mechanical properties :
#
#
# Convention : Reuss Voigt Hill
#
# Bulk Modulus (GPa) = -14.34736 7.54829 -3.39953
# Shear Modulus (GPa) = 38.98982 19.40591 29.19786
#
# Velocity S-wave (km/s) = 4.35245 3.07061 3.76646
# Velocity P-wave (km/s) = 4.27639 4.02977 4.15491
#
# Compressibility (1/GPa) = -0.06969925
#
# Stress axis : x y z
#
# Youngs Moduli (GPa) = 55.00799 -16.85473 76.56392
#
# Poissons Ratio (x) = 0.32091 -0.76469
# Poissons Ratio (y) = -1.04733 3.81531
# Poissons Ratio (z) = -0.54940 -0.83990
#
# Static dielectric constant tensor:
#      x y z
#    x 1.886150 0.000000 0.039940 
#    y 0.000000 1.681060 0.000000 
#    z 0.039940 0.000000 1.714800 
# 
# From -- ./inp_files/15881.got.cif
#   From: 2010.05.17/outbox.ucp.g08.bks.cvg/sg11_8_cif.got.tgz:15881.got - 2010.06.11 11:38:39.
