data_PCOD9168347
_publ_section_title
;
Structure prediction by ZEFSAII (Michael W. Deem and Ramdas Pophale) SiO2 
 PCOD9168347
Probable space group: C 2/M
;
_chemical_formula_sum "Si O2"
_cell_formula_units_Z 34
_cell_length_a 17.038865
_cell_length_b 18.699303
_cell_length_c 10.082405
_cell_angle_alpha 90.000000
_cell_angle_beta 152.016753
_cell_angle_gamma 90.000000
_cell_volume 1507.303131
_symmetry_space_group_name_H-M "C 2/M"
_symmetry_group_IT_number 12
_symmetry_cell_setting 'monoclinic'
loop_
_space_group_symop_operation_xyz
x,y,z
-x,y,-z
-x,-y,-z
x,-y,z
1/2+x,1/2+y,z
1/2-x,1/2+y,-z
1/2-x,1/2-y,-z
1/2+x,1/2-y,z
loop_
_atom_site_type_symbol
_atom_site_label
_atom_site_fract_x
_atom_site_fract_y
_atom_site_fract_z
Si Si1 0.871393 0.384026 0.093777
Si Si2 0.993663 0.000000 0.147601
Si Si3 0.322939 0.000000 0.805418
Si Si4 0.607180 0.230391 0.522262
Si Si5 0.000000 0.500000 0.500000
Si Si6 0.896051 0.155382 0.099925
O O1 0.016572 0.326351 0.289794
O O2 0.948583 0.438410 0.315366
O O3 0.813030 0.430355 0.883281
O O4 0.713931 0.346847 0.929809
O O5 0.907569 0.926713 0.068812
O O6 0.177048 0.000000 0.481768
O O7 0.000000 0.000000 0.000000
O O8 0.500000 0.000000 0.000000
O O9 0.500000 0.227073 0.500000
O O10 0.569779 0.306291 0.397359
O O11 0.789733 0.202322 0.835642
#
# Coordination Sequence:
#
# PCOD9168347 Si02
#       6
#     8   4   4   8   2   8
#     4  10  20  37  71 105 138 180 224 282 348 404
#     4  12  31  49  67  97 139 192 236 294 343 409
#     4  11  28  43  68  97 141 186 241 283 335 416
#     4  10  21  38  70 106 142 175 214 288 349 415
#     4  10  14  30  58 104 134 182 210 258 346 400
#     4  11  24  43  73 106 142 174 231 285 353 416
#
# _framework density 22.556844000000002
#
# number of rings (size 3 to 8) (size 9 to 14) (size 15 to 20)
#    0.000    1.412    3.529    4.235    9.882    0.941 
#    0.000    2.353    0.000    0.000    0.000    0.000 
#    0.000    0.000    0.000    0.000    0.000    0.000 
#
# Total GULP energy -94801.199846 kJ/mol
# GULP energy per Si atom -5576.541167 kJ/mol
# Density = 2.250550 g / cm^3
# Si number density = 22.556844 Si / 1000 Ang^3
#
#
#
# Elastic Constant Matrix: (Units=GPa)
#
#
# Indices 1 2 3 4 5 6 
#
# 1 40.6837 18.2632 48.5815 0.0000 -15.0004 0.0000
# 2 18.2632 160.8167 71.5440 0.0000 -14.2388 0.0000
# 3 48.5815 71.5440 144.0124 0.0000 -26.2879 0.0000
# 4 0.0000 0.0000 0.0000 -16.0315 0.0000 32.6034
# 5 -15.0004 -14.2388 -26.2879 0.0000 29.3301 0.0000
# 6 0.0000 0.0000 0.0000 32.6034 0.0000 -25.6383
#
#
#
# Elastic Compliance Matrix: (Units=1/GPa)
#
#
# Indices 1 2 3 4 5 6 
#
# 1 0.044527 0.002193 -0.014059 0.000000 0.011236 0.000000
# 2 0.002193 0.008094 -0.004590 0.000000 0.000937 0.000000
# 3 -0.014059 -0.004590 0.014643 0.000000 0.003706 0.000000
# 4 0.000000 0.000000 0.000000 0.039325 0.000000 0.050008
# 5 0.011236 0.000937 0.003706 0.000000 0.043618 0.000000
# 6 0.000000 0.000000 0.000000 0.050008 0.000000 0.024590
#
#
# Mechanical properties :
#
#
# Convention : Reuss Voigt Hill
#
# Bulk Modulus (GPa) = 29.11045 69.14336 49.12691
# Shear Modulus (GPa) = 22.81455 11.34035 17.07745
#
# Velocity S-wave (km/s) = 3.18374 2.24463 2.75450
# Velocity P-wave (km/s) = 5.14279 6.11860 5.65180
#
# Compressibility (1/GPa) = 0.03435192
#
# Stress axis : x y z
#
# Youngs Moduli (GPa) = 22.45847 123.54709 68.29136
#
# Poissons Ratio (x) = -0.27091 0.96011
# Poissons Ratio (y) = -0.04925 0.31344
# Poissons Ratio (z) = 0.31574 0.56704
#
# Static dielectric constant tensor:
#      x y z
#    x 1.817920 0.000000 0.022200 
#    y 0.000000 1.893860 0.000000 
#    z 0.022200 0.000000 1.852040 
# 
# From -- ./inp_files/169795.got.cif
#   From: 2010.05.17/outbox.cif.g08.bks.cpg/sg12_85_cif.got.tgz:169795.got - 2010.06.03 13:09:07.
