data_PCOD9168730
_publ_section_title
;
Structure prediction by ZEFSAII (Michael W. Deem and Ramdas Pophale) SiO2 
 PCOD9168730
Probable space group: C 2/M
;
_chemical_formula_sum "Si O2"
_cell_formula_units_Z 64
_cell_length_a 9.005621
_cell_length_b 24.458046
_cell_length_c 24.319623
_cell_angle_alpha 90.000000
_cell_angle_beta 32.818099
_cell_angle_gamma 90.000000
_cell_volume 2903.156713
_symmetry_space_group_name_H-M "C 2/M"
_symmetry_group_IT_number 12
_symmetry_cell_setting 'monoclinic'
loop_
_space_group_symop_operation_xyz
x,y,z
-x,y,-z
-x,-y,-z
x,-y,z
1/2+x,1/2+y,z
1/2-x,1/2+y,-z
1/2-x,1/2-y,-z
1/2+x,1/2-y,z
loop_
_atom_site_type_symbol
_atom_site_label
_atom_site_fract_x
_atom_site_fract_y
_atom_site_fract_z
Si Si1 0.481430 0.439746 0.940845
Si Si2 0.334561 0.269982 0.640624
Si Si3 0.432069 0.149532 0.582954
Si Si4 0.334869 0.344803 0.742811
Si Si5 0.729186 0.768003 0.866864
Si Si6 0.627301 0.939379 0.730644
Si Si7 0.987065 0.830065 0.885141
Si Si8 0.905181 0.638105 0.352933
O O1 0.353012 0.500000 0.971406
O O2 0.369579 0.387201 0.943940
O O3 0.800619 0.443332 0.826130
O O4 0.500000 0.429719 0.000000
O O5 0.481172 0.214515 0.577515
O O6 0.436224 0.304723 0.661564
O O7 0.035014 0.251055 0.754547
O O8 0.273442 0.309959 0.609410
O O9 0.500000 0.133072 0.500000
O O10 0.589426 0.123742 0.584956
O O11 0.108406 0.138097 0.689570
O O12 0.150720 0.310549 0.842583
O O13 0.193910 0.396170 0.757929
O O14 0.554960 0.712906 0.912917
O O15 0.785878 0.798981 0.906029
O O16 0.709217 0.910719 0.648527
O O17 0.738191 0.000000 0.705979
O O18 0.281103 0.844325 0.763545
#
# Coordination Sequence:
#
# PCOD9168730 Si02
#       8
#     8   8   8   8   8   8   8   8
#     4   9  19  36  58  83 108 133 169 221 272 310
#     4   9  16  28  44  69 102 138 169 199 258 306
#     4  11  20  29  45  75 109 135 165 211 267 315
#     4  10  18  31  51  74 106 137 172 219 259 299
#     4  10  16  27  48  78 107 138 174 211 250 306
#     4   9  19  36  59  77  91 128 181 219 251 311
#     4  10  17  29  53  77 105 145 177 206 254 315
#     4   9  17  30  48  72 101 133 175 211 251 305
#
# _framework density 22.044968999999998
#
# number of rings (size 3 to 8) (size 9 to 14) (size 15 to 20)
#    0.000    2.375    3.750    2.250    0.000    2.000 
#    0.000    3.750    0.000    2.250    0.000    2.625 
#    0.000    0.000    0.000    0.000    0.000    0.000 
#
# Total GULP energy -178636.837508 kJ/mol
# GULP energy per Si atom -5582.401172 kJ/mol
# Density = 2.199479 g / cm^3
# Si number density = 22.044969 Si / 1000 Ang^3
#
#
#
# Elastic Constant Matrix: (Units=GPa)
#
#
# Indices 1 2 3 4 5 6 
#
# 1 84.9100 50.5286 12.5370 0.0101 31.8231 0.0006
# 2 50.5286 139.8431 25.2751 0.0016 26.3741 -0.0003
# 3 12.5370 25.2751 36.5802 -0.0004 9.0033 -0.0013
# 4 0.0101 0.0016 -0.0004 1.1019 -0.0001 -4.7389
# 5 31.8231 26.3741 9.0033 -0.0001 38.2049 -0.0001
# 6 0.0006 -0.0003 -0.0013 -4.7389 -0.0001 24.2239
#
#
#
# Elastic Compliance Matrix: (Units=1/GPa)
#
#
# Indices 1 2 3 4 5 6 
#
# 1 0.019348 -0.004489 -0.000346 -0.001101 -0.012936 -0.000216
# 2 -0.004489 0.010043 -0.004899 0.000157 -0.002040 0.000031
# 3 -0.000346 -0.004899 0.031781 0.000178 -0.003820 0.000036
# 4 -0.001101 0.000157 0.000178 5.721610 0.000777 1.119321
# 5 -0.012936 -0.002040 -0.003820 0.000777 0.039258 0.000152
# 6 -0.000216 0.000031 0.000036 1.119321 0.000152 0.260255
#
#
# Mechanical properties :
#
#
# Convention : Reuss Voigt Hill
#
# Bulk Modulus (GPa) = 23.97808 48.66830 36.32319
# Shear Modulus (GPa) = 0.81757 24.23897 12.52827
#
# Velocity S-wave (km/s) = 0.60965 3.31950 2.38650
# Velocity P-wave (km/s) = 3.37581 6.06769 4.90984
#
# Compressibility (1/GPa) = 0.04170476
#
# Stress axis : x y z
#
# Youngs Moduli (GPa) = 51.68622 99.57435 31.46577
#
# Poissons Ratio (x) = 0.44695 0.01088
# Poissons Ratio (y) = 0.23200 0.15414
# Poissons Ratio (z) = 0.01787 0.48778
#
# Static dielectric constant tensor:
#      x y z
#    x 1.824050 0.000000 -0.014070 
#    y 0.000000 1.835590 0.000000 
#    z -0.014070 0.000000 1.952450 
# 
# From -- ./inp_files/302640.got.cif
#   From: 2010.05.17/outbox.cif.g08.bks.cpg/sg12_152_cif.got.tgz:302640.got - 2010.06.03 13:09:07.
