data_PCOD9168090
_publ_section_title
;
Structure prediction by ZEFSAII (Michael W. Deem and Ramdas Pophale) SiO2 
 PCOD9168090
Probable space group: P 21/M
;
_chemical_formula_sum "Si O2"
_cell_formula_units_Z 32
_cell_length_a 15.000000
_cell_length_b 9.000000
_cell_length_c 24.000000
_cell_angle_alpha 90.000000
_cell_angle_beta 150.000000
_cell_angle_gamma 90.000000
_cell_volume 1620.000000
_symmetry_space_group_name_H-M "P 21/M"
_symmetry_group_IT_number 11
_symmetry_cell_setting 'monoclinic'
loop_
_space_group_symop_operation_xyz
x,y,z
-x,1/2+y,-z
-x,-y,-z
x,1/2-y,z
loop_
_atom_site_type_symbol
_atom_site_label
_atom_site_fract_x
_atom_site_fract_y
_atom_site_fract_z
Si Si1 0.971771 0.083066 0.042137
Si Si2 0.372271 0.573892 0.386898
Si Si3 0.339004 0.428602 0.634484
Si Si4 0.386636 0.418231 0.283800
Si Si5 0.326000 0.429771 0.756155
Si Si6 0.950557 0.070067 0.606408
Si Si7 0.997777 0.928542 0.236597
Si Si8 0.279275 0.569329 0.993352
O O1 0.908089 0.250000 0.995609
O O2 0.838361 0.020680 0.016384
O O3 0.174185 0.089155 0.173078
O O4 0.000000 0.000000 0.000000
O O5 0.500000 0.500000 0.500000
O O6 0.382947 0.750000 0.395413
O O7 0.441005 0.514822 0.365626
O O8 0.168045 0.532775 0.290420
O O9 0.341120 0.250000 0.631322
O O10 0.532175 0.497593 0.724789
O O11 0.301729 0.471748 0.678255
O O12 0.197379 0.495592 0.513618
O O13 0.456121 0.250000 0.323323
O O14 0.332795 0.250000 0.761019
O O15 0.148062 0.474245 0.692317
O O16 0.515688 0.478081 0.885139
O O17 0.932068 0.250000 0.591901
O O18 0.948060 0.031239 0.670718
O O19 0.972228 0.750000 0.221653
O O20 0.822482 0.004522 0.115613
O O21 0.272361 0.750000 0.986927
#
# Coordination Sequence:
#
# PCOD9168090 Si02
#       8
#     4   4   4   4   4   4   4   4
#     4  10  21  35  55  82 114 152 192 237 287 346
#     4  11  22  36  56  83 117 156 196 243 294 349
#     4  11  22  38  61  90 120 153 197 250 303 362
#     4  11  22  37  56  83 115 153 194 234 290 353
#     4   9  20  38  62  88 118 156 197 245 305 358
#     4  10  21  40  62  86 119 158 197 246 303 359
#     4  10  22  38  57  84 119 156 196 245 297 347
#     4  10  20  38  60  84 117 158 200 243 291 353
#
# _framework density 19.753086
#
# number of rings (size 3 to 8) (size 9 to 14) (size 15 to 20)
#    0.000    1.750    1.250    3.000    0.000    5.000 
#    0.000    2.500    0.000    0.000    0.000    0.000 
#    0.000    0.000    0.000    0.000    0.000    0.000 
#
# Total GULP energy -178550.333731 kJ/mol
# GULP energy per Si atom -5579.697929 kJ/mol
# Density = 1.970813 g / cm^3
# Si number density = 19.753086 Si / 1000 Ang^3
#
#
#
# Elastic Constant Matrix: (Units=GPa)
#
#
# Indices 1 2 3 4 5 6 
#
# 1 67.7729 27.8363 4.1554 0.0000 -6.9820 0.0000
# 2 27.8363 42.1409 30.5456 0.0000 -3.9312 0.0000
# 3 4.1554 30.5456 89.8073 0.0000 -3.5035 0.0000
# 4 0.0000 0.0000 0.0000 28.7912 0.0000 -0.6341
# 5 -6.9820 -3.9312 -3.5035 0.0000 30.2503 0.0000
# 6 0.0000 0.0000 0.0000 -0.6341 0.0000 21.1074
#
#
#
# Elastic Compliance Matrix: (Units=1/GPa)
#
#
# Indices 1 2 3 4 5 6 
#
# 1 0.022271 -0.018241 0.005306 0.000000 0.003384 0.000000
# 2 -0.018241 0.046684 -0.015030 0.000000 0.000116 0.000000
# 3 0.005306 -0.015030 0.016046 0.000000 0.001130 0.000000
# 4 0.000000 0.000000 0.000000 0.034756 0.000000 0.001044
# 5 0.003384 0.000116 0.001130 0.000000 0.033985 0.000000
# 6 0.000000 0.000000 0.000000 0.001044 0.000000 0.047408
#
#
# Mechanical properties :
#
#
# Convention : Reuss Voigt Hill
#
# Bulk Modulus (GPa) = 34.39967 36.08842 35.24404
# Shear Modulus (GPa) = 18.74277 25.17538 21.95908
#
# Velocity S-wave (km/s) = 3.08369 3.57389 3.33780
# Velocity P-wave (km/s) = 5.48921 5.94472 5.72150
#
# Compressibility (1/GPa) = 0.02907005
#
# Stress axis : x y z
#
# Youngs Moduli (GPa) = 44.90212 21.42044 62.32256
#
# Poissons Ratio (x) = 0.39073 -0.33067
# Poissons Ratio (y) = 0.81907 0.93670
# Poissons Ratio (z) = -0.23824 0.32195
#
# Static dielectric constant tensor:
#      x y z
#    x 1.749080 0.000000 -0.006190 
#    y 0.000000 1.681770 0.000000 
#    z -0.006190 0.000000 1.718020 
# 
# From -- ./inp_files/69154.got.cif
#   From: 2010.05.17/outbox.ucp.g08.bks.cvg/sg11_35_cif.got.tgz:69154.got - 2010.06.11 11:38:39.
