data_PCOD9168191
_publ_section_title
;
Structure prediction by ZEFSAII (Michael W. Deem and Ramdas Pophale) SiO2 
 PCOD9168191
Probable space group: P 21/M
;
_chemical_formula_sum "Si O2"
_cell_formula_units_Z 28
_cell_length_a 12.000000
_cell_length_b 9.000000
_cell_length_c 15.000000
_cell_angle_alpha 90.000000
_cell_angle_beta 60.000000
_cell_angle_gamma 90.000000
_cell_volume 1402.961154
_symmetry_space_group_name_H-M "P 21/M"
_symmetry_group_IT_number 11
_symmetry_cell_setting 'monoclinic'
loop_
_space_group_symop_operation_xyz
x,y,z
-x,1/2+y,-z
-x,-y,-z
x,1/2-y,z
loop_
_atom_site_type_symbol
_atom_site_label
_atom_site_fract_x
_atom_site_fract_y
_atom_site_fract_z
Si Si1 0.927767 0.920374 0.773949
Si Si2 0.112358 0.573849 0.396721
Si Si3 0.509080 0.922257 0.130035
Si Si4 0.561736 0.423066 0.291440
Si Si5 0.298792 0.919621 0.075502
Si Si6 0.785453 0.075364 0.329552
Si Si7 0.714863 0.579609 0.539100
O O1 0.913829 0.750000 0.750509
O O2 0.068011 0.939518 0.758486
O O3 0.910150 0.022673 0.694708
O O4 0.817822 0.968138 0.884932
O O5 0.110179 0.750000 0.404588
O O6 0.239250 0.509755 0.392810
O O7 0.000000 0.500000 0.500000
O O8 0.546680 0.750000 0.102049
O O9 0.366918 0.934488 0.144896
O O10 0.527669 0.973804 0.222597
O O11 0.594823 0.033439 0.037607
O O12 0.579118 0.250000 0.255668
O O13 0.685784 0.475321 0.295308
O O14 0.438702 0.424618 0.404982
O O15 0.258237 0.750000 0.080234
O O16 0.758892 0.250000 0.356919
O O17 0.771322 0.990710 0.427806
O O18 0.756896 0.750000 0.532224
#
# Coordination Sequence:
#
# PCOD9168191 Si02
#       7
#     4   4   4   4   4   4   4
#     4  11  22  37  58  85 117 153 191 234 285 340
#     4  12  23  36  55  81 115 150 189 234 284 338
#     4  10  21  38  61  89 115 144 185 236 289 341
#     4  10  22  39  58  83 114 152 195 238 286 339
#     4  10  21  38  62  89 117 148 182 231 289 346
#     4  10  22  39  57  79 115 157 195 238 283 333
#     4  11  22  36  58  85 114 151 195 240 288 342
#
# _framework density 19.957787
#
# number of rings (size 3 to 8) (size 9 to 14) (size 15 to 20)
#    0.000    1.429    1.429    4.286    0.000    6.286 
#    0.000    0.714    0.000    0.000    0.000    0.000 
#    0.000    0.000    0.000    0.000    0.000    0.000 
#
# Total GULP energy -156308.525793 kJ/mol
# GULP energy per Si atom -5582.447350 kJ/mol
# Density = 1.991236 g / cm^3
# Si number density = 19.957787 Si / 1000 Ang^3
#
#
#
# Elastic Constant Matrix: (Units=GPa)
#
#
# Indices 1 2 3 4 5 6 
#
# 1 91.4484 52.0776 21.8836 0.0000 -9.8207 0.0000
# 2 52.0776 64.9835 4.0045 0.0000 -5.6447 0.0000
# 3 21.8836 4.0045 25.1331 0.0000 -7.5200 0.0000
# 4 0.0000 0.0000 0.0000 23.4030 0.0000 1.1701
# 5 -9.8207 -5.6447 -7.5200 0.0000 9.9341 0.0000
# 6 0.0000 0.0000 0.0000 1.1701 0.0000 21.4673
#
#
#
# Elastic Compliance Matrix: (Units=1/GPa)
#
#
# Indices 1 2 3 4 5 6 
#
# 1 0.028011 -0.021175 -0.021112 0.000000 -0.000322 0.000000
# 2 -0.021175 0.032196 0.016183 0.000000 0.009611 0.000000
# 3 -0.021112 0.016183 0.067354 0.000000 0.039310 0.000000
# 4 0.000000 0.000000 0.000000 0.042846 0.000000 -0.002335
# 5 -0.000322 0.009611 0.039310 0.000000 0.135564 0.000000
# 6 0.000000 0.000000 0.000000 -0.002335 0.000000 0.046710
#
#
# Mechanical properties :
#
#
# Convention : Reuss Voigt Hill
#
# Bulk Modulus (GPa) = 13.27085 37.49962 25.38524
# Shear Modulus (GPa) = 11.62771 17.86752 14.74761
#
# Velocity S-wave (km/s) = 2.41636 2.99534 2.72129
# Velocity P-wave (km/s) = 3.80118 5.54915 4.75615
#
# Compressibility (1/GPa) = 0.07535312
#
# Stress axis : x y z
#
# Youngs Moduli (GPa) = 35.69963 31.05985 14.84690
#
# Poissons Ratio (x) = 0.65770 0.31345
# Poissons Ratio (y) = 0.75595 -0.24027
# Poissons Ratio (z) = 0.75370 -0.50265
#
# Static dielectric constant tensor:
#      x y z
#    x 1.719890 0.000000 -0.044260 
#    y 0.000000 1.676880 0.000000 
#    z -0.044260 0.000000 1.697910 
# 
# From -- ./inp_files/37431.got.cif
#   From: 2010.05.17/outbox.ucp.g08.bks.cvg/sg11_19_cif.got.tgz:37431.got - 2010.06.11 11:38:39.
