data_PCOD9168579
_publ_section_title
;
Structure prediction by ZEFSAII (Michael W. Deem and Ramdas Pophale) SiO2 
 PCOD9168579
Probable space group: C 2/M
;
_chemical_formula_sum "Si O2"
_cell_formula_units_Z 56
_cell_length_a 5.273905
_cell_length_b 25.082869
_cell_length_c 25.955467
_cell_angle_alpha 90.000000
_cell_angle_beta 59.614950
_cell_angle_gamma 90.000000
_cell_volume 2961.902855
_symmetry_space_group_name_H-M "C 2/M"
_symmetry_group_IT_number 12
_symmetry_cell_setting 'monoclinic'
loop_
_space_group_symop_operation_xyz
x,y,z
-x,y,-z
-x,-y,-z
x,-y,z
1/2+x,1/2+y,z
1/2-x,1/2+y,-z
1/2-x,1/2-y,-z
1/2+x,1/2-y,z
loop_
_atom_site_type_symbol
_atom_site_label
_atom_site_fract_x
_atom_site_fract_y
_atom_site_fract_z
Si Si1 0.850847 0.216372 0.256939
Si Si2 0.408060 0.312962 0.068423
Si Si3 0.419514 0.729865 0.565056
Si Si4 0.839551 0.612931 0.663406
Si Si5 0.466601 0.386823 0.414540
Si Si6 0.215537 0.692700 0.881911
Si Si7 0.247266 0.000000 0.658838
Si Si8 0.946344 0.000000 0.579688
O O1 0.047440 0.257150 0.269802
O O2 0.797463 0.162088 0.292918
O O3 0.043737 0.203597 0.186251
O O4 0.639326 0.336661 0.084748
O O5 0.398719 0.250266 0.085500
O O6 0.077886 0.333765 0.109792
O O7 0.500000 0.318059 0.000000
O O8 0.500000 0.751966 0.500000
O O9 0.568412 0.762840 0.595889
O O10 0.533231 0.669537 0.556591
O O11 0.754293 0.616584 0.611207
O O12 0.712184 0.555240 0.692029
O O13 0.189517 0.610846 0.637256
O O14 0.419126 0.442528 0.449997
O O15 0.028791 0.000000 0.632336
O O16 0.595258 0.000000 0.605333
#
# Coordination Sequence:
#
# PCOD9168579 Si02
#       8
#     8   8   8   8   8   8   4   4
#     4  12  21  32  42  63  98 127 153 174 235 281
#     4  10  16  25  41  56  73 116 162 181 207 256
#     4  10  21  35  52  71  98 131 156 188 232 273
#     4  10  21  32  52  70  91 127 154 196 225 272
#     4  10  19  35  51  73  93 116 159 194 232 272
#     4  10  16  27  36  53  83 115 143 181 219 258
#     4   8  16  34  48  68  89 114 163 190 230 262
#     4   8  16  30  53  70  92 116 140 198 243 268
#
# _framework density 18.906763000000002
#
# number of rings (size 3 to 8) (size 9 to 14) (size 15 to 20)
#    0.000    2.000    2.857    3.857    0.000    3.429 
#    0.000    0.357    0.000    0.000    0.000    9.000 
#    0.000    0.000    0.000    7.071    0.000    0.000 
#
# Total GULP energy -156060.682000 kJ/mol
# GULP energy per Si atom -5573.595786 kJ/mol
# Density = 1.886373 g / cm^3
# Si number density = 18.906763 Si / 1000 Ang^3
#
#
#
# Elastic Constant Matrix: (Units=GPa)
#
#
# Indices 1 2 3 4 5 6 
#
# 1 109.3337 5.2799 -3.8929 0.0000 17.2743 0.0000
# 2 5.2799 112.3859 17.7606 0.0000 6.8733 0.0000
# 3 -3.8929 17.7606 38.6671 0.0000 10.3332 0.0000
# 4 0.0000 0.0000 0.0000 -16.7058 0.0000 -2.5184
# 5 17.2743 6.8733 10.3332 0.0000 21.7674 0.0000
# 6 0.0000 0.0000 0.0000 -2.5184 0.0000 20.1356
#
#
#
# Elastic Compliance Matrix: (Units=1/GPa)
#
#
# Indices 1 2 3 4 5 6 
#
# 1 0.010983 -0.000530 0.004162 0.000000 -0.010524 0.000000
# 2 -0.000530 0.009642 -0.004330 0.000000 -0.000568 0.000000
# 3 0.004162 -0.004330 0.032969 0.000000 -0.017586 0.000000
# 4 0.000000 0.000000 0.000000 -0.058752 0.000000 -0.007348
# 5 -0.010524 -0.000568 -0.017586 0.000000 0.062820 0.000000
# 6 0.000000 0.000000 0.000000 -0.007348 0.000000 0.048744
#
#
# Mechanical properties :
#
#
# Convention : Reuss Voigt Hill
#
# Bulk Modulus (GPa) = 19.15831 33.18688 26.17260
# Shear Modulus (GPa) = 39.93541 21.12206 30.52873
#
# Velocity S-wave (km/s) = 4.60088 3.34603 4.02269
# Velocity P-wave (km/s) = 6.19510 5.70254 5.95391
#
# Compressibility (1/GPa) = 0.05219667
#
# Stress axis : x y z
#
# Youngs Moduli (GPa) = 91.05129 103.71420 30.33125
#
# Poissons Ratio (x) = 0.05497 -0.12622
# Poissons Ratio (y) = 0.04826 0.13134
# Poissons Ratio (z) = -0.37891 0.44910
#
# Static dielectric constant tensor:
#      x y z
#    x 1.819300 0.000000 -0.024670 
#    y 0.000000 1.721390 0.000000 
#    z -0.024670 0.000000 1.665780 
# 
# From -- ./inp_files/331259.got.cif
#   From: 2010.05.17/outbox.cif.g08.bks.cpg/sg12_166_cif.got.tgz:331259.got - 2010.06.03 13:09:07.
