data_PCOD9168268
_publ_section_title
;
Structure prediction by ZEFSAII (Michael W. Deem and Ramdas Pophale) SiO2 
 PCOD9168268
Probable space group: P 21/M
;
_chemical_formula_sum "Si O2"
_cell_formula_units_Z 32
_cell_length_a 27.000000
_cell_length_b 9.000000
_cell_length_c 21.000000
_cell_angle_alpha 90.000000
_cell_angle_beta 20.000000
_cell_angle_gamma 90.000000
_cell_volume 1745.328791
_symmetry_space_group_name_H-M "P 21/M"
_symmetry_group_IT_number 11
_symmetry_cell_setting 'monoclinic'
loop_
_space_group_symop_operation_xyz
x,y,z
-x,1/2+y,-z
-x,-y,-z
x,1/2-y,z
loop_
_atom_site_type_symbol
_atom_site_label
_atom_site_fract_x
_atom_site_fract_y
_atom_site_fract_z
Si Si1 0.974298 0.428465 0.334875
Si Si2 0.263946 0.927192 0.947182
Si Si3 0.733862 0.430070 0.529935
Si Si4 0.968332 0.081119 0.142196
Si Si5 0.399598 0.430415 0.909971
Si Si6 0.202035 0.918140 0.785191
Si Si7 0.909770 0.572227 0.665438
Si Si8 0.519540 0.572131 0.408187
O O1 0.991913 0.250000 0.307909
O O2 0.010771 0.467766 0.363864
O O3 0.817590 0.466374 0.494726
O O4 0.101698 0.508562 0.142252
O O5 0.261927 0.750000 0.952618
O O6 0.348303 0.995299 0.906264
O O7 0.352782 0.989380 0.781096
O O8 0.728315 0.250000 0.531232
O O9 0.848377 0.481164 0.336684
O O10 0.564802 0.477040 0.728201
O O11 0.998717 0.250000 0.126137
O O12 0.890934 0.082505 0.166821
O O13 0.120034 0.004623 0.940534
O O14 0.399541 0.250000 0.902706
O O15 0.262260 0.467189 0.122137
O O16 0.216288 0.750000 0.791694
O O17 0.361748 0.963158 0.569401
O O18 0.915934 0.750000 0.651973
O O19 0.000000 0.500000 0.500000
O O20 0.500000 0.500000 0.500000
O O21 0.542798 0.750000 0.380282
#
# Coordination Sequence:
#
# PCOD9168268 Si02
#       8
#     4   4   4   4   4   4   4   4
#     4   9  19  36  57  83 110 143 183 225 274 326
#     4  11  22  36  54  78 108 144 184 228 275 328
#     4   9  17  32  57  82 104 134 180 228 273 323
#     4   9  17  30  51  74  95 127 166 211 266 323
#     4   9  18  36  60  84 108 141 182 222 266 322
#     4   9  19  34  48  67  97 130 169 217 267 318
#     4   9  18  33  56  82 112 148 183 218 261 316
#     4  11  23  37  52  71 100 137 182 232 279 325
#
# _framework density 18.334654
#
# number of rings (size 3 to 8) (size 9 to 14) (size 15 to 20)
#    0.000    2.500    0.000    3.000    1.750    5.000 
#    0.000    4.375    0.000    0.000    0.000    0.000 
#    0.000    0.000    0.000    0.000    0.000    0.000 
#
# Total GULP energy -178228.211098 kJ/mol
# GULP energy per Si atom -5569.631597 kJ/mol
# Density = 1.829292 g / cm^3
# Si number density = 18.334654 Si / 1000 Ang^3
#
#
#
# Elastic Constant Matrix: (Units=GPa)
#
#
# Indices 1 2 3 4 5 6 
#
# 1 60.8114 19.5929 63.0315 0.0000 -4.5766 0.0000
# 2 19.5929 24.8350 32.6350 0.0000 -0.7943 0.0000
# 3 63.0315 32.6350 127.9079 0.0000 4.5535 0.0000
# 4 0.0000 0.0000 0.0000 28.8121 0.0000 7.2058
# 5 -4.5766 -0.7943 4.5535 0.0000 38.7678 0.0000
# 6 0.0000 0.0000 0.0000 7.2058 0.0000 16.1930
#
#
#
# Elastic Compliance Matrix: (Units=1/GPa)
#
#
# Indices 1 2 3 4 5 6 
#
# 1 0.035798 -0.006905 -0.016092 0.000000 0.005975 0.000000
# 2 -0.006905 0.062273 -0.012555 0.000000 0.001935 0.000000
# 3 -0.016092 -0.012555 0.019108 0.000000 -0.004401 0.000000
# 4 0.000000 0.000000 0.000000 0.039054 0.000000 -0.017379
# 5 0.005975 0.001935 -0.004401 0.000000 0.027056 0.000000
# 6 0.000000 0.000000 0.000000 -0.017379 0.000000 0.069489
#
#
# Mechanical properties :
#
#
# Convention : Reuss Voigt Hill
#
# Bulk Modulus (GPa) = 21.70337 49.34147 35.52242
# Shear Modulus (GPa) = 14.73885 23.30759 19.02322
#
# Velocity S-wave (km/s) = 2.83835 3.56930 3.22460
# Velocity P-wave (km/s) = 4.75444 6.62997 5.76894
#
# Compressibility (1/GPa) = 0.04607580
#
# Stress axis : x y z
#
# Youngs Moduli (GPa) = 27.93467 16.05830 52.33440
#
# Poissons Ratio (x) = 0.11088 0.84215
# Poissons Ratio (y) = 0.19289 0.65705
# Poissons Ratio (z) = 0.44952 0.20161
#
# Static dielectric constant tensor:
#      x y z
#    x 1.765080 0.000000 -0.113540 
#    y 0.000000 1.630570 0.000000 
#    z -0.113540 0.000000 1.726720 
# 
# From -- ./inp_files/67047.got.cif
#   From: 2010.05.17/outbox.ucp.g08.bks.cvg/sg11_34_cif.got.tgz:67047.got - 2010.06.11 11:38:39.
