data_PCOD9168843
_publ_section_title
;
Structure prediction by ZEFSAII (Michael W. Deem and Ramdas Pophale) SiO2 
 PCOD9168843
Probable space group: C 2/M
;
_chemical_formula_sum "Si O2"
_cell_formula_units_Z 56
_cell_length_a 20.620573
_cell_length_b 23.034773
_cell_length_c 6.273840
_cell_angle_alpha 90.000000
_cell_angle_beta 74.406708
_cell_angle_gamma 90.000000
_cell_volume 2870.330418
_symmetry_space_group_name_H-M "C 2/M"
_symmetry_group_IT_number 12
_symmetry_cell_setting 'monoclinic'
loop_
_space_group_symop_operation_xyz
x,y,z
-x,y,-z
-x,-y,-z
x,-y,z
1/2+x,1/2+y,z
1/2-x,1/2+y,-z
1/2-x,1/2-y,-z
1/2+x,1/2-y,z
loop_
_atom_site_type_symbol
_atom_site_label
_atom_site_fract_x
_atom_site_fract_y
_atom_site_fract_z
Si Si1 0.179420 0.330086 0.041384
Si Si2 0.728826 0.566495 0.123626
Si Si3 0.638654 0.366066 0.535501
Si Si4 0.302519 0.280656 0.181839
Si Si5 0.905124 0.065775 0.035928
Si Si6 0.475439 0.194991 0.772461
Si Si7 0.931145 0.179092 0.791348
O O1 0.229009 0.299688 0.169110
O O2 0.101745 0.326093 0.165236
O O3 0.207507 0.394484 0.991010
O O4 0.190899 0.288751 0.823968
O O5 0.745381 0.500000 0.155622
O O6 0.691835 0.598653 0.349261
O O7 0.671154 0.567421 0.992317
O O8 0.675936 0.315576 0.631204
O O9 0.603276 0.412772 0.717559
O O10 0.583963 0.334881 0.438216
O O11 0.358829 0.301657 0.959299
O O12 0.929055 0.000000 0.986622
O O13 0.945910 0.116595 0.881410
O O14 0.500000 0.181035 0.500000
O O15 0.477470 0.265378 0.782775
O O16 0.500000 0.177105 0.000000
#
# Coordination Sequence:
#
# PCOD9168843 Si02
#       7
#     8   8   8   8   8   8   8
#     4  10  19  38  56  84 117 151 194 241 304 355
#     4  10  19  32  50  85 126 154 185 227 290 367
#     4  10  16  29  53  87 120 156 180 227 294 372
#     4   9  18  32  53  88 115 143 185 238 310 363
#     4   9  17  30  50  83 124 154 184 225 289 361
#     4  11  27  44  62  84 114 157 206 255 299 348
#     4   9  19  35  56  82 117 152 188 239 303 354
#
# _framework density 19.509948999999999
#
# number of rings (size 3 to 8) (size 9 to 14) (size 15 to 20)
#    0.000    2.286    4.286    0.429    6.000    2.286 
#    0.000    0.000    0.000    1.714    0.000    0.000 
#    0.000    0.000    0.000    0.000    0.000    0.000 
#
# Total GULP energy -155986.195425 kJ/mol
# GULP energy per Si atom -5570.935551 kJ/mol
# Density = 1.946554 g / cm^3
# Si number density = 19.509949 Si / 1000 Ang^3
#
#
#
# Elastic Constant Matrix: (Units=GPa)
#
#
# Indices 1 2 3 4 5 6 
#
# 1 95.2209 29.6121 41.6489 0.0000 -6.9188 0.0000
# 2 29.6121 97.3336 15.8004 0.0000 -0.3710 0.0000
# 3 41.6489 15.8004 75.2141 0.0000 3.0643 0.0000
# 4 0.0000 0.0000 0.0000 8.8812 0.0000 -3.4545
# 5 -6.9188 -0.3710 3.0643 0.0000 25.4743 0.0000
# 6 0.0000 0.0000 0.0000 -3.4545 0.0000 18.0123
#
#
#
# Elastic Compliance Matrix: (Units=1/GPa)
#
#
# Indices 1 2 3 4 5 6 
#
# 1 0.015444 -0.003372 -0.008052 0.000000 0.005114 0.000000
# 2 -0.003372 0.011377 -0.000495 0.000000 -0.000691 0.000000
# 3 -0.008052 -0.000495 0.018036 0.000000 -0.004364 0.000000
# 4 0.000000 0.000000 0.000000 0.121674 0.000000 0.023335
# 5 0.005114 -0.000691 -0.004364 0.000000 0.041159 0.000000
# 6 0.000000 0.000000 0.000000 0.023335 0.000000 0.059993
#
#
# Mechanical properties :
#
#
# Convention : Reuss Voigt Hill
#
# Bulk Modulus (GPa) = 47.57399 49.09907 48.33653
# Shear Modulus (GPa) = 16.74890 22.52071 19.63480
#
# Velocity S-wave (km/s) = 2.93316 3.40121 3.17582
# Velocity P-wave (km/s) = 5.99238 6.37535 6.18683
#
# Compressibility (1/GPa) = 0.02101989
#
# Stress axis : x y z
#
# Youngs Moduli (GPa) = 64.75032 87.89282 55.44550
#
# Poissons Ratio (x) = 0.29637 0.44644
# Poissons Ratio (y) = 0.21834 0.02743
# Poissons Ratio (z) = 0.52136 0.04349
#
# Static dielectric constant tensor:
#      x y z
#    x 1.707920 0.000000 0.006440 
#    y 0.000000 1.687720 0.000000 
#    z 0.006440 0.000000 1.768960 
# 
# From -- ./inp_files/21629.got.cif
#   From: 2010.05.17/outbox.cif.g08.bks.cpg/sg12_11_cif.got.tgz:21629.got - 2010.06.03 13:09:07.
