data_PCOD9168842
_publ_section_title
;
Structure prediction by ZEFSAII (Michael W. Deem and Ramdas Pophale) SiO2 
 PCOD9168842
Probable space group: C 2/M
;
_chemical_formula_sum "Si O2"
_cell_formula_units_Z 56
_cell_length_a 18.295705
_cell_length_b 22.084953
_cell_length_c 14.205792
_cell_angle_alpha 90.000000
_cell_angle_beta 153.023608
_cell_angle_gamma 90.000000
_cell_volume 2603.793062
_symmetry_space_group_name_H-M "C 2/M"
_symmetry_group_IT_number 12
_symmetry_cell_setting 'monoclinic'
loop_
_space_group_symop_operation_xyz
x,y,z
-x,y,-z
-x,-y,-z
x,-y,z
1/2+x,1/2+y,z
1/2-x,1/2+y,-z
1/2-x,1/2-y,-z
1/2+x,1/2-y,z
loop_
_atom_site_type_symbol
_atom_site_label
_atom_site_fract_x
_atom_site_fract_y
_atom_site_fract_z
Si Si1 0.306713 0.694497 0.756934
Si Si2 0.797502 0.929636 0.018093
Si Si3 0.844119 0.753943 0.232896
Si Si4 0.312705 0.567059 0.811508
Si Si5 0.966535 0.119509 0.562298
Si Si6 0.139148 0.680400 0.240963
Si Si7 0.063766 0.673606 0.816756
O O1 0.212494 0.723862 0.736233
O O2 0.248849 0.625036 0.680059
O O3 0.304718 0.749663 0.681119
O O4 0.500000 0.687808 0.000000
O O5 0.959713 0.913997 0.262452
O O6 0.760334 0.000000 0.987145
O O7 0.806326 0.917774 0.915951
O O8 0.665766 0.886118 0.912950
O O9 0.954113 0.706131 0.303655
O O10 0.937207 0.817145 0.338359
O O11 0.673823 0.774149 0.992246
O O12 0.237593 0.500000 0.710177
O O13 0.500000 0.561086 0.000000
O O14 0.783181 0.138548 0.369391
O O15 0.000000 0.087499 0.500000
O O16 0.073549 0.659933 0.266425
O O17 0.000000 0.679559 0.000000
#
# Coordination Sequence:
#
# PCOD9168842 Si02
#       7
#     8   8   8   8   8   8   8
#     4  10  16  29  53  81 112 150 184 232 285 342
#     4  10  21  38  60  85 116 157 201 240 283 346
#     4  10  18  31  52  80 111 146 181 235 289 343
#     4   9  18  32  56  89 117 150 197 236 277 344
#     4  11  22  35  56  82 120 153 193 245 296 343
#     4  11  20  35  54  82 113 155 192 243 299 351
#     4  10  19  33  54  80 113 145 192 234 288 348
#
# _framework density 21.507086000000001
#
# number of rings (size 3 to 8) (size 9 to 14) (size 15 to 20)
#    0.000    1.857    5.714    0.857    0.000    0.857 
#    0.000    0.714    0.000    1.714    0.000    3.000 
#    0.000    0.429    0.000    0.000    0.000    0.000 
#
# Total GULP energy -156157.828734 kJ/mol
# GULP energy per Si atom -5577.065312 kJ/mol
# Density = 2.145814 g / cm^3
# Si number density = 21.507086 Si / 1000 Ang^3
#
#
#
# Elastic Constant Matrix: (Units=GPa)
#
#
# Indices 1 2 3 4 5 6 
#
# 1 145.1512 39.4759 31.9311 0.0000 21.9923 0.0000
# 2 39.4759 107.8939 11.5594 0.0000 -5.1846 0.0000
# 3 31.9311 11.5594 45.5500 0.0000 -0.3075 0.0000
# 4 0.0000 0.0000 0.0000 15.3715 0.0000 -8.4136
# 5 21.9923 -5.1846 -0.3075 0.0000 22.5630 0.0000
# 6 0.0000 0.0000 0.0000 -8.4136 0.0000 30.8170
#
#
#
# Elastic Compliance Matrix: (Units=1/GPa)
#
#
# Indices 1 2 3 4 5 6 
#
# 1 0.011345 -0.003978 -0.007025 0.000000 -0.012068 0.000000
# 2 -0.003978 0.011028 0.000033 0.000000 0.006412 0.000000
# 3 -0.007025 0.000033 0.026919 0.000000 0.007222 0.000000
# 4 0.000000 0.000000 0.000000 0.076485 0.000000 0.020882
# 5 -0.012068 0.006412 0.007222 0.000000 0.057655 0.000000
# 6 0.000000 0.000000 0.000000 0.020882 0.000000 0.038151
#
#
# Mechanical properties :
#
#
# Convention : Reuss Voigt Hill
#
# Bulk Modulus (GPa) = 36.55954 51.61422 44.08688
# Shear Modulus (GPa) = 19.79099 28.12555 23.95827
#
# Velocity S-wave (km/s) = 3.03678 3.62018 3.34124
# Velocity P-wave (km/s) = 5.41589 6.44400 5.95218
#
# Compressibility (1/GPa) = 0.02735264
#
# Stress axis : x y z
#
# Youngs Moduli (GPa) = 88.14348 90.67465 37.14878
#
# Poissons Ratio (x) = 0.36072 0.26097
# Poissons Ratio (y) = 0.35065 -0.00124
# Poissons Ratio (z) = 0.61921 -0.00302
#
# Static dielectric constant tensor:
#      x y z
#    x 1.824330 0.000000 -0.071800 
#    y 0.000000 1.776850 0.000000 
#    z -0.071800 0.000000 1.948690 
# 
# From -- ./inp_files/227649.got.cif
#   From: 2010.05.17/outbox.cif.g08.bks.cpg/sg12_114_cif.got.tgz:227649.got - 2010.06.03 13:09:07.
