data_PCOD9168704
_publ_section_title
;
Structure prediction by ZEFSAII (Michael W. Deem and Ramdas Pophale) SiO2 
 PCOD9168704
Probable space group: C 2/M
;
_chemical_formula_sum "Si O2"
_cell_formula_units_Z 56
_cell_length_a 26.107804
_cell_length_b 12.221698
_cell_length_c 22.761099
_cell_angle_alpha 90.000000
_cell_angle_beta 149.360572
_cell_angle_gamma 90.000000
_cell_volume 3701.290598
_symmetry_space_group_name_H-M "C 2/M"
_symmetry_group_IT_number 12
_symmetry_cell_setting 'monoclinic'
loop_
_space_group_symop_operation_xyz
x,y,z
-x,y,-z
-x,-y,-z
x,-y,z
1/2+x,1/2+y,z
1/2-x,1/2+y,-z
1/2-x,1/2-y,-z
1/2+x,1/2-y,z
loop_
_atom_site_type_symbol
_atom_site_label
_atom_site_fract_x
_atom_site_fract_y
_atom_site_fract_z
Si Si1 0.647250 0.260036 0.325393
Si Si2 0.145711 0.371407 0.439626
Si Si3 0.567039 0.787158 0.484501
Si Si4 0.752466 0.130023 0.323392
Si Si5 0.658304 0.704209 0.142810
Si Si6 0.371739 0.877261 0.334353
Si Si7 0.980998 0.873652 0.894035
O O1 0.737645 0.340755 0.433227
O O2 0.614807 0.193907 0.350810
O O3 0.694548 0.177603 0.323427
O O4 0.560261 0.327680 0.207606
O O5 0.133832 0.500000 0.420082
O O6 0.087607 0.330837 0.440008
O O7 0.633938 0.678401 0.560120
O O8 0.448709 0.790614 0.381786
O O9 0.611492 0.867221 0.578807
O O10 0.697418 0.184844 0.212580
O O11 0.750881 0.000000 0.320159
O O12 0.755774 0.649252 0.210647
O O13 0.611597 0.635198 0.151063
O O14 0.568344 0.702680 0.007221
O O15 0.396851 0.000000 0.339606
O O16 0.013637 0.000000 0.923635
#
# Coordination Sequence:
#
# PCOD9168704 Si02
#       7
#     8   8   8   8   8   8   8
#     4   9  19  28  43  66  88 114 151 179 216 268
#     4  10  17  29  44  63  88 116 144 182 220 258
#     4   9  18  27  43  66  88 114 149 177 216 265
#     4   9  17  31  44  62  91 121 147 183 219 258
#     4   9  18  28  45  69  90 114 149 177 218 271
#     4  10  16  27  44  69  95 114 138 182 225 262
#     4  10  17  30  47  68  92 115 140 181 225 264
#
# _framework density 15.129856999999999
#
# number of rings (size 3 to 8) (size 9 to 14) (size 15 to 20)
#    0.000    2.571    0.000    5.143    0.000    0.000 
#    0.000   12.857    0.000    0.857    0.000    0.000 
#    0.000    0.000    0.000    0.000    0.000    0.000 
#
# Total GULP energy -155886.401319 kJ/mol
# GULP energy per Si atom -5567.371476 kJ/mol
# Density = 1.509542 g / cm^3
# Si number density = 15.129857 Si / 1000 Ang^3
#
#
#
# Elastic Constant Matrix: (Units=GPa)
#
#
# Indices 1 2 3 4 5 6 
#
# 1 69.9802 19.6595 35.7390 0.0000 -3.5566 0.0000
# 2 19.6595 68.6449 17.7501 0.0000 -0.2603 0.0000
# 3 35.7390 17.7501 73.5170 0.0000 -0.6123 0.0000
# 4 0.0000 0.0000 0.0000 11.3066 0.0000 -0.5077
# 5 -3.5566 -0.2603 -0.6123 0.0000 27.6852 0.0000
# 6 0.0000 0.0000 0.0000 -0.5077 0.0000 12.4403
#
#
#
# Elastic Compliance Matrix: (Units=1/GPa)
#
#
# Indices 1 2 3 4 5 6 
#
# 1 0.019866 -0.003401 -0.008817 0.000000 0.002325 0.000000
# 2 -0.003401 0.016120 -0.002242 0.000000 -0.000335 0.000000
# 3 -0.008817 -0.002242 0.018424 0.000000 -0.000746 0.000000
# 4 0.000000 0.000000 0.000000 0.088606 0.000000 0.003616
# 5 0.002325 -0.000335 -0.000746 0.000000 0.036399 0.000000
# 6 0.000000 0.000000 0.000000 0.003616 0.000000 0.080532
#
#
# Mechanical properties :
#
#
# Convention : Reuss Voigt Hill
#
# Bulk Modulus (GPa) = 39.22991 39.82658 39.52824
# Shear Modulus (GPa) = 16.81444 19.55264 18.18354
#
# Velocity S-wave (km/s) = 3.33730 3.59879 3.47051
# Velocity P-wave (km/s) = 6.39024 6.60671 6.49938
#
# Compressibility (1/GPa) = 0.02549075
#
# Stress axis : x y z
#
# Youngs Moduli (GPa) = 50.33661 62.03448 54.27817
#
# Poissons Ratio (x) = 0.21097 0.47858
# Poissons Ratio (y) = 0.17119 0.12167
# Poissons Ratio (z) = 0.44383 0.13906
#
# Static dielectric constant tensor:
#      x y z
#    x 1.504970 0.000000 0.009460 
#    y 0.000000 1.490820 0.000000 
#    z 0.009460 0.000000 1.518460 
# 
# From -- ./inp_files/351639.got.cif
#   From: 2010.05.17/outbox.cif.g08.bks.cpg/sg12_176_cif.got.tgz:351639.got - 2010.06.03 13:09:07.
