data_PCOD9168548
_publ_section_title
;
Structure prediction by ZEFSAII (Michael W. Deem and Ramdas Pophale) SiO2 
 PCOD9168548
Probable space group: C 2/M
;
_chemical_formula_sum "Si O2"
_cell_formula_units_Z 64
_cell_length_a 18.030443
_cell_length_b 15.836607
_cell_length_c 16.227062
_cell_angle_alpha 90.000000
_cell_angle_beta 34.105042
_cell_angle_gamma 90.000000
_cell_volume 2598.054012
_symmetry_space_group_name_H-M "C 2/M"
_symmetry_group_IT_number 12
_symmetry_cell_setting 'monoclinic'
loop_
_space_group_symop_operation_xyz
x,y,z
-x,y,-z
-x,-y,-z
x,-y,z
1/2+x,1/2+y,z
1/2-x,1/2+y,-z
1/2-x,1/2-y,-z
1/2+x,1/2-y,z
loop_
_atom_site_type_symbol
_atom_site_label
_atom_site_fract_x
_atom_site_fract_y
_atom_site_fract_z
Si Si1 0.852369 0.099408 0.408774
Si Si2 0.133306 0.101995 0.111692
Si Si3 0.242424 0.332873 0.344999
Si Si4 0.922267 0.601136 0.269922
Si Si5 0.865710 0.187324 0.650698
Si Si6 0.318264 0.405478 0.108170
Si Si7 0.346174 0.101101 0.044621
Si Si8 0.031108 0.350360 0.343488
O O1 0.814995 0.153612 0.363398
O O2 0.735571 0.109403 0.581488
O O3 0.004869 0.118846 0.285715
O O4 0.848384 0.000000 0.387791
O O5 0.264798 0.128138 0.037456
O O6 0.142947 0.000000 0.094458
O O7 0.121290 0.136110 0.029791
O O8 0.194301 0.239618 0.369855
O O9 0.326584 0.362160 0.189087
O O10 0.099694 0.380046 0.486172
O O11 0.949044 0.500000 0.258624
O O12 0.980035 0.649898 0.296480
O O13 0.002981 0.625962 0.113842
O O14 0.744959 0.137432 0.800404
O O15 0.916244 0.261951 0.666614
O O16 0.000000 0.140090 0.500000
O O17 0.369338 0.500000 0.069220
O O18 0.161243 0.406687 0.231938
O O19 0.343449 0.000000 0.055857
#
# Coordination Sequence:
#
# PCOD9168548 Si02
#       8
#     8   8   8   8   8   8   8   8
#     4   9  17  30  49  74 106 142 167 190 236 302
#     4   9  18  30  45  72 107 134 164 202 247 298
#     4   9  18  29  43  68 100 137 173 200 237 289
#     4   9  16  28  48  74 100 128 166 207 242 288
#     4   9  19  33  49  73  98 130 164 212 255 299
#     4  10  16  24  40  67 101 134 169 201 232 284
#     4  10  19  33  53  78  99 123 164 217 260 294
#     4   9  16  28  44  67  96 129 164 203 246 286
#
# _framework density 24.633823
#
# number of rings (size 3 to 8) (size 9 to 14) (size 15 to 20)
#    0.000    2.750    1.250    1.875    0.000    3.250 
#    0.000    1.875    0.000    6.750   13.000    0.000 
#    0.000    5.000    0.000    2.750    0.000    0.000 
#
# Total GULP energy -178657.088572 kJ/mol
# GULP energy per Si atom -5583.034018 kJ/mol
# Density = 2.457776 g / cm^3
# Si number density = 24.633823 Si / 1000 Ang^3
#
#
#
# Elastic Constant Matrix: (Units=GPa)
#
#
# Indices 1 2 3 4 5 6 
#
# 1 19.1499 27.1371 13.8992 0.0000 -4.4586 -0.0001
# 2 27.1371 35.9240 23.3511 0.0000 9.4860 0.0000
# 3 13.8992 23.3511 193.3698 0.0001 -4.5064 -0.0001
# 4 0.0000 0.0000 0.0001 18.2626 -0.0001 14.8595
# 5 -4.4586 9.4860 -4.5064 -0.0001 22.0899 0.0001
# 6 -0.0001 0.0000 -0.0001 14.8595 0.0001 24.8032
#
#
#
# Elastic Compliance Matrix: (Units=1/GPa)
#
#
# Indices 1 2 3 4 5 6 
#
# 1 -0.113150 0.108458 -0.006613 -0.000001 -0.070762 0.000000
# 2 0.108458 -0.068907 0.001733 0.000000 0.051835 0.000000
# 3 -0.006613 0.001733 0.005415 0.000000 -0.000974 0.000000
# 4 -0.000001 0.000000 0.000000 0.106834 0.000000 -0.064004
# 5 -0.070762 0.051835 -0.000974 0.000000 0.008529 0.000000
# 6 0.000000 0.000000 0.000000 -0.064004 0.000000 0.078662
#
#
# Mechanical properties :
#
#
# Convention : Reuss Voigt Hill
#
# Bulk Modulus (GPa) = 32.77232 41.91316 37.34274
# Shear Modulus (GPa) = -27.83944 25.30155 -1.26894
#
# Velocity S-wave (km/s) = -3.36539 3.20833 -0.71850
# Velocity P-wave (km/s) = 1.32983 5.54760 3.80838
#
# Compressibility (1/GPa) = 0.03051356
#
# Stress axis : x y z
#
# Youngs Moduli (GPa) = -8.83785 -14.51238 184.68006
#
# Poissons Ratio (x) = 1.57398 1.22133
# Poissons Ratio (y) = 0.95853 -0.32010
# Poissons Ratio (z) = -0.05845 0.02515
#
# Static dielectric constant tensor:
#      x y z
#    x 1.957470 0.000000 0.018020 
#    y 0.000000 1.935880 0.000000 
#    z 0.018020 0.000000 2.011060 
# 
# From -- ./inp_files/285191.got.cif
#   From: 2010.05.17/outbox.cif.g08.bks.cpg/sg12_143_cif.got.tgz:285191.got - 2010.06.03 13:09:07.
