data_PCOD9168056
_publ_section_title
;
Structure prediction by ZEFSAII (Michael W. Deem and Ramdas Pophale) SiO2 
 PCOD9168056
Probable space group: P 21/M
;
_chemical_formula_sum "Si O2"
_cell_formula_units_Z 32
_cell_length_a 18.000000
_cell_length_b 12.000000
_cell_length_c 15.000000
_cell_angle_alpha 90.000000
_cell_angle_beta 150.000000
_cell_angle_gamma 90.000000
_cell_volume 1620.000000
_symmetry_space_group_name_H-M "P 21/M"
_symmetry_group_IT_number 11
_symmetry_cell_setting 'monoclinic'
loop_
_space_group_symop_operation_xyz
x,y,z
-x,1/2+y,-z
-x,-y,-z
x,1/2-y,z
loop_
_atom_site_type_symbol
_atom_site_label
_atom_site_fract_x
_atom_site_fract_y
_atom_site_fract_z
Si Si1 0.597644 0.120769 0.278617
Si Si2 0.274075 0.378353 0.857056
Si Si3 0.232443 0.463087 0.250352
Si Si4 0.776386 0.929490 0.404092
Si Si5 0.603352 0.920519 0.401409
Si Si6 0.076970 0.990483 0.795487
Si Si7 0.987752 0.125075 0.871646
Si Si8 0.296030 0.625506 0.160832
O O1 0.622283 0.250000 0.317765
O O2 0.589302 0.052510 0.362700
O O3 0.726712 0.059200 0.357945
O O4 0.444999 0.103745 0.064855
O O5 0.236800 0.250000 0.839376
O O6 0.253000 0.392648 0.728017
O O7 0.176612 0.456516 0.820556
O O8 0.316601 0.404533 0.420085
O O9 0.317005 0.542935 0.267132
O O10 0.120966 0.542619 0.189393
O O11 0.139262 0.383712 0.087341
O O12 0.945868 0.922983 0.611123
O O13 0.681575 0.880162 0.390264
O O14 0.440741 0.875230 0.249279
O O15 0.010545 0.083898 0.793896
O O16 0.166879 0.917022 0.960814
O O17 0.931433 0.250000 0.813697
O O18 0.263672 0.750000 0.159684
#
# Coordination Sequence:
#
# PCOD9168056 Si02
#       8
#     4   4   4   4   4   4   4   4
#     4   9  20  38  62  88 117 156 200 248 298 351
#     4  11  22  39  61  89 123 159 200 250 303 356
#     4  10  21  38  58  90 123 158 197 251 297 354
#     4  10  22  38  63  89 120 154 200 254 298 358
#     4  10  21  41  61  86 122 156 203 247 295 357
#     4  11  21  41  61  88 124 156 205 249 301 356
#     4  10  20  36  61  90 121 160 199 244 301 354
#     4  11  24  40  61  87 122 162 199 246 305 362
#
# _framework density 19.753086
#
# number of rings (size 3 to 8) (size 9 to 14) (size 15 to 20)
#    0.750    1.000    2.500    1.875    0.000    4.500 
#    0.000    1.875    0.000    0.000    0.000    0.000 
#    0.000    0.000    0.000    0.000    0.000    0.000 
#
# Total GULP energy -178263.230929 kJ/mol
# GULP energy per Si atom -5570.725967 kJ/mol
# Density = 1.970813 g / cm^3
# Si number density = 19.753086 Si / 1000 Ang^3
#
#
#
# Elastic Constant Matrix: (Units=GPa)
#
#
# Indices 1 2 3 4 5 6 
#
# 1 92.9622 -0.1628 4.1525 0.0000 -14.0335 0.0000
# 2 -0.1628 52.8948 -5.5277 0.0000 7.9772 0.0000
# 3 4.1525 -5.5277 52.6050 0.0000 -13.2863 0.0000
# 4 0.0000 0.0000 0.0000 -77.1051 0.0000 -76.1571
# 5 -14.0335 7.9772 -13.2863 0.0000 36.0036 0.0000
# 6 0.0000 0.0000 0.0000 -76.1571 0.0000 -49.3934
#
#
#
# Elastic Compliance Matrix: (Units=1/GPa)
#
#
# Indices 1 2 3 4 5 6 
#
# 1 0.011454 -0.000649 0.000211 0.000000 0.004686 0.000000
# 2 -0.000649 0.019650 0.001050 0.000000 -0.004219 0.000000
# 3 0.000211 0.001050 0.021025 0.000000 0.007608 0.000000
# 4 0.000000 0.000000 0.000000 0.024803 0.000000 -0.038243
# 5 0.004686 -0.004219 0.007608 0.000000 0.033344 0.000000
# 6 0.000000 0.000000 0.000000 -0.038243 0.000000 0.038719
#
#
# Mechanical properties :
#
#
# Convention : Reuss Voigt Hill
#
# Bulk Modulus (GPa) = 18.74316 21.70956 20.22636
# Shear Modulus (GPa) = 30.20160 -4.76564 12.71798
#
# Velocity S-wave (km/s) = 3.91443 -1.55494 2.54017
# Velocity P-wave (km/s) = 5.47171 2.79115 4.34340
#
# Compressibility (1/GPa) = 0.05335280
#
# Stress axis : x y z
#
# Youngs Moduli (GPa) = 87.30627 50.89177 47.56259
#
# Poissons Ratio (x) = 0.03305 -0.01005
# Poissons Ratio (y) = 0.05670 -0.04996
# Poissons Ratio (z) = -0.01844 -0.05346
#
# Static dielectric constant tensor:
#      x y z
#    x 1.658460 0.000000 0.036110 
#    y 0.000000 1.614360 0.000000 
#    z 0.036110 0.000000 1.735080 
# 
# From -- ./inp_files/53672.got.cif
#   From: 2010.05.17/outbox.ucp.g08.bks.cvg/sg11_27_cif.got.tgz:53672.got - 2010.06.11 11:38:39.
