data_PCOD9168219
_publ_section_title
;
Structure prediction by ZEFSAII (Michael W. Deem and Ramdas Pophale) SiO2 
 PCOD9168219
Probable space group: P 21/M
;
_chemical_formula_sum "Si O2"
_cell_formula_units_Z 32
_cell_length_a 15.000000
_cell_length_b 9.000000
_cell_length_c 15.000000
_cell_angle_alpha 90.000000
_cell_angle_beta 60.000000
_cell_angle_gamma 90.000000
_cell_volume 1753.701443
_symmetry_space_group_name_H-M "P 21/M"
_symmetry_group_IT_number 11
_symmetry_cell_setting 'monoclinic'
loop_
_space_group_symop_operation_xyz
x,y,z
-x,1/2+y,-z
-x,-y,-z
x,1/2-y,z
loop_
_atom_site_type_symbol
_atom_site_label
_atom_site_fract_x
_atom_site_fract_y
_atom_site_fract_z
Si Si1 0.018297 0.069984 0.266710
Si Si2 0.642812 0.076145 0.501441
Si Si3 0.857993 0.079010 0.498772
Si Si4 0.514133 0.069829 0.275283
Si Si5 0.701543 0.570970 0.280540
Si Si6 0.204373 0.929487 0.270669
Si Si7 0.551637 0.430265 0.883243
Si Si8 0.944427 0.929414 0.116547
O O1 0.011144 0.250000 0.264295
O O2 0.941793 0.017042 0.386257
O O3 0.130534 0.014554 0.239614
O O4 0.990004 0.998998 0.185349
O O5 0.611414 0.250000 0.502045
O O6 0.750266 0.078182 0.500724
O O7 0.562447 0.994728 0.608473
O O8 0.668174 0.995306 0.394628
O O9 0.890662 0.250000 0.497180
O O10 0.831795 0.019541 0.611121
O O11 0.508521 0.250000 0.276688
O O12 0.625643 0.009938 0.249455
O O13 0.489873 0.002825 0.188896
O O14 0.686239 0.750000 0.289601
O O15 0.820524 0.543628 0.191216
O O16 0.189885 0.750000 0.273497
O O17 0.324426 0.956155 0.187198
O O18 0.535316 0.250000 0.891240
O O19 0.500000 0.500000 0.000000
O O20 0.959074 0.750000 0.106698
O O21 0.000000 0.000000 0.000000
#
# Coordination Sequence:
#
# PCOD9168219 Si02
#       8
#     4   4   4   4   4   4   4   4
#     4  11  22  38  63  95 127 161 202 250 305 366
#     4  11  20  38  65  93 128 166 203 251 310 372
#     4   9  18  35  61  91 124 162 198 242 303 363
#     4  12  25  41  64  95 127 164 208 255 310 373
#     4  11  24  42  64  94 126 162 207 256 311 372
#     4  10  21  40  63  90 125 165 203 246 305 365
#     4  11  24  44  67  90 122 164 210 262 312 364
#     4  11  25  44  66  90 120 161 209 260 309 365
#
# _framework density 18.247119999999999
#
# number of rings (size 3 to 8) (size 9 to 14) (size 15 to 20)
#    0.000    1.250    2.500    3.750    0.000    3.500 
#    0.000    0.625    0.000    0.000    0.000    0.000 
#    0.000    0.000    0.000    0.000    0.000    0.000 
#
# Total GULP energy -178577.162374 kJ/mol
# GULP energy per Si atom -5580.536324 kJ/mol
# Density = 1.820559 g / cm^3
# Si number density = 18.247120 Si / 1000 Ang^3
#
#
#
# Elastic Constant Matrix: (Units=GPa)
#
#
# Indices 1 2 3 4 5 6 
#
# 1 139.9056 64.0034 80.3817 0.0000 5.4153 0.0000
# 2 64.0034 131.3751 76.9203 0.0000 1.6112 0.0000
# 3 80.3817 76.9203 194.0133 0.0000 5.5664 0.0000
# 4 0.0000 0.0000 0.0000 42.4649 0.0000 2.8490
# 5 5.4153 1.6112 5.5664 0.0000 26.2134 0.0000
# 6 0.0000 0.0000 0.0000 2.8490 0.0000 30.5527
#
#
#
# Elastic Compliance Matrix: (Units=1/GPa)
#
#
# Indices 1 2 3 4 5 6 
#
# 1 0.010422 -0.003328 -0.002961 0.000000 -0.001320 0.000000
# 2 -0.003328 0.010977 -0.002992 0.000000 0.000648 0.000000
# 3 -0.002961 -0.002992 0.007591 0.000000 -0.000816 0.000000
# 4 0.000000 0.000000 0.000000 0.023697 0.000000 -0.002210
# 5 -0.001320 0.000648 -0.000816 0.000000 0.038555 0.000000
# 6 0.000000 0.000000 0.000000 -0.002210 0.000000 0.032936
#
#
# Mechanical properties :
#
#
# Convention : Reuss Voigt Hill
#
# Bulk Modulus (GPa) = 95.88848 100.87832 98.38340
# Shear Modulus (GPa) = 34.19628 36.11212 35.15420
#
# Velocity S-wave (km/s) = 4.33374 4.45349 4.39402
# Velocity P-wave (km/s) = 8.81509 9.04706 8.93183
#
# Compressibility (1/GPa) = 0.01042878
#
# Stress axis : x y z
#
# Youngs Moduli (GPa) = 95.94859 91.10138 131.74236
#
# Poissons Ratio (x) = 0.30316 0.39007
# Poissons Ratio (y) = 0.31929 0.39415
# Poissons Ratio (z) = 0.28409 0.27256
#
# Static dielectric constant tensor:
#      x y z
#    x 1.643360 0.000000 -0.005700 
#    y 0.000000 1.629940 0.000000 
#    z -0.005700 0.000000 1.620270 
# 
# From -- ./inp_files/51660.got.cif
#   From: 2010.05.17/outbox.ucp.g08.bks.cvg/sg11_26_cif.got.tgz:51660.got - 2010.06.11 11:38:39.
