data_PCOD9168205
_publ_section_title
;
Structure prediction by ZEFSAII (Michael W. Deem and Ramdas Pophale) SiO2 
 PCOD9168205
Probable space group: P 21/M
;
_chemical_formula_sum "Si O2"
_cell_formula_units_Z 32
_cell_length_a 12.000000
_cell_length_b 9.000000
_cell_length_c 30.000000
_cell_angle_alpha 90.000000
_cell_angle_beta 30.000000
_cell_angle_gamma 90.000000
_cell_volume 1620.000000
_symmetry_space_group_name_H-M "P 21/M"
_symmetry_group_IT_number 11
_symmetry_cell_setting 'monoclinic'
loop_
_space_group_symop_operation_xyz
x,y,z
-x,1/2+y,-z
-x,-y,-z
x,1/2-y,z
loop_
_atom_site_type_symbol
_atom_site_label
_atom_site_fract_x
_atom_site_fract_y
_atom_site_fract_z
Si Si1 0.904425 0.428946 0.174680
Si Si2 0.784845 0.577749 0.306869
Si Si3 0.872802 0.427692 0.673081
Si Si4 0.509971 0.083282 0.241833
Si Si5 0.643137 0.425281 0.490135
Si Si6 0.391303 0.074410 0.968576
Si Si7 0.806390 0.926605 0.791012
Si Si8 0.216929 0.919021 0.942698
O O1 0.894753 0.250000 0.186367
O O2 0.827518 0.527271 0.242253
O O3 0.720798 0.460351 0.199771
O O4 0.165352 0.462145 0.074101
O O5 0.848507 0.750000 0.293040
O O6 0.527619 0.562610 0.409481
O O7 0.946649 0.471520 0.279094
O O8 0.879839 0.250000 0.672673
O O9 0.706115 0.481214 0.691421
O O10 0.784482 0.492453 0.750946
O O11 0.122280 0.494410 0.582741
O O12 0.438924 0.250000 0.280317
O O13 0.619133 0.093182 0.155429
O O14 0.500000 0.500000 0.500000
O O15 0.681612 0.250000 0.467344
O O16 0.432556 0.250000 0.958571
O O17 0.625714 0.986517 0.889909
O O18 0.314534 0.025487 0.946159
O O19 0.778731 0.750000 0.795698
O O20 0.175543 0.750000 0.973818
O O21 0.000000 0.000000 0.000000
#
# Coordination Sequence:
#
# PCOD9168205 Si02
#       8
#     4   4   4   4   4   4   4   4
#     4  10  23  43  64  87 123 172 214 254 306 366
#     4  11  25  44  66  93 123 159 208 258 309 374
#     4  12  24  38  62  98 131 160 202 258 317 372
#     4  10  21  39  60  88 126 167 211 256 309 367
#     4  11  23  41  68  97 126 159 199 256 316 376
#     4  11  22  38  59  89 126 164 212 261 306 365
#     4  12  24  39  62  92 127 166 205 254 317 372
#     4  11  20  32  54  84 120 161 206 257 307 356
#
# _framework density 19.753086
#
# number of rings (size 3 to 8) (size 9 to 14) (size 15 to 20)
#    0.000    1.000    3.750    3.750    0.000    4.000 
#    0.000    0.625    0.000    0.000    0.000    0.000 
#    0.000    0.000    0.000    0.000    0.000    0.000 
#
# Total GULP energy -178577.814692 kJ/mol
# GULP energy per Si atom -5580.556709 kJ/mol
# Density = 1.970813 g / cm^3
# Si number density = 19.753086 Si / 1000 Ang^3
#
#
#
# Elastic Constant Matrix: (Units=GPa)
#
#
# Indices 1 2 3 4 5 6 
#
# 1 32.7787 16.4935 19.9056 0.0000 -12.3958 0.0000
# 2 16.4935 113.5150 64.7376 0.0000 -14.2917 0.0000
# 3 19.9056 64.7376 124.0316 0.0000 -21.5765 0.0000
# 4 0.0000 0.0000 0.0000 32.2774 0.0000 -3.7883
# 5 -12.3958 -14.2917 -21.5765 0.0000 34.8802 0.0000
# 6 0.0000 0.0000 0.0000 -3.7883 0.0000 28.6671
#
#
#
# Elastic Compliance Matrix: (Units=1/GPa)
#
#
# Indices 1 2 3 4 5 6 
#
# 1 0.037488 -0.002470 -0.002897 0.000000 0.010518 0.000000
# 2 -0.002470 0.012752 -0.006167 0.000000 0.000532 0.000000
# 3 -0.002897 -0.006167 0.012469 0.000000 0.004157 0.000000
# 4 0.000000 0.000000 0.000000 0.031469 0.000000 0.004159
# 5 0.010518 0.000532 0.004157 0.000000 0.035197 0.000000
# 6 0.000000 0.000000 0.000000 0.004159 0.000000 0.035433
#
#
# Mechanical properties :
#
#
# Convention : Reuss Voigt Hill
#
# Bulk Modulus (GPa) = 25.22683 52.51095 38.86889
# Shear Modulus (GPa) = 24.86434 30.44418 27.65426
#
# Velocity S-wave (km/s) = 3.55175 3.93012 3.74571
# Velocity P-wave (km/s) = 5.44230 6.87283 6.19897
#
# Compressibility (1/GPa) = 0.03964034
#
# Stress axis : x y z
#
# Youngs Moduli (GPa) = 26.67550 78.41671 80.19645
#
# Poissons Ratio (x) = 0.19372 0.23234
# Poissons Ratio (y) = 0.06590 0.49457
# Poissons Ratio (z) = 0.07728 0.48359
#
# Static dielectric constant tensor:
#      x y z
#    x 1.697170 0.000000 0.009380 
#    y 0.000000 1.683880 0.000000 
#    z 0.009380 0.000000 1.722370 
# 
# From -- ./inp_files/73091.got.cif
#   From: 2010.05.17/outbox.ucp.g08.bks.cvg/sg11_37_cif.got.tgz:73091.got - 2010.06.11 11:38:39.
