data_PCOD9168137
_publ_section_title
;
Structure prediction by ZEFSAII (Michael W. Deem and Ramdas Pophale) SiO2 
 PCOD9168137
Probable space group: P 21/M
;
_chemical_formula_sum "Si O2"
_cell_formula_units_Z 32
_cell_length_a 6.000000
_cell_length_b 18.000000
_cell_length_c 15.000000
_cell_angle_alpha 90.000000
_cell_angle_beta 90.000000
_cell_angle_gamma 90.000000
_cell_volume 1620.000000
_symmetry_space_group_name_H-M "P 21/M"
_symmetry_group_IT_number 11
_symmetry_cell_setting 'monoclinic'
loop_
_space_group_symop_operation_xyz
x,y,z
-x,1/2+y,-z
-x,-y,-z
x,1/2-y,z
loop_
_atom_site_type_symbol
_atom_site_label
_atom_site_fract_x
_atom_site_fract_y
_atom_site_fract_z
Si Si1 0.015778 0.950868 0.144455
Si Si2 0.299484 0.442610 0.016149
Si Si3 0.753703 0.162314 0.732032
Si Si4 0.649297 0.335233 0.341659
Si Si5 0.961785 0.558720 0.699307
Si Si6 0.254437 0.161604 0.635643
Si Si7 0.657441 0.934627 0.536567
Si Si8 0.342729 0.163819 0.176002
O O1 0.192782 0.890386 0.182378
O O2 0.134174 0.010879 0.080457
O O3 0.943287 0.995416 0.234401
O O4 0.819345 0.922006 0.078391
O O5 0.370375 0.373297 0.078870
O O6 0.500000 0.500000 0.000000
O O7 0.737532 0.250000 0.754017
O O8 0.502992 0.144841 0.686351
O O9 0.001716 0.155304 0.681051
O O10 0.701143 0.250000 0.363805
O O11 0.470737 0.369417 0.409477
O O12 0.560146 0.337349 0.239539
O O13 0.853545 0.390589 0.345539
O O14 0.814091 0.531555 0.615385
O O15 0.824529 0.613608 0.765001
O O16 0.274105 0.250000 0.613712
O O17 0.243720 0.107195 0.550015
O O18 0.500000 0.000000 0.500000
O O19 0.270443 0.250000 0.169338
#
# Coordination Sequence:
#
# PCOD9168137 Si02
#       8
#     4   4   4   4   4   4   4   4
#     4  10  22  38  60  87 118 156 203 250 309 371
#     4  10  21  37  59  87 119 158 195 248 313 370
#     4  10  23  42  65  90 123 168 211 256 312 369
#     4  10  21  36  57  84 115 153 197 246 305 366
#     4  10  21  37  60  83 115 157 195 246 309 361
#     4  10  23  42  62  88 125 167 209 259 313 366
#     4  11  24  37  57  87 119 156 205 256 303 363
#     4   9  19  37  57  85 116 148 193 244 303 366
#
# _framework density 19.753086
#
# number of rings (size 3 to 8) (size 9 to 14) (size 15 to 20)
#    0.000    2.000    0.000    2.250    5.250    2.500 
#    0.000    0.625    0.000    0.000    0.000    0.000 
#    0.000    0.000    0.000    0.000    0.000    0.000 
#
# Total GULP energy -178175.545672 kJ/mol
# GULP energy per Si atom -5567.985802 kJ/mol
# Density = 1.970813 g / cm^3
# Si number density = 19.753086 Si / 1000 Ang^3
#
#
#
# Elastic Constant Matrix: (Units=GPa)
#
#
# Indices 1 2 3 4 5 6 
#
# 1 56.9613 -9.8022 17.8786 0.0000 11.8783 0.0000
# 2 -9.8022 70.6034 28.5802 0.0000 10.3403 0.0000
# 3 17.8786 28.5802 107.8781 0.0000 31.7416 0.0000
# 4 0.0000 0.0000 0.0000 38.4212 0.0000 7.8915
# 5 11.8783 10.3403 31.7416 0.0000 22.6882 0.0000
# 6 0.0000 0.0000 0.0000 7.8915 0.0000 28.8944
#
#
#
# Elastic Compliance Matrix: (Units=1/GPa)
#
#
# Indices 1 2 3 4 5 6 
#
# 1 0.021326 0.005266 -0.001595 0.000000 -0.011334 0.000000
# 2 0.005266 0.017236 -0.003937 0.000000 -0.005104 0.000000
# 3 -0.001595 -0.003937 0.016663 0.000000 -0.020682 0.000000
# 4 0.000000 0.000000 0.000000 0.027574 0.000000 -0.007531
# 5 -0.011334 -0.005104 -0.020682 0.000000 0.081271 0.000000
# 6 0.000000 0.000000 0.000000 -0.007531 0.000000 0.036666
#
#
# Mechanical properties :
#
#
# Convention : Reuss Voigt Hill
#
# Bulk Modulus (GPa) = 18.28367 34.30624 26.29495
# Shear Modulus (GPa) = 22.77921 31.25317 27.01619
#
# Velocity S-wave (km/s) = 3.39956 3.98199 3.70225
# Velocity P-wave (km/s) = 4.96846 6.20862 5.62283
#
# Compressibility (1/GPa) = 0.05469361
#
# Stress axis : x y z
#
# Youngs Moduli (GPa) = 46.89084 58.01765 60.01474
#
# Poissons Ratio (x) = -0.30554 0.09570
# Poissons Ratio (y) = -0.24694 0.23630
# Poissons Ratio (z) = 0.07477 0.22843
#
# Static dielectric constant tensor:
#      x y z
#    x 1.780100 0.000000 0.000190 
#    y 0.000000 1.689340 0.000000 
#    z 0.000190 0.000000 1.699430 
# 
# From -- ./inp_files/9152.got.cif
#   From: 2010.05.17/outbox.ucp.g08.bks.cvg/sg11_5_cif.got.tgz:9152.got - 2010.06.11 11:38:39.
