data_PCOD9168003
_publ_section_title
;
Structure prediction by ZEFSAII (Michael W. Deem and Ramdas Pophale) SiO2 
 PCOD9168003
Probable space group: P 21/M
;
_chemical_formula_sum "Si O2"
_cell_formula_units_Z 28
_cell_length_a 21.000000
_cell_length_b 9.000000
_cell_length_c 15.000000
_cell_angle_alpha 90.000000
_cell_angle_beta 150.000000
_cell_angle_gamma 90.000000
_cell_volume 1417.500000
_symmetry_space_group_name_H-M "P 21/M"
_symmetry_group_IT_number 11
_symmetry_cell_setting 'monoclinic'
loop_
_space_group_symop_operation_xyz
x,y,z
-x,1/2+y,-z
-x,-y,-z
x,1/2-y,z
loop_
_atom_site_type_symbol
_atom_site_label
_atom_site_fract_x
_atom_site_fract_y
_atom_site_fract_z
Si Si1 0.402520 0.416323 0.319418
Si Si2 0.472778 0.429993 0.217570
Si Si3 0.898443 0.569046 0.448203
Si Si4 0.955832 0.074718 0.706122
Si Si5 0.388277 0.931095 0.928369
Si Si6 0.130344 0.418785 0.081023
Si Si7 0.241744 0.922027 0.385061
O O1 0.500000 0.500000 0.500000
O O2 0.454400 0.250000 0.372723
O O3 0.385156 0.467459 0.196684
O O4 0.270788 0.412658 0.210569
O O5 0.471428 0.250000 0.197542
O O6 0.613341 0.473640 0.424931
O O7 0.430004 0.517534 0.078323
O O8 0.893432 0.750000 0.434453
O O9 0.948478 0.517998 0.606757
O O10 0.754346 0.499821 0.262288
O O11 0.000000 0.500000 0.500000
O O12 0.986143 0.250000 0.724037
O O13 0.821058 0.069345 0.593622
O O14 0.048838 0.020432 0.898703
O O15 0.384246 0.750000 0.914765
O O16 0.500000 0.000000 0.000000
O O17 0.082660 0.250000 0.039615
O O18 0.153709 0.498865 0.203860
O O19 0.247001 0.750000 0.364314
#
# Coordination Sequence:
#
# PCOD9168003 Si02
#       7
#     4   4   4   4   4   4   4
#     4  10  20  35  55  83 119 162 206 256 313 372
#     4  10  21  37  60  90 124 165 211 264 324 383
#     4  12  27  48  72 100 133 174 223 280 339 401
#     4  10  22  40  62  89 123 165 212 263 321 383
#     4  12  26  46  72 103 134 173 223 279 338 400
#     4  10  21  35  56  87 123 163 206 255 312 376
#     4  10  20  36  59  88 124 165 207 257 315 377
#
# _framework density 19.753086
#
# number of rings (size 3 to 8) (size 9 to 14) (size 15 to 20)
#    0.000    1.429    1.429    3.857    2.000    3.429 
#    0.000    0.000    0.000    0.000    0.000    0.000 
#    0.000    0.000    0.000    0.000    0.000    0.000 
#
# Total GULP energy -156196.936832 kJ/mol
# GULP energy per Si atom -5578.462030 kJ/mol
# Density = 1.970813 g / cm^3
# Si number density = 19.753086 Si / 1000 Ang^3
#
#
#
# Elastic Constant Matrix: (Units=GPa)
#
#
# Indices 1 2 3 4 5 6 
#
# 1 132.2413 54.4190 48.3447 0.0000 -22.6344 0.0000
# 2 54.4190 112.2529 50.6801 0.0000 -14.2045 0.0000
# 3 48.3447 50.6801 118.5173 0.0000 -17.5178 0.0000
# 4 0.0000 0.0000 0.0000 37.8948 0.0000 -9.8627
# 5 -22.6344 -14.2045 -17.5178 0.0000 44.9625 0.0000
# 6 0.0000 0.0000 0.0000 -9.8627 0.0000 32.8991
#
#
#
# Elastic Compliance Matrix: (Units=1/GPa)
#
#
# Indices 1 2 3 4 5 6 
#
# 1 0.010425 -0.003644 -0.002216 0.000000 0.003233 0.000000
# 2 -0.003644 0.012445 -0.003741 0.000000 0.000640 0.000000
# 3 -0.002216 -0.003741 0.011249 0.000000 0.002085 0.000000
# 4 0.000000 0.000000 0.000000 0.028622 0.000000 0.008580
# 5 0.003233 0.000640 0.002085 0.000000 0.024883 0.000000
# 6 0.000000 0.000000 0.000000 0.008580 0.000000 0.032968
#
#
# Mechanical properties :
#
#
# Convention : Reuss Voigt Hill
#
# Bulk Modulus (GPa) = 67.03643 74.43324 70.73484
# Shear Modulus (GPa) = 34.53810 37.12246 35.83028
#
# Velocity S-wave (km/s) = 4.18603 4.33982 4.26362
# Velocity P-wave (km/s) = 7.57461 7.92942 7.75404
#
# Compressibility (1/GPa) = 0.01491726
#
# Stress axis : x y z
#
# Youngs Moduli (GPa) = 95.92085 80.35415 88.89329
#
# Poissons Ratio (x) = 0.29283 0.19702
# Poissons Ratio (y) = 0.34956 0.33251
# Poissons Ratio (z) = 0.21259 0.30057
#
# Static dielectric constant tensor:
#      x y z
#    x 1.732700 0.000000 0.030680 
#    y 0.000000 1.725990 0.000000 
#    z 0.030680 0.000000 1.697440 
# 
# From -- ./inp_files/54635.got.cif
#   From: 2010.05.17/outbox.ucp.g08.bks.cvg/sg11_28_cif.got.tgz:54635.got - 2010.06.11 11:38:39.
