data_PCOD9168768
_publ_section_title
;
Structure prediction by ZEFSAII (Michael W. Deem and Ramdas Pophale) SiO2 
 PCOD9168768
Probable space group: C 2/M
;
_chemical_formula_sum "Si O2"
_cell_formula_units_Z 44
_cell_length_a 21.250191
_cell_length_b 7.454225
_cell_length_c 13.437297
_cell_angle_alpha 90.000000
_cell_angle_beta 105.814871
_cell_angle_gamma 90.000000
_cell_volume 2047.947472
_symmetry_space_group_name_H-M "C 2/M"
_symmetry_group_IT_number 12
_symmetry_cell_setting 'monoclinic'
loop_
_space_group_symop_operation_xyz
x,y,z
-x,y,-z
-x,-y,-z
x,-y,z
1/2+x,1/2+y,z
1/2-x,1/2+y,-z
1/2-x,1/2-y,-z
1/2+x,1/2-y,z
loop_
_atom_site_type_symbol
_atom_site_label
_atom_site_fract_x
_atom_site_fract_y
_atom_site_fract_z
Si Si1 0.292841 0.285377 0.792725
Si Si2 0.865845 0.713152 0.022130
Si Si3 0.430890 0.721512 0.771909
Si Si4 0.000000 0.246933 0.000000
Si Si5 0.348531 0.216745 0.242898
Si Si6 0.990733 0.791136 0.386494
O O1 0.290991 0.500000 0.783877
O O2 0.311078 0.241931 0.915119
O O3 0.354890 0.228108 0.753434
O O4 0.219833 0.219101 0.739440
O O5 0.882533 0.500000 0.028929
O O6 0.930234 0.816333 0.013242
O O7 0.848173 0.766202 0.125927
O O8 0.436955 0.500000 0.784986
O O9 0.464007 0.779203 0.683402
O O10 0.470238 0.807597 0.880764
O O11 0.415298 0.280198 0.321251
O O12 0.349711 0.000000 0.247538
O O13 0.000000 0.710814 0.500000
O O14 0.009680 0.000000 0.401788
#
# Coordination Sequence:
#
# PCOD9168768 Si02
#       6
#     8   8   8   4   8   8
#     4   9  19  33  51  74 104 137 169 204 246 304
#     4  10  19  29  46  75 109 138 165 201 251 304
#     4   9  17  31  51  76 101 131 170 208 249 299
#     4  10  16  28  48  74 105 136 163 204 253 300
#     4  10  20  35  52  74 103 136 170 207 253 300
#     4  10  21  37  56  76  99 131 173 217 254 293
#
# _framework density 21.484926000000002
#
# number of rings (size 3 to 8) (size 9 to 14) (size 15 to 20)
#    0.000    2.364    1.818    1.091    0.000    2.545 
#    0.000    0.909    0.000    0.000    0.000    0.000 
#    0.000    0.000    0.000    0.000    0.000    0.000 
#
# Total GULP energy -122527.438529 kJ/mol
# GULP energy per Si atom -5569.429024 kJ/mol
# Density = 2.143603 g / cm^3
# Si number density = 21.484926 Si / 1000 Ang^3
#
#
#
# Elastic Constant Matrix: (Units=GPa)
#
#
# Indices 1 2 3 4 5 6 
#
# 1 147.8249 7.8150 100.6688 0.0000 -11.8695 0.0000
# 2 7.8150 68.6575 7.9455 0.0000 -10.6141 0.0000
# 3 100.6688 7.9455 136.4677 0.0000 -30.7484 0.0000
# 4 0.0000 0.0000 0.0000 -120.4746 0.0000 83.6365
# 5 -11.8695 -10.6141 -30.7484 0.0000 21.2709 0.0000
# 6 0.0000 0.0000 0.0000 83.6365 0.0000 -43.3880
#
#
#
# Elastic Compliance Matrix: (Units=1/GPa)
#
#
# Indices 1 2 3 4 5 6 
#
# 1 0.015568 -0.002135 -0.014301 0.000000 -0.013050 0.000000
# 2 -0.002135 0.016225 0.003242 0.000000 0.011591 0.000000
# 3 -0.014301 0.003242 0.024106 0.000000 0.028485 0.000000
# 4 0.000000 0.000000 0.000000 0.024542 0.000000 0.047308
# 5 -0.013050 0.011591 0.028485 0.000000 0.086690 0.000000
# 6 0.000000 0.000000 0.000000 0.047308 0.000000 0.068145
#
#
# Mechanical properties :
#
#
# Convention : Reuss Voigt Hill
#
# Bulk Modulus (GPa) = 33.88415 65.08986 49.48701
# Shear Modulus (GPa) = 18.41613 -12.75028 2.83292
#
# Velocity S-wave (km/s) = 2.93091 -2.43873 1.14953
# Velocity P-wave (km/s) = 5.22102 4.73619 4.98450
#
# Compressibility (1/GPa) = 0.02951233
#
# Stress axis : x y z
#
# Youngs Moduli (GPa) = 64.23244 61.63415 41.48310
#
# Poissons Ratio (x) = 0.13156 0.59323
# Poissons Ratio (y) = 0.13711 -0.13447
# Poissons Ratio (z) = 0.91856 -0.19979
#
# Static dielectric constant tensor:
#      x y z
#    x 1.781570 0.000000 -0.025460 
#    y 0.000000 1.957450 0.000000 
#    z -0.025460 0.000000 1.740760 
# 
# From -- ./inp_files/163101.got.cif
#   From: 2010.05.17/outbox.cif.g08.bks.cpg/sg12_82_cif.got.tgz:163101.got - 2010.06.03 13:09:07.
