data_PCOD9168996
_publ_section_title
;
Structure prediction by ZEFSAII (Michael W. Deem and Ramdas Pophale) SiO2 
 PCOD9168996
Probable space group: C 2/M
;
_chemical_formula_sum "Si O2"
_cell_formula_units_Z 48
_cell_length_a 11.997686
_cell_length_b 23.482393
_cell_length_c 7.115444
_cell_angle_alpha 90.000000
_cell_angle_beta 68.410661
_cell_angle_gamma 90.000000
_cell_volume 1864.027834
_symmetry_space_group_name_H-M "C 2/M"
_symmetry_group_IT_number 12
_symmetry_cell_setting 'monoclinic'
loop_
_space_group_symop_operation_xyz
x,y,z
-x,y,-z
-x,-y,-z
x,-y,z
1/2+x,1/2+y,z
1/2-x,1/2+y,-z
1/2-x,1/2-y,-z
1/2+x,1/2-y,z
loop_
_atom_site_type_symbol
_atom_site_label
_atom_site_fract_x
_atom_site_fract_y
_atom_site_fract_z
Si Si1 0.205416 0.122732 0.335466
Si Si2 0.500000 0.693688 0.500000
Si Si3 0.826341 0.715063 0.796009
Si Si4 0.978219 0.500000 0.788338
Si Si5 0.859948 0.873635 0.076961
Si Si6 0.467460 0.124135 0.236276
Si Si7 0.304841 0.500000 0.114693
Si Si8 0.864829 0.000000 0.653128
O O1 0.180544 0.127354 0.122667
O O2 0.332810 0.147995 0.316194
O O3 0.206585 0.055397 0.363552
O O4 0.095094 0.148132 0.520227
O O5 0.596533 0.735425 0.347356
O O6 0.931934 0.668353 0.762444
O O7 0.750000 0.750000 0.000000
O O8 0.722101 0.674910 0.779747
O O9 0.836344 0.500000 0.839095
O O10 0.027041 0.560517 0.683703
O O11 0.000000 0.500000 0.000000
O O12 0.837405 0.937342 0.171221
O O13 0.000000 0.859870 0.000000
O O14 0.500000 0.115653 0.000000
O O15 0.372495 0.500000 0.873030
O O16 0.000000 0.000000 0.500000
#
# Coordination Sequence:
#
# PCOD9168996 Si02
#       8
#     8   4   8   4   8   8   4   4
#     4  11  22  42  63 101 129 163 212 277 328 386
#     4  12  26  45  62  95 136 170 228 258 312 384
#     4  12  25  45  64  93 129 180 216 264 317 379
#     4  10  16  31  65  99 123 151 205 273 328 380
#     4  11  22  42  68  91 130 171 215 266 328 390
#     4  11  19  38  70  95 128 161 212 271 330 379
#     4  10  19  36  62  99 126 160 214 260 327 398
#     4  10  18  33  63  91 134 159 199 272 341 387
#
# _framework density 25.750686999999999
#
# number of rings (size 3 to 8) (size 9 to 14) (size 15 to 20)
#    0.000    1.000    5.833    3.750    0.000    2.667 
#    3.000    0.000    0.000    2.000    0.000    0.000 
#    0.000    0.000    0.000    0.000    0.000    0.000 
#
# Total GULP energy -134035.490576 kJ/mol
# GULP energy per Si atom -5584.812107 kJ/mol
# Density = 2.569208 g / cm^3
# Si number density = 25.750687 Si / 1000 Ang^3
#
#
#
# Elastic Constant Matrix: (Units=GPa)
#
#
# Indices 1 2 3 4 5 6 
#
# 1 196.7091 47.3844 34.9111 0.0000 -43.9619 0.0000
# 2 47.3844 192.9925 11.7031 0.0000 -12.5878 0.0000
# 3 34.9111 11.7031 92.9714 0.0000 -14.5884 0.0000
# 4 0.0000 0.0000 0.0000 4.5243 0.0000 -22.8878
# 5 -43.9619 -12.5878 -14.5884 0.0000 50.2550 0.0000
# 6 0.0000 0.0000 0.0000 -22.8878 0.0000 28.9740
#
#
#
# Elastic Compliance Matrix: (Units=1/GPa)
#
#
# Indices 1 2 3 4 5 6 
#
# 1 0.006827 -0.001241 -0.001592 0.000000 0.005199 0.000000
# 2 -0.001241 0.005513 -0.000190 0.000000 0.000240 0.000000
# 3 -0.001592 -0.000190 0.011684 0.000000 0.001952 0.000000
# 4 0.000000 0.000000 0.000000 -0.073770 0.000000 -0.058274
# 5 0.005199 0.000240 0.001952 0.000000 0.025074 0.000000
# 6 0.000000 0.000000 0.000000 -0.058274 0.000000 -0.011519
#
#
# Mechanical properties :
#
#
# Convention : Reuss Voigt Hill
#
# Bulk Modulus (GPa) = 55.62026 74.51890 65.06958
# Shear Modulus (GPa) = -207.01335 42.66230 -82.17553
#
# Velocity S-wave (km/s) = -8.97585 4.07473 -5.65520
# Velocity P-wave (km/s) = 9.26147 7.15118 4.16146
#
# Compressibility (1/GPa) = 0.01797906
#
# Stress axis : x y z
#
# Youngs Moduli (GPa) = 146.47918 181.37740 85.58828
#
# Poissons Ratio (x) = 0.22501 0.13622
# Poissons Ratio (y) = 0.18171 0.01630
# Poissons Ratio (z) = 0.23313 0.03454
#
# Static dielectric constant tensor:
#      x y z
#    x 1.991500 0.000000 0.118470 
#    y 0.000000 2.070010 0.000000 
#    z 0.118470 0.000000 2.166590 
# 
# From -- ./inp_files/51409.got.cif
#   From: 2010.05.17/outbox.cif.g08.bks.cpg/sg12_26_cif.got.tgz:51409.got - 2010.06.03 13:09:07.
