data_PCOD9168841
_publ_section_title
;
Structure prediction by ZEFSAII (Michael W. Deem and Ramdas Pophale) SiO2 
 PCOD9168841
Probable space group: C 2/M
;
_chemical_formula_sum "Si O2"
_cell_formula_units_Z 40
_cell_length_a 15.676916
_cell_length_b 11.558713
_cell_length_c 9.521376
_cell_angle_alpha 90.000000
_cell_angle_beta 72.307419
_cell_angle_gamma 90.000000
_cell_volume 1643.714462
_symmetry_space_group_name_H-M "C 2/M"
_symmetry_group_IT_number 12
_symmetry_cell_setting 'monoclinic'
loop_
_space_group_symop_operation_xyz
x,y,z
-x,y,-z
-x,-y,-z
x,-y,z
1/2+x,1/2+y,z
1/2-x,1/2+y,-z
1/2-x,1/2-y,-z
1/2+x,1/2-y,z
loop_
_atom_site_type_symbol
_atom_site_label
_atom_site_fract_x
_atom_site_fract_y
_atom_site_fract_z
Si Si1 0.625359 0.000000 0.571628
Si Si2 0.617809 0.762808 0.188550
Si Si3 0.105997 0.000000 0.456107
Si Si4 0.419191 0.260908 0.387925
Si Si5 0.319126 0.751048 0.141373
Si Si6 0.764922 0.500000 0.224639
Si Si7 0.036548 0.500000 0.136384
O O1 0.607665 0.134363 0.527612
O O2 0.716259 0.000000 0.616085
O O3 0.551812 0.000000 0.727716
O O4 0.527788 0.723723 0.316922
O O5 0.714413 0.779971 0.213276
O O6 0.588006 0.888456 0.156459
O O7 0.640436 0.702476 0.024971
O O8 0.123135 0.125246 0.520050
O O9 0.157728 0.000000 0.280821
O O10 0.000000 0.000000 0.500000
O O11 0.379633 0.264382 0.248450
O O12 0.307116 0.888911 0.135969
O O13 0.000000 0.500000 0.000000
#
# Coordination Sequence:
#
# PCOD9168841 Si02
#       7
#     4   8   4   8   8   4   4
#     4   8  18  34  60  84 103 143 201 251 293 340
#     4  10  19  33  57  90 122 152 199 251 311 379
#     4  12  26  41  59  82 124 176 211 248 308 378
#     4  10  21  40  60  87 123 163 204 252 308 365
#     4  10  20  34  59  89 118 158 201 253 309 368
#     4  10  20  38  58  82 115 157 209 247 298 366
#     4  10  16  29  53  78 111 150 190 244 300 352
#
# _framework density 24.335128000000001
#
# number of rings (size 3 to 8) (size 9 to 14) (size 15 to 20)
#    0.000    2.000    0.000    6.000    0.000    4.000 
#    0.000    4.500    0.000    1.200    0.000    0.000 
#    0.000    0.000    0.000    0.000    0.000    0.000 
#
# Total GULP energy -111455.408947 kJ/mol
# GULP energy per Si atom -5572.770447 kJ/mol
# Density = 2.427974 g / cm^3
# Si number density = 24.335128 Si / 1000 Ang^3
#
#
#
# Elastic Constant Matrix: (Units=GPa)
#
#
# Indices 1 2 3 4 5 6 
#
# 1 120.1462 25.8884 16.3746 0.0000 -12.1154 0.0000
# 2 25.8884 136.4374 47.7057 0.0000 -8.2364 0.0000
# 3 16.3746 47.7057 100.8043 0.0000 -26.4907 0.0000
# 4 0.0000 0.0000 0.0000 32.4965 0.0000 -5.4332
# 5 -12.1154 -8.2364 -26.4907 0.0000 39.6063 0.0000
# 6 0.0000 0.0000 0.0000 -5.4332 0.0000 14.6748
#
#
#
# Elastic Compliance Matrix: (Units=1/GPa)
#
#
# Indices 1 2 3 4 5 6 
#
# 1 0.008899 -0.001506 -0.000121 0.000000 0.002328 0.000000
# 2 -0.001506 0.009081 -0.004462 0.000000 -0.001557 0.000000
# 3 -0.000121 -0.004462 0.014314 0.000000 0.008609 0.000000
# 4 0.000000 0.000000 0.000000 0.032803 0.000000 0.012145
# 5 0.002328 -0.001557 0.008609 0.000000 0.031395 0.000000
# 6 0.000000 0.000000 0.000000 0.012145 0.000000 0.072640
#
#
# Mechanical properties :
#
#
# Convention : Reuss Voigt Hill
#
# Bulk Modulus (GPa) = 49.71148 59.70280 54.70714
# Shear Modulus (GPa) = 26.59345 35.18347 30.88846
#
# Velocity S-wave (km/s) = 3.30934 3.80648 3.56658
# Velocity P-wave (km/s) = 5.92237 6.62615 6.28412
#
# Compressibility (1/GPa) = 0.02011608
#
# Stress axis : x y z
#
# Youngs Moduli (GPa) = 112.37365 110.11627 69.86163
#
# Poissons Ratio (x) = 0.16579 0.00847
# Poissons Ratio (y) = 0.16919 0.31174
# Poissons Ratio (z) = 0.01362 0.49136
#
# Static dielectric constant tensor:
#      x y z
#    x 2.520910 0.000000 -0.300700 
#    y 0.000000 2.051830 0.000000 
#    z -0.300700 0.000000 2.132860 
# 
# From -- ./inp_files/140887.got.cif
#   From: 2010.05.17/outbox.cif.g08.bks.cpg/sg12_71_cif.got.tgz:140887.got - 2010.06.03 13:09:07.
