data_PCOD9168898
_publ_section_title
;
Structure prediction by ZEFSAII (Michael W. Deem and Ramdas Pophale) SiO2 
 PCOD9168898
Probable space group: C 2/M
;
_chemical_formula_sum "Si O2"
_cell_formula_units_Z 48
_cell_length_a 5.298239
_cell_length_b 27.755211
_cell_length_c 16.036187
_cell_angle_alpha 90.000000
_cell_angle_beta 67.217660
_cell_angle_gamma 90.000000
_cell_volume 2174.202004
_symmetry_space_group_name_H-M "C 2/M"
_symmetry_group_IT_number 12
_symmetry_cell_setting 'monoclinic'
loop_
_space_group_symop_operation_xyz
x,y,z
-x,y,-z
-x,-y,-z
x,-y,z
1/2+x,1/2+y,z
1/2-x,1/2+y,-z
1/2-x,1/2-y,-z
1/2+x,1/2-y,z
loop_
_atom_site_type_symbol
_atom_site_label
_atom_site_fract_x
_atom_site_fract_y
_atom_site_fract_z
Si Si1 0.167274 0.646318 0.904051
Si Si2 0.563847 0.280070 0.253102
Si Si3 0.202096 0.194876 0.538958
Si Si4 0.281700 0.943555 0.702116
Si Si5 0.162658 0.084385 0.903788
Si Si6 0.112671 0.058555 0.392798
O O1 0.268251 0.680412 0.818641
O O2 0.443493 0.625896 0.909815
O O3 0.955603 0.605189 0.897586
O O4 0.000000 0.671730 0.000000
O O5 0.289946 0.261189 0.242364
O O6 0.448591 0.300329 0.354551
O O7 0.500000 0.171796 0.500000
O O8 0.250000 0.250000 0.500000
O O9 0.000000 0.170783 0.500000
O O10 0.197585 0.940465 0.809700
O O11 0.581754 0.921330 0.654525
O O12 0.073541 0.922920 0.659940
O O13 0.304368 0.000000 0.678254
O O14 0.000000 0.057811 0.000000
O O15 0.000000 0.065538 0.500000
O O16 0.128847 0.000000 0.379906
#
# Coordination Sequence:
#
# PCOD9168898 Si02
#       6
#     8   8   8   8   8   8
#     4  10  23  40  56  77 109 149 184 219 283 347
#     4  12  21  33  58  85 104 136 181 232 268 311
#     4  10  16  30  49  77 107 132 165 209 257 328
#     4  10  19  32  57  88 110 140 193 240 270 320
#     4  10  21  40  59  76 110 154 184 222 287 349
#     4   9  17  30  50  82 115 145 178 221 278 329
#
# _framework density 22.077064
#
# number of rings (size 3 to 8) (size 9 to 14) (size 15 to 20)
#    0.000    1.833    3.333    2.500    0.000    3.000 
#    0.000    0.000    0.000   16.000    0.000    0.000 
#    0.000    0.000    0.000    0.000    0.000    0.000 
#
# Total GULP energy -133953.685844 kJ/mol
# GULP energy per Si atom -5581.403577 kJ/mol
# Density = 2.202682 g / cm^3
# Si number density = 22.077064 Si / 1000 Ang^3
#
#
#
# Elastic Constant Matrix: (Units=GPa)
#
#
# Indices 1 2 3 4 5 6 
#
# 1 168.1966 11.3486 55.2958 0.0000 -3.2058 0.0000
# 2 11.3486 27.7228 6.7699 0.0000 -4.2562 0.0000
# 3 55.2958 6.7699 130.2400 0.0000 -5.1778 0.0000
# 4 0.0000 0.0000 0.0000 16.8380 0.0000 -3.2427
# 5 -3.2058 -4.2562 -5.1778 0.0000 38.5046 0.0000
# 6 0.0000 0.0000 0.0000 -3.2427 0.0000 1.5387
#
#
#
# Elastic Compliance Matrix: (Units=1/GPa)
#
#
# Indices 1 2 3 4 5 6 
#
# 1 0.007038 -0.002185 -0.002876 0.000000 -0.000042 0.000000
# 2 -0.002185 0.037776 -0.000882 0.000000 0.003875 0.000000
# 3 -0.002876 -0.000882 0.008980 0.000000 0.000871 0.000000
# 4 0.000000 0.000000 0.000000 0.099956 0.000000 0.210649
# 5 -0.000042 0.003875 0.000871 0.000000 0.026513 0.000000
# 6 0.000000 0.000000 0.000000 0.210649 0.000000 1.093822
#
#
# Mechanical properties :
#
#
# Convention : Reuss Voigt Hill
#
# Bulk Modulus (GPa) = 23.86206 52.55423 38.20814
# Shear Modulus (GPa) = 3.84633 28.22593 16.03613
#
# Velocity S-wave (km/s) = 1.32137 3.57952 2.69805
# Velocity P-wave (km/s) = 3.62767 6.39848 5.20099
#
# Compressibility (1/GPa) = 0.04190753
#
# Stress axis : x y z
#
# Youngs Moduli (GPa) = 142.09467 26.47169 111.36281
#
# Poissons Ratio (x) = 0.05784 0.32028
# Poissons Ratio (y) = 0.31049 0.09821
# Poissons Ratio (z) = 0.40867 0.02334
#
# Static dielectric constant tensor:
#      x y z
#    x 1.816180 0.000000 0.037300 
#    y 0.000000 2.504050 0.000000 
#    z 0.037300 0.000000 1.804150 
# 
# From -- ./inp_files/192521.got.cif
#   From: 2010.05.17/outbox.cif.g08.bks.cpg/sg12_97_cif.got.tgz:192521.got - 2010.06.03 13:09:07.
