data_PCOD9168635
_publ_section_title
;
Structure prediction by ZEFSAII (Michael W. Deem and Ramdas Pophale) SiO2 
 PCOD9168635
Probable space group: C 2/M
;
_chemical_formula_sum "Si O2"
_cell_formula_units_Z 56
_cell_length_a 23.443907
_cell_length_b 20.528324
_cell_length_c 26.609767
_cell_angle_alpha 90.000000
_cell_angle_beta 16.024632
_cell_angle_gamma 90.000000
_cell_volume 3535.193813
_symmetry_space_group_name_H-M "C 2/M"
_symmetry_group_IT_number 12
_symmetry_cell_setting 'monoclinic'
loop_
_space_group_symop_operation_xyz
x,y,z
-x,y,-z
-x,-y,-z
x,-y,z
1/2+x,1/2+y,z
1/2-x,1/2+y,-z
1/2-x,1/2-y,-z
1/2+x,1/2-y,z
loop_
_atom_site_type_symbol
_atom_site_label
_atom_site_fract_x
_atom_site_fract_y
_atom_site_fract_z
Si Si1 0.861542 0.685163 0.738744
Si Si2 0.469953 0.817711 0.217963
Si Si3 0.795048 0.327205 0.469079
Si Si4 0.192210 0.426518 0.298461
Si Si5 0.427939 0.663977 0.846813
Si Si6 0.536551 0.657268 0.866927
Si Si7 0.629881 0.732533 0.437962
O O1 0.840980 0.626114 0.716995
O O2 0.016420 0.666991 0.652237
O O3 0.969592 0.744177 0.616929
O O4 0.640819 0.695711 0.952253
O O5 0.361428 0.849838 0.358012
O O6 0.521185 0.741291 0.187460
O O7 0.304415 0.814621 0.313385
O O8 0.699602 0.845765 0.018394
O O9 0.750000 0.250000 0.500000
O O10 0.598462 0.358526 0.662627
O O11 0.211449 0.500000 0.263147
O O12 0.391423 0.403699 0.161252
O O13 0.000000 0.424396 0.500000
O O14 0.457784 0.637817 0.878168
O O15 0.736935 0.703537 0.690771
O O16 0.500000 0.709639 0.500000
#
# Coordination Sequence:
#
# PCOD9168635 Si02
#       7
#     8   8   8   8   8   8   8
#     4  12  19  29  45  60  80 104 141 179 218 252
#     4   9  17  26  40  59  79 101 130 166 209 253
#     4  10  16  26  42  61  79  99 129 174 214 251
#     4  11  22  36  47  58  82 116 151 187 221 249
#     4   9  16  26  41  59  78  98 129 170 212 245
#     4  11  19  29  45  59  78 103 140 179 216 249
#     4  11  20  30  40  60  85 106 138 173 214 246
#
# _framework density 15.840716
#
# number of rings (size 3 to 8) (size 9 to 14) (size 15 to 20)
#    0.000    1.571    8.571    0.429    2.000    1.143 
#    0.000    0.000    0.000    0.000    0.000    0.000 
#    0.000    0.000    0.000    0.000    0.000    2.857 
#
# Total GULP energy -155939.474905 kJ/mol
# GULP energy per Si atom -5569.266961 kJ/mol
# Density = 1.580466 g / cm^3
# Si number density = 15.840716 Si / 1000 Ang^3
#
#
#
# Elastic Constant Matrix: (Units=GPa)
#
#
# Indices 1 2 3 4 5 6 
#
# 1 114.9334 13.3787 34.8267 0.0170 -21.3235 0.0084
# 2 13.3787 11.5545 0.0031 0.0428 -3.7099 -0.0046
# 3 34.8267 0.0031 103.1997 0.1769 -7.7242 -0.0055
# 4 0.0170 0.0428 0.1769 7.2326 0.0110 -0.4328
# 5 -21.3235 -3.7099 -7.7242 0.0110 26.4060 -0.0287
# 6 0.0084 -0.0046 -0.0055 -0.4328 -0.0287 2.9991
#
#
#
# Elastic Compliance Matrix: (Units=1/GPa)
#
#
# Indices 1 2 3 4 5 6 
#
# 1 0.012618 -0.012238 -0.003705 0.000124 0.007386 0.000027
# 2 -0.012238 0.102603 0.004567 -0.000690 0.005869 0.000158
# 3 -0.003705 0.004567 0.011006 -0.000289 0.000869 0.000004
# 4 0.000124 -0.000690 -0.000289 0.139478 -0.000118 0.020126
# 5 0.007386 0.005869 0.000869 -0.000118 0.044914 0.000403
# 6 0.000027 0.000158 0.000004 0.020126 0.000403 0.336340
#
#
# Mechanical properties :
#
#
# Convention : Reuss Voigt Hill
#
# Bulk Modulus (GPa) = 9.66423 36.23386 22.94905
# Shear Modulus (GPa) = 7.10022 19.42614 13.26318
#
# Velocity S-wave (km/s) = 2.11943 3.50572 2.89673
# Velocity P-wave (km/s) = 3.47900 6.26979 5.07019
#
# Compressibility (1/GPa) = 0.10347431
#
# Stress axis : x y z
#
# Youngs Moduli (GPa) = 79.24921 9.74633 90.86127
#
# Poissons Ratio (x) = 0.11928 0.33667
# Poissons Ratio (y) = 0.96988 -0.41500
# Poissons Ratio (z) = 0.29364 -0.04452
#
# Static dielectric constant tensor:
#      x y z
#    x 1.554400 0.000010 0.013770 
#    y 0.000010 1.487980 0.000010 
#    z 0.013770 0.000010 1.589730 
# 
# From -- ./inp_files/347767.got.cif
#   From: 2010.05.17/outbox.cif.g08.bks.cpg/sg12_174_cif.got.tgz:347767.got - 2010.06.03 13:09:07.
