data_PCOD9168902
_publ_section_title
;
Structure prediction by ZEFSAII (Michael W. Deem and Ramdas Pophale) SiO2 
 PCOD9168902
Probable space group: C 2/M
;
_chemical_formula_sum "Si O2"
_cell_formula_units_Z 48
_cell_length_a 20.905900
_cell_length_b 14.648268
_cell_length_c 8.112500
_cell_angle_alpha 90.000000
_cell_angle_beta 85.895021
_cell_angle_gamma 90.000000
_cell_volume 2477.959878
_symmetry_space_group_name_H-M "C 2/M"
_symmetry_group_IT_number 12
_symmetry_cell_setting 'monoclinic'
loop_
_space_group_symop_operation_xyz
x,y,z
-x,y,-z
-x,-y,-z
x,-y,z
1/2+x,1/2+y,z
1/2-x,1/2+y,-z
1/2-x,1/2-y,-z
1/2+x,1/2-y,z
loop_
_atom_site_type_symbol
_atom_site_label
_atom_site_fract_x
_atom_site_fract_y
_atom_site_fract_z
Si Si1 0.754501 0.350306 0.168873
Si Si2 0.395810 0.609010 0.782536
Si Si3 0.198563 0.334447 0.507995
Si Si4 0.914166 0.896604 0.151677
Si Si5 0.764320 0.133311 0.176931
Si Si6 0.933606 0.226339 0.464989
O O1 0.677964 0.358051 0.202958
O O2 0.788377 0.387259 0.325217
O O3 0.772898 0.243352 0.159568
O O4 0.767155 0.394307 0.989993
O O5 0.396288 0.500000 0.771057
O O6 0.425597 0.653029 0.614574
O O7 0.425032 0.631860 0.958104
O O8 0.250000 0.250000 0.500000
O O9 0.219483 0.386386 0.339888
O O10 0.128175 0.291554 0.518850
O O11 0.836429 0.902045 0.182645
O O12 0.935534 0.826727 0.289560
O O13 0.939819 0.000000 0.172168
O O14 0.000000 0.274908 0.500000
#
# Coordination Sequence:
#
# PCOD9168902 Si02
#       6
#     8   8   8   8   8   8
#     4   9  15  27  50  69  83 113 154 194 234 269
#     4  10  20  33  48  69  96 126 160 193 225 270
#     4  10  16  30  50  67  83 115 156 196 232 268
#     4  10  20  33  48  69  96 126 160 193 225 270
#     4   9  15  27  50  69  83 113 154 194 234 269
#     4  12  23  33  46  68  96 129 166 194 221 267
#
# _framework density 19.370774000000001
#
# number of rings (size 3 to 8) (size 9 to 14) (size 15 to 20)
#    0.000    2.000    6.667    0.500    0.000    2.000 
#    0.000    1.667    0.000    0.000    0.000    0.000 
#    0.000    2.667    0.000    8.333    0.000    0.000 
#
# Total GULP energy -133826.031381 kJ/mol
# GULP energy per Si atom -5576.084641 kJ/mol
# Density = 1.932669 g / cm^3
# Si number density = 19.370774 Si / 1000 Ang^3
#
#
#
# Elastic Constant Matrix: (Units=GPa)
#
#
# Indices 1 2 3 4 5 6 
#
# 1 87.9197 11.3517 18.1243 0.0000 23.1981 0.0000
# 2 11.3517 40.3184 8.9715 0.0000 4.1893 0.0000
# 3 18.1243 8.9715 154.2191 0.0000 18.5844 0.0000
# 4 0.0000 0.0000 0.0000 5.5617 0.0000 -1.9956
# 5 23.1981 4.1893 18.5844 0.0000 23.0905 0.0000
# 6 0.0000 0.0000 0.0000 -1.9956 0.0000 3.4956
#
#
#
# Elastic Compliance Matrix: (Units=1/GPa)
#
#
# Indices 1 2 3 4 5 6 
#
# 1 0.015796 -0.002877 0.000178 0.000000 -0.015491 0.000000
# 2 -0.002877 0.025948 -0.001055 0.000000 -0.000968 0.000000
# 3 0.000178 -0.001055 0.007224 0.000000 -0.005801 0.000000
# 4 0.000000 0.000000 0.000000 0.226122 0.000000 0.129090
# 5 -0.015491 -0.000968 -0.005801 0.000000 0.063716 0.000000
# 6 0.000000 0.000000 0.000000 0.129090 0.000000 0.359766
#
#
# Mechanical properties :
#
#
# Convention : Reuss Voigt Hill
#
# Bulk Modulus (GPa) = 24.12008 39.92803 32.02405
# Shear Modulus (GPa) = 6.94541 22.69688 14.82114
#
# Velocity S-wave (km/s) = 1.89560 3.42673 2.76910
# Velocity P-wave (km/s) = 4.15570 6.02610 5.17609
#
# Compressibility (1/GPa) = 0.04145923
#
# Stress axis : x y z
#
# Youngs Moduli (GPa) = 63.30630 38.53860 138.43043
#
# Poissons Ratio (x) = 0.11089 -0.02460
# Poissons Ratio (y) = 0.18216 0.14600
# Poissons Ratio (z) = -0.01125 0.04065
#
# Static dielectric constant tensor:
#      x y z
#    x 1.695070 0.000000 0.003460 
#    y 0.000000 1.638910 0.000000 
#    z 0.003460 0.000000 1.796830 
# 
# From -- ./inp_files/74567.got.cif
#   From: 2010.05.17/outbox.cif.g08.bks.cpg/sg12_38_cif.got.tgz:74567.got - 2010.06.03 13:09:07.
