data_PCOD9168721
_publ_section_title
;
Structure prediction by ZEFSAII (Michael W. Deem and Ramdas Pophale) SiO2 
 PCOD9168721
Probable space group: C 2/M
;
_chemical_formula_sum "Si O2"
_cell_formula_units_Z 64
_cell_length_a 19.923604
_cell_length_b 22.747474
_cell_length_c 7.108771
_cell_angle_alpha 90.000000
_cell_angle_beta 88.985003
_cell_angle_gamma 90.000000
_cell_volume 3221.272414
_symmetry_space_group_name_H-M "C 2/M"
_symmetry_group_IT_number 12
_symmetry_cell_setting 'monoclinic'
loop_
_space_group_symop_operation_xyz
x,y,z
-x,y,-z
-x,-y,-z
x,-y,z
1/2+x,1/2+y,z
1/2-x,1/2+y,-z
1/2-x,1/2-y,-z
1/2+x,1/2-y,z
loop_
_atom_site_type_symbol
_atom_site_label
_atom_site_fract_x
_atom_site_fract_y
_atom_site_fract_z
Si Si1 0.017969 0.360837 0.274891
Si Si2 0.104562 0.435409 0.799235
Si Si3 0.227239 0.324647 0.290690
Si Si4 0.783328 0.649795 0.150227
Si Si5 0.510170 0.273741 0.211421
Si Si6 0.348809 0.708152 0.773384
Si Si7 0.141592 0.566095 0.364955
Si Si8 0.140952 0.234767 0.774219
O O1 0.954803 0.388994 0.171753
O O2 0.031206 0.295001 0.206598
O O3 0.000000 0.356547 0.500000
O O4 0.082708 0.402555 0.249093
O O5 0.089387 0.500000 0.876484
O O6 0.177222 0.411013 0.851495
O O7 0.110431 0.440052 0.573157
O O8 0.180190 0.267448 0.322445
O O9 0.200103 0.385226 0.376355
O O10 0.303855 0.306769 0.325173
O O11 0.223652 0.333271 0.066515
O O12 0.709416 0.659218 0.239381
O O13 0.831651 0.698595 0.243820
O O14 0.575317 0.305572 0.292227
O O15 0.434624 0.272907 0.294249
O O16 0.500000 0.295928 0.000000
O O17 0.356019 0.721682 0.999563
O O18 0.159954 0.500000 0.300638
#
# Coordination Sequence:
#
# PCOD9168721 Si02
#       8
#     8   8   8   8   8   8   8   8
#     4  10  19  30  42  60  88 119 149 179 208 244
#     4  10  20  32  44  60  86 120 152 180 213 251
#     4   9  16  29  45  64  87 112 143 180 217 254
#     4   9  16  29  45  64  87 112 143 180 217 254
#     4  10  16  27  47  67  87 117 146 170 208 261
#     4   8  15  26  44  66  89 112 138 176 219 257
#     4  10  20  32  44  60  86 120 152 180 213 251
#     4   8  15  26  44  66  89 112 138 176 219 257
#
# _framework density 19.867923999999999
#
# number of rings (size 3 to 8) (size 9 to 14) (size 15 to 20)
#    0.000    2.750    2.500    1.875    0.000    2.000 
#    0.000    3.750    0.000    2.250    0.000    0.875 
#    0.000    7.000    0.000    0.000    0.000    0.000 
#
# Total GULP energy -178556.060566 kJ/mol
# GULP energy per Si atom -5579.876893 kJ/mol
# Density = 1.982270 g / cm^3
# Si number density = 19.867924 Si / 1000 Ang^3
#
#
#
# Elastic Constant Matrix: (Units=GPa)
#
#
# Indices 1 2 3 4 5 6 
#
# 1 158.6805 29.3808 -7.3113 0.0000 5.9900 0.0000
# 2 29.3808 52.4881 -7.9990 0.0000 0.4076 0.0000
# 3 -7.3113 -7.9990 57.5480 0.0000 -0.2315 0.0000
# 4 0.0000 0.0000 0.0000 17.2705 0.0000 -3.7426
# 5 5.9900 0.4076 -0.2315 0.0000 12.7208 0.0000
# 6 0.0000 0.0000 0.0000 -3.7426 0.0000 12.1052
#
#
#
# Elastic Compliance Matrix: (Units=1/GPa)
#
#
# Indices 1 2 3 4 5 6 
#
# 1 0.007169 -0.003934 0.000351 0.000000 -0.003243 0.000000
# 2 -0.003934 0.021628 0.002511 0.000000 0.001205 0.000000
# 3 0.000351 0.002511 0.017771 0.000000 0.000078 0.000000
# 4 0.000000 0.000000 0.000000 0.062060 0.000000 0.019187
# 5 -0.003243 0.001205 0.000078 0.000000 0.080101 0.000000
# 6 0.000000 0.000000 0.000000 0.019187 0.000000 0.088541
#
#
# Mechanical properties :
#
#
# Convention : Reuss Voigt Hill
#
# Bulk Modulus (GPa) = 22.51091 32.98417 27.74754
# Shear Modulus (GPa) = 16.99400 25.39573 21.19486
#
# Velocity S-wave (km/s) = 2.92781 3.57911 3.26972
# Velocity P-wave (km/s) = 4.77329 5.80670 5.31517
#
# Compressibility (1/GPa) = 0.04442291
#
# Stress axis : x y z
#
# Youngs Moduli (GPa) = 139.48882 46.23736 56.27228
#
# Poissons Ratio (x) = 0.18191 -0.01975
# Poissons Ratio (y) = 0.54879 -0.14131
# Poissons Ratio (z) = -0.04895 -0.11611
#
# Static dielectric constant tensor:
#      x y z
#    x 1.751260 0.000000 -0.005170 
#    y 0.000000 1.673060 0.000000 
#    z -0.005170 0.000000 1.814450 
# 
# From -- ./inp_files/89126.got.cif
#   From: 2010.05.17/outbox.cif.g08.bks.cpg/sg12_45_cif.got.tgz:89126.got - 2010.06.03 13:09:07.
