data_PCOD9168348
_publ_section_title
;
Structure prediction by ZEFSAII (Michael W. Deem and Ramdas Pophale) SiO2 
 PCOD9168348
Probable space group: C 2/M
;
_chemical_formula_sum "Si O2"
_cell_formula_units_Z 52
_cell_length_a 21.647758
_cell_length_b 22.711773
_cell_length_c 11.481542
_cell_angle_alpha 90.000000
_cell_angle_beta 153.991768
_cell_angle_gamma 90.000000
_cell_volume 2475.335407
_symmetry_space_group_name_H-M "C 2/M"
_symmetry_group_IT_number 12
_symmetry_cell_setting 'monoclinic'
loop_
_space_group_symop_operation_xyz
x,y,z
-x,y,-z
-x,-y,-z
x,-y,z
1/2+x,1/2+y,z
1/2-x,1/2+y,-z
1/2-x,1/2-y,-z
1/2+x,1/2-y,z
loop_
_atom_site_type_symbol
_atom_site_label
_atom_site_fract_x
_atom_site_fract_y
_atom_site_fract_z
Si Si1 0.848009 0.126940 0.697707
Si Si2 0.121423 0.110836 0.805559
Si Si3 0.432279 0.200028 0.753847
Si Si4 0.334449 0.871680 0.978105
Si Si5 0.412980 0.321548 0.584646
Si Si6 0.967491 0.000000 0.211916
Si Si7 0.784745 0.500000 0.792533
Si Si8 0.822263 0.000000 0.634412
O O1 0.722233 0.171673 0.502769
O O2 0.875023 0.123684 0.605056
O O3 0.809132 0.062064 0.675578
O O4 0.000000 0.145966 0.000000
O O5 0.272328 0.119863 0.002275
O O6 0.116135 0.056880 0.886329
O O7 0.000000 0.099963 0.500000
O O8 0.059853 0.166760 0.770227
O O9 0.419390 0.264036 0.674137
O O10 0.500000 0.200455 0.000000
O O11 0.524021 0.160186 0.821609
O O12 0.214939 0.827713 0.721410
O O13 0.339927 0.938151 0.935475
O O14 0.116945 0.000000 0.534492
O O15 0.027080 0.000000 0.180528
O O16 0.791984 0.500000 0.664285
#
# Coordination Sequence:
#
# PCOD9168348 Si02
#       8
#     8   8   8   8   8   4   4   4
#     4  12  24  40  63  90 118 166 207 250 305 368
#     4  10  17  32  60  90 125 151 199 255 303 360
#     4  12  26  42  60  87 127 168 205 250 302 365
#     4  11  22  37  63  95 123 159 202 254 319 349
#     4  11  21  38  58  88 119 160 206 244 293 363
#     4  10  14  30  59  94 123 147 197 256 315 353
#     4  10  15  34  61  92 125 145 199 257 309 359
#     4  10  17  37  59  89 121 149 206 251 302 362
#
# _framework density 21.007254
#
# number of rings (size 3 to 8) (size 9 to 14) (size 15 to 20)
#    0.462    0.615    7.692    1.846    2.154    1.231 
#    0.000    1.538    0.000    0.000    0.000    1.077 
#    0.000    0.000    0.000    0.000    0.000    0.000 
#
# Total GULP energy -144967.560343 kJ/mol
# GULP energy per Si atom -5575.675398 kJ/mol
# Density = 2.095944 g / cm^3
# Si number density = 21.007254 Si / 1000 Ang^3
#
#
#
# Elastic Constant Matrix: (Units=GPa)
#
#
# Indices 1 2 3 4 5 6 
#
# 1 70.5213 36.5204 23.2244 0.0000 18.9518 0.0000
# 2 36.5204 146.4914 47.4639 0.0000 8.0395 0.0000
# 3 23.2244 47.4639 58.1678 0.0000 19.7549 0.0000
# 4 0.0000 0.0000 0.0000 110.6941 0.0000 -61.2293
# 5 18.9518 8.0395 19.7549 0.0000 20.9075 0.0000
# 6 0.0000 0.0000 0.0000 -61.2293 0.0000 69.1414
#
#
#
# Elastic Compliance Matrix: (Units=1/GPa)
#
#
# Indices 1 2 3 4 5 6 
#
# 1 0.021229 -0.004911 0.002099 0.000000 -0.019338 0.000000
# 2 -0.004911 0.010830 -0.010269 0.000000 0.009990 0.000000
# 3 0.002099 -0.010269 0.035396 0.000000 -0.031399 0.000000
# 4 0.000000 0.000000 0.000000 0.017708 0.000000 0.015682
# 5 -0.019338 0.009990 -0.031399 0.000000 0.091186 0.000000
# 6 0.000000 0.000000 0.000000 0.015682 0.000000 0.028350
#
#
# Mechanical properties :
#
#
# Convention : Reuss Voigt Hill
#
# Bulk Modulus (GPa) = 24.21699 54.39977 39.30838
# Shear Modulus (GPa) = 20.43942 51.34672 35.89307
#
# Velocity S-wave (km/s) = 3.12263 4.94929 4.13801
# Velocity P-wave (km/s) = 4.95520 7.65588 6.44851
#
# Compressibility (1/GPa) = 0.04129332
#
# Stress axis : x y z
#
# Youngs Moduli (GPa) = 47.10513 92.33989 28.25143
#
# Poissons Ratio (x) = 0.45350 -0.05930
# Poissons Ratio (y) = 0.23135 0.29011
# Poissons Ratio (z) = -0.09888 0.94821
#
# Static dielectric constant tensor:
#      x y z
#    x 1.827230 0.000000 -0.058800 
#    y 0.000000 1.769380 0.000000 
#    z -0.058800 0.000000 1.824250 
# 
# From -- ./inp_files/169897.got.cif
#   From: 2010.05.17/outbox.cif.g08.bks.cpg/sg12_85_cif.got.tgz:169897.got - 2010.06.03 13:09:07.
