data_PCOD9168316
_publ_section_title
;
Structure prediction by ZEFSAII (Michael W. Deem and Ramdas Pophale) SiO2 
 PCOD9168316
Probable space group: C 2/M
;
_chemical_formula_sum "Si O2"
_cell_formula_units_Z 40
_cell_length_a 13.409776
_cell_length_b 11.080751
_cell_length_c 23.283620
_cell_angle_alpha 90.000000
_cell_angle_beta 29.776673
_cell_angle_gamma 90.000000
_cell_volume 1718.169372
_symmetry_space_group_name_H-M "C 2/M"
_symmetry_group_IT_number 12
_symmetry_cell_setting 'monoclinic'
loop_
_space_group_symop_operation_xyz
x,y,z
-x,y,-z
-x,-y,-z
x,-y,z
1/2+x,1/2+y,z
1/2-x,1/2+y,-z
1/2-x,1/2-y,-z
1/2+x,1/2-y,z
loop_
_atom_site_type_symbol
_atom_site_label
_atom_site_fract_x
_atom_site_fract_y
_atom_site_fract_z
Si Si1 0.977338 0.500000 0.079928
Si Si2 0.812150 0.500000 0.421108
Si Si3 0.998909 0.000000 0.332779
Si Si4 0.103117 0.500000 0.388206
Si Si5 0.993761 0.256994 0.719766
Si Si6 0.346565 0.753317 0.021917
Si Si7 0.667450 0.632832 0.804462
O O1 0.092862 0.379454 0.037244
O O2 0.000000 0.500000 0.000000
O O3 0.741982 0.500000 0.211311
O O4 0.589230 0.500000 0.558816
O O5 0.940763 0.500000 0.417133
O O6 0.866418 0.375268 0.360419
O O7 0.929638 0.123056 0.334766
O O8 0.249774 0.612694 0.300921
O O9 0.000000 0.500000 0.500000
O O10 0.871430 0.258715 0.840965
O O11 0.817654 0.276830 0.760129
O O12 0.500000 0.737621 0.000000
O O13 0.438333 0.661173 0.930385
O O14 0.700398 0.500000 0.815738
#
# Coordination Sequence:
#
# PCOD9168316 Si02
#       7
#     4   4   4   4   8   8   8
#     4  10  14  24  38  59  85 124 139 154 191 247
#     4  10  22  29  40  65  86 118 152 162 211 257
#     4  12  18  28  39  60  99 128 133 156 198 268
#     4   8  16  31  43  56  80 106 148 196 216 230
#     4  10  17  27  40  59  95 119 136 164 199 255
#     4   9  14  22  39  61  87 110 136 168 202 243
#     4   8  15  23  40  65  81 101 143 178 213 236
#
# _framework density 23.280591000000001
#
# number of rings (size 3 to 8) (size 9 to 14) (size 15 to 20)
#    0.600    2.000    7.000    0.600    1.400    1.200 
#    0.000    0.000    0.000    0.000    0.000   18.900 
#    0.000    0.000    0.000    0.000    0.000    0.000 
#
# Total GULP energy -111346.221821 kJ/mol
# GULP energy per Si atom -5567.311091 kJ/mol
# Density = 2.322760 g / cm^3
# Si number density = 23.280591 Si / 1000 Ang^3
#
#
#
# Elastic Constant Matrix: (Units=GPa)
#
#
# Indices 1 2 3 4 5 6 
#
# 1 52.0048 7.9602 17.3693 0.0003 0.5001 -0.0101
# 2 7.9602 146.8418 68.2961 0.0012 17.8039 -0.0477
# 3 17.3693 68.2961 214.9778 -0.0079 40.9287 0.2234
# 4 0.0003 0.0012 -0.0079 59.0398 0.0023 -631.7337
# 5 0.5001 17.8039 40.9287 0.0023 37.9166 -0.0680
# 6 -0.0101 -0.0477 0.2234 -631.7337 -0.068019627.8164
#
#
#
# Elastic Compliance Matrix: (Units=1/GPa)
#
#
# Indices 1 2 3 4 5 6 
#
# 1 0.019891 -0.000462 -0.001827 0.000000 0.001927 0.000000
# 2 -0.000462 0.008051 -0.002268 0.000000 -0.001326 0.000000
# 3 -0.001827 -0.002268 0.006687 0.000000 -0.006129 0.000000
# 4 0.000000 0.000000 0.000000 0.025835 0.000000 0.000832
# 5 0.001927 -0.001326 -0.006129 0.000000 0.033587 0.000000
# 6 0.000000 0.000000 0.000000 0.000832 0.000000 0.000078
#
#
# Mechanical properties :
#
#
# Convention : Reuss Voigt Hill
#
# Bulk Modulus (GPa) = 39.19347 66.78618 52.98982
# Shear Modulus (GPa) = 44.74386 3966.30113 2005.52249
#
# Velocity S-wave (km/s) = 4.38875 41.32061 29.38243
# Velocity P-wave (km/s) = 6.52329 48.01327 34.26242
#
# Compressibility (1/GPa) = 0.02551446
#
# Stress axis : x y z
#
# Youngs Moduli (GPa) = 50.27283 124.21378 149.55378
#
# Poissons Ratio (x) = 0.05740 0.27327
# Poissons Ratio (y) = 0.02323 0.33915
# Poissons Ratio (z) = 0.09186 0.28169
#
# Static dielectric constant tensor:
#      x y z
#    x 1.983680 0.000000 -0.068550 
#    y 0.000000 2.088930 0.000000 
#    z -0.068550 0.000000 2.044740 
# 
# From -- ./inp_files/378859.got.cif
#   From: 2010.05.17/outbox.cif.g08.bks.cpg/sg12_190_cif.got.tgz:378859.got - 2010.06.03 13:09:07.
