data_PCOD9168308
_publ_section_title
;
Structure prediction by ZEFSAII (Michael W. Deem and Ramdas Pophale) SiO2 
 PCOD9168308
Probable space group: C 2/M
;
_chemical_formula_sum "Si O2"
_cell_formula_units_Z 48
_cell_length_a 5.458522
_cell_length_b 14.521734
_cell_length_c 27.225414
_cell_angle_alpha 90.000000
_cell_angle_beta 84.277548
_cell_angle_gamma 90.000000
_cell_volume 2147.327815
_symmetry_space_group_name_H-M "C 2/M"
_symmetry_group_IT_number 12
_symmetry_cell_setting 'monoclinic'
loop_
_space_group_symop_operation_xyz
x,y,z
-x,y,-z
-x,-y,-z
x,-y,z
1/2+x,1/2+y,z
1/2-x,1/2+y,-z
1/2-x,1/2-y,-z
1/2+x,1/2-y,z
loop_
_atom_site_type_symbol
_atom_site_label
_atom_site_fract_x
_atom_site_fract_y
_atom_site_fract_z
Si Si1 0.450501 0.647860 0.701394
Si Si2 0.721637 0.146139 0.141959
Si Si3 0.735731 0.888371 0.027827
Si Si4 0.555060 0.809714 0.446127
Si Si5 0.298628 0.354590 0.817716
Si Si6 0.029769 0.640017 0.338284
O O1 0.370505 0.649919 0.759430
O O2 0.719053 0.604609 0.690420
O O3 0.478339 0.751590 0.678521
O O4 0.228089 0.603040 0.675904
O O5 0.712514 0.147175 0.083584
O O6 0.729006 0.249944 0.162528
O O7 0.469740 0.103590 0.167681
O O8 0.975940 0.103442 0.156194
O O9 0.732860 0.000000 0.030319
O O10 0.500000 0.860303 0.000000
O O11 0.000000 0.861321 0.000000
O O12 0.500000 0.855489 0.500000
O O13 0.324344 0.738446 0.444067
O O14 0.550398 0.867256 0.396388
#
# Coordination Sequence:
#
# PCOD9168308 Si02
#       6
#     8   8   8   8   8   8
#     4  10  16  23  36  49  73  96 127 158 196 244
#     4  10  18  32  48  65  90 112 135 164 205 250
#     4  10  21  37  54  70  87 111 142 172 200 234
#     4  10  16  22  28  39  59  85 124 175 220 238
#     4  10  19  30  43  67  90 114 134 166 215 251
#     4  10  14  22  31  46  61  94 128 163 205 239
#
# _framework density 22.353363999999999
#
# number of rings (size 3 to 8) (size 9 to 14) (size 15 to 20)
#    0.000    2.000    3.333    6.000    0.000    0.000 
#    0.000   10.000    0.000    0.000    0.000    0.000 
#    0.000    0.000    0.000    0.000    0.000    0.000 
#
# Total GULP energy -133996.557783 kJ/mol
# GULP energy per Si atom -5583.189908 kJ/mol
# Density = 2.230249 g / cm^3
# Si number density = 22.353364 Si / 1000 Ang^3
#
#
#
# Elastic Constant Matrix: (Units=GPa)
#
#
# Indices 1 2 3 4 5 6 
#
# 1 129.9714 -6.3389 -46.0845 0.0000 -3.3911 0.0000
# 2 -6.3389 68.9241 -10.8236 0.0000 -0.7813 0.0000
# 3 -46.0845 -10.8236 96.3714 0.0000 1.0976 0.0000
# 4 0.0000 0.0000 0.0000 -31.0676 0.0000 0.5646
# 5 -3.3911 -0.7813 1.0976 0.0000 48.0172 0.0000
# 6 0.0000 0.0000 0.0000 0.5646 0.0000 -22.0422
#
#
#
# Elastic Compliance Matrix: (Units=1/GPa)
#
#
# Indices 1 2 3 4 5 6 
#
# 1 0.009453 0.001613 0.004695 0.000000 0.000586 0.000000
# 2 0.001613 0.015046 0.002458 0.000000 0.000303 0.000000
# 3 0.004695 0.002458 0.012897 0.000000 0.000077 0.000000
# 4 0.000000 0.000000 0.000000 -0.032203 0.000000 -0.000825
# 5 0.000586 0.000303 0.000077 0.000000 0.020870 0.000000
# 6 0.000000 0.000000 0.000000 -0.000825 0.000000 -0.045389
#
#
# Mechanical properties :
#
#
# Convention : Reuss Voigt Hill
#
# Bulk Modulus (GPa) = 18.20583 18.75255 18.47919
# Shear Modulus (GPa) = -269.57331 22.88242 -123.34545
#
# Velocity S-wave (km/s) = -10.99355 3.20295 -7.43637
# Velocity P-wave (km/s) = 12.36859 4.69956 8.08999
#
# Compressibility (1/GPa) = 0.05492746
#
# Stress axis : x y z
#
# Youngs Moduli (GPa) = 105.79097 66.46068 77.53928
#
# Poissons Ratio (x) = -0.10722 -0.36402
# Poissons Ratio (y) = -0.17067 -0.19058
# Poissons Ratio (z) = -0.49666 -0.16335
#
# Static dielectric constant tensor:
#      x y z
#    x 1.919000 0.000000 0.001590 
#    y 0.000000 1.983550 0.000000 
#    z 0.001590 0.000000 1.765570 
# 
# From -- ./inp_files/331319.got.cif
#   From: 2010.05.17/outbox.cif.g08.bks.cpg/sg12_166_cif.got.tgz:331319.got - 2010.06.03 13:09:07.
