data_PCOD9168750
_publ_section_title
;
Structure prediction by ZEFSAII (Michael W. Deem and Ramdas Pophale) SiO2 
 PCOD9168750
Probable space group: C 2/M
;
_chemical_formula_sum "Si O2"
_cell_formula_units_Z 64
_cell_length_a 20.865459
_cell_length_b 14.436720
_cell_length_c 10.066352
_cell_angle_alpha 90.000000
_cell_angle_beta 106.931370
_cell_angle_gamma 90.000000
_cell_volume 2900.838876
_symmetry_space_group_name_H-M "C 2/M"
_symmetry_group_IT_number 12
_symmetry_cell_setting 'monoclinic'
loop_
_space_group_symop_operation_xyz
x,y,z
-x,y,-z
-x,-y,-z
x,-y,z
1/2+x,1/2+y,z
1/2-x,1/2+y,-z
1/2-x,1/2-y,-z
1/2+x,1/2-y,z
loop_
_atom_site_type_symbol
_atom_site_label
_atom_site_fract_x
_atom_site_fract_y
_atom_site_fract_z
Si Si1 0.355886 0.107961 0.006005
Si Si2 0.591101 0.307940 0.629191
Si Si3 0.417031 0.756119 0.833398
Si Si4 0.908490 0.398057 0.474248
Si Si5 0.543988 0.390056 0.329892
Si Si6 0.985760 0.399026 0.221633
Si Si7 0.221614 0.105062 0.800922
Si Si8 0.797715 0.670470 0.586808
O O1 0.384577 0.195628 0.941498
O O2 0.275846 0.121887 0.950660
O O3 0.362585 0.000000 0.954729
O O4 0.405211 0.106940 0.161736
O O5 0.584756 0.199754 0.594852
O O6 0.590313 0.359484 0.484399
O O7 0.527256 0.345760 0.670621
O O8 0.658396 0.328452 0.750473
O O9 0.435145 0.651977 0.800897
O O10 0.482471 0.816589 0.842684
O O11 0.360931 0.779762 0.690920
O O12 0.912724 0.500000 0.412252
O O13 0.030649 0.397066 0.381659
O O14 0.835180 0.391845 0.500298
O O15 0.540377 0.500000 0.324645
O O16 0.002480 0.500000 0.171431
O O17 0.261271 0.117102 0.684783
O O18 0.196844 0.000000 0.797118
O O19 0.750000 0.750000 0.500000
#
# Coordination Sequence:
#
# PCOD9168750 Si02
#       8
#     8   8   8   8   8   8   8   8
#     4   9  18  30  53  85 112 137 166 210 267 318
#     4  11  20  36  53  74 103 138 181 218 260 306
#     4  10  18  30  48  76 104 134 168 215 264 310
#     4  10  19  32  51  78 113 141 167 209 263 317
#     4  11  22  36  53  74  99 138 185 226 257 297
#     4   9  16  30  51  78 109 138 168 208 259 316
#     4  10  18  29  49  76 105 135 171 217 258 304
#     4  10  16  28  45  68 104 137 165 201 256 315
#
# _framework density 22.062583
#
# number of rings (size 3 to 8) (size 9 to 14) (size 15 to 20)
#    0.000    2.000    3.750    2.625    0.000    4.000 
#    0.000    3.125    0.000    2.250    0.000    0.000 
#    0.000    0.000    0.000    0.000    0.000    0.000 
#
# Total GULP energy -178306.984585 kJ/mol
# GULP energy per Si atom -5572.093268 kJ/mol
# Density = 2.201237 g / cm^3
# Si number density = 22.062583 Si / 1000 Ang^3
#
#
#
# Elastic Constant Matrix: (Units=GPa)
#
#
# Indices 1 2 3 4 5 6 
#
# 1 67.5038 32.0002 33.7473 0.0000 36.5315 0.0000
# 2 32.0002 169.4747 49.5086 0.0000 12.4082 0.0000
# 3 33.7473 49.5086 84.2420 0.0000 35.2313 0.0000
# 4 0.0000 0.0000 0.0000 15.3578 0.0000 5.7122
# 5 36.5315 12.4082 35.2313 0.0000 49.9365 0.0000
# 6 0.0000 0.0000 0.0000 5.7122 0.0000 31.1159
#
#
#
# Elastic Compliance Matrix: (Units=1/GPa)
#
#
# Indices 1 2 3 4 5 6 
#
# 1 0.026661 -0.003361 -0.001273 0.000000 -0.017771 0.000000
# 2 -0.003361 0.007648 -0.004797 0.000000 0.003943 0.000000
# 3 -0.001273 -0.004797 0.020302 0.000000 -0.012200 0.000000
# 4 0.000000 0.000000 0.000000 0.069885 0.000000 -0.012829
# 5 -0.017771 0.003943 -0.012200 0.000000 0.040654 0.000000
# 6 0.000000 0.000000 0.000000 -0.012829 0.000000 0.034493
#
#
# Mechanical properties :
#
#
# Convention : Reuss Voigt Hill
#
# Bulk Modulus (GPa) = 27.97345 61.30363 44.63854
# Shear Modulus (GPa) = 21.69935 33.01300 27.35617
#
# Velocity S-wave (km/s) = 3.13954 3.87244 3.52509
# Velocity P-wave (km/s) = 5.08419 6.91672 6.07001
#
# Compressibility (1/GPa) = 0.03574818
#
# Stress axis : x y z
#
# Youngs Moduli (GPa) = 37.50820 130.75395 49.25563
#
# Poissons Ratio (x) = 0.43948 0.06271
# Poissons Ratio (y) = 0.12607 0.23629
# Poissons Ratio (z) = 0.04775 0.62726
#
# Static dielectric constant tensor:
#      x y z
#    x 1.858590 0.000000 -0.064890 
#    y 0.000000 1.782320 0.000000 
#    z -0.064890 0.000000 1.893620 
# 
# From -- ./inp_files/167313.got.cif
#   From: 2010.05.17/outbox.cif.g08.bks.cpg/sg12_84_cif.got.tgz:167313.got - 2010.06.03 13:09:07.
