data_PCOD9168105
_publ_section_title
;
Structure prediction by ZEFSAII (Michael W. Deem and Ramdas Pophale) SiO2 
 PCOD9168105
Probable space group: P 21/M
;
_chemical_formula_sum "Si O2"
_cell_formula_units_Z 32
_cell_length_a 27.000000
_cell_length_b 9.000000
_cell_length_c 21.000000
_cell_angle_alpha 90.000000
_cell_angle_beta 160.000000
_cell_angle_gamma 90.000000
_cell_volume 1745.328791
_symmetry_space_group_name_H-M "P 21/M"
_symmetry_group_IT_number 11
_symmetry_cell_setting 'monoclinic'
loop_
_space_group_symop_operation_xyz
x,y,z
-x,1/2+y,-z
-x,-y,-z
x,1/2-y,z
loop_
_atom_site_type_symbol
_atom_site_label
_atom_site_fract_x
_atom_site_fract_y
_atom_site_fract_z
Si Si1 0.253481 0.929979 0.490399
Si Si2 0.473347 0.071758 0.657993
Si Si3 0.089740 0.071489 0.901852
Si Si4 0.205097 0.925756 0.911798
Si Si5 0.588643 0.571042 0.665659
Si Si6 0.460124 0.079512 0.847002
Si Si7 0.701110 0.581072 0.212393
Si Si8 0.007049 0.574407 0.440300
O O1 0.265647 0.750000 0.506084
O O2 0.078318 0.965143 0.281256
O O3 0.337602 0.996708 0.530202
O O4 0.346559 0.999518 0.661984
O O5 0.451157 0.250000 0.624122
O O6 0.516503 0.997894 0.642501
O O7 0.621997 0.049548 0.877819
O O8 0.090478 0.250000 0.891539
O O9 0.132129 0.984955 0.888799
O O10 0.235207 0.041153 0.121033
O O11 0.179758 0.750000 0.875306
O O12 0.124787 0.013433 0.759878
O O13 0.500000 0.500000 0.500000
O O14 0.572497 0.750000 0.646339
O O15 0.487444 0.250000 0.857831
O O16 0.390693 0.089031 0.833571
O O17 0.608105 0.990586 0.042208
O O18 0.743871 0.750000 0.246971
O O19 0.838285 0.482552 0.397466
O O20 0.004752 0.750000 0.440059
O O21 0.000000 0.500000 0.500000
#
# Coordination Sequence:
#
# PCOD9168105 Si02
#       8
#     4   4   4   4   4   4   4   4
#     4  11  22  36  57  85 118 153 193 239 290 343
#     4  10  22  39  60  88 121 155 195 240 290 345
#     4   9  20  38  61  89 119 154 194 236 283 342
#     4  10  21  38  59  82 111 148 194 244 294 351
#     4  10  20  39  66  94 124 157 195 234 282 341
#     4  10  21  36  56  79 108 146 186 235 291 350
#     4  10  21  38  56  77 104 140 190 241 295 352
#     4  12  25  38  54  75 106 144 189 242 297 350
#
# _framework density 18.334654
#
# number of rings (size 3 to 8) (size 9 to 14) (size 15 to 20)
#    0.000    1.750    0.000    4.125    1.750    6.500 
#    0.000    0.625    0.000    0.000    0.000    0.000 
#    0.000    0.000    0.000    0.000    0.000    0.000 
#
# Total GULP energy -178556.250621 kJ/mol
# GULP energy per Si atom -5579.882832 kJ/mol
# Density = 1.829292 g / cm^3
# Si number density = 18.334654 Si / 1000 Ang^3
#
#
#
# Elastic Constant Matrix: (Units=GPa)
#
#
# Indices 1 2 3 4 5 6 
#
# 1 67.1626 43.7787 52.1018 0.0000 3.3291 0.0000
# 2 43.7787 131.7666 72.2888 0.0000 -4.6724 0.0000
# 3 52.1018 72.2888 121.4156 0.0000 -4.4941 0.0000
# 4 0.0000 0.0000 0.0000 36.0417 0.0000 -1.7956
# 5 3.3291 -4.6724 -4.4941 0.0000 39.2574 0.0000
# 6 0.0000 0.0000 0.0000 -1.7956 0.0000 31.8982
#
#
#
# Elastic Compliance Matrix: (Units=1/GPa)
#
#
# Indices 1 2 3 4 5 6 
#
# 1 0.023706 -0.003485 -0.008223 0.000000 -0.003366 0.000000
# 2 -0.003485 0.011796 -0.005488 0.000000 0.001071 0.000000
# 3 -0.008223 -0.005488 0.015098 0.000000 0.001773 0.000000
# 4 0.000000 0.000000 0.000000 0.027824 0.000000 0.001566
# 5 -0.003366 0.001071 0.001773 0.000000 0.026089 0.000000
# 6 0.000000 0.000000 0.000000 0.001566 0.000000 0.031438
#
#
# Mechanical properties :
#
#
# Convention : Reuss Voigt Hill
#
# Bulk Modulus (GPa) = 61.69374 72.96482 67.32928
# Shear Modulus (GPa) = 28.45048 31.58450 30.01749
#
# Velocity S-wave (km/s) = 3.94348 4.15500 4.05062
# Velocity P-wave (km/s) = 7.37946 7.93103 7.66021
#
# Compressibility (1/GPa) = 0.01620910
#
# Stress axis : x y z
#
# Youngs Moduli (GPa) = 42.18280 84.77688 66.23460
#
# Poissons Ratio (x) = 0.29541 0.54464
# Poissons Ratio (y) = 0.14699 0.36350
# Poissons Ratio (z) = 0.34686 0.46526
#
# Static dielectric constant tensor:
#      x y z
#    x 1.708550 0.000000 0.070630 
#    y 0.000000 1.622410 0.000000 
#    z 0.070630 0.000000 1.675500 
# 
# From -- ./inp_files/67182.got.cif
#   From: 2010.05.17/outbox.ucp.g08.bks.cvg/sg11_34_cif.got.tgz:67182.got - 2010.06.11 11:38:39.
