data_PCOD9168677
_publ_section_title
;
Structure prediction by ZEFSAII (Michael W. Deem and Ramdas Pophale) SiO2 
 PCOD9168677
Probable space group: C 2/M
;
_chemical_formula_sum "Si O2"
_cell_formula_units_Z 36
_cell_length_a 9.032161
_cell_length_b 28.328849
_cell_length_c 14.719889
_cell_angle_alpha 90.000000
_cell_angle_beta 159.532268
_cell_angle_gamma 90.000000
_cell_volume 1317.030068
_symmetry_space_group_name_H-M "C 2/M"
_symmetry_group_IT_number 12
_symmetry_cell_setting 'monoclinic'
loop_
_space_group_symop_operation_xyz
x,y,z
-x,y,-z
-x,-y,-z
x,-y,z
1/2+x,1/2+y,z
1/2-x,1/2+y,-z
1/2-x,1/2-y,-z
1/2+x,1/2-y,z
loop_
_atom_site_type_symbol
_atom_site_label
_atom_site_fract_x
_atom_site_fract_y
_atom_site_fract_z
Si Si1 0.000000 0.000000 0.000000
Si Si2 0.472595 0.578199 0.148714
Si Si3 0.412870 0.687077 0.091056
Si Si4 0.500000 0.335850 0.500000
Si Si5 0.500000 0.240243 0.000000
Si Si6 0.963236 0.919499 0.608522
Si Si7 0.500000 0.500000 0.500000
O O1 0.973287 0.041354 0.901040
O O2 0.660600 0.572200 0.358974
O O3 0.546577 0.632841 0.163771
O O4 0.969736 0.574816 0.885854
O O5 0.656747 0.723775 0.168246
O O6 0.926121 0.689480 0.774781
O O7 0.355265 0.706517 0.159872
O O8 0.368003 0.369724 0.508241
O O9 0.791856 0.960154 0.445697
#
# Coordination Sequence:
#
# PCOD9168677 Si02
#       7
#     2   8   8   4   4   8   2
#     4  12  22  30  56  86 108 146 190 236 278 322
#     4  10  20  36  55  79 111 147 191 231 279 342
#     4  10  20  37  58  84 115 148 192 238 283 341
#     4   9  18  33  60  86 110 146 190 239 284 329
#     4  10  21  36  60  84 112 154 189 232 290 342
#     4   9  18  33  55  75 105 151 190 230 277 335
#     4  10  16  26  48  78 100 130 196 238 254 310
#
# _framework density 27.334229000000001
#
# number of rings (size 3 to 8) (size 9 to 14) (size 15 to 20)
#    0.000    2.222    0.000    4.667    0.000    2.667 
#    0.000    0.000    0.000   64.000    0.000    0.000 
#    0.000    0.000    0.000    0.000    0.000    0.000 
#
# Total GULP energy -100289.306930 kJ/mol
# GULP energy per Si atom -5571.628163 kJ/mol
# Density = 2.727201 g / cm^3
# Si number density = 27.334229 Si / 1000 Ang^3
#
#
#
# Elastic Constant Matrix: (Units=GPa)
#
#
# Indices 1 2 3 4 5 6 
#
# 1 270.9851 108.6633 38.4832 0.0000 -18.0888 0.0000
# 2 108.6633 224.3209 29.6496 0.0001 -28.7162 0.0001
# 3 38.4832 29.6496 89.3048 0.0008 -27.1990 0.0003
# 4 0.0000 0.0001 0.0008 -10.6903 0.0004 -2.4189
# 5 -18.0888 -28.7162 -27.1990 0.0004 49.1376 0.0003
# 6 0.0000 0.0001 0.0003 -2.4189 0.0003 42.2582
#
#
#
# Elastic Compliance Matrix: (Units=1/GPa)
#
#
# Indices 1 2 3 4 5 6 
#
# 1 0.004731 -0.002142 -0.001417 0.000000 -0.000295 0.000000
# 2 -0.002142 0.005848 -0.000262 0.000000 0.002484 0.000000
# 3 -0.001417 -0.000262 0.014060 0.000001 0.007108 0.000000
# 4 0.000000 0.000000 0.000001 -0.092346 0.000002 -0.005286
# 5 -0.000295 0.002484 0.007108 0.000002 0.025629 0.000000
# 6 0.000000 0.000000 0.000000 -0.005286 0.000000 0.023361
#
#
# Mechanical properties :
#
#
# Convention : Reuss Voigt Hill
#
# Bulk Modulus (GPa) = 58.83549 104.24478 81.54014
# Shear Modulus (GPa) = -924.31232 43.32874 -440.49179
#
# Velocity S-wave (km/s) = -18.40886 3.98571 -12.70827
# Velocity P-wave (km/s) = 20.74312 7.70721 13.61756
#
# Compressibility (1/GPa) = 0.01699654
#
# Stress axis : x y z
#
# Youngs Moduli (GPa) = 211.38216 170.99400 71.12347
#
# Poissons Ratio (x) = 0.36628 0.10079
# Poissons Ratio (y) = 0.45279 0.01863
# Poissons Ratio (z) = 0.29957 0.04480
#
# Static dielectric constant tensor:
#      x y z
#    x 2.382320 0.000000 0.590870 
#    y 0.000000 2.053940 0.000000 
#    z 0.590870 0.000000 3.577870 
# 
# From -- ./inp_files/200302.got.cif
#   From: 2010.05.17/outbox.cif.g08.bks.cpg/sg12_101_cif.got.tgz:200302.got - 2010.06.03 13:09:07.
