data_PCOD9168280
_publ_section_title
;
Structure prediction by ZEFSAII (Michael W. Deem and Ramdas Pophale) SiO2 
 PCOD9168280
Probable space group: C 2/M
;
_chemical_formula_sum "Si O2"
_cell_formula_units_Z 44
_cell_length_a 9.462653
_cell_length_b 19.331710
_cell_length_c 9.469572
_cell_angle_alpha 90.000000
_cell_angle_beta 115.278142
_cell_angle_gamma 90.000000
_cell_volume 1566.389999
_symmetry_space_group_name_H-M "C 2/M"
_symmetry_group_IT_number 12
_symmetry_cell_setting 'monoclinic'
loop_
_space_group_symop_operation_xyz
x,y,z
-x,y,-z
-x,-y,-z
x,-y,z
1/2+x,1/2+y,z
1/2-x,1/2+y,-z
1/2-x,1/2-y,-z
1/2+x,1/2-y,z
loop_
_atom_site_type_symbol
_atom_site_label
_atom_site_fract_x
_atom_site_fract_y
_atom_site_fract_z
Si Si1 0.141467 0.148402 0.418993
Si Si2 0.323038 0.500000 0.645127
Si Si3 0.287465 0.284013 0.848251
Si Si4 0.131549 0.000000 0.927809
Si Si5 0.035888 0.500000 0.685021
Si Si6 0.460264 0.847016 0.651705
Si Si7 0.683051 0.646830 0.850251
O O1 0.164461 0.174651 0.268956
O O2 0.282795 0.181817 0.568527
O O3 0.950990 0.146994 0.332012
O O4 0.202025 0.069580 0.449389
O O5 0.504422 0.500000 0.748933
O O6 0.224637 0.500000 0.750170
O O7 0.313863 0.201588 0.858166
O O8 0.098151 0.298762 0.770250
O O9 0.360192 0.316317 0.019564
O O10 0.221523 0.070558 0.926188
O O11 0.000000 0.000000 0.000000
O O12 0.000000 0.500000 0.500000
O O13 0.982835 0.425655 0.720670
O O14 0.500000 0.851334 0.500000
#
# Coordination Sequence:
#
# PCOD9168280 Si02
#       7
#     8   4   8   4   4   8   8
#     4  10  17  30  47  69  94 125 155 192 231 279
#     4  10  14  24  44  70  94 116 150 185 235 268
#     4  10  19  31  43  68  96 124 149 186 234 281
#     4  10  20  30  48  70  90 119 152 192 229 281
#     4  10  12  22  40  68  94 120 146 183 226 279
#     4   9  16  24  44  66  93 123 158 183 230 272
#     4  10  21  31  46  69  97 121 152 186 234 280
#
# _framework density 28.090067000000001
#
# number of rings (size 3 to 8) (size 9 to 14) (size 15 to 20)
#    0.000    2.182    5.455    2.727    0.000    0.727 
#    0.000    0.000    0.000    0.000    0.000   18.455 
#    0.000    0.000    0.000    0.000    0.000    0.000 
#
# Total GULP energy -122589.561264 kJ/mol
# GULP energy per Si atom -5572.252785 kJ/mol
# Density = 2.802613 g / cm^3
# Si number density = 28.090067 Si / 1000 Ang^3
#
#
#
# Elastic Constant Matrix: (Units=GPa)
#
#
# Indices 1 2 3 4 5 6 
#
# 1 82.5235 -6.3322 7.4600 0.0000 27.4876 0.0000
# 2 -6.3322 200.7168 8.4953 0.0000 22.1002 0.0000
# 3 7.4600 8.4953 128.5999 0.0000 34.7987 0.0000
# 4 0.0000 0.0000 0.0000 21.3213 0.0000 5.9361
# 5 27.4876 22.1002 34.7987 0.0000 38.1461 0.0000
# 6 0.0000 0.0000 0.0000 5.9361 0.0000 6.2557
#
#
#
# Elastic Compliance Matrix: (Units=1/GPa)
#
#
# Indices 1 2 3 4 5 6 
#
# 1 0.017754 0.002321 0.003508 0.000000 -0.017338 0.000000
# 2 0.002321 0.005665 0.001104 0.000000 -0.005962 0.000000
# 3 0.003508 0.001104 0.011096 0.000000 -0.013290 0.000000
# 4 0.000000 0.000000 0.000000 0.063741 0.000000 -0.060485
# 5 -0.017338 -0.005962 -0.013290 0.000000 0.054287 0.000000
# 6 0.000000 0.000000 0.000000 -0.060485 0.000000 0.217248
#
#
# Mechanical properties :
#
#
# Convention : Reuss Voigt Hill
#
# Bulk Modulus (GPa) = 20.66893 47.89849 34.28371
# Shear Modulus (GPa) = 13.43902 39.95910 26.69906
#
# Velocity S-wave (km/s) = 2.18967 3.77574 3.08633
# Velocity P-wave (km/s) = 3.71038 6.00808 4.99320
#
# Compressibility (1/GPa) = 0.04838181
#
# Stress axis : x y z
#
# Youngs Moduli (GPa) = 56.32585 176.52109 90.12373
#
# Poissons Ratio (x) = -0.40964 -0.31620
# Poissons Ratio (y) = -0.13071 -0.09953
# Poissons Ratio (z) = -0.19762 -0.19495
#
# Static dielectric constant tensor:
#      x y z
#    x 2.571170 0.000000 0.154930 
#    y 0.000000 2.265240 0.000000 
#    z 0.154930 0.000000 2.314880 
# 
# From -- ./inp_files/215633.got.cif
#   From: 2010.05.17/outbox.cif.g08.bks.cpg/sg12_108_cif.got.tgz:215633.got - 2010.06.03 13:09:07.
