data_PCOD9168274
_publ_section_title
;
Structure prediction by ZEFSAII (Michael W. Deem and Ramdas Pophale) SiO2 
 PCOD9168274
Probable space group: P 21/M
;
_chemical_formula_sum "Si O2"
_cell_formula_units_Z 32
_cell_length_a 15.000000
_cell_length_b 9.000000
_cell_length_c 27.000000
_cell_angle_alpha 90.000000
_cell_angle_beta 30.000000
_cell_angle_gamma 90.000000
_cell_volume 1822.500000
_symmetry_space_group_name_H-M "P 21/M"
_symmetry_group_IT_number 11
_symmetry_cell_setting 'monoclinic'
loop_
_space_group_symop_operation_xyz
x,y,z
-x,1/2+y,-z
-x,-y,-z
x,1/2-y,z
loop_
_atom_site_type_symbol
_atom_site_label
_atom_site_fract_x
_atom_site_fract_y
_atom_site_fract_z
Si Si1 0.915882 0.571170 0.591042
Si Si2 0.503275 0.929640 0.333211
Si Si3 0.054230 0.570852 0.715138
Si Si4 0.756195 0.570828 0.014177
Si Si5 0.847106 0.071384 0.217698
Si Si6 0.506500 0.071624 0.220762
Si Si7 0.329949 0.071189 0.056923
Si Si8 0.836875 0.931115 0.443855
O O1 0.950914 0.750000 0.574304
O O2 0.701134 0.550368 0.695566
O O3 0.000000 0.500000 0.500000
O O4 0.007392 0.493208 0.594565
O O5 0.482465 0.750000 0.341991
O O6 0.686020 0.979327 0.271943
O O7 0.514145 0.994198 0.271569
O O8 0.341733 0.003343 0.443209
O O9 0.066171 0.750000 0.701419
O O10 0.138834 0.540887 0.729456
O O11 0.130522 0.490805 0.628685
O O12 0.847797 0.530265 0.826410
O O13 0.740979 0.750000 0.028044
O O14 0.677884 0.529228 0.997559
O O15 0.967971 0.539391 0.901609
O O16 0.647816 0.493777 0.111846
O O17 0.817981 0.250000 0.227174
O O18 0.536766 0.250000 0.211163
O O19 0.337093 0.250000 0.054396
O O20 0.500000 0.000000 0.000000
O O21 0.832084 0.750000 0.446169
#
# Coordination Sequence:
#
# PCOD9168274 Si02
#       8
#     4   4   4   4   4   4   4   4
#     4  11  23  40  62  87 121 161 200 247 300 352
#     4  12  25  41  64  89 118 156 200 251 303 361
#     4   9  20  40  62  86 120 159 199 245 298 353
#     4   9  20  39  61  87 120 158 198 243 298 352
#     4   9  20  42  67  88 119 158 199 252 301 350
#     4  11  24  40  61  90 122 158 201 246 296 357
#     4   9  19  35  56  84 118 155 197 242 291 346
#     4  12  25  40  61  90 123 159 201 248 298 360
#
# _framework density 17.558299000000002
#
# number of rings (size 3 to 8) (size 9 to 14) (size 15 to 20)
#    0.000    1.750    1.250    4.500    1.750    4.500 
#    0.000    2.500    0.000    0.000    0.000    0.000 
#    0.000    0.000    0.000    0.000    0.000    0.000 
#
# Total GULP energy -178487.734958 kJ/mol
# GULP energy per Si atom -5577.741717 kJ/mol
# Density = 1.751834 g / cm^3
# Si number density = 17.558299 Si / 1000 Ang^3
#
#
#
# Elastic Constant Matrix: (Units=GPa)
#
#
# Indices 1 2 3 4 5 6 
#
# 1 133.8360 67.7979 91.0566 0.0000 7.7130 0.0000
# 2 67.7979 125.9418 75.6282 0.0000 9.2367 0.0000
# 3 91.0566 75.6282 164.7887 0.0000 26.0636 0.0000
# 4 0.0000 0.0000 0.0000 40.5231 0.0000 3.7514
# 5 7.7130 9.2367 26.0636 0.0000 43.1228 0.0000
# 6 0.0000 0.0000 0.0000 3.7514 0.0000 37.0551
#
#
#
# Elastic Compliance Matrix: (Units=1/GPa)
#
#
# Indices 1 2 3 4 5 6 
#
# 1 0.013296 -0.003730 -0.005955 0.000000 0.002020 0.000000
# 2 -0.003730 0.012030 -0.003492 0.000000 0.000201 0.000000
# 3 -0.005955 -0.003492 0.011803 0.000000 -0.005321 0.000000
# 4 0.000000 0.000000 0.000000 0.024911 0.000000 -0.002522
# 5 0.002020 0.000201 -0.005321 0.000000 0.026001 0.000000
# 6 0.000000 0.000000 0.000000 -0.002522 0.000000 0.027242
#
#
# Mechanical properties :
#
#
# Convention : Reuss Voigt Hill
#
# Bulk Modulus (GPa) = 92.79676 99.28132 96.03904
# Shear Modulus (GPa) = 34.42845 36.81246 35.62046
#
# Velocity S-wave (km/s) = 4.43291 4.58382 4.50899
# Velocity P-wave (km/s) = 8.89754 9.20227 9.05119
#
# Compressibility (1/GPa) = 0.01077624
#
# Stress axis : x y z
#
# Youngs Moduli (GPa) = 75.20882 83.12335 84.72575
#
# Poissons Ratio (x) = 0.31006 0.50451
# Poissons Ratio (y) = 0.28054 0.29585
# Poissons Ratio (z) = 0.44784 0.29025
#
# Static dielectric constant tensor:
#      x y z
#    x 1.609700 0.000000 -0.022350 
#    y 0.000000 1.594230 0.000000 
#    z -0.022350 0.000000 1.588930 
# 
# From -- ./inp_files/71601.got.cif
#   From: 2010.05.17/outbox.ucp.g08.bks.cvg/sg11_36_cif.got.tgz:71601.got - 2010.06.11 11:38:39.
