data_PCOD9168371
_publ_section_title
;
Structure prediction by ZEFSAII (Michael W. Deem and Ramdas Pophale) SiO2 
 PCOD9168371
Probable space group: C 2/M
;
_chemical_formula_sum "Si O2"
_cell_formula_units_Z 56
_cell_length_a 21.228834
_cell_length_b 18.325256
_cell_length_c 8.227395
_cell_angle_alpha 90.000000
_cell_angle_beta 115.969596
_cell_angle_gamma 90.000000
_cell_volume 2877.471648
_symmetry_space_group_name_H-M "C 2/M"
_symmetry_group_IT_number 12
_symmetry_cell_setting 'monoclinic'
loop_
_space_group_symop_operation_xyz
x,y,z
-x,y,-z
-x,-y,-z
x,-y,z
1/2+x,1/2+y,z
1/2-x,1/2+y,-z
1/2-x,1/2-y,-z
1/2+x,1/2-y,z
loop_
_atom_site_type_symbol
_atom_site_label
_atom_site_fract_x
_atom_site_fract_y
_atom_site_fract_z
Si Si1 0.297338 0.272213 0.403495
Si Si2 0.393915 0.138792 0.822661
Si Si3 0.868605 0.667088 0.291173
Si Si4 0.163586 0.235260 0.058063
Si Si5 0.261760 0.580775 0.314185
Si Si6 0.020009 0.414316 0.765832
Si Si7 0.272952 0.416560 0.934330
O O1 0.250000 0.250000 0.500000
O O2 0.359410 0.217240 0.438541
O O3 0.242245 0.262672 0.191273
O O4 0.314001 0.356886 0.435076
O O5 0.383780 0.224358 0.858597
O O6 0.316395 0.104605 0.719057
O O7 0.446790 0.120554 0.738288
O O8 0.428676 0.099893 0.020269
O O9 0.938014 0.622626 0.333283
O O10 0.802801 0.611417 0.213780
O O11 0.860792 0.725267 0.133831
O O12 0.172441 0.147969 0.053743
O O13 0.276925 0.500000 0.390089
O O14 0.265981 0.581563 0.122733
O O15 0.011364 0.500000 0.731152
O O16 0.287947 0.500000 0.898357
#
# Coordination Sequence:
#
# PCOD9168371 Si02
#       7
#     8   8   8   8   8   8   8
#     4  10  18  29  43  61  85 115 143 176 218 262
#     4   9  16  23  40  62  91 116 146 176 207 252
#     4  10  16  28  42  62  89 112 143 176 211 254
#     4   9  16  29  42  60  84 110 145 178 214 257
#     4  10  16  26  43  62  84 113 145 178 213 256
#     4  10  16  23  38  66  92 115 144 178 209 245
#     4  10  15  23  42  64  82 109 141 178 216 254
#
# _framework density 19.461528000000001
#
# number of rings (size 3 to 8) (size 9 to 14) (size 15 to 20)
#    0.000    2.286    5.714    3.000    0.000    0.000 
#    0.000    3.571    0.000    3.429    0.000   14.000 
#    0.000    0.000    0.000   10.286    0.000    0.000 
#
# Total GULP energy -156109.115291 kJ/mol
# GULP energy per Si atom -5575.325546 kJ/mol
# Density = 1.941723 g / cm^3
# Si number density = 19.461528 Si / 1000 Ang^3
#
#
#
# Elastic Constant Matrix: (Units=GPa)
#
#
# Indices 1 2 3 4 5 6 
#
# 1 99.7316 77.3851 27.9682 0.0000 -31.4772 0.0000
# 2 77.3851 225.8851 30.4519 0.0000 -22.7482 0.0000
# 3 27.9682 30.4519 36.3970 0.0000 -11.1491 0.0000
# 4 0.0000 0.0000 0.0000 11.3320 0.0000 -5.2853
# 5 -31.4772 -22.7482 -11.1491 0.0000 33.7235 0.0000
# 6 0.0000 0.0000 0.0000 -5.2853 0.0000 34.1970
#
#
#
# Elastic Compliance Matrix: (Units=1/GPa)
#
#
# Indices 1 2 3 4 5 6 
#
# 1 0.019593 -0.004417 -0.007422 0.000000 0.012854 0.000000
# 2 -0.004417 0.006138 -0.001932 0.000000 -0.000621 0.000000
# 3 -0.007422 -0.001932 0.035910 0.000000 0.003641 0.000000
# 4 0.000000 0.000000 0.000000 0.095101 0.000000 0.014698
# 5 0.012854 -0.000621 0.003641 0.000000 0.042436 0.000000
# 6 0.000000 0.000000 0.000000 0.014698 0.000000 0.031514
#
#
# Mechanical properties :
#
#
# Convention : Reuss Voigt Hill
#
# Bulk Modulus (GPa) = 29.32680 70.40269 49.86474
# Shear Modulus (GPa) = 18.54601 30.93106 24.73853
#
# Velocity S-wave (km/s) = 3.09035 3.99098 3.56919
# Velocity P-wave (km/s) = 5.27594 7.58229 6.53172
#
# Compressibility (1/GPa) = 0.03409850
#
# Stress axis : x y z
#
# Youngs Moduli (GPa) = 51.03895 162.91628 27.84768
#
# Poissons Ratio (x) = 0.71962 0.20670
# Poissons Ratio (y) = 0.22544 0.05379
# Poissons Ratio (z) = 0.37883 0.31468
#
# Static dielectric constant tensor:
#      x y z
#    x 1.671700 0.000000 -0.018280 
#    y 0.000000 1.731930 0.000000 
#    z -0.018280 0.000000 1.769320 
# 
# From -- ./inp_files/87279.got.cif
#   From: 2010.05.17/outbox.cif.g08.bks.cpg/sg12_44_cif.got.tgz:87279.got - 2010.06.03 13:09:07.
