data_PCOD9168931
_publ_section_title
;
Structure prediction by ZEFSAII (Michael W. Deem and Ramdas Pophale) SiO2 
 PCOD9168931
Probable space group: C 2/M
;
_chemical_formula_sum "Si O2"
_cell_formula_units_Z 56
_cell_length_a 15.403252
_cell_length_b 19.868950
_cell_length_c 14.740591
_cell_angle_alpha 90.000000
_cell_angle_beta 152.028437
_cell_angle_gamma 90.000000
_cell_volume 2115.952400
_symmetry_space_group_name_H-M "C 2/M"
_symmetry_group_IT_number 12
_symmetry_cell_setting 'monoclinic'
loop_
_space_group_symop_operation_xyz
x,y,z
-x,y,-z
-x,-y,-z
x,-y,z
1/2+x,1/2+y,z
1/2-x,1/2+y,-z
1/2-x,1/2-y,-z
1/2+x,1/2-y,z
loop_
_atom_site_type_symbol
_atom_site_label
_atom_site_fract_x
_atom_site_fract_y
_atom_site_fract_z
Si Si1 0.897358 0.071909 0.003411
Si Si2 0.226589 0.143290 0.651679
Si Si3 0.149523 0.781881 0.053774
Si Si4 0.545885 0.924478 0.851920
Si Si5 0.276072 0.720910 0.624804
Si Si6 0.299690 0.926686 0.443494
Si Si7 0.362596 0.356432 0.228831
O O1 0.073958 0.072147 0.234122
O O2 0.796348 0.000000 0.924322
O O3 0.781023 0.140785 0.884729
O O4 0.000000 0.069156 0.000000
O O5 0.429572 0.123618 0.810015
O O6 0.205954 0.223314 0.630181
O O7 0.194008 0.117304 0.722162
O O8 0.079102 0.125483 0.436859
O O9 0.294142 0.721807 0.170107
O O10 0.000000 0.774316 0.000000
O O11 0.998359 0.782254 0.834182
O O12 0.424236 0.926438 0.648923
O O13 0.551827 0.000000 0.893449
O O14 0.750373 0.893921 0.046690
O O15 0.250000 0.750000 0.500000
O O16 0.182114 0.651408 0.568277
O O17 0.344715 0.000000 0.439954
#
# Coordination Sequence:
#
# PCOD9168931 Si02
#       7
#     8   8   8   8   8   8   8
#     4   8  15  26  48  85 114 144 193 236 278 340
#     4  11  23  37  60  86 118 155 192 250 293 349
#     4  10  16  30  55  78 111 149 185 232 287 338
#     4  11  22  40  62  85 118 157 194 240 299 358
#     4  11  18  33  59  84 113 152 196 236 290 348
#     4   9  18  32  56  86 118 156 195 237 290 348
#     4  11  22  38  57  89 118 149 202 240 297 351
#
# _framework density 26.465622
#
# number of rings (size 3 to 8) (size 9 to 14) (size 15 to 20)
#    0.000    1.857    4.286    0.429    0.000    1.714 
#    0.000    4.286    0.000    0.857    0.000    2.000 
#    0.000    0.000    0.000    0.000    0.000    0.000 
#
# Total GULP energy -156091.485271 kJ/mol
# GULP energy per Si atom -5574.695903 kJ/mol
# Density = 2.640539 g / cm^3
# Si number density = 26.465622 Si / 1000 Ang^3
#
#
#
# Elastic Constant Matrix: (Units=GPa)
#
#
# Indices 1 2 3 4 5 6 
#
# 1 59.1980 6.3475 25.7201 0.0000 0.1061 0.0000
# 2 6.3475 140.1340 32.2676 0.0000 -4.0044 0.0000
# 3 25.7201 32.2676 154.9151 0.0000 1.4887 0.0000
# 4 0.0000 0.0000 0.0000 24.0646 0.0000 -3.4720
# 5 0.1061 -4.0044 1.4887 0.0000 33.9405 0.0000
# 6 0.0000 0.0000 0.0000 -3.4720 0.0000 -1.2872
#
#
#
# Elastic Compliance Matrix: (Units=1/GPa)
#
#
# Indices 1 2 3 4 5 6 
#
# 1 0.018208 -0.000133 -0.002996 0.000000 0.000059 0.000000
# 2 -0.000133 0.007527 -0.001555 0.000000 0.000957 0.000000
# 3 -0.002996 -0.001555 0.007281 0.000000 -0.000493 0.000000
# 4 0.000000 0.000000 0.000000 0.029914 0.000000 -0.080686
# 5 0.000059 0.000957 -0.000493 0.000000 0.029598 0.000000
# 6 0.000000 0.000000 0.000000 -0.080686 0.000000 -0.559243
#
#
# Mechanical properties :
#
#
# Convention : Reuss Voigt Hill
#
# Bulk Modulus (GPa) = 42.28560 53.65751 47.97156
# Shear Modulus (GPa) = -11.12437 30.67105 9.77334
#
# Velocity S-wave (km/s) = -2.05243 3.40796 1.92376
# Velocity P-wave (km/s) = 3.22423 5.98364 4.80623
#
# Compressibility (1/GPa) = 0.02364871
#
# Stress axis : x y z
#
# Youngs Moduli (GPa) = 54.92006 132.84700 137.34040
#
# Poissons Ratio (x) = 0.01770 0.41146
# Poissons Ratio (y) = 0.00732 0.21356
# Poissons Ratio (z) = 0.16453 0.20657
#
# Static dielectric constant tensor:
#      x y z
#    x 2.100080 0.000000 -0.075520 
#    y 0.000000 2.146050 0.000000 
#    z -0.075520 0.000000 2.140090 
# 
# From -- ./inp_files/286089.got.cif
#   From: 2010.05.17/outbox.cif.g08.bks.cpg/sg12_144_cif.got.tgz:286089.got - 2010.06.03 13:09:07.
