data_PCOD9168536
_publ_section_title
;
Structure prediction by ZEFSAII (Michael W. Deem and Ramdas Pophale) SiO2 
 PCOD9168536
Probable space group: C 2/M
;
_chemical_formula_sum "Si O2"
_cell_formula_units_Z 56
_cell_length_a 9.926744
_cell_length_b 25.743764
_cell_length_c 9.783419
_cell_angle_alpha 90.000000
_cell_angle_beta 59.371889
_cell_angle_gamma 90.000000
_cell_volume 2151.376624
_symmetry_space_group_name_H-M "C 2/M"
_symmetry_group_IT_number 12
_symmetry_cell_setting 'monoclinic'
loop_
_space_group_symop_operation_xyz
x,y,z
-x,y,-z
-x,-y,-z
x,-y,z
1/2+x,1/2+y,z
1/2-x,1/2+y,-z
1/2-x,1/2-y,-z
1/2+x,1/2-y,z
loop_
_atom_site_type_symbol
_atom_site_label
_atom_site_fract_x
_atom_site_fract_y
_atom_site_fract_z
Si Si1 0.236909 0.943560 0.874695
Si Si2 0.427654 0.077745 0.185267
Si Si3 0.725267 0.787873 0.866438
Si Si4 0.206979 0.675006 0.166840
Si Si5 0.586667 0.555319 0.245790
Si Si6 0.368400 0.173827 0.384915
Si Si7 0.541679 0.668333 0.635290
O O1 0.416412 0.947858 0.833575
O O2 0.230679 0.882576 0.827651
O O3 0.207069 0.000000 0.817874
O O4 0.124148 0.942872 0.064915
O O5 0.258076 0.056478 0.228240
O O6 0.379526 0.113676 0.338289
O O7 0.500000 0.094133 0.000000
O O8 0.690260 0.726809 0.883766
O O9 0.674003 0.805000 0.743580
O O10 0.911277 0.800061 0.783602
O O11 0.660941 0.821065 0.027672
O O12 0.045460 0.687367 0.329187
O O13 0.512154 0.500000 0.320779
O O14 0.491504 0.607125 0.328676
O O15 0.222382 0.183800 0.559228
O O16 0.500000 0.679477 0.500000
#
# Coordination Sequence:
#
# PCOD9168536 Si02
#       7
#     8   8   8   8   8   8   8
#     4   9  16  26  41  63  89 114 149 186 219 264
#     4   9  14  24  39  58  83 118 147 175 211 253
#     4  10  18  31  47  64  89 115 160 186 216 271
#     4  10  19  30  49  67  85 124 149 189 228 258
#     4  10  16  24  38  58  85 121 156 176 207 264
#     4  10  18  30  45  63  92 120 146 188 226 257
#     4  10  18  29  39  59  89 122 145 187 219 254
#
# _framework density 26.029845000000002
#
# number of rings (size 3 to 8) (size 9 to 14) (size 15 to 20)
#    0.000    2.286    4.286    2.571    0.000    2.571 
#    0.000    0.714    0.000    0.000    0.000    0.000 
#    0.000   15.429    0.000    0.000    0.000    0.000 
#
# Total GULP energy -156024.905726 kJ/mol
# GULP energy per Si atom -5572.318062 kJ/mol
# Density = 2.597060 g / cm^3
# Si number density = 26.029845 Si / 1000 Ang^3
#
#
#
# Elastic Constant Matrix: (Units=GPa)
#
#
# Indices 1 2 3 4 5 6 
#
# 1 86.2075 -5.0127 31.4823 0.0000 -20.9087 0.0000
# 2 -5.0127 89.3185 30.0280 0.0000 -23.3051 0.0000
# 3 31.4823 30.0280 120.0802 0.0000 -25.2055 0.0000
# 4 0.0000 0.0000 0.0000 75.8778 0.0000 -14.6264
# 5 -20.9087 -23.3051 -25.2055 0.0000 28.9694 0.0000
# 6 0.0000 0.0000 0.0000 -14.6264 0.0000 -16.7547
#
#
#
# Elastic Compliance Matrix: (Units=1/GPa)
#
#
# Indices 1 2 3 4 5 6 
#
# 1 0.016230 0.005399 -0.002734 0.000000 0.013678 0.000000
# 2 0.005399 0.016163 -0.002337 0.000000 0.014867 0.000000
# 3 -0.002734 -0.002337 0.010791 0.000000 0.005536 0.000000
# 4 0.000000 0.000000 0.000000 0.011281 0.000000 -0.009848
# 5 0.013678 0.014867 0.005536 0.000000 0.061168 0.000000
# 6 0.000000 0.000000 0.000000 -0.009848 0.000000 -0.051088
#
#
# Mechanical properties :
#
#
# Convention : Reuss Voigt Hill
#
# Bulk Modulus (GPa) = 22.81000 45.40016 34.10508
# Shear Modulus (GPa) = 63.69266 33.55909 48.62588
#
# Velocity S-wave (km/s) = 4.95199 3.59451 4.32682
# Velocity P-wave (km/s) = 6.44037 5.89125 6.17192
#
# Compressibility (1/GPa) = 0.04384042
#
# Stress axis : x y z
#
# Youngs Moduli (GPa) = 61.61493 61.86780 92.67069
#
# Poissons Ratio (x) = -0.33402 0.25336
# Poissons Ratio (y) = -0.33266 0.21656
# Poissons Ratio (z) = 0.16846 0.14458
#
# Static dielectric constant tensor:
#      x y z
#    x 2.110040 0.000000 -0.014640 
#    y 0.000000 2.123190 0.000000 
#    z -0.014640 0.000000 2.026880 
# 
# From -- ./inp_files/218786.got.cif
#   From: 2010.05.17/outbox.cif.g08.bks.cpg/sg12_110_cif.got.tgz:218786.got - 2010.06.03 13:09:07.
