data_PCOD9168008
_publ_section_title
;
Structure prediction by ZEFSAII (Michael W. Deem and Ramdas Pophale) SiO2 
 PCOD9168008
Probable space group: P 21/M
;
_chemical_formula_sum "Si O2"
_cell_formula_units_Z 28
_cell_length_a 15.000000
_cell_length_b 9.000000
_cell_length_c 21.000000
_cell_angle_alpha 90.000000
_cell_angle_beta 150.000000
_cell_angle_gamma 90.000000
_cell_volume 1417.500000
_symmetry_space_group_name_H-M "P 21/M"
_symmetry_group_IT_number 11
_symmetry_cell_setting 'monoclinic'
loop_
_space_group_symop_operation_xyz
x,y,z
-x,1/2+y,-z
-x,-y,-z
x,1/2-y,z
loop_
_atom_site_type_symbol
_atom_site_label
_atom_site_fract_x
_atom_site_fract_y
_atom_site_fract_z
Si Si1 0.521614 0.930022 0.194248
Si Si2 0.450212 0.074677 0.401995
Si Si3 0.989887 0.582724 0.683561
Si Si4 0.860683 0.080346 0.094137
Si Si5 0.309384 0.575989 0.574480
Si Si6 0.102339 0.081404 0.119755
Si Si7 0.384231 0.919008 0.873398
O O1 0.521581 0.750000 0.199207
O O2 0.587768 0.996887 0.302817
O O3 0.632653 0.989290 0.202664
O O4 0.325737 0.982353 0.047459
O O5 0.414891 0.250000 0.393376
O O6 0.594810 0.064842 0.435397
O O7 0.278733 0.009287 0.258848
O O8 0.500000 0.000000 0.500000
O O9 0.911617 0.750000 0.642664
O O10 0.877445 0.497252 0.560672
O O11 0.023705 0.514989 0.775679
O O12 0.188399 0.592441 0.780451
O O13 0.819333 0.250000 0.090376
O O14 0.976903 0.089230 0.103166
O O15 0.294374 0.750000 0.581354
O O16 0.146810 0.250000 0.125561
O O17 0.000000 0.000000 0.000000
O O18 0.451944 0.750000 0.904003
O O19 0.500000 0.000000 0.000000
#
# Coordination Sequence:
#
# PCOD9168008 Si02
#       7
#     4   4   4   4   4   4   4
#     4  11  22  39  62  88 120 160 199 243 297 356
#     4  10  22  39  60  85 119 158 200 245 295 353
#     4  10  21  40  63  86 114 153 198 241 291 357
#     4   9  18  35  59  85 111 147 197 240 283 347
#     4  11  24  40  57  88 124 156 199 250 300 351
#     4  10  20  35  56  82 114 150 190 240 289 342
#     4  11  22  39  64  92 121 153 194 244 297 355
#
# _framework density 19.753086
#
# number of rings (size 3 to 8) (size 9 to 14) (size 15 to 20)
#    0.000    1.714    1.429    3.000    0.000    4.571 
#    0.000    1.429    0.000    0.000    0.000    0.000 
#    0.000    0.000    0.000    0.000    0.000    0.000 
#
# Total GULP energy -155936.714242 kJ/mol
# GULP energy per Si atom -5569.168366 kJ/mol
# Density = 1.970813 g / cm^3
# Si number density = 19.753086 Si / 1000 Ang^3
#
#
#
# Elastic Constant Matrix: (Units=GPa)
#
#
# Indices 1 2 3 4 5 6 
#
# 1 52.3851 16.3999 17.0390 0.0000 -21.9383 0.0000
# 2 16.3999 79.9728 38.5783 0.0000 -21.4947 0.0000
# 3 17.0390 38.5783 113.0244 0.0000 -33.5468 0.0000
# 4 0.0000 0.0000 0.0000 10.0137 0.0000 4.2834
# 5 -21.9383 -21.4947 -33.5468 0.0000 44.5452 0.0000
# 6 0.0000 0.0000 0.0000 4.2834 0.0000 11.4876
#
#
#
# Elastic Compliance Matrix: (Units=1/GPa)
#
#
# Indices 1 2 3 4 5 6 
#
# 1 0.024347 -0.002165 0.000409 0.000000 0.011254 0.000000
# 2 -0.002165 0.015845 -0.004030 0.000000 0.003545 0.000000
# 3 0.000409 -0.004030 0.012420 0.000000 0.007611 0.000000
# 4 0.000000 0.000000 0.000000 0.118814 0.000000 -0.044302
# 5 0.011254 0.003545 0.007611 0.000000 0.035434 0.000000
# 6 0.000000 0.000000 0.000000 -0.044302 0.000000 0.103570
#
#
# Mechanical properties :
#
#
# Convention : Reuss Voigt Hill
#
# Bulk Modulus (GPa) = 24.36635 43.26852 33.81743
# Shear Modulus (GPa) = 14.89503 24.76696 19.83099
#
# Velocity S-wave (km/s) = 2.74900 3.54478 3.17194
# Velocity P-wave (km/s) = 4.73690 6.22143 5.52922
#
# Compressibility (1/GPa) = 0.04104021
#
# Stress axis : x y z
#
# Youngs Moduli (GPa) = 41.07223 63.11169 80.51281
#
# Poissons Ratio (x) = 0.13666 -0.03292
# Poissons Ratio (y) = 0.08893 0.32445
# Poissons Ratio (z) = -0.01679 0.25433
#
# Static dielectric constant tensor:
#      x y z
#    x 1.785630 0.000000 0.115080 
#    y 0.000000 2.256460 0.000000 
#    z 0.115080 0.000000 1.768830 
# 
# From -- ./inp_files/28300.got.cif
#   From: 2010.05.17/outbox.ucp.g08.bks.cvg/sg11_15_cif.got.tgz:28300.got - 2010.06.11 11:38:39.
