data_PCOD9168107
_publ_section_title
;
Structure prediction by ZEFSAII (Michael W. Deem and Ramdas Pophale) SiO2 
 PCOD9168107
Probable space group: P 21/M
;
_chemical_formula_sum "Si O2"
_cell_formula_units_Z 32
_cell_length_a 24.000000
_cell_length_b 9.000000
_cell_length_c 15.000000
_cell_angle_alpha 90.000000
_cell_angle_beta 150.000000
_cell_angle_gamma 90.000000
_cell_volume 1620.000000
_symmetry_space_group_name_H-M "P 21/M"
_symmetry_group_IT_number 11
_symmetry_cell_setting 'monoclinic'
loop_
_space_group_symop_operation_xyz
x,y,z
-x,1/2+y,-z
-x,-y,-z
x,1/2-y,z
loop_
_atom_site_type_symbol
_atom_site_label
_atom_site_fract_x
_atom_site_fract_y
_atom_site_fract_z
Si Si1 0.618037 0.927173 0.258914
Si Si2 0.353796 0.926010 0.885248
Si Si3 0.023349 0.424750 0.627308
Si Si4 0.398294 0.425048 0.308378
Si Si5 0.790365 0.929831 0.635153
Si Si6 0.283454 0.073831 0.970351
Si Si7 0.030937 0.072572 0.267842
Si Si8 0.174883 0.426522 0.113914
O O1 0.634568 0.750000 0.272028
O O2 0.673928 0.975697 0.429040
O O3 0.672267 0.002895 0.247126
O O4 0.486529 0.955191 0.079489
O O5 0.334374 0.750000 0.855541
O O6 0.297249 0.994612 0.894365
O O7 0.997513 0.250000 0.587142
O O8 0.959544 0.498263 0.621879
O O9 0.000000 0.500000 0.500000
O O10 0.156204 0.441855 0.827087
O O11 0.500000 0.500000 0.500000
O O12 0.421580 0.250000 0.330920
O O13 0.364293 0.481160 0.162107
O O14 0.291302 0.440086 0.224029
O O15 0.790684 0.750000 0.641529
O O16 0.814871 0.980088 0.769329
O O17 0.879345 0.972546 0.682887
O O18 0.303224 0.250000 0.984708
O O19 0.036118 0.250000 0.285537
O O20 0.915338 0.019732 0.064724
O O21 0.144309 0.250000 0.070660
#
# Coordination Sequence:
#
# PCOD9168107 Si02
#       8
#     4   4   4   4   4   4   4   4
#     4   9  19  38  58  81 116 155 190 234 292 352
#     4  10  21  35  58  87 114 149 195 241 285 338
#     4  11  24  43  64  88 120 159 199 244 298 358
#     4  10  22  39  61  88 118 156 197 240 295 351
#     4   9  20  36  60  86 111 151 197 237 288 349
#     4  10  22  41  61  84 119 161 194 234 299 359
#     4  11  22  38  60  89 119 151 195 243 293 349
#     4  10  20  40  63  83 115 157 197 238 292 352
#
# _framework density 19.753086
#
# number of rings (size 3 to 8) (size 9 to 14) (size 15 to 20)
#    0.000    2.000    1.250    1.500    3.500    2.500 
#    0.000    1.875    0.000    0.000    0.000    0.000 
#    0.000    0.000    0.000    0.000    0.000    0.000 
#
# Total GULP energy -178668.766524 kJ/mol
# GULP energy per Si atom -5583.398954 kJ/mol
# Density = 1.970813 g / cm^3
# Si number density = 19.753086 Si / 1000 Ang^3
#
#
#
# Elastic Constant Matrix: (Units=GPa)
#
#
# Indices 1 2 3 4 5 6 
#
# 1 91.1935 24.0646 -4.4285 0.0000 -28.9722 0.0000
# 2 24.0646 25.3366 6.9999 0.0000 1.2746 0.0000
# 3 -4.4285 6.9999 54.6526 0.0000 -18.4607 0.0000
# 4 0.0000 0.0000 0.0000 25.4656 0.0000 -7.1978
# 5 -28.9722 1.2746 -18.4607 0.0000 34.8109 0.0000
# 6 0.0000 0.0000 0.0000 -7.1978 0.0000 30.1499
#
#
#
# Elastic Compliance Matrix: (Units=1/GPa)
#
#
# Indices 1 2 3 4 5 6 
#
# 1 0.040910 -0.048649 0.026373 0.000000 0.049816 0.000000
# 2 -0.048649 0.099557 -0.038497 0.000000 -0.064550 0.000000
# 3 0.026373 -0.038497 0.040512 0.000000 0.044843 0.000000
# 4 0.000000 0.000000 0.000000 0.042110 0.000000 0.010053
# 5 0.049816 -0.064550 0.044843 0.000000 0.096331 0.000000
# 6 0.000000 0.000000 0.000000 0.010053 0.000000 0.035568
#
#
# Mechanical properties :
#
#
# Convention : Reuss Voigt Hill
#
# Bulk Modulus (GPa) = 16.82522 24.93941 20.88232
# Shear Modulus (GPa) = 10.07361 27.72175 18.89768
#
# Velocity S-wave (km/s) = 2.26072 3.75028 3.09640
# Velocity P-wave (km/s) = 3.91800 5.60409 4.83511
#
# Compressibility (1/GPa) = 0.05943458
#
# Stress axis : x y z
#
# Youngs Moduli (GPa) = 24.44365 10.04445 24.68389
#
# Poissons Ratio (x) = 0.48865 -0.65098
# Poissons Ratio (y) = 1.18915 0.95025
# Poissons Ratio (z) = -0.64465 0.38668
#
# Static dielectric constant tensor:
#      x y z
#    x 1.678360 0.000000 0.016780 
#    y 0.000000 1.663350 0.000000 
#    z 0.016780 0.000000 1.733800 
# 
# From -- ./inp_files/55579.got.cif
#   From: 2010.05.17/outbox.ucp.g08.bks.cvg/sg11_28_cif.got.tgz:55579.got - 2010.06.11 11:38:39.
