data_PCOD9168489
_publ_section_title
;
Structure prediction by ZEFSAII (Michael W. Deem and Ramdas Pophale) SiO2 
 PCOD9168489
Probable space group: C 2/M
;
_chemical_formula_sum "Si O2"
_cell_formula_units_Z 64
_cell_length_a 15.932086
_cell_length_b 8.696015
_cell_length_c 23.951694
_cell_angle_alpha 90.000000
_cell_angle_beta 126.366182
_cell_angle_gamma 90.000000
_cell_volume 2672.124002
_symmetry_space_group_name_H-M "C 2/M"
_symmetry_group_IT_number 12
_symmetry_cell_setting 'monoclinic'
loop_
_space_group_symop_operation_xyz
x,y,z
-x,y,-z
-x,-y,-z
x,-y,z
1/2+x,1/2+y,z
1/2-x,1/2+y,-z
1/2-x,1/2-y,-z
1/2+x,1/2-y,z
loop_
_atom_site_type_symbol
_atom_site_label
_atom_site_fract_x
_atom_site_fract_y
_atom_site_fract_z
Si Si1 0.656945 0.316154 0.023592
Si Si2 0.659258 0.677923 0.850137
Si Si3 0.941736 0.186324 0.893865
Si Si4 0.117245 0.816759 0.600788
Si Si5 0.090958 0.820959 0.236832
Si Si6 0.881799 0.685991 0.514273
Si Si7 0.886201 0.677343 0.637217
Si Si8 0.139334 0.323329 0.724535
O O1 0.667528 0.500000 0.020160
O O2 0.769806 0.239882 0.071486
O O3 0.614016 0.285717 0.069661
O O4 0.561255 0.259586 0.948009
O O5 0.684465 0.500000 0.852307
O O6 0.535630 0.689563 0.811495
O O7 0.679108 0.764937 0.799717
O O8 0.886414 0.243781 0.815931
O O9 0.946902 0.000000 0.890257
O O10 0.164662 0.758069 0.560714
O O11 0.167853 0.768506 0.679640
O O12 0.003876 0.734702 0.558976
O O13 0.105203 0.000000 0.593563
O O14 0.132711 0.745468 0.309403
O O15 0.119104 0.000000 0.251139
O O16 0.873490 0.500000 0.509514
O O17 0.849364 0.746054 0.563196
O O18 0.853860 0.500000 0.625437
O O19 0.013025 0.682889 0.680991
O O20 0.169388 0.500000 0.728617
#
# Coordination Sequence:
#
# PCOD9168489 Si02
#       8
#     8   8   8   8   8   8   8   8
#     4   9  17  32  52  67  85 116 152 185 216 261
#     4  10  19  29  43  67  95 117 142 182 230 271
#     4   8  16  32  51  68  85 114 154 186 215 259
#     4  10  16  21  32  52  77 106 143 185 225 260
#     4   9  17  29  45  64  89 118 147 183 225 267
#     4   9  15  23  33  47  73 111 150 181 212 261
#     4   8  15  25  37  55  80 110 145 182 218 259
#     4   9  16  27  40  54  78 114 150 179 214 263
#
# _framework density 23.950984999999999
#
# number of rings (size 3 to 8) (size 9 to 14) (size 15 to 20)
#    0.000    3.000    0.000    4.500    0.000    4.500 
#    0.000    2.500    0.000    0.000    0.000    0.000 
#    0.000    1.000    0.000    3.000    0.000    8.875 
#
# Total GULP energy -178767.116634 kJ/mol
# GULP energy per Si atom -5586.472395 kJ/mol
# Density = 2.389647 g / cm^3
# Si number density = 23.950985 Si / 1000 Ang^3
#
#
#
# Elastic Constant Matrix: (Units=GPa)
#
#
# Indices 1 2 3 4 5 6 
#
# 1 73.8127 -7.7814 14.2881 0.0000 -8.6529 0.0000
# 2 -7.7814 42.1070 24.3119 0.0000 -6.0702 0.0000
# 3 14.2881 24.3119 176.1077 0.0000 -6.1726 0.0000
# 4 0.0000 0.0000 0.0000 33.2931 0.0000 -1.3406
# 5 -8.6529 -6.0702 -6.1726 0.0000 55.7430 0.0000
# 6 0.0000 0.0000 0.0000 -1.3406 0.0000 -5.9243
#
#
#
# Elastic Compliance Matrix: (Units=1/GPa)
#
#
# Indices 1 2 3 4 5 6 
#
# 1 0.014585 0.004010 -0.001649 0.000000 0.002518 0.000000
# 2 0.004010 0.027239 -0.003975 0.000000 0.003149 0.000000
# 3 -0.001649 -0.003975 0.006361 0.000000 0.000016 0.000000
# 4 0.000000 0.000000 0.000000 0.029765 0.000000 -0.006736
# 5 0.002518 0.003149 0.000016 0.000000 0.018675 0.000000
# 6 0.000000 0.000000 0.000000 -0.006736 0.000000 -0.167271
#
#
# Mechanical properties :
#
#
# Convention : Reuss Voigt Hill
#
# Bulk Modulus (GPa) = 22.24299 39.29607 30.76953
# Shear Modulus (GPa) = -95.36208 34.03626 -30.66291
#
# Velocity S-wave (km/s) = -6.31680 3.77381 -3.58192
# Velocity P-wave (km/s) = 6.62537 5.95242 2.05721
#
# Compressibility (1/GPa) = 0.04495798
#
# Stress axis : x y z
#
# Youngs Moduli (GPa) = 68.56403 36.71154 157.19643
#
# Poissons Ratio (x) = -0.14722 0.25917
# Poissons Ratio (y) = -0.27496 0.62493
# Poissons Ratio (z) = 0.11304 0.14594
#
# Static dielectric constant tensor:
#      x y z
#    x 2.065270 0.000000 -0.003720 
#    y 0.000000 1.813650 0.000000 
#    z -0.003720 0.000000 1.931090 
# 
# From -- ./inp_files/345599.got.cif
#   From: 2010.05.17/outbox.cif.g08.bks.cpg/sg12_173_cif.got.tgz:345599.got - 2010.06.03 13:09:07.
