data_PCOD9168990
_publ_section_title
;
Structure prediction by ZEFSAII (Michael W. Deem and Ramdas Pophale) SiO2 
 PCOD9168990
Probable space group: C 2/M
;
_chemical_formula_sum "Si O2"
_cell_formula_units_Z 44
_cell_length_a 12.832614
_cell_length_b 15.505027
_cell_length_c 11.341043
_cell_angle_alpha 90.000000
_cell_angle_beta 124.960783
_cell_angle_gamma 90.000000
_cell_volume 1849.324683
_symmetry_space_group_name_H-M "C 2/M"
_symmetry_group_IT_number 12
_symmetry_cell_setting 'monoclinic'
loop_
_space_group_symop_operation_xyz
x,y,z
-x,y,-z
-x,-y,-z
x,-y,z
1/2+x,1/2+y,z
1/2-x,1/2+y,-z
1/2-x,1/2-y,-z
1/2+x,1/2-y,z
loop_
_atom_site_type_symbol
_atom_site_label
_atom_site_fract_x
_atom_site_fract_y
_atom_site_fract_z
Si Si1 0.927670 0.000000 0.250598
Si Si2 0.517635 0.000000 0.367519
Si Si3 0.268355 0.337062 0.711374
Si Si4 0.349106 0.000000 0.934922
Si Si5 0.204702 0.000000 0.441930
Si Si6 0.342950 0.139112 0.129233
Si Si7 0.520278 0.686595 0.775067
Si Si8 0.500000 0.258257 0.500000
O O1 0.064673 0.000000 0.406934
O O2 0.938722 0.087722 0.179764
O O3 0.788545 0.000000 0.223190
O O4 0.500000 0.000000 0.500000
O O5 0.450174 0.914967 0.272457
O O6 0.659803 0.000000 0.406983
O O7 0.282983 0.418108 0.635643
O O8 0.270047 0.362639 0.849124
O O9 0.393342 0.283976 0.760490
O O10 0.133127 0.293566 0.594957
O O11 0.500000 0.000000 0.000000
O O12 0.333568 0.914601 0.004802
O O13 0.379850 0.238173 0.135557
O O14 0.494844 0.690216 0.618068
#
# Coordination Sequence:
#
# PCOD9168990 Si02
#       8
#     4   4   8   4   4   8   8   4
#     4  10  25  43  58  84 129 177 215 266 310 379
#     4  11  17  32  66  97 133 159 205 267 325 378
#     4  10  18  33  56  90 126 161 207 258 315 380
#     4  11  26  49  70  89 122 163 223 275 325 386
#     4  10  16  31  57  88 126 160 192 259 323 360
#     4  10  22  39  67  97 119 167 221 268 322 385
#     4  10  22  38  60  92 133 171 212 264 324 382
#     4  10  20  32  56  90 134 174 212 253 310 393
#
# _framework density 23.792469000000001
#
# number of rings (size 3 to 8) (size 9 to 14) (size 15 to 20)
#    0.000    1.818    1.818    3.273    1.273    5.455 
#    0.000   10.909    0.000    0.000    0.000    0.000 
#    0.000    0.000    0.000    0.000    0.000    0.000 
#
# Total GULP energy -122693.106536 kJ/mol
# GULP energy per Si atom -5576.959388 kJ/mol
# Density = 2.373832 g / cm^3
# Si number density = 23.792469 Si / 1000 Ang^3
#
#
#
# Elastic Constant Matrix: (Units=GPa)
#
#
# Indices 1 2 3 4 5 6 
#
# 1 208.4608 21.6583 50.4065 0.0000 23.7092 0.0000
# 2 21.6583 128.0860 16.3509 0.0000 1.9406 0.0000
# 3 50.4065 16.3509 66.7100 0.0000 15.8602 0.0000
# 4 0.0000 0.0000 0.0000 -61.9757 0.0000 -35.0491
# 5 23.7092 1.9406 15.8602 0.0000 31.4124 0.0000
# 6 0.0000 0.0000 0.0000 -35.0491 0.0000 20.5888
#
#
#
# Elastic Compliance Matrix: (Units=1/GPa)
#
#
# Indices 1 2 3 4 5 6 
#
# 1 0.006076 -0.000497 -0.003849 0.000000 -0.002612 0.000000
# 2 -0.000497 0.008109 -0.001798 0.000000 0.000782 0.000000
# 3 -0.003849 -0.001798 0.020026 0.000000 -0.007095 0.000000
# 4 0.000000 0.000000 0.000000 -0.008221 0.000000 -0.013995
# 5 -0.002612 0.000782 -0.007095 0.000000 0.037340 0.000000
# 6 0.000000 0.000000 0.000000 -0.013995 0.000000 0.024746
#
#
# Mechanical properties :
#
#
# Convention : Reuss Voigt Hill
#
# Bulk Modulus (GPa) = 45.61091 64.45423 55.03257
# Shear Modulus (GPa) = 46.43747 18.99452 32.71600
#
# Velocity S-wave (km/s) = 4.42268 2.82856 3.71220
# Velocity P-wave (km/s) = 6.72994 6.14952 6.44627
#
# Compressibility (1/GPa) = 0.02192458
#
# Stress axis : x y z
#
# Youngs Moduli (GPa) = 164.57188 123.32085 49.93551
#
# Poissons Ratio (x) = 0.06124 0.19218
# Poissons Ratio (y) = 0.08173 0.08979
# Poissons Ratio (z) = 0.63336 0.22175
#
# Static dielectric constant tensor:
#      x y z
#    x 1.988590 0.000000 0.086460 
#    y 0.000000 1.910620 0.000000 
#    z 0.086460 0.000000 1.998840 
# 
# From -- ./inp_files/131348.got.cif
#   From: 2010.05.17/outbox.cif.g08.bks.cpg/sg12_66_cif.got.tgz:131348.got - 2010.06.03 13:09:07.
