data_PCOD9168389
_publ_section_title
;
Structure prediction by ZEFSAII (Michael W. Deem and Ramdas Pophale) SiO2 
 PCOD9168389
Probable space group: C 2/M
;
_chemical_formula_sum "Si O2"
_cell_formula_units_Z 40
_cell_length_a 14.177230
_cell_length_b 26.576753
_cell_length_c 9.968747
_cell_angle_alpha 90.000000
_cell_angle_beta 28.163669
_cell_angle_gamma 90.000000
_cell_volume 1772.835212
_symmetry_space_group_name_H-M "C 2/M"
_symmetry_group_IT_number 12
_symmetry_cell_setting 'monoclinic'
loop_
_space_group_symop_operation_xyz
x,y,z
-x,y,-z
-x,-y,-z
x,-y,z
1/2+x,1/2+y,z
1/2-x,1/2+y,-z
1/2-x,1/2-y,-z
1/2+x,1/2-y,z
loop_
_atom_site_type_symbol
_atom_site_label
_atom_site_fract_x
_atom_site_fract_y
_atom_site_fract_z
Si Si1 0.519967 0.236847 0.312301
Si Si2 0.952383 0.944710 0.217134
Si Si3 0.339349 0.143659 0.005874
Si Si4 0.400560 0.943906 0.757764
Si Si5 0.390066 0.656228 0.440354
O O1 0.500000 0.232872 0.500000
O O2 0.395961 0.283608 0.406943
O O3 0.750000 0.250000 0.000000
O O4 0.508032 0.184395 0.247803
O O5 0.865262 0.890505 0.370045
O O6 0.856037 0.000000 0.367607
O O7 0.166700 0.947246 0.020942
O O8 0.000000 0.943062 0.000000
O O9 0.118105 0.148955 0.212862
O O10 0.278245 0.149729 0.235452
O O11 0.422535 0.089676 0.860149
O O12 0.500000 0.920202 0.500000
O O13 0.483837 0.000000 0.666434
#
# Coordination Sequence:
#
# PCOD9168389 Si02
#       5
#     8   8   8   8   8
#     4  10  15  25  41  66  96 124 156 194 240 287
#     4   9  18  32  50  69  93 129 163 192 239 295
#     4   9  16  26  43  70  95 123 153 198 245 285
#     4   9  17  29  46  72  98 120 154 199 241 282
#     4   9  16  27  43  68  95 116 162 204 232 277
#
# _framework density 22.562730999999999
#
# number of rings (size 3 to 8) (size 9 to 14) (size 15 to 20)
#    0.000    2.800    4.000    0.600    0.000    0.800 
#    0.000    4.000    0.000    2.400    0.000    5.600 
#    0.000    0.000    0.000    0.000    0.000    0.000 
#
# Total GULP energy -111387.963538 kJ/mol
# GULP energy per Si atom -5569.398177 kJ/mol
# Density = 2.251138 g / cm^3
# Si number density = 22.562731 Si / 1000 Ang^3
#
#
#
# Elastic Constant Matrix: (Units=GPa)
#
#
# Indices 1 2 3 4 5 6 
#
# 1 61.1915 25.3515 11.2708 0.0003 -16.9866 0.0004
# 2 25.3515 196.1659 84.3967 0.0000 33.5112 0.0001
# 3 11.2708 84.3967 123.2202 0.0001 18.8465 0.0002
# 4 0.0003 0.0000 0.0001 41.0296 -0.0002 14.6905
# 5 -16.9866 33.5112 18.8465 -0.0002 24.0868 -0.0003
# 6 0.0004 0.0001 0.0002 14.6905 -0.0003 18.7028
#
#
#
# Elastic Compliance Matrix: (Units=1/GPa)
#
#
# Indices 1 2 3 4 5 6 
#
# 1 0.030475 -0.009222 -0.001955 0.000000 0.035852 0.000000
# 2 -0.009222 0.011241 -0.003940 0.000000 -0.019060 0.000000
# 3 -0.001955 -0.003940 0.011775 0.000000 -0.005109 0.000000
# 4 0.000000 0.000000 0.000000 0.033909 0.000000 -0.026635
# 5 0.035852 -0.019060 -0.005109 0.000000 0.097315 0.000001
# 6 0.000000 0.000000 0.000000 -0.026635 0.000001 0.074389
#
#
# Mechanical properties :
#
#
# Convention : Reuss Voigt Hill
#
# Bulk Modulus (GPa) = 42.99882 69.17952 56.08917
# Shear Modulus (GPa) = 16.82993 34.06773 25.44883
#
# Velocity S-wave (km/s) = 2.73411 3.88997 3.36209
# Velocity P-wave (km/s) = 5.39129 7.13466 6.32334
#
# Compressibility (1/GPa) = 0.02325645
#
# Stress axis : x y z
#
# Youngs Moduli (GPa) = 32.81353 88.96156 84.92800
#
# Poissons Ratio (x) = 0.82042 0.16600
# Poissons Ratio (y) = 0.30261 0.33465
# Poissons Ratio (z) = 0.06414 0.35055
#
# Static dielectric constant tensor:
#      x y z
#    x 1.981300 0.000000 0.021340 
#    y 0.000000 1.921880 0.000000 
#    z 0.021340 0.000000 1.806290 
# 
# From -- ./inp_files/79756.got.cif
#   From: 2010.05.17/outbox.cif.g08.bks.cpg/sg12_40_cif.got.tgz:79756.got - 2010.06.03 13:09:07.
