data_PCOD9168779
_publ_section_title
;
Structure prediction by ZEFSAII (Michael W. Deem and Ramdas Pophale) SiO2 
 PCOD9168779
Probable space group: C 2/M
;
_chemical_formula_sum "Si O2"
_cell_formula_units_Z 56
_cell_length_a 30.163603
_cell_length_b 28.703620
_cell_length_c 13.059501
_cell_angle_alpha 90.000000
_cell_angle_beta 18.566083
_cell_angle_gamma 90.000000
_cell_volume 3600.120917
_symmetry_space_group_name_H-M "C 2/M"
_symmetry_group_IT_number 12
_symmetry_cell_setting 'monoclinic'
loop_
_space_group_symop_operation_xyz
x,y,z
-x,y,-z
-x,-y,-z
x,-y,z
1/2+x,1/2+y,z
1/2-x,1/2+y,-z
1/2-x,1/2-y,-z
1/2+x,1/2-y,z
loop_
_atom_site_type_symbol
_atom_site_label
_atom_site_fract_x
_atom_site_fract_y
_atom_site_fract_z
Si Si1 0.206710 0.602738 0.764848
Si Si2 0.588088 0.292505 0.910105
Si Si3 0.879003 0.555130 0.842426
Si Si4 0.847951 0.051759 0.278471
Si Si5 0.110765 0.312954 0.841308
Si Si6 0.481764 0.618986 0.830904
Si Si7 0.441076 0.446889 0.514887
O O1 0.234522 0.566992 0.610551
O O2 0.138947 0.648958 0.866096
O O3 0.363362 0.612992 0.461395
O O4 0.125870 0.581358 0.038235
O O5 0.746045 0.302468 0.531934
O O6 0.564883 0.237988 0.982580
O O7 0.500000 0.304576 0.000000
O O8 0.550336 0.326698 0.085334
O O9 0.899475 0.500000 0.816974
O O10 0.000000 0.570764 0.500000
O O11 0.725694 0.560166 0.127318
O O12 0.819379 0.000000 0.300467
O O13 0.870520 0.091071 0.143996
O O14 0.000000 0.049805 0.000000
O O15 0.000000 0.329503 0.000000
O O16 0.488255 0.592585 0.709183
O O17 0.500000 0.445026 0.500000
O O18 0.466547 0.500000 0.418594
#
# Coordination Sequence:
#
# PCOD9168779 Si02
#       7
#     8   8   8   8   8   8   8
#     4  10  17  30  48  70  96 126 159 195 234 286
#     4  10  17  32  50  71  97 129 161 192 237 292
#     4   9  18  33  52  70  92 129 168 196 230 283
#     4   9  15  23  41  71  96 116 149 193 233 275
#     4  10  20  30  47  72 102 128 158 196 237 288
#     4  10  16  28  50  71  94 125 158 195 237 288
#     4   9  18  32  50  73  97 122 159 204 242 277
#
# _framework density 15.555033999999999
#
# number of rings (size 3 to 8) (size 9 to 14) (size 15 to 20)
#    0.000    2.429    2.857    1.286    0.000    3.429 
#    2.571    0.000    0.000    2.571    0.000    4.000 
#    0.000    0.000    0.000    0.000    0.000    0.000 
#
# Total GULP energy -155904.718997 kJ/mol
# GULP energy per Si atom -5568.025678 kJ/mol
# Density = 1.551963 g / cm^3
# Si number density = 15.555034 Si / 1000 Ang^3
#
#
#
# Elastic Constant Matrix: (Units=GPa)
#
#
# Indices 1 2 3 4 5 6 
#
# 1 73.4459 45.3689 33.6841 -0.3966 8.9618 -0.1758
# 2 45.3689 95.1129 26.5716 -1.0740 18.3462 -0.4642
# 3 33.6841 26.5716 60.6279 -4.5247 19.9899 -1.9696
# 4 -0.3966 -1.0740 -4.5247 1400.8492 0.7602 598.7156
# 5 8.9618 18.3462 19.9899 0.7602 24.2475 0.3322
# 6 -0.1758 -0.4642 -1.9696 598.7156 0.3322 284.1582
#
#
#
# Elastic Compliance Matrix: (Units=1/GPa)
#
#
# Indices 1 2 3 4 5 6 
#
# 1 0.024056 -0.009765 -0.011801 -0.000037 0.008228 -0.000014
# 2 -0.009765 0.016742 0.001478 0.000018 -0.010277 0.000005
# 3 -0.011801 0.001478 0.029309 0.000087 -0.020923 0.000040
# 4 -0.000037 0.000018 0.000087 0.007176 -0.000089 -0.015118
# 5 0.008228 -0.010277 -0.020923 -0.000089 0.063228 -0.000043
# 6 -0.000014 0.000005 0.000040 -0.015118 -0.000043 0.035373
#
#
# Mechanical properties :
#
#
# Convention : Reuss Voigt Hill
#
# Bulk Modulus (GPa) = 33.41204 48.93732 41.17468
# Shear Modulus (GPa) = 22.12024 350.08846 186.10435
#
# Velocity S-wave (km/s) = 3.77512 15.01842 10.94999
# Velocity P-wave (km/s) = 6.36620 18.22818 13.65275
#
# Compressibility (1/GPa) = 0.02992933
#
# Stress axis : x y z
#
# Youngs Moduli (GPa) = 41.56987 59.73180 34.11885
#
# Poissons Ratio (x) = 0.58330 0.40265
# Poissons Ratio (y) = 0.40594 -0.05043
# Poissons Ratio (z) = 0.49059 -0.08829
#
# Static dielectric constant tensor:
#      x y z
#    x 1.505960 0.000000 -0.007610 
#    y 0.000000 1.542280 0.000000 
#    z -0.007610 0.000000 1.525270 
# 
# From -- ./inp_files/185190.got.cif
#   From: 2010.05.17/outbox.cif.g08.bks.cpg/sg12_93_cif.got.tgz:185190.got - 2010.06.03 13:09:07.
