data_PCOD9168245
_publ_section_title
;
Structure prediction by ZEFSAII (Michael W. Deem and Ramdas Pophale) SiO2 
 PCOD9168245
Probable space group: P 21/M
;
_chemical_formula_sum "Si O2"
_cell_formula_units_Z 28
_cell_length_a 15.000000
_cell_length_b 18.000000
_cell_length_c 6.000000
_cell_angle_alpha 90.000000
_cell_angle_beta 120.000000
_cell_angle_gamma 90.000000
_cell_volume 1402.961154
_symmetry_space_group_name_H-M "P 21/M"
_symmetry_group_IT_number 11
_symmetry_cell_setting 'monoclinic'
loop_
_space_group_symop_operation_xyz
x,y,z
-x,1/2+y,-z
-x,-y,-z
x,1/2-y,z
loop_
_atom_site_type_symbol
_atom_site_label
_atom_site_fract_x
_atom_site_fract_y
_atom_site_fract_z
Si Si1 0.603521 0.663467 0.646462
Si Si2 0.202527 0.086683 0.866424
Si Si3 0.912082 0.453843 0.024174
Si Si4 0.990886 0.163791 0.472313
Si Si5 0.571887 0.411127 0.306421
Si Si6 0.375650 0.428268 0.731624
Si Si7 0.205830 0.837932 0.436769
O O1 0.598661 0.750000 0.692808
O O2 0.493507 0.626634 0.576532
O O3 0.624197 0.645002 0.416346
O O4 0.703480 0.627079 0.888506
O O5 0.266099 0.064734 0.721803
O O6 0.101336 0.139331 0.716109
O O7 0.158389 0.013298 0.932244
O O8 0.972744 0.397883 0.261954
O O9 0.838531 0.398499 0.792588
O O10 0.000000 0.500000 0.000000
O O11 0.998847 0.250000 0.408073
O O12 0.885960 0.159640 0.491350
O O13 0.608308 0.496114 0.390286
O O14 0.675493 0.365084 0.367039
O O15 0.478645 0.419017 0.010429
O O16 0.210390 0.750000 0.372667
#
# Coordination Sequence:
#
# PCOD9168245 Si02
#       7
#     4   4   4   4   4   4   4
#     4  11  24  41  65  97 131 169 212 266 328 383
#     4  11  24  42  67  97 130 169 219 270 318 392
#     4  12  25  42  67  94 128 173 221 265 321 390
#     4  11  25  43  64  96 134 170 216 271 332 388
#     4  10  22  42  65  94 128 166 218 268 315 389
#     4  10  23  41  67  94 126 172 215 265 324 385
#     4  11  24  42  66  96 134 173 216 272 332 389
#
# _framework density 19.957787
#
# number of rings (size 3 to 8) (size 9 to 14) (size 15 to 20)
#    0.000    1.143    1.429    3.857    4.000    6.857 
#    0.000    1.429    0.000    0.000    0.000    0.000 
#    0.000    0.000    0.000    0.000    0.000    0.000 
#
# Total GULP energy -156132.820528 kJ/mol
# GULP energy per Si atom -5576.172162 kJ/mol
# Density = 1.991236 g / cm^3
# Si number density = 19.957787 Si / 1000 Ang^3
#
#
#
# Elastic Constant Matrix: (Units=GPa)
#
#
# Indices 1 2 3 4 5 6 
#
# 1 175.1293 58.4299 34.5359 0.0000 20.6027 0.0000
# 2 58.4299 132.9776 18.2695 0.0000 -4.7003 0.0000
# 3 34.5359 18.2695 30.1980 0.0000 10.1380 0.0000
# 4 0.0000 0.0000 0.0000 31.9575 0.0000 6.1449
# 5 20.6027 -4.7003 10.1380 0.0000 32.9126 0.0000
# 6 0.0000 0.0000 0.0000 6.1449 0.0000 34.7534
#
#
#
# Elastic Compliance Matrix: (Units=1/GPa)
#
#
# Indices 1 2 3 4 5 6 
#
# 1 0.008422 -0.002916 -0.006645 0.000000 -0.003642 0.000000
# 2 -0.002916 0.009488 -0.003873 0.000000 0.004374 0.000000
# 3 -0.006645 -0.003873 0.046673 0.000000 -0.010770 0.000000
# 4 0.000000 0.000000 0.000000 0.032393 0.000000 -0.005728
# 5 -0.003642 0.004374 -0.010770 0.000000 0.036605 0.000000
# 6 0.000000 0.000000 0.000000 -0.005728 0.000000 0.029787
#
#
# Mechanical properties :
#
#
# Convention : Reuss Voigt Hill
#
# Bulk Modulus (GPa) = 26.51503 62.30836 44.41169
# Shear Modulus (GPa) = 24.65379 35.06268 29.85823
#
# Velocity S-wave (km/s) = 3.51849 4.19602 3.87210
# Velocity P-wave (km/s) = 5.46084 7.40022 6.50323
#
# Compressibility (1/GPa) = 0.03771446
#
# Stress axis : x y z
#
# Youngs Moduli (GPa) = 118.73905 105.39361 21.42559
#
# Poissons Ratio (x) = 0.30736 0.14237
# Poissons Ratio (y) = 0.34628 0.08299
# Poissons Ratio (z) = 0.78898 0.40823
#
# Static dielectric constant tensor:
#      x y z
#    x 1.682830 0.000000 -0.053390 
#    y 0.000000 1.688310 0.000000 
#    z -0.053390 0.000000 1.791890 
# 
# From -- ./inp_files/6894.got.cif
#   From: 2010.05.17/outbox.ucp.g08.bks.cvg/sg11_4_cif.got.tgz:6894.got - 2010.06.11 11:38:39.
