data_PCOD9168164
_publ_section_title
;
Structure prediction by ZEFSAII (Michael W. Deem and Ramdas Pophale) SiO2 
 PCOD9168164
Probable space group: P 21/M
;
_chemical_formula_sum "Si O2"
_cell_formula_units_Z 32
_cell_length_a 24.000000
_cell_length_b 9.000000
_cell_length_c 15.000000
_cell_angle_alpha 90.000000
_cell_angle_beta 150.000000
_cell_angle_gamma 90.000000
_cell_volume 1620.000000
_symmetry_space_group_name_H-M "P 21/M"
_symmetry_group_IT_number 11
_symmetry_cell_setting 'monoclinic'
loop_
_space_group_symop_operation_xyz
x,y,z
-x,1/2+y,-z
-x,-y,-z
x,1/2-y,z
loop_
_atom_site_type_symbol
_atom_site_label
_atom_site_fract_x
_atom_site_fract_y
_atom_site_fract_z
Si Si1 0.690422 0.425582 0.141956
Si Si2 0.776069 0.571811 0.430207
Si Si3 0.274694 0.430802 0.438045
Si Si4 0.529188 0.073864 0.763055
Si Si5 0.987461 0.572495 0.253960
Si Si6 0.393666 0.428415 0.304552
Si Si7 0.110832 0.427133 0.693980
Si Si8 0.177717 0.430493 0.121860
O O1 0.711759 0.250000 0.182128
O O2 0.694245 0.503275 0.243027
O O3 0.785981 0.496049 0.211629
O O4 0.578105 0.445369 0.929649
O O5 0.770830 0.750000 0.419577
O O6 0.752933 0.521278 0.499817
O O7 0.898774 0.514867 0.573371
O O8 0.272007 0.250000 0.435641
O O9 0.400311 0.472741 0.584296
O O10 0.194293 0.481703 0.246393
O O11 0.534691 0.250000 0.748993
O O12 0.600352 0.986424 0.788300
O O13 0.010605 0.750000 0.283418
O O14 0.901490 0.550138 0.216606
O O15 0.931000 0.522828 0.083354
O O16 0.500000 0.500000 0.500000
O O17 0.400465 0.250000 0.315158
O O18 0.284540 0.472085 0.209627
O O19 0.113726 0.250000 0.681769
O O20 0.000000 0.500000 0.500000
O O21 0.175816 0.250000 0.120573
#
# Coordination Sequence:
#
# PCOD9168164 Si02
#       8
#     4   4   4   4   4   4   4   4
#     4  11  23  38  59  86 117 152 189 239 294 341
#     4  11  23  38  59  82 110 152 197 242 287 341
#     4   9  19  38  60  82 111 151 195 235 287 344
#     4  10  21  39  61  85 116 153 192 237 288 345
#     4  10  21  37  59  85 113 148 188 232 283 340
#     4  11  20  34  60  90 120 153 188 230 285 345
#     4  11  21  35  58  86 118 152 187 228 283 346
#     4   9  18  35  60  84 113 152 187 224 279 345
#
# _framework density 19.753086
#
# number of rings (size 3 to 8) (size 9 to 14) (size 15 to 20)
#    0.000    1.750    2.500    2.250    0.000    3.500 
#    0.000    2.500    0.000    0.000    0.000    0.000 
#    0.000    0.000    0.000    0.000    0.000    0.000 
#
# Total GULP energy -178718.684440 kJ/mol
# GULP energy per Si atom -5584.958889 kJ/mol
# Density = 1.970813 g / cm^3
# Si number density = 19.753086 Si / 1000 Ang^3
#
#
#
# Elastic Constant Matrix: (Units=GPa)
#
#
# Indices 1 2 3 4 5 6 
#
# 1 80.0263 18.4694 4.8540 0.0000 -35.6892 0.0000
# 2 18.4694 48.0653 19.0844 0.0000 -17.0216 0.0000
# 3 4.8540 19.0844 69.5438 0.0000 -32.8695 0.0000
# 4 0.0000 0.0000 0.0000 20.6685 0.0000 -6.3382
# 5 -35.6892 -17.0216 -32.8695 0.0000 34.9885 0.0000
# 6 0.0000 0.0000 0.0000 -6.3382 0.0000 26.0743
#
#
#
# Elastic Compliance Matrix: (Units=1/GPa)
#
#
# Indices 1 2 3 4 5 6 
#
# 1 0.045320 -0.003899 0.033921 0.000000 0.076198 0.000000
# 2 -0.003899 0.025628 -0.004942 0.000000 0.003849 0.000000
# 3 0.033921 -0.004942 0.051415 0.000000 0.080497 0.000000
# 4 0.000000 0.000000 0.000000 0.052280 0.000000 0.012708
# 5 0.076198 0.003849 0.080497 0.000000 0.183800 0.000000
# 6 0.000000 0.000000 0.000000 0.012708 0.000000 0.041441
#
#
# Mechanical properties :
#
#
# Convention : Reuss Voigt Hill
#
# Bulk Modulus (GPa) = 5.79628 31.38342 18.58985
# Shear Modulus (GPa) = 12.27807 26.69477 19.48642
#
# Velocity S-wave (km/s) = 2.49585 3.68016 3.14427
# Velocity P-wave (km/s) = 3.35357 5.82927 4.75536
#
# Compressibility (1/GPa) = 0.17252450
#
# Stress axis : x y z
#
# Youngs Moduli (GPa) = 22.06521 39.01952 19.44975
#
# Poissons Ratio (x) = 0.15212 -0.65976
# Poissons Ratio (y) = 0.08603 0.09612
# Poissons Ratio (z) = -0.74848 0.19283
#
# Static dielectric constant tensor:
#      x y z
#    x 1.691640 0.000000 -0.033750 
#    y 0.000000 1.657740 0.000000 
#    z -0.033750 0.000000 1.722090 
# 
# From -- ./inp_files/55768.got.cif
#   From: 2010.05.17/outbox.ucp.g08.bks.cvg/sg11_28_cif.got.tgz:55768.got - 2010.06.11 11:38:39.
