data_PCOD9168529
_publ_section_title
;
Structure prediction by ZEFSAII (Michael W. Deem and Ramdas Pophale) SiO2 
 PCOD9168529
Probable space group: C 2/M
;
_chemical_formula_sum "Si O2"
_cell_formula_units_Z 64
_cell_length_a 8.553771
_cell_length_b 23.233569
_cell_length_c 15.746632
_cell_angle_alpha 90.000000
_cell_angle_beta 96.460663
_cell_angle_gamma 90.000000
_cell_volume 3109.527310
_symmetry_space_group_name_H-M "C 2/M"
_symmetry_group_IT_number 12
_symmetry_cell_setting 'monoclinic'
loop_
_space_group_symop_operation_xyz
x,y,z
-x,y,-z
-x,-y,-z
x,-y,z
1/2+x,1/2+y,z
1/2-x,1/2+y,-z
1/2-x,1/2-y,-z
1/2+x,1/2-y,z
loop_
_atom_site_type_symbol
_atom_site_label
_atom_site_fract_x
_atom_site_fract_y
_atom_site_fract_z
Si Si1 0.184506 0.936378 0.656997
Si Si2 0.188163 0.435215 0.525767
Si Si3 0.479939 0.821510 0.099122
Si Si4 0.273081 0.266045 0.806516
Si Si5 0.501056 0.065398 0.790301
Si Si6 0.293766 0.136349 0.314328
Si Si7 0.394280 0.687866 0.341683
Si Si8 0.432427 0.209052 0.589020
O O1 0.229768 0.932272 0.560432
O O2 0.346178 0.933313 0.720875
O O3 0.087004 0.879656 0.672981
O O4 0.113998 0.000000 0.667311
O O5 0.210561 0.500000 0.560445
O O6 0.248963 0.389717 0.597483
O O7 0.000000 0.428198 0.500000
O O8 0.593680 0.774543 0.148792
O O9 0.312013 0.798779 0.121636
O O10 0.512090 0.884540 0.140490
O O11 0.500000 0.822025 0.000000
O O12 0.312134 0.318413 0.743911
O O13 0.165025 0.222167 0.745117
O O14 0.649523 0.084177 0.741749
O O15 0.517109 0.000000 0.823086
O O16 0.455414 0.172702 0.341353
O O17 0.534417 0.724050 0.391402
O O18 0.246126 0.694776 0.398925
O O19 0.500000 0.197146 0.500000
#
# Coordination Sequence:
#
# PCOD9168529 Si02
#       8
#     8   8   8   8   8   8   8   8
#     4  10  18  29  48  73 106 144 183 222 256 305
#     4  10  16  23  41  71 107 146 187 224 262 303
#     4  11  22  39  60  84 110 135 174 225 282 346
#     4  10  21  36  55  81 110 144 176 220 277 337
#     4  10  18  31  51  77 109 139 172 221 275 318
#     4  10  17  28  47  72 113 143 177 217 261 316
#     4  11  19  35  51  75 108 140 183 222 268 319
#     4  11  21  30  47  75 110 148 186 228 264 301
#
# _framework density 20.581907999999999
#
# number of rings (size 3 to 8) (size 9 to 14) (size 15 to 20)
#    0.000    1.625    3.750    3.750    0.000    1.250 
#    0.000    0.000    0.000    0.375    0.000   35.000 
#    0.000   19.500    0.000    0.000    0.000    0.000 
#
# Total GULP energy -178813.545628 kJ/mol
# GULP energy per Si atom -5587.923301 kJ/mol
# Density = 2.053506 g / cm^3
# Si number density = 20.581908 Si / 1000 Ang^3
#
#
#
# Elastic Constant Matrix: (Units=GPa)
#
#
# Indices 1 2 3 4 5 6 
#
# 1 31.2762 23.1381 12.0639 0.0000 0.7079 0.0000
# 2 23.1381 193.2392 39.0008 0.0000 1.7956 0.0000
# 3 12.0639 39.0008 105.5714 0.0000 -15.5074 0.0000
# 4 0.0000 0.0000 0.0000 4.3553 0.0000 -6.2629
# 5 0.7079 1.7956 -15.5074 0.0000 22.9048 0.0000
# 6 0.0000 0.0000 0.0000 -6.2629 0.0000 26.6712
#
#
#
# Elastic Compliance Matrix: (Units=1/GPa)
#
#
# Indices 1 2 3 4 5 6 
#
# 1 0.035965 -0.003631 -0.003209 0.000000 -0.003000 0.000000
# 2 -0.003631 0.006046 -0.002078 0.000000 -0.001769 0.000000
# 3 -0.003209 -0.002078 0.011821 0.000000 0.008265 0.000000
# 4 0.000000 0.000000 0.000000 0.346666 0.000000 0.081404
# 5 -0.003000 -0.001769 0.008265 0.000000 0.049486 0.000000
# 6 0.000000 0.000000 0.000000 0.081404 0.000000 0.056609
#
#
# Mechanical properties :
#
#
# Convention : Reuss Voigt Hill
#
# Bulk Modulus (GPa) = 27.78165 53.16582 40.47373
# Shear Modulus (GPa) = 9.32093 27.84518 18.58305
#
# Velocity S-wave (km/s) = 2.13038 3.68216 3.00806
# Velocity P-wave (km/s) = 4.42479 6.63062 5.63666
#
# Compressibility (1/GPa) = 0.03599498
#
# Stress axis : x y z
#
# Youngs Moduli (GPa) = 27.80478 165.41014 84.59636
#
# Poissons Ratio (x) = 0.60058 0.27148
# Poissons Ratio (y) = 0.10095 0.17582
# Poissons Ratio (z) = 0.08923 0.34377
#
# Static dielectric constant tensor:
#      x y z
#    x 1.796030 0.000000 -0.024390 
#    y 0.000000 1.779900 0.000000 
#    z -0.024390 0.000000 1.709570 
# 
# From -- ./inp_files/198875.got.cif
#   From: 2010.05.17/outbox.cif.g08.bks.cpg/sg12_100_cif.got.tgz:198875.got - 2010.06.03 13:09:07.
