data_PCOD9168660
_publ_section_title
;
Structure prediction by ZEFSAII (Michael W. Deem and Ramdas Pophale) SiO2 
 PCOD9168660
Probable space group: C 2/M
;
_chemical_formula_sum "Si O2"
_cell_formula_units_Z 48
_cell_length_a 5.313763
_cell_length_b 16.054037
_cell_length_c 24.777334
_cell_angle_alpha 90.000000
_cell_angle_beta 103.727607
_cell_angle_gamma 90.000000
_cell_volume 2053.310902
_symmetry_space_group_name_H-M "C 2/M"
_symmetry_group_IT_number 12
_symmetry_cell_setting 'monoclinic'
loop_
_space_group_symop_operation_xyz
x,y,z
-x,y,-z
-x,-y,-z
x,-y,z
1/2+x,1/2+y,z
1/2-x,1/2+y,-z
1/2-x,1/2-y,-z
1/2+x,1/2-y,z
loop_
_atom_site_type_symbol
_atom_site_label
_atom_site_fract_x
_atom_site_fract_y
_atom_site_fract_z
Si Si1 0.721336 0.650687 0.317715
Si Si2 0.611227 0.194797 0.559214
Si Si3 0.641555 0.904594 0.955295
Si Si4 0.588345 0.306315 0.110717
Si Si5 0.223986 0.094596 0.835573
Si Si6 0.169858 0.342436 0.271851
O O1 0.850927 0.647637 0.382833
O O2 0.435032 0.614941 0.304151
O O3 0.674038 0.747998 0.296390
O O4 0.917521 0.615959 0.283823
O O5 0.500000 0.150450 0.500000
O O6 0.390825 0.264700 0.560068
O O7 0.892414 0.861340 0.942229
O O8 0.427049 0.905800 0.895852
O O9 0.701715 0.000000 0.971743
O O10 0.500000 0.864644 0.000000
O O11 0.337000 0.251326 0.112291
O O12 0.554291 0.373703 0.156663
O O13 0.318312 0.153928 0.792036
O O14 0.207980 0.000000 0.815128
#
# Coordination Sequence:
#
# PCOD9168660 Si02
#       6
#     8   8   8   8   8   8
#     4  10  18  34  52  84 120 152 206 252 306 369
#     4  10  16  26  45  75 118 159 194 245 311 365
#     4  10  24  49  75  97 130 172 212 262 328 395
#     4  12  26  45  71  98 130 160 208 260 322 378
#     4  11  26  46  66  95 130 168 218 264 323 394
#     4  10  21  32  56  78 115 157 195 247 304 359
#
# _framework density 23.376878000000001
#
# number of rings (size 3 to 8) (size 9 to 14) (size 15 to 20)
#    0.000    1.500    5.000    0.500    7.000    1.333 
#    0.000    2.500    0.000    0.000    0.000    0.000 
#    0.000    7.333    0.000    0.000    0.000    0.000 
#
# Total GULP energy -133916.054000 kJ/mol
# GULP energy per Si atom -5579.835583 kJ/mol
# Density = 2.332367 g / cm^3
# Si number density = 23.376878 Si / 1000 Ang^3
#
#
#
# Elastic Constant Matrix: (Units=GPa)
#
#
# Indices 1 2 3 4 5 6 
#
# 1 136.8654 15.8621 6.3076 0.0000 -13.2724 0.0000
# 2 15.8621 48.1516 1.8994 0.0000 -7.5525 0.0000
# 3 6.3076 1.8994 141.9196 0.0000 -6.6181 0.0000
# 4 0.0000 0.0000 0.0000 8.0654 0.0000 17.2876
# 5 -13.2724 -7.5525 -6.6181 0.0000 42.4945 0.0000
# 6 0.0000 0.0000 0.0000 17.2876 0.0000 9.1800
#
#
#
# Elastic Compliance Matrix: (Units=1/GPa)
#
#
# Indices 1 2 3 4 5 6 
#
# 1 0.007769 -0.002238 -0.000222 0.000000 0.001994 0.000000
# 2 -0.002238 0.022010 -0.000046 0.000000 0.003206 0.000000
# 3 -0.000222 -0.000046 0.007105 0.000000 0.001029 0.000000
# 4 0.000000 0.000000 0.000000 -0.040832 0.000000 0.076895
# 5 0.001994 0.003206 0.001029 0.000000 0.024885 0.000000
# 6 0.000000 0.000000 0.000000 0.076895 0.000000 -0.035875
#
#
# Mechanical properties :
#
#
# Convention : Reuss Voigt Hill
#
# Bulk Modulus (GPa) = 31.37546 41.67499 36.52523
# Shear Modulus (GPa) = 7162.82521 32.13914 3597.48218
#
# Velocity S-wave (km/s) = 55.41404 3.71189 39.27145
# Velocity P-wave (km/s) = 64.09164 6.01971 45.51909
#
# Compressibility (1/GPa) = 0.03187204
#
# Stress axis : x y z
#
# Youngs Moduli (GPa) = 128.70934 45.43489 140.75154
#
# Poissons Ratio (x) = 0.10168 0.03130
# Poissons Ratio (y) = 0.28803 0.00642
# Poissons Ratio (z) = 0.02862 0.00207
#
# Static dielectric constant tensor:
#      x y z
#    x 1.973210 0.000000 0.038870 
#    y 0.000000 2.344990 0.000000 
#    z 0.038870 0.000000 1.961920 
# 
# From -- ./inp_files/331011.got.cif
#   From: 2010.05.17/outbox.cif.g08.bks.cpg/sg12_166_cif.got.tgz:331011.got - 2010.06.03 13:09:07.
