data_PCOD9168423
_publ_section_title
;
Structure prediction by ZEFSAII (Michael W. Deem and Ramdas Pophale) SiO2 
 PCOD9168423
Probable space group: C 2/M
;
_chemical_formula_sum "Si O2"
_cell_formula_units_Z 64
_cell_length_a 17.795322
_cell_length_b 18.316106
_cell_length_c 27.710733
_cell_angle_alpha 90.000000
_cell_angle_beta 157.957317
_cell_angle_gamma 90.000000
_cell_volume 3389.708410
_symmetry_space_group_name_H-M "C 2/M"
_symmetry_group_IT_number 12
_symmetry_cell_setting 'monoclinic'
loop_
_space_group_symop_operation_xyz
x,y,z
-x,y,-z
-x,-y,-z
x,-y,z
1/2+x,1/2+y,z
1/2-x,1/2+y,-z
1/2-x,1/2-y,-z
1/2+x,1/2-y,z
loop_
_atom_site_type_symbol
_atom_site_label
_atom_site_fract_x
_atom_site_fract_y
_atom_site_fract_z
Si Si1 0.214865 0.418750 0.853070
Si Si2 0.747222 0.792385 0.711415
Si Si3 0.510008 0.159896 0.366718
Si Si4 0.099508 0.132900 0.627445
Si Si5 0.465358 0.333037 0.645056
Si Si6 0.500691 0.716372 0.771326
Si Si7 0.566834 0.722588 0.985998
Si Si8 0.175901 0.379809 0.328689
O O1 0.289907 0.500000 0.890591
O O2 0.369248 0.361776 0.968084
O O3 0.130622 0.382044 0.754129
O O4 0.017388 0.421322 0.768544
O O5 0.585718 0.847457 0.637359
O O6 0.621443 0.718810 0.626304
O O7 0.885897 0.815199 0.749416
O O8 0.895035 0.772916 0.843973
O O9 0.514639 0.246439 0.355939
O O10 0.741026 0.138939 0.501532
O O11 0.105831 0.127855 0.689091
O O12 0.273002 0.102246 0.696551
O O13 0.882751 0.106543 0.480186
O O14 0.491550 0.332667 0.717980
O O15 0.734939 0.736660 0.915408
O O16 0.387765 0.795039 0.698350
O O17 0.500000 0.748901 0.000000
#
# Coordination Sequence:
#
# PCOD9168423 Si02
#       8
#     8   8   8   8   8   8   8   8
#     4  11  21  34  50  69  99 139 175 206 239 286
#     4  10  19  28  44  70  99 137 158 196 250 297
#     4  10  17  30  47  70  99 129 165 201 246 301
#     4   9  16  26  48  70  99 131 153 195 259 310
#     4  10  15  27  50  71  99 129 156 196 258 311
#     4  10  18  28  45  72 100 128 158 196 247 306
#     4  11  19  33  46  66 103 131 169 203 242 294
#     4   9  16  30  45  70 102 126 160 202 248 302
#
# _framework density 18.880680000000002
#
# number of rings (size 3 to 8) (size 9 to 14) (size 15 to 20)
#    0.000    2.000    5.000    2.625    0.000    1.750 
#    0.000    1.250    0.000    0.000    0.000    2.625 
#    0.000    1.000    0.000    0.000    0.000    0.000 
#
# Total GULP energy -178203.679960 kJ/mol
# GULP energy per Si atom -5568.864999 kJ/mol
# Density = 1.883771 g / cm^3
# Si number density = 18.880680 Si / 1000 Ang^3
#
#
#
# Elastic Constant Matrix: (Units=GPa)
#
#
# Indices 1 2 3 4 5 6 
#
# 1 181.1181 12.5054 17.8713 -0.0031 18.0254 0.0006
# 2 12.5054 19.4583 10.2433 0.0110 1.9294 0.0000
# 3 17.8713 10.2433 56.6735 0.0078 10.3879 0.0027
# 4 -0.0031 0.0110 0.0078 -5.0140 0.0012 -2.3630
# 5 18.0254 1.9294 10.3879 0.0012 33.3097 -0.0009
# 6 0.0006 0.0000 0.0027 -2.3630 -0.0009 2.1683
#
#
#
# Elastic Compliance Matrix: (Units=1/GPa)
#
#
# Indices 1 2 3 4 5 6 
#
# 1 0.006109 -0.003210 -0.000821 -0.000008 -0.002864 -0.000010
# 2 -0.003210 0.058483 -0.009817 0.000071 0.001411 0.000092
# 3 -0.000821 -0.009817 0.020674 0.000015 -0.005434 -0.000011
# 4 -0.000008 0.000071 0.000015 -0.131766 -0.000004 -0.143601
# 5 -0.002864 0.001411 -0.005434 -0.000004 0.033184 0.000017
# 6 -0.000010 0.000092 -0.000011 -0.143601 0.000017 0.304701
#
#
# Mechanical properties :
#
#
# Convention : Reuss Voigt Hill
#
# Bulk Modulus (GPa) = 17.37010 37.61000 27.49005
# Shear Modulus (GPa) = 14.78104 20.53478 17.65791
#
# Velocity S-wave (km/s) = 2.80101 3.30147 3.06148
# Velocity P-wave (km/s) = 4.43630 5.87333 5.20465
#
# Compressibility (1/GPa) = 0.05757018
#
# Stress axis : x y z
#
# Youngs Moduli (GPa) = 163.69478 17.09909 48.36918
#
# Poissons Ratio (x) = 0.05488 0.03973
# Poissons Ratio (y) = 0.52542 0.47483
# Poissons Ratio (z) = 0.13445 0.16786
#
# Static dielectric constant tensor:
#      x y z
#    x 1.750180 0.000000 0.005950 
#    y 0.000000 1.649870 0.000000 
#    z 0.005950 0.000000 1.669820 
# 
# From -- ./inp_files/364805.got.cif
#   From: 2010.05.17/outbox.cif.g08.bks.cpg/sg12_183_cif.got.tgz:364805.got - 2010.06.03 13:09:07.
