data_PCOD9168995
_publ_section_title
;
Structure prediction by ZEFSAII (Michael W. Deem and Ramdas Pophale) SiO2 
 PCOD9168995
Probable space group: C 2/M
;
_chemical_formula_sum "Si O2"
_cell_formula_units_Z 28
_cell_length_a 8.436862
_cell_length_b 22.742989
_cell_length_c 11.937716
_cell_angle_alpha 90.000000
_cell_angle_beta 148.703703
_cell_angle_gamma 90.000000
_cell_volume 1189.885277
_symmetry_space_group_name_H-M "C 2/M"
_symmetry_group_IT_number 12
_symmetry_cell_setting 'monoclinic'
loop_
_space_group_symop_operation_xyz
x,y,z
-x,y,-z
-x,-y,-z
x,-y,z
1/2+x,1/2+y,z
1/2-x,1/2+y,-z
1/2-x,1/2-y,-z
1/2+x,1/2-y,z
loop_
_atom_site_type_symbol
_atom_site_label
_atom_site_fract_x
_atom_site_fract_y
_atom_site_fract_z
Si Si1 0.862496 0.069267 0.696314
Si Si2 0.000000 0.864466 0.000000
Si Si3 0.169534 0.161261 0.738175
Si Si4 0.522978 0.775377 0.766177
O O1 0.500000 0.077123 0.500000
O O2 0.030591 0.096901 0.906892
O O3 0.985678 0.102977 0.660878
O O4 0.921708 0.000000 0.724141
O O5 0.280122 0.820121 0.188834
O O6 0.285906 0.183955 0.688443
O O7 0.968747 0.214629 0.668910
O O8 0.500000 0.155761 0.000000
O O9 0.750000 0.750000 0.000000
#
# Coordination Sequence:
#
# PCOD9168995 Si02
#       4
#     8   4   8   8
#     4  11  25  42  59  86 122 159 205 250 286 343
#     4  12  19  40  66  86 119 162 194 236 312 356
#     4  10  17  35  61  87 122 156 187 244 302 348
#     4  10  16  31  65  92 118 151 192 245 299 360
#
# _framework density 23.531680999999999
#
# number of rings (size 3 to 8) (size 9 to 14) (size 15 to 20)
#    0.000    1.429   10.000    0.429    0.000    0.571 
#    0.000    7.143    0.000    3.429    0.000    0.000 
#    0.000    0.000    0.000    0.000    0.000    0.000 
#
# Total GULP energy -78210.759256 kJ/mol
# GULP energy per Si atom -5586.482804 kJ/mol
# Density = 2.347812 g / cm^3
# Si number density = 23.531681 Si / 1000 Ang^3
#
#
#
# Elastic Constant Matrix: (Units=GPa)
#
#
# Indices 1 2 3 4 5 6 
#
# 1 133.4016 75.9264 5.4525 0.0000 10.3691 0.0000
# 2 75.9264 203.8911 31.2791 0.0000 18.8245 0.0000
# 3 5.4525 31.2791 48.6635 0.0000 23.2486 0.0000
# 4 0.0000 0.0000 0.0000 31.5797 0.0000 12.0397
# 5 10.3691 18.8245 23.2486 0.0000 49.6783 0.0000
# 6 0.0000 0.0000 0.0000 12.0397 0.0000 50.2522
#
#
#
# Elastic Compliance Matrix: (Units=1/GPa)
#
#
# Indices 1 2 3 4 5 6 
#
# 1 0.009686 -0.003784 0.002096 0.000000 -0.001569 0.000000
# 2 -0.003784 0.006931 -0.004062 0.000000 0.000064 0.000000
# 3 0.002096 -0.004062 0.028849 0.000000 -0.012399 0.000000
# 4 0.000000 0.000000 0.000000 0.034849 0.000000 -0.008349
# 5 -0.001569 0.000064 -0.012399 0.000000 0.026235 0.000000
# 6 0.000000 0.000000 0.000000 -0.008349 0.000000 0.021900
#
#
# Mechanical properties :
#
#
# Convention : Reuss Voigt Hill
#
# Bulk Modulus (GPa) = 29.43989 67.91913 48.67951
# Shear Modulus (GPa) = 33.05346 44.52190 38.78768
#
# Velocity S-wave (km/s) = 3.75191 4.35443 4.06435
# Velocity P-wave (km/s) = 5.59527 7.36253 6.53888
#
# Compressibility (1/GPa) = 0.03396752
#
# Stress axis : x y z
#
# Youngs Moduli (GPa) = 103.24260 144.28522 34.66363
#
# Poissons Ratio (x) = 0.54592 -0.07267
# Poissons Ratio (y) = 0.39063 0.14079
# Poissons Ratio (z) = -0.21643 0.58602
#
# Static dielectric constant tensor:
#      x y z
#    x 1.896840 0.000000 -0.053710 
#    y 0.000000 1.799480 0.000000 
#    z -0.053710 0.000000 2.183860 
# 
# From -- ./inp_files/37891.got.cif
#   From: 2010.05.17/outbox.cif.g08.bks.cpg/sg12_19_cif.got.tgz:37891.got - 2010.06.03 13:09:07.
