data_PCOD9168284
_publ_section_title
;
Structure prediction by ZEFSAII (Michael W. Deem and Ramdas Pophale) SiO2 
 PCOD9168284
Probable space group: C 2/M
;
_chemical_formula_sum "Si O2"
_cell_formula_units_Z 48
_cell_length_a 14.255681
_cell_length_b 23.189541
_cell_length_c 9.066803
_cell_angle_alpha 90.000000
_cell_angle_beta 56.747961
_cell_angle_gamma 90.000000
_cell_volume 2506.565598
_symmetry_space_group_name_H-M "C 2/M"
_symmetry_group_IT_number 12
_symmetry_cell_setting 'monoclinic'
loop_
_space_group_symop_operation_xyz
x,y,z
-x,y,-z
-x,-y,-z
x,-y,z
1/2+x,1/2+y,z
1/2-x,1/2+y,-z
1/2-x,1/2-y,-z
1/2+x,1/2-y,z
loop_
_atom_site_type_symbol
_atom_site_label
_atom_site_fract_x
_atom_site_fract_y
_atom_site_fract_z
Si Si1 0.294639 0.000000 0.767082
Si Si2 0.873444 0.874443 0.682058
Si Si3 0.230754 0.816691 0.487191
Si Si4 0.407289 0.500000 0.242181
Si Si5 0.010175 0.129352 0.824630
Si Si6 0.863477 0.000000 0.604089
Si Si7 0.908239 0.403623 0.465577
Si Si8 0.480882 0.000000 0.837826
O O1 0.337982 0.945286 0.635555
O O2 0.353782 0.000000 0.876288
O O3 0.162230 0.000000 0.850213
O O4 0.795049 0.831549 0.660669
O O5 0.000000 0.874817 0.500000
O O6 0.899533 0.858014 0.825993
O O7 0.827310 0.939476 0.704002
O O8 0.250000 0.750000 0.500000
O O9 0.119287 0.840334 0.663913
O O10 0.332468 0.855189 0.458321
O O11 0.471839 0.560121 0.199298
O O12 0.332759 0.500000 0.456995
O O13 0.000000 0.147029 0.000000
O O14 0.000000 0.000000 0.500000
O O15 0.000000 0.378705 0.500000
O O16 0.961942 0.444546 0.292320
O O17 0.500000 0.000000 0.000000
#
# Coordination Sequence:
#
# PCOD9168284 Si02
#       8
#     4   8   8   4   8   4   8   4
#     4   9  16  32  58  80 111 150 173 225 275 343
#     4   9  17  33  54  78 113 147 180 220 276 337
#     4  11  22  38  59  81 105 152 206 230 270 331
#     4  12  16  31  58  86 121 146 176 213 287 355
#     4  11  22  36  56  87 122 147 175 233 287 341
#     4  10  12  25  53  78 108 144 172 210 262 335
#     4   9  18  35  59  81 108 148 185 232 279 330
#     4   9  19  36  55  86 115 137 185 232 292 322
#
# _framework density 19.149708
#
# number of rings (size 3 to 8) (size 9 to 14) (size 15 to 20)
#    0.000    2.000    6.667    1.250    0.000    2.667 
#    3.000    1.667    0.000    0.000    0.000    0.000 
#    0.000    0.000    0.000    0.000    0.000    0.000 
#
# Total GULP energy -133836.318687 kJ/mol
# GULP energy per Si atom -5576.513279 kJ/mol
# Density = 1.910612 g / cm^3
# Si number density = 19.149708 Si / 1000 Ang^3
#
#
#
# Elastic Constant Matrix: (Units=GPa)
#
#
# Indices 1 2 3 4 5 6 
#
# 1 151.0934 79.7129 47.7773 0.0000 53.1885 0.0000
# 2 79.7129 126.3893 23.2534 0.0000 18.1800 0.0000
# 3 47.7773 23.2534 81.3696 0.0000 39.3630 0.0000
# 4 0.0000 0.0000 0.0000 6.0544 0.0000 -0.4612
# 5 53.1885 18.1800 39.3630 0.0000 39.5413 0.0000
# 6 0.0000 0.0000 0.0000 -0.4612 0.0000 -2.7575
#
#
#
# Elastic Compliance Matrix: (Units=1/GPa)
#
#
# Indices 1 2 3 4 5 6 
#
# 1 0.019118 -0.009102 0.003456 0.000000 -0.024973 0.000000
# 2 -0.009102 0.012851 -0.002686 0.000000 0.009009 0.000000
# 3 0.003456 -0.002686 0.024458 0.000000 -0.027761 0.000000
# 4 0.000000 0.000000 0.000000 0.163092 0.000000 -0.027275
# 5 -0.024973 0.009009 -0.027761 0.000000 0.082376 0.000000
# 6 0.000000 0.000000 0.000000 -0.027275 0.000000 -0.358081
#
#
# Mechanical properties :
#
#
# Convention : Reuss Voigt Hill
#
# Bulk Modulus (GPa) = 25.14895 73.37107 49.26001
# Shear Modulus (GPa) = -190.34175 22.44154 -83.95011
#
# Velocity S-wave (km/s) = -9.98060 3.42702 -6.62827
# Velocity P-wave (km/s) = 10.93871 7.35234 5.72706
#
# Compressibility (1/GPa) = 0.03976310
#
# Stress axis : x y z
#
# Youngs Moduli (GPa) = 52.30608 77.81642 40.88704
#
# Poissons Ratio (x) = 0.70825 -0.14131
# Poissons Ratio (y) = 0.47607 0.10983
# Poissons Ratio (z) = -0.18077 0.20904
#
# Static dielectric constant tensor:
#      x y z
#    x 1.742830 0.000000 0.002530 
#    y 0.000000 1.589710 0.000000 
#    z 0.002530 0.000000 1.737280 
# 
# From -- ./inp_files/63425.got.cif
#   From: 2010.05.17/outbox.cif.g08.bks.cpg/sg12_32_cif.got.tgz:63425.got - 2010.06.03 13:09:07.
