data_PCOD9168066
_publ_section_title
;
Structure prediction by ZEFSAII (Michael W. Deem and Ramdas Pophale) SiO2 
 PCOD9168066
Probable space group: P 21/M
;
_chemical_formula_sum "Si O2"
_cell_formula_units_Z 32
_cell_length_a 12.000000
_cell_length_b 9.000000
_cell_length_c 15.000000
_cell_angle_alpha 90.000000
_cell_angle_beta 90.000000
_cell_angle_gamma 90.000000
_cell_volume 1620.000000
_symmetry_space_group_name_H-M "P 21/M"
_symmetry_group_IT_number 11
_symmetry_cell_setting 'monoclinic'
loop_
_space_group_symop_operation_xyz
x,y,z
-x,1/2+y,-z
-x,-y,-z
x,1/2-y,z
loop_
_atom_site_type_symbol
_atom_site_label
_atom_site_fract_x
_atom_site_fract_y
_atom_site_fract_z
Si Si1 0.006404 0.928292 0.269890
Si Si2 0.170578 0.568566 0.424450
Si Si3 0.543935 0.076101 0.120566
Si Si4 0.575674 0.075616 0.575002
Si Si5 0.664842 0.428767 0.941516
Si Si6 0.828950 0.074748 0.379876
Si Si7 0.921273 0.430053 0.925870
Si Si8 0.413047 0.579605 0.686064
O O1 0.008938 0.750000 0.271427
O O2 0.095277 0.983369 0.343298
O O3 0.036038 0.976353 0.171211
O O4 0.888578 0.985936 0.302872
O O5 0.169946 0.750000 0.423711
O O6 0.298556 0.520110 0.416740
O O7 0.131770 0.522673 0.522887
O O8 0.519651 0.250000 0.106003
O O9 0.613979 0.064052 0.210376
O O10 0.425943 0.993608 0.126171
O O11 0.615813 0.022439 0.037130
O O12 0.579867 0.250000 0.557650
O O13 0.500000 0.000000 0.500000
O O14 0.508380 0.035560 0.663163
O O15 0.663275 0.250000 0.935947
O O16 0.792091 0.476310 0.932652
O O17 0.852033 0.250000 0.370393
O O18 0.696452 0.056710 0.372497
O O19 0.925139 0.250000 0.932645
O O20 0.000000 0.500000 0.000000
O O21 0.451704 0.750000 0.671441
#
# Coordination Sequence:
#
# PCOD9168066 Si02
#       8
#     4   4   4   4   4   4   4   4
#     4  10  22  39  58  84 112 144 190 240 280 327
#     4   9  19  37  59  81 113 150 185 228 281 333
#     4   9  19  35  57  84 114 146 181 233 281 329
#     4  11  21  36  58  83 114 152 186 225 278 333
#     4   9  19  37  59  82 109 147 189 228 283 344
#     4  10  20  37  59  82 113 154 190 228 279 335
#     4  10  23  40  60  83 113 149 189 236 285 337
#     4  10  21  36  55  83 117 149 187 230 278 335
#
# _framework density 19.753086
#
# number of rings (size 3 to 8) (size 9 to 14) (size 15 to 20)
#    0.000    2.250    1.250    0.750    3.500    2.000 
#    0.000    1.250    0.000    0.000    0.000    0.000 
#    0.000    0.000    0.000    0.000    0.000    0.000 
#
# Total GULP energy -178389.107141 kJ/mol
# GULP energy per Si atom -5574.659598 kJ/mol
# Density = 1.970813 g / cm^3
# Si number density = 19.753086 Si / 1000 Ang^3
#
#
#
# Elastic Constant Matrix: (Units=GPa)
#
#
# Indices 1 2 3 4 5 6 
#
# 1 76.6560 22.9008 39.1373 0.0000 -11.6788 0.0000
# 2 22.9008 -0.2624 21.4639 0.0000 -2.2735 0.0000
# 3 39.1373 21.4639 108.3069 0.0000 -0.9198 0.0000
# 4 0.0000 0.0000 0.0000 23.3512 0.0000 1.1426
# 5 -11.6788 -2.2735 -0.9198 0.0000 22.5615 0.0000
# 6 0.0000 0.0000 0.0000 1.1426 0.0000 24.9789
#
#
#
# Elastic Compliance Matrix: (Units=1/GPa)
#
#
# Indices 1 2 3 4 5 6 
#
# 1 0.010104 0.030232 -0.009575 0.000000 0.007886 0.000000
# 2 0.030232 -0.121860 0.013258 0.000000 0.003910 0.000000
# 3 -0.009575 0.013258 0.010038 0.000000 -0.003211 0.000000
# 4 0.000000 0.000000 0.000000 0.042920 0.000000 -0.001963
# 5 0.007886 0.003910 -0.003211 0.000000 0.048669 0.000000
# 6 0.000000 0.000000 0.000000 -0.001963 0.000000 0.040124
#
#
# Mechanical properties :
#
#
# Convention : Reuss Voigt Hill
#
# Bulk Modulus (GPa) = -29.50922 39.07829 4.78453
# Shear Modulus (GPa) = -101.76719 20.92490 -40.42114
#
# Velocity S-wave (km/s) = -7.18551 3.25826 -4.52853
# Velocity P-wave (km/s) = 9.15497 5.82935 4.99160
#
# Compressibility (1/GPa) = -0.03388772
#
# Stress axis : x y z
#
# Youngs Moduli (GPa) = 98.97287 -8.20613 99.61806
#
# Poissons Ratio (x) = 0.24809 0.95388
# Poissons Ratio (y) = -2.99215 -1.32078
# Poissons Ratio (z) = 0.94770 0.10880
#
# Static dielectric constant tensor:
#      x y z
#    x 1.699000 0.000000 -0.013010 
#    y 0.000000 1.675890 0.000000 
#    z -0.013010 0.000000 1.751050 
# 
# From -- ./inp_files/49287.got.cif
#   From: 2010.05.17/outbox.ucp.g08.bks.cvg/sg11_25_cif.got.tgz:49287.got - 2010.06.11 11:38:39.
