data_PCOD9168432
_publ_section_title
;
Structure prediction by ZEFSAII (Michael W. Deem and Ramdas Pophale) SiO2 
 PCOD9168432
Probable space group: C 2/M
;
_chemical_formula_sum "Si O2"
_cell_formula_units_Z 32
_cell_length_a 7.840662
_cell_length_b 17.800343
_cell_length_c 10.427845
_cell_angle_alpha 90.000000
_cell_angle_beta 119.340738
_cell_angle_gamma 90.000000
_cell_volume 1268.683309
_symmetry_space_group_name_H-M "C 2/M"
_symmetry_group_IT_number 12
_symmetry_cell_setting 'monoclinic'
loop_
_space_group_symop_operation_xyz
x,y,z
-x,y,-z
-x,-y,-z
x,-y,z
1/2+x,1/2+y,z
1/2-x,1/2+y,-z
1/2-x,1/2-y,-z
1/2+x,1/2-y,z
loop_
_atom_site_type_symbol
_atom_site_label
_atom_site_fract_x
_atom_site_fract_y
_atom_site_fract_z
Si Si1 0.341195 0.628792 0.527377
Si Si2 0.247389 0.082960 0.956984
Si Si3 0.236798 0.202211 0.742438
Si Si4 0.788888 0.878632 0.780771
O O1 0.500000 0.581827 0.500000
O O2 0.501388 0.689081 0.640760
O O3 0.201080 0.668097 0.372838
O O4 0.235477 0.599356 0.614790
O O5 0.307004 0.148417 0.881765
O O6 0.011967 0.092254 0.871932
O O7 0.291383 0.000000 0.923264
O O8 0.313026 0.091020 0.128615
O O9 0.281121 0.288022 0.787333
#
# Coordination Sequence:
#
# PCOD9168432 Si02
#       4
#     8   8   8   8
#     4   7  16  27  42  71  89 106 153 198 213 253
#     4  10  20  30  42  71 100 114 145 189 222 264
#     4   8  16  29  46  66  90 121 147 183 224 267
#     4  10  15  28  47  64  91 124 148 177 226 267
#
# _framework density 25.223001
#
# number of rings (size 3 to 8) (size 9 to 14) (size 15 to 20)
#    1.500    1.500    0.000    3.000    0.000    0.000 
#    0.000   11.250    0.000    0.000    0.000   52.500 
#    0.000    0.000    0.000    0.000    0.000    0.000 
#
# Total GULP energy -89071.270707 kJ/mol
# GULP energy per Si atom -5566.954419 kJ/mol
# Density = 2.516559 g / cm^3
# Si number density = 25.223001 Si / 1000 Ang^3
#
#
#
# Elastic Constant Matrix: (Units=GPa)
#
#
# Indices 1 2 3 4 5 6 
#
# 1 64.0605 15.1732 34.9298 0.0000 7.1870 0.0000
# 2 15.1732 147.3809 32.0234 0.0000 -5.9123 0.0000
# 3 34.9298 32.0234 131.1350 0.0000 -39.5407 0.0000
# 4 0.0000 0.0000 0.0000 -11.8903 0.0000 47.0458
# 5 7.1870 -5.9123 -39.5407 0.0000 49.0334 0.0000
# 6 0.0000 0.0000 0.0000 47.0458 0.0000 -82.7156
#
#
#
# Elastic Compliance Matrix: (Units=1/GPa)
#
#
# Indices 1 2 3 4 5 6 
#
# 1 0.021679 -0.000756 -0.008688 0.000000 -0.010275 0.000000
# 2 -0.000756 0.007211 -0.001670 0.000000 -0.000366 0.000000
# 3 -0.008688 -0.001670 0.014099 0.000000 0.012442 0.000000
# 4 0.000000 0.000000 0.000000 0.067260 0.000000 0.038255
# 5 -0.010275 -0.000366 0.012442 0.000000 0.031889 0.000000
# 6 0.000000 0.000000 0.000000 0.038255 0.000000 0.009669
#
#
# Mechanical properties :
#
#
# Convention : Reuss Voigt Hill
#
# Bulk Modulus (GPa) = 48.16718 56.31436 52.24077
# Shear Modulus (GPa) = 27.63087 8.24882 17.93985
#
# Velocity S-wave (km/s) = 3.31337 1.81037 2.66982
# Velocity P-wave (km/s) = 5.81170 5.17156 5.50095
#
# Compressibility (1/GPa) = 0.02076103
#
# Stress axis : x y z
#
# Youngs Moduli (GPa) = 46.12655 138.67383 70.92553
#
# Poissons Ratio (x) = 0.10489 0.61621
# Poissons Ratio (y) = 0.03489 0.11844
# Poissons Ratio (z) = 0.40075 0.23158
#
# Static dielectric constant tensor:
#      x y z
#    x 2.078120 0.000000 -0.093040 
#    y 0.000000 1.925560 0.000000 
#    z -0.093040 0.000000 2.084710 
# 
# From -- ./inp_files/59668.got.cif
#   From: 2010.05.17/outbox.cif.g08.bks.cpg/sg12_30_cif.got.tgz:59668.got - 2010.06.03 13:09:07.
