data_PCOD9168096
_publ_section_title
;
Structure prediction by ZEFSAII (Michael W. Deem and Ramdas Pophale) SiO2 
 PCOD9168096
Probable space group: P 21/M
;
_chemical_formula_sum "Si O2"
_cell_formula_units_Z 32
_cell_length_a 24.000000
_cell_length_b 9.000000
_cell_length_c 15.000000
_cell_angle_alpha 90.000000
_cell_angle_beta 150.000000
_cell_angle_gamma 90.000000
_cell_volume 1620.000000
_symmetry_space_group_name_H-M "P 21/M"
_symmetry_group_IT_number 11
_symmetry_cell_setting 'monoclinic'
loop_
_space_group_symop_operation_xyz
x,y,z
-x,1/2+y,-z
-x,-y,-z
x,1/2-y,z
loop_
_atom_site_type_symbol
_atom_site_label
_atom_site_fract_x
_atom_site_fract_y
_atom_site_fract_z
Si Si1 0.321597 0.570182 0.003806
Si Si2 0.248412 0.425179 0.576535
Si Si3 0.082824 0.073359 0.685028
Si Si4 0.985278 0.074636 0.226047
Si Si5 0.596946 0.426748 0.075605
Si Si6 0.900815 0.427234 0.917892
Si Si7 0.689232 0.927910 0.534737
Si Si8 0.516989 0.427275 0.620016
O O1 0.309080 0.750000 0.985650
O O2 0.374909 0.527902 0.172857
O O3 0.204642 0.490024 0.833371
O O4 0.395512 0.532618 0.018624
O O5 0.270882 0.250000 0.624201
O O6 0.291795 0.519907 0.719529
O O7 0.309726 0.467582 0.568863
O O8 0.115760 0.442911 0.382246
O O9 0.080358 0.250000 0.674178
O O10 0.046954 0.020924 0.733642
O O11 0.000000 0.000000 0.500000
O O12 0.967572 0.250000 0.221737
O O13 0.914460 0.034123 0.040773
O O14 0.584730 0.250000 0.062878
O O15 0.500000 0.500000 0.000000
O O16 0.908532 0.250000 0.921840
O O17 0.788463 0.486963 0.720018
O O18 0.000000 0.500000 0.000000
O O19 0.709502 0.750000 0.564603
O O20 0.581286 0.957644 0.444944
O O21 0.500000 0.500000 0.500000
O O22 0.521156 0.250000 0.612256
#
# Coordination Sequence:
#
# PCOD9168096 Si02
#       8
#     4   4   4   4   4   4   4   4
#     4  10  23  45  67  90 125 168 211 258 316 375
#     4  10  20  38  62  88 121 159 199 248 307 368
#     4  12  26  43  66  95 128 167 211 262 315 377
#     4  10  22  40  62  89 124 164 205 252 310 372
#     4  11  23  39  63  92 121 156 200 250 307 369
#     4  11  22  38  61  92 127 166 208 256 311 371
#     4  10  21  40  62  88 124 165 207 255 314 372
#     4  10  23  42  65  89 122 164 211 262 314 374
#
# _framework density 19.753086
#
# number of rings (size 3 to 8) (size 9 to 14) (size 15 to 20)
#    0.000    1.500    1.250    3.375    1.750    8.000 
#    0.000    1.250    0.000    0.000    0.000    0.000 
#    0.000    0.000    0.000    0.000    0.000    0.000 
#
# Total GULP energy -178827.248826 kJ/mol
# GULP energy per Si atom -5588.351526 kJ/mol
# Density = 1.970813 g / cm^3
# Si number density = 19.753086 Si / 1000 Ang^3
#
#
#
# Elastic Constant Matrix: (Units=GPa)
#
#
# Indices 1 2 3 4 5 6 
#
# 1 124.0429 52.1690 43.5417 0.0000 -20.8167 0.0000
# 2 52.1690 44.3026 42.7392 0.0000 -4.4859 0.0000
# 3 43.5417 42.7392 101.7675 0.0000 -15.8763 0.0000
# 4 0.0000 0.0000 0.0000 31.9720 0.0000 -1.3139
# 5 -20.8167 -4.4859 -15.8763 0.0000 28.9579 0.0000
# 6 0.0000 0.0000 0.0000 -1.3139 0.0000 37.9715
#
#
#
# Elastic Compliance Matrix: (Units=1/GPa)
#
#
# Indices 1 2 3 4 5 6 
#
# 1 0.019576 -0.026206 0.004584 0.000000 0.012526 0.000000
# 2 -0.026206 0.073288 -0.022673 0.000000 -0.019916 0.000000
# 3 0.004584 -0.022673 0.018976 0.000000 0.010187 0.000000
# 4 0.000000 0.000000 0.000000 0.031322 0.000000 0.001084
# 5 0.012526 -0.019916 0.010187 0.000000 0.046037 0.000000
# 6 0.000000 0.000000 0.000000 0.001084 0.000000 0.026373
#
#
# Mechanical properties :
#
#
# Convention : Reuss Voigt Hill
#
# Bulk Modulus (GPa) = 43.01116 60.77921 51.89519
# Shear Modulus (GPa) = 16.03008 28.55783 22.29395
#
# Velocity S-wave (km/s) = 2.85181 3.80641 3.36316
# Velocity P-wave (km/s) = 5.71537 7.08199 6.43506
#
# Compressibility (1/GPa) = 0.02324978
#
# Stress axis : x y z
#
# Youngs Moduli (GPa) = 51.08193 13.64480 52.69762
#
# Poissons Ratio (x) = 0.35758 -0.24158
# Poissons Ratio (y) = 1.33867 1.19482
# Poissons Ratio (z) = -0.23417 0.30937
#
# Static dielectric constant tensor:
#      x y z
#    x 1.757150 0.000000 0.054420 
#    y 0.000000 1.644210 0.000000 
#    z 0.054420 0.000000 1.735780 
# 
# From -- ./inp_files/55732.got.cif
#   From: 2010.05.17/outbox.ucp.g08.bks.cvg/sg11_28_cif.got.tgz:55732.got - 2010.06.11 11:38:39.
