data_PCOD9168887
_publ_section_title
;
Structure prediction by ZEFSAII (Michael W. Deem and Ramdas Pophale) SiO2 
 PCOD9168887
Probable space group: C 2/M
;
_chemical_formula_sum "Si O2"
_cell_formula_units_Z 52
_cell_length_a 5.331599
_cell_length_b 34.101784
_cell_length_c 22.908528
_cell_angle_alpha 90.000000
_cell_angle_beta 110.432358
_cell_angle_gamma 90.000000
_cell_volume 3903.109537
_symmetry_space_group_name_H-M "C 2/M"
_symmetry_group_IT_number 12
_symmetry_cell_setting 'monoclinic'
loop_
_space_group_symop_operation_xyz
x,y,z
-x,y,-z
-x,-y,-z
x,-y,z
1/2+x,1/2+y,z
1/2-x,1/2+y,-z
1/2-x,1/2-y,-z
1/2+x,1/2-y,z
loop_
_atom_site_type_symbol
_atom_site_label
_atom_site_fract_x
_atom_site_fract_y
_atom_site_fract_z
Si Si1 0.934941 0.547687 0.289961
Si Si2 0.715787 0.547562 0.143858
Si Si3 0.891728 0.452156 0.927819
Si Si4 0.143966 0.767217 0.429311
Si Si5 0.455951 0.571354 0.637301
Si Si6 0.312436 0.641069 0.541624
Si Si7 0.811635 0.000000 0.541090
O O1 0.945048 0.500000 0.296699
O O2 0.233276 0.564419 0.322163
O O3 0.825038 0.557476 0.216692
O O4 0.733212 0.564419 0.322163
O O5 0.711906 0.500000 0.141271
O O6 0.412121 0.560734 0.108294
O O7 0.912762 0.560734 0.108294
O O8 0.891094 0.500000 0.927396
O O9 0.000000 0.440128 0.000000
O O10 0.250000 0.750000 0.500000
O O11 0.348653 0.750000 0.399102
O O12 0.154011 0.813800 0.436007
O O13 0.400516 0.612167 0.600344
O O14 0.376750 0.537951 0.584500
O O15 0.500000 0.634584 0.500000
O O16 0.000000 0.634584 0.500000
O O17 0.500000 0.000000 0.500000
O O18 0.000000 0.000000 0.500000
#
# Coordination Sequence:
#
# PCOD9168887 Si02
#       7
#     8   8   8   8   8   8   4
#     4  11  20  36  47  57  77 109 151 181 206 246
#     4   9  17  26  42  57  72 104 136 164 203 249
#     4   9  15  24  37  60  84  98 119 162 215 256
#     4  10  16  30  49  67  85 103 119 145 200 270
#     4  12  23  34  47  61  79 106 138 182 218 249
#     4  12  21  33  48  67  85 101 129 166 216 279
#     4  12  22  36  46  56  76 100 131 170 229 270
#
# _framework density 13.322711
#
# number of rings (size 3 to 8) (size 9 to 14) (size 15 to 20)
#    0.000    1.385    4.615    4.154    0.000    4.308 
#    0.000    0.000    0.000    0.000    0.000    0.000 
#    0.000    0.000    0.000    0.000    0.000    0.000 
#
# Total GULP energy -145033.360448 kJ/mol
# GULP energy per Si atom -5578.206171 kJ/mol
# Density = 1.329239 g / cm^3
# Si number density = 13.322711 Si / 1000 Ang^3
#
#
#
# Elastic Constant Matrix: (Units=GPa)
#
#
# Indices 1 2 3 4 5 6 
#
# 1 176.4294 31.2864 84.7505 0.0000 1.4532 0.0000
# 2 31.2864 71.4049 41.6976 0.0000 -0.3693 0.0000
# 3 84.7505 41.6976 114.8595 0.0000 0.7305 0.0000
# 4 0.0000 0.0000 0.0000 15.6879 0.0000 -0.1691
# 5 1.4532 -0.3693 0.7305 0.0000 25.3787 0.0000
# 6 0.0000 0.0000 0.0000 -0.1691 0.0000 10.9199
#
#
#
# Elastic Compliance Matrix: (Units=1/GPa)
#
#
# Indices 1 2 3 4 5 6 
#
# 1 0.008783 -0.000085 -0.006448 0.000000 -0.000319 0.000000
# 2 -0.000085 0.017778 -0.006394 0.000000 0.000448 0.000000
# 3 -0.006448 -0.006394 0.015786 0.000000 -0.000178 0.000000
# 4 0.000000 0.000000 0.000000 0.063754 0.000000 0.000987
# 5 -0.000319 0.000448 -0.000178 0.000000 0.039433 0.000000
# 6 0.000000 0.000000 0.000000 0.000987 0.000000 0.091591
#
#
# Mechanical properties :
#
#
# Convention : Reuss Voigt Hill
#
# Bulk Modulus (GPa) = 60.62926 75.35142 67.99034
# Shear Modulus (GPa) = 18.62353 24.06124 21.34238
#
# Velocity S-wave (km/s) = 3.74288 4.25435 4.00679
# Velocity P-wave (km/s) = 8.01784 8.98967 8.51763
#
# Compressibility (1/GPa) = 0.01649369
#
# Stress axis : x y z
#
# Youngs Moduli (GPa) = 113.85697 56.24890 63.34561
#
# Poissons Ratio (x) = 0.00476 0.40844
# Poissons Ratio (y) = 0.00964 0.40506
# Poissons Ratio (z) = 0.73413 0.35968
#
# Static dielectric constant tensor:
#      x y z
#    x 1.385570 0.000000 -0.001940 
#    y 0.000000 1.408670 0.000000 
#    z -0.001940 0.000000 1.440380 
# 
# From -- ./inp_files/298487.got.cif
#   From: 2010.05.17/outbox.cif.g08.bks.cpg/sg12_150_cif.got.tgz:298487.got - 2010.06.03 13:09:07.
