data_PCOD9168852
_publ_section_title
;
Structure prediction by ZEFSAII (Michael W. Deem and Ramdas Pophale) SiO2 
 PCOD9168852
Probable space group: C 2/M
;
_chemical_formula_sum "Si O2"
_cell_formula_units_Z 60
_cell_length_a 16.777405
_cell_length_b 22.530556
_cell_length_c 31.411071
_cell_angle_alpha 90.000000
_cell_angle_beta 162.028870
_cell_angle_gamma 90.000000
_cell_volume 3663.428639
_symmetry_space_group_name_H-M "C 2/M"
_symmetry_group_IT_number 12
_symmetry_cell_setting 'monoclinic'
loop_
_space_group_symop_operation_xyz
x,y,z
-x,y,-z
-x,-y,-z
x,-y,z
1/2+x,1/2+y,z
1/2-x,1/2+y,-z
1/2-x,1/2-y,-z
1/2+x,1/2-y,z
loop_
_atom_site_type_symbol
_atom_site_label
_atom_site_fract_x
_atom_site_fract_y
_atom_site_fract_z
Si Si1 0.752460 0.821379 0.504327
Si Si2 0.822674 0.697040 0.776929
Si Si3 0.321051 0.633473 0.066512
Si Si4 0.790756 0.170811 0.804258
Si Si5 0.213858 0.069101 0.868221
Si Si6 0.252674 0.850330 0.400544
Si Si7 0.000000 0.805906 0.000000
Si Si8 0.998878 0.757938 0.216190
O O1 0.750000 0.750000 0.500000
O O2 0.513175 0.842180 0.354131
O O3 0.695056 0.842112 0.523204
O O4 0.048047 0.834988 0.643090
O O5 0.828233 0.759493 0.807329
O O6 0.870018 0.715004 0.751804
O O7 0.053730 0.655185 0.910073
O O8 0.540830 0.631686 0.142503
O O9 0.303907 0.578781 0.089922
O O10 0.406118 0.686888 0.140747
O O11 0.901018 0.162024 0.907284
O O12 0.992493 0.107487 0.732759
O O13 0.187777 0.000000 0.844038
O O14 0.500000 0.090108 0.000000
O O15 0.500000 0.872933 0.500000
O O16 0.183761 0.785916 0.345633
O O17 0.247235 0.768538 0.110382
#
# Coordination Sequence:
#
# PCOD9168852 Si02
#       8
#     8   8   8   8   8   8   4   8
#     4  10  19  29  43  64  98 131 164 197 236 284
#     4  10  16  30  43  66  94 129 163 199 238 283
#     4  10  17  31  48  65  95 127 160 198 244 287
#     4  10  19  30  43  68  95 128 168 199 230 291
#     4  10  22  36  53  77  97 122 168 212 244 293
#     4  11  21  33  49  71  99 138 166 198 248 291
#     4  12  18  28  46  70  96 134 172 204 236 278
#     4  10  19  26  46  68  97 126 171 200 226 288
#
# _framework density 16.3781
#
# number of rings (size 3 to 8) (size 9 to 14) (size 15 to 20)
#    0.000    1.733    2.667    6.400    3.733    0.267 
#    0.000    0.000    0.000    0.000    0.000    0.467 
#    0.000    0.000    0.000    4.667    0.267    0.000 
#
# Total GULP energy -167216.306667 kJ/mol
# GULP energy per Si atom -5573.876889 kJ/mol
# Density = 1.634082 g / cm^3
# Si number density = 16.378100 Si / 1000 Ang^3
#
#
#
# Elastic Constant Matrix: (Units=GPa)
#
#
# Indices 1 2 3 4 5 6 
#
# 1 86.4071 10.3479 21.2247 0.1674 5.1522 0.1381
# 2 10.3479 17.1399 10.4060 -0.0221 -3.0962 -0.0214
# 3 21.2247 10.4060 92.8641 0.4921 7.1422 0.3619
# 4 0.1674 -0.0221 0.4921 60.8706 0.0388 50.0742
# 5 5.1522 -3.0962 7.1422 0.0388 29.7971 0.0079
# 6 0.1381 -0.0214 0.3619 50.0742 0.0079 52.7118
#
#
#
# Elastic Compliance Matrix: (Units=1/GPa)
#
#
# Indices 1 2 3 4 5 6 
#
# 1 0.013068 -0.007135 -0.001993 -0.000008 -0.002523 -0.000015
# 2 -0.007135 0.068602 -0.006826 0.000081 0.009998 0.000015
# 3 -0.001993 -0.006826 0.012243 -0.000124 -0.003299 0.000037
# 4 -0.000008 0.000081 -0.000124 0.075178 -0.000039 -0.071415
# 5 -0.002523 0.009998 -0.003299 -0.000039 0.035826 0.000065
# 6 -0.000015 0.000015 0.000037 -0.071415 0.000065 0.086813
#
#
# Mechanical properties :
#
#
# Convention : Reuss Voigt Hill
#
# Bulk Modulus (GPa) = 16.12796 31.15206 23.64001
# Shear Modulus (GPa) = 14.52198 38.97138 26.74668
#
# Velocity S-wave (km/s) = 2.98093 4.88328 4.04552
# Velocity P-wave (km/s) = 4.66011 7.13142 6.02386
#
# Compressibility (1/GPa) = 0.06200412
#
# Stress axis : x y z
#
# Youngs Moduli (GPa) = 76.52476 14.57692 81.67885
#
# Poissons Ratio (x) = 0.10401 0.16279
# Poissons Ratio (y) = 0.54602 0.55753
# Poissons Ratio (z) = 0.15251 0.09950
#
# Static dielectric constant tensor:
#      x y z
#    x 1.556180 0.000020 -0.012910 
#    y 0.000020 1.521380 -0.000020 
#    z -0.012910 -0.000020 1.559990 
# 
# From -- ./inp_files/362312.got.cif
#   From: 2010.05.17/outbox.cif.g08.bks.cpg/sg12_182_cif.got.tgz:362312.got - 2010.06.03 13:09:07.
