data_PCOD9168144
_publ_section_title
;
Structure prediction by ZEFSAII (Michael W. Deem and Ramdas Pophale) SiO2 
 PCOD9168144
Probable space group: P 21/M
;
_chemical_formula_sum "Si O2"
_cell_formula_units_Z 28
_cell_length_a 21.000000
_cell_length_b 9.000000
_cell_length_c 15.000000
_cell_angle_alpha 90.000000
_cell_angle_beta 150.000000
_cell_angle_gamma 90.000000
_cell_volume 1417.500000
_symmetry_space_group_name_H-M "P 21/M"
_symmetry_group_IT_number 11
_symmetry_cell_setting 'monoclinic'
loop_
_space_group_symop_operation_xyz
x,y,z
-x,1/2+y,-z
-x,-y,-z
x,1/2-y,z
loop_
_atom_site_type_symbol
_atom_site_label
_atom_site_fract_x
_atom_site_fract_y
_atom_site_fract_z
Si Si1 0.499862 0.424736 0.353498
Si Si2 0.963754 0.428887 0.360350
Si Si3 0.638081 0.071387 0.171646
Si Si4 0.700756 0.574403 0.726095
Si Si5 0.140776 0.929279 0.426010
Si Si6 0.975317 0.430176 0.067338
Si Si7 0.671106 0.426025 0.005974
O O1 0.529051 0.250000 0.374529
O O2 0.624432 0.506293 0.547558
O O3 0.394740 0.436327 0.305169
O O4 0.432727 0.491225 0.182539
O O5 0.988650 0.250000 0.392452
O O6 0.816740 0.447936 0.152219
O O7 0.000000 0.500000 0.500000
O O8 0.045697 0.517195 0.387912
O O9 0.631699 0.250000 0.168049
O O10 0.723373 0.027330 0.361671
O O11 0.685197 0.032850 0.128383
O O12 0.500000 0.000000 0.000000
O O13 0.727377 0.750000 0.742600
O O14 0.830505 0.488009 0.909200
O O15 0.140576 0.750000 0.413782
O O16 0.082182 0.006530 0.266233
O O17 0.979271 0.250000 0.072470
O O18 0.000000 0.500000 0.000000
O O19 0.640882 0.250000 0.965304
#
# Coordination Sequence:
#
# PCOD9168144 Si02
#       7
#     4   4   4   4   4   4   4
#     4  10  21  36  60  93 124 158 201 252 309 368
#     4  11  21  36  61  92 126 163 204 255 312 373
#     4  10  23  42  61  84 118 160 202 248 298 358
#     4  10  21  40  63  89 123 162 202 254 311 367
#     4  11  23  43  65  91 127 163 204 260 313 368
#     4  12  26  44  66  93 123 163 211 260 313 373
#     4  10  21  38  57  85 123 161 199 247 307 366
#
# _framework density 19.753086
#
# number of rings (size 3 to 8) (size 9 to 14) (size 15 to 20)
#    0.000    1.429    1.429    3.857    0.000    8.000 
#    0.000    2.857    0.000    0.000    0.000    0.000 
#    0.000    0.000    0.000    0.000    0.000    0.000 
#
# Total GULP energy -156234.558798 kJ/mol
# GULP energy per Si atom -5579.805671 kJ/mol
# Density = 1.970813 g / cm^3
# Si number density = 19.753086 Si / 1000 Ang^3
#
#
#
# Elastic Constant Matrix: (Units=GPa)
#
#
# Indices 1 2 3 4 5 6 
#
# 1 48.3386 20.5792 37.2471 0.0000 -17.3900 0.0000
# 2 20.5792 119.5320 69.7563 0.0000 -14.5603 0.0000
# 3 37.2471 69.7563 194.9759 0.0000 -33.1960 0.0000
# 4 0.0000 0.0000 0.0000 49.4152 0.0000 -6.1231
# 5 -17.3900 -14.5603 -33.1960 0.0000 45.6513 0.0000
# 6 0.0000 0.0000 0.0000 -6.1231 0.0000 29.9813
#
#
#
# Elastic Compliance Matrix: (Units=1/GPa)
#
#
# Indices 1 2 3 4 5 6 
#
# 1 0.026510 -0.001829 -0.003184 0.000000 0.007200 0.000000
# 2 -0.001829 0.010720 -0.003449 0.000000 0.000214 0.000000
# 3 -0.003184 -0.003449 0.007507 0.000000 0.003146 0.000000
# 4 0.000000 0.000000 0.000000 0.020762 0.000000 0.004240
# 5 0.007200 0.000214 0.003146 0.000000 0.027003 0.000000
# 6 0.000000 0.000000 0.000000 0.004240 0.000000 0.034220
#
#
# Mechanical properties :
#
#
# Convention : Reuss Voigt Hill
#
# Bulk Modulus (GPa) = 35.95643 68.66798 52.31221
# Shear Modulus (GPa) = 32.69745 40.69382 36.69564
#
# Velocity S-wave (km/s) = 4.07296 4.54378 4.31480
# Velocity P-wave (km/s) = 6.35304 7.89725 7.16686
#
# Compressibility (1/GPa) = 0.02781144
#
# Stress axis : x y z
#
# Youngs Moduli (GPa) = 37.72218 93.28425 133.21297
#
# Poissons Ratio (x) = 0.17060 0.42417
# Poissons Ratio (y) = 0.06899 0.45951
# Poissons Ratio (z) = 0.12011 0.32178
#
# Static dielectric constant tensor:
#      x y z
#    x 1.776420 0.000000 0.055170 
#    y 0.000000 1.680180 0.000000 
#    z 0.055170 0.000000 1.700660 
# 
# From -- ./inp_files/54617.got.cif
#   From: 2010.05.17/outbox.ucp.g08.bks.cvg/sg11_28_cif.got.tgz:54617.got - 2010.06.11 11:38:39.
