data_PCOD9168054
_publ_section_title
;
Structure prediction by ZEFSAII (Michael W. Deem and Ramdas Pophale) SiO2 
 PCOD9168054
Probable space group: P 21/M
;
_chemical_formula_sum "Si O2"
_cell_formula_units_Z 32
_cell_length_a 12.000000
_cell_length_b 9.000000
_cell_length_c 30.000000
_cell_angle_alpha 90.000000
_cell_angle_beta 30.000000
_cell_angle_gamma 90.000000
_cell_volume 1620.000000
_symmetry_space_group_name_H-M "P 21/M"
_symmetry_group_IT_number 11
_symmetry_cell_setting 'monoclinic'
loop_
_space_group_symop_operation_xyz
x,y,z
-x,1/2+y,-z
-x,-y,-z
x,1/2-y,z
loop_
_atom_site_type_symbol
_atom_site_label
_atom_site_fract_x
_atom_site_fract_y
_atom_site_fract_z
Si Si1 0.267470 0.576504 0.637225
Si Si2 0.901482 0.581854 0.076456
Si Si3 0.626207 0.419283 0.745027
Si Si4 0.069013 0.571897 0.191468
Si Si5 0.069206 0.425149 0.429044
Si Si6 0.272015 0.923592 0.535428
Si Si7 0.625113 0.927931 0.840840
Si Si8 0.799776 0.070606 0.951809
O O1 0.231140 0.750000 0.659313
O O2 0.525248 0.535298 0.541723
O O3 0.173506 0.546970 0.619248
O O4 0.178662 0.479054 0.709378
O O5 0.988902 0.750000 0.042941
O O6 0.638966 0.584730 0.166823
O O7 0.984296 0.523559 0.095178
O O8 0.000000 0.500000 0.000000
O O9 0.712732 0.250000 0.718558
O O10 0.723755 0.496309 0.667261
O O11 0.659258 0.505883 0.780021
O O12 0.087449 0.750000 0.187257
O O13 0.195349 0.491578 0.187616
O O14 0.173393 0.518092 0.108316
O O15 0.108259 0.250000 0.423037
O O16 0.000000 0.500000 0.500000
O O17 0.887826 0.438157 0.451755
O O18 0.347165 0.750000 0.511066
O O19 0.631647 0.750000 0.835667
O O20 0.398383 0.973353 0.945884
O O21 0.785485 0.250000 0.952427
#
# Coordination Sequence:
#
# PCOD9168054 Si02
#       8
#     4   4   4   4   4   4   4   4
#     4  10  20  36  60  89 116 147 191 242 294 355
#     4  10  20  38  61  86 116 152 197 247 297 353
#     4  11  23  38  62  93 121 155 201 248 300 364
#     4  11  22  36  55  83 120 157 195 239 294 357
#     4  11  24  42  63  88 123 162 202 249 302 358
#     4   9  20  39  61  83 112 152 193 239 297 352
#     4  11  21  37  60  83 115 156 200 248 296 349
#     4   9  20  37  57  81 114 156 195 240 297 349
#
# _framework density 19.753086
#
# number of rings (size 3 to 8) (size 9 to 14) (size 15 to 20)
#    0.000    1.750    1.250    3.000    0.000    4.000 
#    0.000    5.625    0.000    0.000    0.000    0.000 
#    0.000    0.000    0.000    0.000    0.000    0.000 
#
# Total GULP energy -178323.309899 kJ/mol
# GULP energy per Si atom -5572.603434 kJ/mol
# Density = 1.970813 g / cm^3
# Si number density = 19.753086 Si / 1000 Ang^3
#
#
#
# Elastic Constant Matrix: (Units=GPa)
#
#
# Indices 1 2 3 4 5 6 
#
# 1 63.2382 35.1953 37.8494 0.0000 27.9057 0.0000
# 2 35.1953 80.6128 49.4864 0.0000 20.7044 0.0000
# 3 37.8494 49.4864 103.0523 0.0000 37.1267 0.0000
# 4 0.0000 0.0000 0.0000 33.4181 0.0000 8.5393
# 5 27.9057 20.7044 37.1267 0.0000 40.5479 0.0000
# 6 0.0000 0.0000 0.0000 8.5393 0.0000 25.0941
#
#
#
# Elastic Compliance Matrix: (Units=1/GPa)
#
#
# Indices 1 2 3 4 5 6 
#
# 1 0.026604 -0.007297 -0.001512 0.000000 -0.013199 0.000000
# 2 -0.007297 0.019687 -0.007403 0.000000 0.001748 0.000000
# 3 -0.001512 -0.007403 0.018023 0.000000 -0.011681 0.000000
# 4 0.000000 0.000000 0.000000 0.032774 0.000000 -0.011153
# 5 -0.013199 0.001748 -0.011681 0.000000 0.043549 0.000000
# 6 0.000000 0.000000 0.000000 -0.011153 0.000000 0.043645
#
#
# Mechanical properties :
#
#
# Convention : Reuss Voigt Hill
#
# Bulk Modulus (GPa) = 31.35962 54.66282 43.01122
# Shear Modulus (GPa) = 21.99406 28.10352 25.04879
#
# Velocity S-wave (km/s) = 3.34046 3.77602 3.56490
# Velocity P-wave (km/s) = 5.54874 6.83697 6.22626
#
# Compressibility (1/GPa) = 0.03188814
#
# Stress axis : x y z
#
# Youngs Moduli (GPa) = 37.58893 50.79605 55.48574
#
# Poissons Ratio (x) = 0.37066 0.08389
# Poissons Ratio (y) = 0.27429 0.41079
# Poissons Ratio (z) = 0.05683 0.37607
#
# Static dielectric constant tensor:
#      x y z
#    x 1.728330 0.000000 -0.090750 
#    y 0.000000 1.693310 0.000000 
#    z -0.090750 0.000000 1.826210 
# 
# From -- ./inp_files/73112.got.cif
#   From: 2010.05.17/outbox.ucp.g08.bks.cvg/sg11_37_cif.got.tgz:73112.got - 2010.06.11 11:38:39.
