data_PCOD9168325
_publ_section_title
;
Structure prediction by ZEFSAII (Michael W. Deem and Ramdas Pophale) SiO2 
 PCOD9168325
Probable space group: C 2/M
;
_chemical_formula_sum "Si O2"
_cell_formula_units_Z 56
_cell_length_a 20.581467
_cell_length_b 21.688732
_cell_length_c 8.143889
_cell_angle_alpha 90.000000
_cell_angle_beta 121.105370
_cell_angle_gamma 90.000000
_cell_volume 3112.626626
_symmetry_space_group_name_H-M "C 2/M"
_symmetry_group_IT_number 12
_symmetry_cell_setting 'monoclinic'
loop_
_space_group_symop_operation_xyz
x,y,z
-x,y,-z
-x,-y,-z
x,-y,z
1/2+x,1/2+y,z
1/2-x,1/2+y,-z
1/2-x,1/2-y,-z
1/2+x,1/2-y,z
loop_
_atom_site_type_symbol
_atom_site_label
_atom_site_fract_x
_atom_site_fract_y
_atom_site_fract_z
Si Si1 0.586055 0.500000 0.938827
Si Si2 0.722399 0.209976 0.813424
Si Si3 0.664007 0.372885 0.468805
Si Si4 0.846427 0.871705 0.940872
Si Si5 0.444856 0.249676 0.088886
Si Si6 0.412840 0.500000 0.655419
Si Si7 0.685061 0.804737 0.264290
Si Si8 0.092877 0.257272 0.455682
O O1 0.503160 0.500000 0.749280
O O2 0.625860 0.435690 0.950214
O O3 0.587704 0.500000 0.143019
O O4 0.761030 0.144394 0.882220
O O5 0.764283 0.244510 0.714897
O O6 0.634057 0.215438 0.668104
O O7 0.750000 0.250000 0.000000
O O8 0.655425 0.372416 0.259753
O O9 0.628834 0.439083 0.467031
O O10 0.751600 0.358085 0.634538
O O11 0.615130 0.315174 0.472263
O O12 0.901073 0.814437 0.059147
O O13 0.504540 0.235782 0.308875
O O14 0.500000 0.258200 0.000000
O O15 0.381319 0.198439 0.960418
O O16 0.637138 0.792606 0.365625
#
# Coordination Sequence:
#
# PCOD9168325 Si02
#       8
#     4   8   8   8   8   4   8   8
#     4   9  18  24  38  61  94 121 144 176 220 246
#     4  10  18  28  43  62  84 115 150 180 220 263
#     4  10  14  25  40  60  90 112 142 177 216 250
#     4  10  16  27  39  62  91 116 143 183 212 258
#     4   9  15  22  42  65  84 108 143 177 222 265
#     4   9  18  22  38  69  89 116 151 180 204 263
#     4   9  16  27  43  61  83 110 138 182 225 258
#     4  10  15  27  45  63  84 112 138 182 225 265
#
# _framework density 17.991237999999999
#
# number of rings (size 3 to 8) (size 9 to 14) (size 15 to 20)
#    0.000    2.429    5.714    1.714    2.000    0.000 
#    0.000    2.857    0.000    3.429    0.000   10.500 
#    0.000    0.000    0.000   10.286    0.000    0.286 
#
# Total GULP energy -155893.835543 kJ/mol
# GULP energy per Si atom -5567.636984 kJ/mol
# Density = 1.795029 g / cm^3
# Si number density = 17.991238 Si / 1000 Ang^3
#
#
#
# Elastic Constant Matrix: (Units=GPa)
#
#
# Indices 1 2 3 4 5 6 
#
# 1 65.4219 37.8580 43.4678 0.0000 34.0668 0.0000
# 2 37.8580 111.8744 48.5309 0.0000 36.1170 0.0000
# 3 43.4678 48.5309 136.7983 0.0000 54.1015 0.0000
# 4 0.0000 0.0000 0.0000 19.1606 0.0000 11.3009
# 5 34.0668 36.1170 54.1015 0.0000 43.7922 0.0000
# 6 0.0000 0.0000 0.0000 11.3009 0.0000 13.2492
#
#
#
# Elastic Compliance Matrix: (Units=1/GPa)
#
#
# Indices 1 2 3 4 5 6 
#
# 1 0.026492 -0.003134 -0.000348 0.000000 -0.017594 0.000000
# 2 -0.003134 0.012585 -0.000642 0.000000 -0.007149 0.000000
# 3 -0.000348 -0.000642 0.014336 0.000000 -0.016912 0.000000
# 4 0.000000 0.000000 0.000000 0.105026 0.000000 -0.089582
# 5 -0.017594 -0.007149 -0.016912 0.000000 0.063311 0.000000
# 6 0.000000 0.000000 0.000000 -0.089582 0.000000 0.151884
#
#
# Mechanical properties :
#
#
# Convention : Reuss Voigt Hill
#
# Bulk Modulus (GPa) = 22.14017 63.75643 42.94830
# Shear Modulus (GPa) = 12.59646 27.52293 20.05970
#
# Velocity S-wave (km/s) = 2.64889 3.91550 3.34274
# Velocity P-wave (km/s) = 4.65707 7.48037 6.23074
#
# Compressibility (1/GPa) = 0.04516677
#
# Stress axis : x y z
#
# Youngs Moduli (GPa) = 37.74775 79.45720 69.75204
#
# Poissons Ratio (x) = 0.24900 0.02426
# Poissons Ratio (y) = 0.11829 0.04477
# Poissons Ratio (z) = 0.01313 0.05099
#
# Static dielectric constant tensor:
#      x y z
#    x 1.685960 0.000000 -0.021120 
#    y 0.000000 1.592940 0.000000 
#    z -0.021120 0.000000 1.706050 
# 
# From -- ./inp_files/98928.got.cif
#   From: 2010.05.17/outbox.cif.g08.bks.cpg/sg12_50_cif.got.tgz:98928.got - 2010.06.03 13:09:07.
