data_PCOD9168966
_publ_section_title
;
Structure prediction by ZEFSAII (Michael W. Deem and Ramdas Pophale) SiO2 
 PCOD9168966
Probable space group: C 2/M
;
_chemical_formula_sum "Si O2"
_cell_formula_units_Z 52
_cell_length_a 5.331128
_cell_length_b 15.419722
_cell_length_c 34.653388
_cell_angle_alpha 90.000000
_cell_angle_beta 122.956549
_cell_angle_gamma 90.000000
_cell_volume 2390.267267
_symmetry_space_group_name_H-M "C 2/M"
_symmetry_group_IT_number 12
_symmetry_cell_setting 'monoclinic'
loop_
_space_group_symop_operation_xyz
x,y,z
-x,y,-z
-x,-y,-z
x,-y,z
1/2+x,1/2+y,z
1/2-x,1/2+y,-z
1/2-x,1/2-y,-z
1/2+x,1/2-y,z
loop_
_atom_site_type_symbol
_atom_site_label
_atom_site_fract_x
_atom_site_fract_y
_atom_site_fract_z
Si Si1 0.071849 0.807892 0.223276
Si Si2 0.354416 0.193072 0.876672
Si Si3 0.311831 0.402632 0.549858
Si Si4 0.843136 0.604497 0.026252
Si Si5 0.597717 0.343535 0.361332
Si Si6 0.536304 0.144747 0.676313
Si Si7 0.500000 0.308308 0.500000
O O1 0.851621 0.737844 0.225205
O O2 0.860746 0.851051 0.173315
O O3 0.216186 0.861965 0.269861
O O4 0.637390 0.234965 0.878170
O O5 0.476292 0.134797 0.921290
O O6 0.367502 0.500000 0.568014
O O7 0.297572 0.340540 0.585644
O O8 0.568033 0.371623 0.541555
O O9 0.000000 0.404991 0.500000
O O10 0.839719 0.500000 0.024984
O O11 0.500000 0.634910 0.000000
O O12 0.000000 0.635510 0.000000
O O13 0.541530 0.247203 0.338967
O O14 0.831453 0.388070 0.352600
O O15 0.278702 0.390387 0.336053
O O16 0.250000 0.250000 0.500000
#
# Coordination Sequence:
#
# PCOD9168966 Si02
#       7
#     8   8   8   8   8   8   4
#     4  10  16  31  51  82 116 146 182 237 304 348
#     4  10  21  32  54  86 114 149 195 244 298 347
#     4  11  27  48  65  90 134 170 195 242 314 368
#     4  10  21  37  55  76 113 160 199 238 291 351
#     4  10  21  33  59  84 111 149 194 231 287 343
#     4  10  18  34  56  89 114 141 188 256 282 330
#     4  12  27  44  69  94 118 152 208 252 279 344
#
# _framework density 21.754891000000001
#
# number of rings (size 3 to 8) (size 9 to 14) (size 15 to 20)
#    0.000    1.692    3.846    1.154    6.462    1.846 
#    0.000    0.000    0.000    1.846    0.000    0.000 
#    0.000    0.000    0.000    0.000    0.000    0.000 
#
# Total GULP energy -145069.632922 kJ/mol
# GULP energy per Si atom -5579.601266 kJ/mol
# Density = 2.170538 g / cm^3
# Si number density = 21.754891 Si / 1000 Ang^3
#
#
#
# Elastic Constant Matrix: (Units=GPa)
#
#
# Indices 1 2 3 4 5 6 
#
# 1 119.6340 6.6672 18.5802 0.0002 -3.5311 -0.0001
# 2 6.6672 38.1053 8.3999 0.0001 0.7744 0.0000
# 3 18.5802 8.3999 164.7140 0.0001 6.4284 -0.0001
# 4 0.0002 0.0001 0.0001 -0.3554 0.0001 3.7656
# 5 -3.5311 0.7744 6.4284 0.0001 40.2042 0.0000
# 6 -0.0001 0.0000 -0.0001 3.7656 0.0000 4.8957
#
#
#
# Elastic Compliance Matrix: (Units=1/GPa)
#
#
# Indices 1 2 3 4 5 6 
#
# 1 0.008606 -0.001317 -0.000940 0.000001 0.000931 0.000000
# 2 -0.001317 0.026747 -0.001198 0.000000 -0.000439 0.000000
# 3 -0.000940 -0.001198 0.006280 0.000000 -0.001064 0.000000
# 4 0.000001 0.000000 0.000000 -0.307524 0.000001 0.236538
# 5 0.000931 -0.000439 -0.001064 0.000001 0.025133 -0.000001
# 6 0.000000 0.000000 0.000000 0.236538 -0.000001 0.022324
#
#
# Mechanical properties :
#
#
# Convention : Reuss Voigt Hill
#
# Bulk Modulus (GPa) = 28.80107 43.30532 36.05320
# Shear Modulus (GPa) = -25.00631 28.20263 1.59816
#
# Velocity S-wave (km/s) = -3.39404 3.60444 0.85803
# Velocity P-wave (km/s) = 1.44628 6.10507 4.19405
#
# Compressibility (1/GPa) = 0.03472093
#
# Stress axis : x y z
#
# Youngs Moduli (GPa) = 116.20175 37.38783 159.24149
#
# Poissons Ratio (x) = 0.04926 0.14967
# Poissons Ratio (y) = 0.15309 0.19081
# Poissons Ratio (z) = 0.10922 0.04480
#
# Static dielectric constant tensor:
#      x y z
#    x 1.860750 0.000000 0.013970 
#    y 0.000000 1.903300 0.000000 
#    z 0.013970 0.000000 1.814410 
# 
# From -- ./inp_files/371578.got.cif
#   From: 2010.05.17/outbox.cif.g08.bks.cpg/sg12_186_cif.got.tgz:371578.got - 2010.06.03 13:09:07.
