data_PCOD9168821
_publ_section_title
;
Structure prediction by ZEFSAII (Michael W. Deem and Ramdas Pophale) SiO2 
 PCOD9168821
Probable space group: C 2/M
;
_chemical_formula_sum "Si O2"
_cell_formula_units_Z 56
_cell_length_a 22.275409
_cell_length_b 14.621982
_cell_length_c 12.551045
_cell_angle_alpha 90.000000
_cell_angle_beta 68.528155
_cell_angle_gamma 90.000000
_cell_volume 3804.290957
_symmetry_space_group_name_H-M "C 2/M"
_symmetry_group_IT_number 12
_symmetry_cell_setting 'monoclinic'
loop_
_space_group_symop_operation_xyz
x,y,z
-x,y,-z
-x,-y,-z
x,-y,z
1/2+x,1/2+y,z
1/2-x,1/2+y,-z
1/2-x,1/2-y,-z
1/2+x,1/2-y,z
loop_
_atom_site_type_symbol
_atom_site_label
_atom_site_fract_x
_atom_site_fract_y
_atom_site_fract_z
Si Si1 0.572280 0.609982 0.489529
Si Si2 0.200477 0.600309 0.894278
Si Si3 0.067147 0.893801 0.103668
Si Si4 0.720859 0.173169 0.099137
Si Si5 0.844785 0.833684 0.758020
Si Si6 0.419590 0.391340 0.266535
Si Si7 0.348637 0.701074 0.126790
O O1 0.500000 0.635665 0.500000
O O2 0.577384 0.500000 0.473517
O O3 0.623697 0.654670 0.377177
O O4 0.582198 0.631078 0.607170
O O5 0.179395 0.500000 0.870705
O O6 0.275464 0.616538 0.813056
O O7 0.163616 0.689989 0.874646
O O8 0.196895 0.602832 0.026411
O O9 0.107700 0.877033 0.185064
O O10 0.992385 0.876204 0.176640
O O11 0.073896 0.000000 0.066838
O O12 0.097732 0.830575 0.993192
O O13 0.668199 0.228120 0.200929
O O14 0.782040 0.151109 0.133058
O O15 0.750000 0.250000 0.000000
O O16 0.406275 0.500000 0.263101
O O17 0.371328 0.332621 0.226607
#
# Coordination Sequence:
#
# PCOD9168821 Si02
#       7
#     8   8   8   8   8   8   8
#     4  10  18  28  43  66  96 124 152 179 211 272
#     4  10  18  30  49  68  89 121 157 194 230 261
#     4  11  17  26  47  70  95 124 144 176 229 283
#     4   8  16  29  44  66  89 115 150 187 226 266
#     4  10  16  29  47  70  93 117 151 187 221 269
#     4  10  21  30  42  69 100 129 149 174 225 279
#     4  10  18  31  42  67  99 120 153 186 226 276
#
# _framework density 14.720221
#
# number of rings (size 3 to 8) (size 9 to 14) (size 15 to 20)
#    0.000    2.429    5.714    2.143    0.000    1.714 
#    0.000    2.857    0.000    1.714    0.000    1.000 
#    0.000    2.286    0.000    0.000    0.000    0.000 
#
# Total GULP energy -155891.401994 kJ/mol
# GULP energy per Si atom -5567.550071 kJ/mol
# Density = 1.468672 g / cm^3
# Si number density = 14.720221 Si / 1000 Ang^3
#
#
#
# Elastic Constant Matrix: (Units=GPa)
#
#
# Indices 1 2 3 4 5 6 
#
# 1 74.0528 38.1083 52.3230 0.0000 12.4188 0.0000
# 2 38.1083 65.3802 41.8847 0.0000 4.2126 0.0000
# 3 52.3230 41.8847 84.3563 0.0000 10.4184 0.0000
# 4 0.0000 0.0000 0.0000 19.0206 0.0000 0.7375
# 5 12.4188 4.2126 10.4184 0.0000 23.7133 0.0000
# 6 0.0000 0.0000 0.0000 0.7375 0.0000 20.3971
#
#
#
# Elastic Compliance Matrix: (Units=1/GPa)
#
#
# Indices 1 2 3 4 5 6 
#
# 1 0.027342 -0.007602 -0.012248 0.000000 -0.007588 0.000000
# 2 -0.007602 0.024564 -0.007861 0.000000 0.003071 0.000000
# 3 -0.012248 -0.007861 0.023674 0.000000 -0.002591 0.000000
# 4 0.000000 0.000000 0.000000 0.052648 0.000000 -0.001904
# 5 -0.007588 0.003071 -0.002591 0.000000 0.046737 0.000000
# 6 0.000000 0.000000 0.000000 -0.001904 0.000000 0.049095
#
#
# Mechanical properties :
#
#
# Convention : Reuss Voigt Hill
#
# Bulk Modulus (GPa) = 49.60341 54.26904 51.93622
# Shear Modulus (GPa) = 17.47023 18.72443 18.09733
#
# Velocity S-wave (km/s) = 3.44876 3.57041 3.51011
# Velocity P-wave (km/s) = 7.04480 7.34467 7.19630
#
# Compressibility (1/GPa) = 0.02015991
#
# Stress axis : x y z
#
# Youngs Moduli (GPa) = 36.57360 40.71002 42.24012
#
# Poissons Ratio (x) = 0.30947 0.51734
# Poissons Ratio (y) = 0.27803 0.33204
# Poissons Ratio (z) = 0.44794 0.32001
#
# Static dielectric constant tensor:
#      x y z
#    x 1.502560 0.000000 0.013930 
#    y 0.000000 1.505180 0.000000 
#    z 0.013930 0.000000 1.491450 
# 
# From -- ./inp_files/175720.got.cif
#   From: 2010.05.17/outbox.cif.g08.bks.cpg/sg12_88_cif.got.tgz:175720.got - 2010.06.03 13:09:07.
