data_PCOD9168311
_publ_section_title
;
Structure prediction by ZEFSAII (Michael W. Deem and Ramdas Pophale) SiO2 
 PCOD9168311
Probable space group: C 2/M
;
_chemical_formula_sum "Si O2"
_cell_formula_units_Z 52
_cell_length_a 14.861332
_cell_length_b 23.192630
_cell_length_c 29.235682
_cell_angle_alpha 90.000000
_cell_angle_beta 158.310732
_cell_angle_gamma 90.000000
_cell_volume 3724.095995
_symmetry_space_group_name_H-M "C 2/M"
_symmetry_group_IT_number 12
_symmetry_cell_setting 'monoclinic'
loop_
_space_group_symop_operation_xyz
x,y,z
-x,y,-z
-x,-y,-z
x,-y,z
1/2+x,1/2+y,z
1/2-x,1/2+y,-z
1/2-x,1/2-y,-z
1/2+x,1/2-y,z
loop_
_atom_site_type_symbol
_atom_site_label
_atom_site_fract_x
_atom_site_fract_y
_atom_site_fract_z
Si Si1 0.265832 0.171983 0.646741
Si Si2 0.500000 0.173933 0.000000
Si Si3 0.607719 0.228730 0.198792
Si Si4 0.721447 0.659927 0.954760
Si Si5 0.104074 0.567041 0.808924
Si Si6 0.786390 0.268918 0.191779
Si Si7 0.505435 0.613326 0.069235
O O1 0.280968 0.198692 0.704590
O O2 0.367034 0.106696 0.695606
O O3 0.465115 0.206534 0.710825
O O4 0.000000 0.175874 0.500000
O O5 0.645816 0.140924 0.029006
O O6 0.684526 0.216463 0.113788
O O7 0.450499 0.285251 0.137889
O O8 0.796623 0.249012 0.249200
O O9 0.422561 0.185734 0.084958
O O10 0.570493 0.614445 0.913635
O O11 0.059158 0.500000 0.795426
O O12 0.263681 0.576180 0.838099
O O13 0.281003 0.592768 0.932021
O O14 0.586088 0.320717 0.096002
#
# Coordination Sequence:
#
# PCOD9168311 Si02
#       7
#     8   4   8   8   8   8   8
#     4  11  20  30  42  59  91 123 148 176 204 248
#     4  10  14  22  42  64  88 110 136 170 200 246
#     4   9  16  27  40  61  86 118 144 169 209 247
#     4   9  15  23  43  65  88 108 137 176 209 265
#     4  10  19  30  44  62  83 110 149 185 220 254
#     4   9  17  26  42  63  88 115 144 169 203 263
#     4   9  15  26  45  64  83 105 136 185 220 252
#
# _framework density 13.96312
#
# number of rings (size 3 to 8) (size 9 to 14) (size 15 to 20)
#    0.000    2.462    3.077    3.692    0.000    0.923 
#    0.000    0.000    0.000    0.000    0.000    2.154 
#    0.000    0.000    0.000    5.538    0.000    1.692 
#
# Total GULP energy -144763.349252 kJ/mol
# GULP energy per Si atom -5567.821125 kJ/mol
# Density = 1.393134 g / cm^3
# Si number density = 13.963120 Si / 1000 Ang^3
#
#
#
# Elastic Constant Matrix: (Units=GPa)
#
#
# Indices 1 2 3 4 5 6 
#
# 1 128.8107 38.7553 39.9394 0.0008 1.1608 -0.0013
# 2 38.7553 51.4770 28.5538 -0.0042 -2.6155 -0.0003
# 3 39.9394 28.5538 74.8446 -0.0005 -6.2569 -0.0042
# 4 0.0008 -0.0042 -0.0005 2.3968 -0.0027 1.9940
# 5 1.1608 -2.6155 -6.2569 -0.0027 13.1035 -0.0003
# 6 -0.0013 -0.0003 -0.0042 1.9940 -0.0003 9.1111
#
#
#
# Elastic Compliance Matrix: (Units=1/GPa)
#
#
# Indices 1 2 3 4 5 6 
#
# 1 0.010850 -0.006310 -0.003717 -0.000024 -0.003995 0.000005
# 2 -0.006310 0.028313 -0.007203 0.000069 0.002771 -0.000018
# 3 -0.003717 -0.007203 0.018748 -0.000006 0.007844 0.000009
# 4 -0.000024 0.000069 -0.000006 0.510102 0.000115 -0.111635
# 5 -0.003995 0.002771 0.007844 0.000115 0.080968 -0.000020
# 6 0.000005 -0.000018 0.000009 -0.111635 -0.000020 0.134187
#
#
# Mechanical properties :
#
#
# Convention : Reuss Voigt Hill
#
# Bulk Modulus (GPa) = 42.64005 52.18105 47.41055
# Shear Modulus (GPa) = 6.05734 14.78119 10.41927
#
# Velocity S-wave (km/s) = 2.08507 3.25712 2.73463
# Velocity P-wave (km/s) = 6.03329 7.18310 6.63316
#
# Compressibility (1/GPa) = 0.02345213
#
# Stress axis : x y z
#
# Youngs Moduli (GPa) = 92.16344 35.31956 53.33924
#
# Poissons Ratio (x) = 0.22287 0.19824
# Poissons Ratio (y) = 0.58157 0.38418
# Poissons Ratio (z) = 0.34254 0.25439
#
# Static dielectric constant tensor:
#      x y z
#    x 1.502480 0.000000 0.018030 
#    y 0.000000 1.447440 0.000000 
#    z 0.018030 0.000000 1.437930 
# 
# From -- ./inp_files/272491.got.cif
#   From: 2010.05.17/outbox.cif.g08.bks.cpg/sg12_137_cif.got.tgz:272491.got - 2010.06.03 13:09:07.
