data_PCOD9168567
_publ_section_title
;
Structure prediction by ZEFSAII (Michael W. Deem and Ramdas Pophale) SiO2 
 PCOD9168567
Probable space group: C 2/M
;
_chemical_formula_sum "Si O2"
_cell_formula_units_Z 38
_cell_length_a 21.454496
_cell_length_b 17.072148
_cell_length_c 8.101990
_cell_angle_alpha 90.000000
_cell_angle_beta 40.607549
_cell_angle_gamma 90.000000
_cell_volume 1931.502508
_symmetry_space_group_name_H-M "C 2/M"
_symmetry_group_IT_number 12
_symmetry_cell_setting 'monoclinic'
loop_
_space_group_symop_operation_xyz
x,y,z
-x,y,-z
-x,-y,-z
x,-y,z
1/2+x,1/2+y,z
1/2-x,1/2+y,-z
1/2-x,1/2-y,-z
1/2+x,1/2-y,z
loop_
_atom_site_type_symbol
_atom_site_label
_atom_site_fract_x
_atom_site_fract_y
_atom_site_fract_z
Si Si1 0.792720 0.834880 0.965318
Si Si2 0.000000 0.783538 0.500000
Si Si3 0.500000 0.000000 0.500000
Si Si4 0.021947 0.642427 0.686615
Si Si5 0.297810 0.906106 0.523276
Si Si6 0.693389 0.908136 0.856553
O O1 0.756686 0.888860 0.887221
O O2 0.907445 0.831015 0.741867
O O3 0.750000 0.750000 0.000000
O O4 0.753329 0.863930 0.220807
O O5 0.037923 0.724981 0.566525
O O6 0.450917 0.930174 0.487330
O O7 0.093065 0.626623 0.693712
O O8 0.907995 0.635925 0.934542
O O9 0.258873 0.891124 0.416400
O O10 0.296010 0.000000 0.547772
O O11 0.664921 0.000000 0.921538
#
# Coordination Sequence:
#
# PCOD9168567 Si02
#       6
#     8   4   2   8   8   8
#     4  12  23  42  64  86 126 164 204 249 303 362
#     4  11  24  39  57  94 121 160 206 246 303 364
#     4  10  16  24  58  88 122 164 186 224 308 376
#     4  11  18  33  61  93 129 155 191 252 315 368
#     4  11  23  39  63  95 125 160 204 252 308 364
#     4  11  23  39  63  95 125 160 204 252 308 364
#
# _framework density 19.673804000000001
#
# number of rings (size 3 to 8) (size 9 to 14) (size 15 to 20)
#    0.000    0.842    6.316    2.526    0.000    2.526 
#    0.000    3.158    0.000    2.526    0.000    0.000 
#    0.000    0.000    0.000    0.000    0.000    0.000 
#
# Total GULP energy -105793.930498 kJ/mol
# GULP energy per Si atom -5568.101605 kJ/mol
# Density = 1.962903 g / cm^3
# Si number density = 19.673804 Si / 1000 Ang^3
#
#
#
# Elastic Constant Matrix: (Units=GPa)
#
#
# Indices 1 2 3 4 5 6 
#
# 1 53.1265 4.1885 39.8464 0.0000 8.1149 0.0000
# 2 4.1885 33.7645 34.7266 0.0000 4.0530 0.0000
# 3 39.8464 34.7266 121.1900 0.0000 -4.0076 0.0000
# 4 0.0000 0.0000 0.0000 8.1218 0.0000 -2.9475
# 5 8.1149 4.0530 -4.0076 0.0000 38.5935 0.0000
# 6 0.0000 0.0000 0.0000 -2.9475 0.0000 12.4101
#
#
#
# Elastic Compliance Matrix: (Units=1/GPa)
#
#
# Indices 1 2 3 4 5 6 
#
# 1 0.028917 0.010642 -0.012839 0.000000 -0.008531 0.000000
# 2 0.010642 0.047187 -0.017318 0.000000 -0.008991 0.000000
# 3 -0.012839 -0.017318 0.017645 0.000000 0.006351 0.000000
# 4 0.000000 0.000000 0.000000 0.134740 0.000000 0.032002
# 5 -0.008531 -0.008991 0.006351 0.000000 0.029309 0.000000
# 6 0.000000 0.000000 0.000000 0.032002 0.000000 0.088180
#
#
# Mechanical properties :
#
#
# Convention : Reuss Voigt Hill
#
# Bulk Modulus (GPa) = 18.27503 40.62267 29.44885
# Shear Modulus (GPa) = 12.39933 20.44637 16.42285
#
# Velocity S-wave (km/s) = 2.51319 3.22727 2.89235
# Velocity P-wave (km/s) = 4.21078 5.88047 5.11423
#
# Compressibility (1/GPa) = 0.05471948
#
# Stress axis : x y z
#
# Youngs Moduli (GPa) = 34.58190 21.19219 56.67239
#
# Poissons Ratio (x) = -0.22553 0.72763
# Poissons Ratio (y) = -0.36802 0.98143
# Poissons Ratio (z) = 0.44400 0.36700
#
# Static dielectric constant tensor:
#      x y z
#    x 1.759540 0.000000 0.031990 
#    y 0.000000 1.683440 0.000000 
#    z 0.031990 0.000000 1.880180 
# 
# From -- ./inp_files/96087.got.cif
#   From: 2010.05.17/outbox.cif.g08.bks.cpg/sg12_49_cif.got.tgz:96087.got - 2010.06.03 13:09:07.
