data_PCOD9168751
_publ_section_title
;
Structure prediction by ZEFSAII (Michael W. Deem and Ramdas Pophale) SiO2 
 PCOD9168751
Probable space group: C 2/M
;
_chemical_formula_sum "Si O2"
_cell_formula_units_Z 48
_cell_length_a 14.154399
_cell_length_b 18.543098
_cell_length_c 18.176003
_cell_angle_alpha 90.000000
_cell_angle_beta 147.630159
_cell_angle_gamma 90.000000
_cell_volume 2554.089508
_symmetry_space_group_name_H-M "C 2/M"
_symmetry_group_IT_number 12
_symmetry_cell_setting 'monoclinic'
loop_
_space_group_symop_operation_xyz
x,y,z
-x,y,-z
-x,-y,-z
x,-y,z
1/2+x,1/2+y,z
1/2-x,1/2+y,-z
1/2-x,1/2-y,-z
1/2+x,1/2-y,z
loop_
_atom_site_type_symbol
_atom_site_label
_atom_site_fract_x
_atom_site_fract_y
_atom_site_fract_z
Si Si1 0.537616 0.193645 0.938343
Si Si2 0.839386 0.219326 0.350650
Si Si3 0.991145 0.578582 0.625051
Si Si4 0.953693 0.266300 0.655769
Si Si5 0.897715 0.173182 0.111510
Si Si6 0.749846 0.616037 0.329955
O O1 0.347749 0.180356 0.775942
O O2 0.594837 0.276683 0.956539
O O3 0.500000 0.184594 0.000000
O O4 0.703907 0.152497 0.012149
O O5 0.803194 0.298824 0.361105
O O6 0.000000 0.183633 0.500000
O O7 0.917015 0.235067 0.321623
O O8 0.981309 0.500000 0.653669
O O9 0.977957 0.647388 0.669257
O O10 0.838750 0.586350 0.462274
O O11 0.164532 0.584215 0.687291
O O12 0.750000 0.250000 0.500000
O O13 0.017766 0.225840 0.770571
O O14 0.040167 0.110877 0.194863
#
# Coordination Sequence:
#
# PCOD9168751 Si02
#       6
#     8   8   8   8   8   8
#     4  10  19  30  44  70 105 136 176 223 274 319
#     4  10  16  28  45  69 103 137 168 216 267 316
#     4  10  18  28  47  76 111 144 175 217 267 318
#     4  11  17  28  47  72 108 141 176 223 261 315
#     4  10  19  29  46  71 102 144 181 219 270 315
#     4   9  15  28  44  68 102 136 179 210 251 317
#
# _framework density 18.793389999999999
#
# number of rings (size 3 to 8) (size 9 to 14) (size 15 to 20)
#    0.000    2.000    6.667    2.000    0.000    0.000 
#    0.000    0.000    0.000    0.000    0.000   47.833 
#    0.000   68.000    0.000    0.000    0.000    0.000 
#
# Total GULP energy -133703.828626 kJ/mol
# GULP energy per Si atom -5570.992859 kJ/mol
# Density = 1.875062 g / cm^3
# Si number density = 18.793390 Si / 1000 Ang^3
#
#
#
# Elastic Constant Matrix: (Units=GPa)
#
#
# Indices 1 2 3 4 5 6 
#
# 1 64.9635 2.1317 25.3942 -0.0018 28.7580 -0.0011
# 2 2.1317 44.6628 9.0125 0.0022 5.0235 0.0010
# 3 25.3942 9.0125 111.3953 0.0073 44.5474 0.0033
# 4 -0.0018 0.0022 0.0073 6.0826 0.0019 0.2568
# 5 28.7580 5.0235 44.5474 0.0019 43.4768 0.0003
# 6 -0.0011 0.0010 0.0033 0.2568 0.0003 8.3515
#
#
#
# Elastic Compliance Matrix: (Units=1/GPa)
#
#
# Indices 1 2 3 4 5 6 
#
# 1 0.021897 0.000475 0.001328 0.000010 -0.015900 0.000003
# 2 0.000475 0.022813 -0.001312 -0.000006 -0.001606 -0.000002
# 3 0.001328 -0.001312 0.015368 -0.000012 -0.016474 -0.000005
# 4 0.000010 -0.000006 -0.000012 0.164618 0.000000 -0.005061
# 5 -0.015900 -0.001606 -0.016474 0.000000 0.050583 0.000003
# 6 0.000003 -0.000002 -0.000005 -0.005061 0.000003 0.119894
#
#
# Mechanical properties :
#
#
# Convention : Reuss Voigt Hill
#
# Bulk Modulus (GPa) = 16.37703 32.67760 24.52731
# Shear Modulus (GPa) = 12.06149 23.88106 17.97128
#
# Velocity S-wave (km/s) = 2.53611 3.56858 3.09569
# Velocity P-wave (km/s) = 4.16041 5.86560 5.08499
#
# Compressibility (1/GPa) = 0.06106115
#
# Stress axis : x y z
#
# Youngs Moduli (GPa) = 45.66853 43.83534 65.06919
#
# Poissons Ratio (x) = -0.02083 -0.08642
# Poissons Ratio (y) = -0.02170 0.08535
# Poissons Ratio (z) = -0.06065 0.05750
#
# Static dielectric constant tensor:
#      x y z
#    x 1.712890 0.000000 0.002230 
#    y 0.000000 1.630660 0.000000 
#    z 0.002230 0.000000 1.750400 
# 
# From -- ./inp_files/311971.got.cif
#   From: 2010.05.17/outbox.cif.g08.bks.cpg/sg12_156_cif.got.tgz:311971.got - 2010.06.03 13:09:07.
