data_PCOD9168053
_publ_section_title
;
Structure prediction by ZEFSAII (Michael W. Deem and Ramdas Pophale) SiO2 
 PCOD9168053
Probable space group: P 21/M
;
_chemical_formula_sum "Si O2"
_cell_formula_units_Z 28
_cell_length_a 9.000000
_cell_length_b 9.000000
_cell_length_c 27.000000
_cell_angle_alpha 90.000000
_cell_angle_beta 40.000000
_cell_angle_gamma 90.000000
_cell_volume 1405.776502
_symmetry_space_group_name_H-M "P 21/M"
_symmetry_group_IT_number 11
_symmetry_cell_setting 'monoclinic'
loop_
_space_group_symop_operation_xyz
x,y,z
-x,1/2+y,-z
-x,-y,-z
x,1/2-y,z
loop_
_atom_site_type_symbol
_atom_site_label
_atom_site_fract_x
_atom_site_fract_y
_atom_site_fract_z
Si Si1 0.287812 0.079636 0.663825
Si Si2 0.965221 0.581420 0.377291
Si Si3 0.745481 0.421785 0.936362
Si Si4 0.888554 0.584316 0.808590
Si Si5 0.915640 0.071521 0.072611
Si Si6 0.385757 0.079046 0.224487
Si Si7 0.816494 0.424078 0.511691
O O1 0.249757 0.250000 0.691910
O O2 0.183990 0.077463 0.634813
O O3 0.556794 0.047694 0.595365
O O4 0.149058 0.951825 0.727098
O O5 0.977714 0.750000 0.391964
O O6 0.847848 0.482158 0.448382
O O7 0.220642 0.521767 0.299708
O O8 0.732061 0.250000 0.953534
O O9 0.824612 0.450481 0.860526
O O10 0.920165 0.507669 0.927145
O O11 0.500000 0.500000 0.000000
O O12 0.864230 0.750000 0.836851
O O13 0.728090 0.578368 0.801136
O O14 0.929182 0.250000 0.066079
O O15 0.650347 0.031231 0.152218
O O16 0.000000 0.000000 0.000000
O O17 0.378673 0.250000 0.244062
O O18 0.855522 0.250000 0.502470
O O19 0.000000 0.500000 0.500000
#
# Coordination Sequence:
#
# PCOD9168053 Si02
#       7
#     4   4   4   4   4   4   4
#     4   9  20  38  59  84 113 149 190 233 283 342
#     4  10  20  36  60  86 112 145 188 234 284 340
#     4  12  25  41  61  86 118 155 196 241 289 344
#     4  10  20  37  62  90 117 148 189 237 288 343
#     4  11  23  40  62  88 119 155 194 238 288 344
#     4   9  20  38  60  86 116 149 187 231 282 341
#     4  11  23  38  56  80 114 151 190 236 286 338
#
# _framework density 19.917818
#
# number of rings (size 3 to 8) (size 9 to 14) (size 15 to 20)
#    0.000    1.714    0.000    4.286    0.000    5.714 
#    0.000    0.000    0.000    0.000    0.000    0.000 
#    0.000    0.000    0.000    0.000    0.000    0.000 
#
# Total GULP energy -156329.150933 kJ/mol
# GULP energy per Si atom -5583.183962 kJ/mol
# Density = 1.987248 g / cm^3
# Si number density = 19.917818 Si / 1000 Ang^3
#
#
#
# Elastic Constant Matrix: (Units=GPa)
#
#
# Indices 1 2 3 4 5 6 
#
# 1 10.3370 45.7846 21.7007 0.0000 -34.4966 0.0000
# 2 45.7846 45.4568 52.8387 0.0000 -34.3469 0.0000
# 3 21.7007 52.8387 34.6319 0.0000 -20.9252 0.0000
# 4 0.0000 0.0000 0.0000 32.6745 0.0000 7.1862
# 5 -34.4966 -34.3469 -20.9252 0.0000 26.2298 0.0000
# 6 0.0000 0.0000 0.0000 7.1862 0.0000 24.6278
#
#
#
# Elastic Compliance Matrix: (Units=1/GPa)
#
#
# Indices 1 2 3 4 5 6 
#
# 1 -0.028809 -0.007176 0.000829 0.000000 -0.046623 0.000000
# 2 -0.007176 -0.029884 0.040049 0.000000 -0.016619 0.000000
# 3 0.000829 0.040049 -0.000777 0.000000 0.052914 0.000000
# 4 0.000000 0.000000 0.000000 0.032704 0.000000 -0.009543
# 5 -0.046623 -0.016619 0.052914 0.000000 -0.002741 0.000000
# 6 0.000000 0.000000 0.000000 -0.009543 0.000000 0.043389
#
#
# Mechanical properties :
#
#
# Convention : Reuss Voigt Hill
#
# Bulk Modulus (GPa) = 125.99894 36.78596 81.39245
# Shear Modulus (GPa) = -98.27380 14.71319 -41.78031
#
# Velocity S-wave (km/s) = -7.03184 2.72084 -4.58496
# Velocity P-wave (km/s) = 1.59131 5.32725 3.59495
#
# Compressibility (1/GPa) = 0.00793657
#
# Stress axis : x y z
#
# Youngs Moduli (GPa) = -34.71165 -33.46304 -1287.00910
#
# Poissons Ratio (x) = -0.24012 1.06756
# Poissons Ratio (y) = -0.24908 51.54360
# Poissons Ratio (z) = 0.02879 1.34017
#
# Static dielectric constant tensor:
#      x y z
#    x 1.668090 0.000000 0.052490 
#    y 0.000000 1.665190 0.000000 
#    z 0.052490 0.000000 1.622170 
# 
# From -- ./inp_files/28179.got.cif
#   From: 2010.05.17/outbox.ucp.g08.bks.cvg/sg11_15_cif.got.tgz:28179.got - 2010.06.11 11:38:39.
