data_PCOD9168208
_publ_section_title
;
Structure prediction by ZEFSAII (Michael W. Deem and Ramdas Pophale) SiO2 
 PCOD9168208
Probable space group: P 21/M
;
_chemical_formula_sum "Si O2"
_cell_formula_units_Z 24
_cell_length_a 9.000000
_cell_length_b 9.000000
_cell_length_c 15.000000
_cell_angle_alpha 90.000000
_cell_angle_beta 80.000000
_cell_angle_gamma 90.000000
_cell_volume 1196.541420
_symmetry_space_group_name_H-M "P 21/M"
_symmetry_group_IT_number 11
_symmetry_cell_setting 'monoclinic'
loop_
_space_group_symop_operation_xyz
x,y,z
-x,1/2+y,-z
-x,-y,-z
x,1/2-y,z
loop_
_atom_site_type_symbol
_atom_site_label
_atom_site_fract_x
_atom_site_fract_y
_atom_site_fract_z
Si Si1 0.368318 0.424546 0.739083
Si Si2 0.177303 0.575258 0.904765
Si Si3 0.831604 0.573567 0.907814
Si Si4 0.112383 0.414250 0.425362
Si Si5 0.638919 0.912865 0.450685
Si Si6 0.717262 0.075789 0.745389
O O1 0.333544 0.250000 0.761953
O O2 0.297342 0.529067 0.819686
O O3 0.301395 0.470522 0.649725
O O4 0.549019 0.443819 0.723677
O O5 0.177284 0.750000 0.924637
O O6 0.010546 0.536501 0.884867
O O7 0.211972 0.485365 0.990612
O O8 0.814336 0.750000 0.903488
O O9 0.738290 0.496752 0.839540
O O10 0.057311 0.250000 0.407260
O O11 0.251406 0.402018 0.478479
O O12 0.163984 0.500888 0.333300
O O13 0.000000 0.500000 0.500000
O O14 0.583188 0.750000 0.430472
O O15 0.500000 0.000000 0.500000
O O16 0.746900 0.250000 0.748451
#
# Coordination Sequence:
#
# PCOD9168208 Si02
#       6
#     4   4   4   4   4   4
#     4  10  22  39  60  88 120 157 198 243 294 350
#     4  10  22  40  63  91 117 153 198 242 296 355
#     4  10  22  41  63  89 121 155 194 245 296 352
#     4  11  24  40  60  89 122 159 201 246 296 349
#     4  10  21  39  61  86 118 158 199 242 293 345
#     4  11  23  40  62  88 120 158 198 245 297 351
#
# _framework density 20.05781
#
# number of rings (size 3 to 8) (size 9 to 14) (size 15 to 20)
#    0.000    1.667    1.667    2.000    2.333    5.333 
#    0.000    0.000    0.000    0.000    0.000    0.000 
#    0.000    0.000    0.000    0.000    0.000    0.000 
#
# Total GULP energy -133832.549426 kJ/mol
# GULP energy per Si atom -5576.356226 kJ/mol
# Density = 2.001216 g / cm^3
# Si number density = 20.057810 Si / 1000 Ang^3
#
#
#
# Elastic Constant Matrix: (Units=GPa)
#
#
# Indices 1 2 3 4 5 6 
#
# 1 -15.9366 5.6857 1.2567 0.0000 0.1448 0.0000
# 2 5.6857 47.6230 26.9801 0.0000 -4.2227 0.0000
# 3 1.2567 26.9801 60.5121 0.0000 0.6734 0.0000
# 4 0.0000 0.0000 0.0000 35.0307 0.0000 -1.0552
# 5 0.1448 -4.2227 0.6734 0.0000 32.3017 0.0000
# 6 0.0000 0.0000 0.0000 -1.0552 0.0000 21.0538
#
#
#
# Elastic Compliance Matrix: (Units=1/GPa)
#
#
# Indices 1 2 3 4 5 6 
#
# 1 -0.059809 0.008800 -0.002698 0.000000 0.001475 0.000000
# 2 0.008800 0.027309 -0.012401 0.000000 0.003789 0.000000
# 3 -0.002698 -0.012401 0.022134 0.000000 -0.002071 0.000000
# 4 0.000000 0.000000 0.000000 0.028590 0.000000 0.001433
# 5 0.001475 0.003789 -0.002071 0.000000 0.031490 0.000000
# 6 0.000000 0.000000 0.000000 0.001433 0.000000 0.047569
#
#
# Mechanical properties :
#
#
# Convention : Reuss Voigt Hill
#
# Bulk Modulus (GPa) = -43.54657 17.78259 -12.88199
# Shear Modulus (GPa) = 48.91061 21.56232 35.23647
#
# Velocity S-wave (km/s) = 4.94346 3.28229 4.19590
# Velocity P-wave (km/s) = 3.29029 4.82177 4.12768
#
# Compressibility (1/GPa) = -0.02296392
#
# Stress axis : x y z
#
# Youngs Moduli (GPa) = -16.72001 36.61749 45.17953
#
# Poissons Ratio (x) = -0.32222 0.12188
# Poissons Ratio (y) = 0.14713 0.56028
# Poissons Ratio (z) = -0.04511 0.45410
#
# Static dielectric constant tensor:
#      x y z
#    x 2.002070 0.000000 0.530510 
#    y 0.000000 1.725870 0.000000 
#    z 0.530510 0.000000 2.616870 
# 
# From -- ./inp_files/20618.got.cif
#   From: 2010.05.17/outbox.ucp.g08.bks.cvg/sg11_11_cif.got.tgz:20618.got - 2010.06.11 11:38:39.
