data_PCOD9168230
_publ_section_title
;
Structure prediction by ZEFSAII (Michael W. Deem and Ramdas Pophale) SiO2 
 PCOD9168230
Probable space group: P 21/M
;
_chemical_formula_sum "Si O2"
_cell_formula_units_Z 32
_cell_length_a 24.000000
_cell_length_b 9.000000
_cell_length_c 15.000000
_cell_angle_alpha 90.000000
_cell_angle_beta 30.000000
_cell_angle_gamma 90.000000
_cell_volume 1620.000000
_symmetry_space_group_name_H-M "P 21/M"
_symmetry_group_IT_number 11
_symmetry_cell_setting 'monoclinic'
loop_
_space_group_symop_operation_xyz
x,y,z
-x,1/2+y,-z
-x,-y,-z
x,1/2-y,z
loop_
_atom_site_type_symbol
_atom_site_label
_atom_site_fract_x
_atom_site_fract_y
_atom_site_fract_z
Si Si1 0.771264 0.572306 0.278068
Si Si2 0.776976 0.930856 0.763279
Si Si3 0.380386 0.926495 0.168008
Si Si4 0.305818 0.075567 0.926850
Si Si5 0.953756 0.576910 0.384796
Si Si6 0.457813 0.574533 0.466665
Si Si7 0.232178 0.077416 0.512108
Si Si8 0.158432 0.571767 0.993737
O O1 0.773645 0.750000 0.264011
O O2 0.649045 0.508732 0.424309
O O3 0.798220 0.537832 0.344165
O O4 0.847151 0.497803 0.096641
O O5 0.770754 0.750000 0.765215
O O6 0.894206 0.980937 0.556368
O O7 0.688512 0.001768 0.818150
O O8 0.751225 0.970403 0.900985
O O9 0.383810 0.750000 0.154296
O O10 0.323192 0.972664 0.340660
O O11 0.500000 0.000000 0.000000
O O12 0.279592 0.250000 0.946232
O O13 0.439350 0.064444 0.745016
O O14 0.267879 0.978367 0.895196
O O15 0.978224 0.750000 0.369086
O O16 0.868405 0.571472 0.419665
O O17 0.064471 0.508780 0.190963
O O18 0.500000 0.500000 0.500000
O O19 0.433448 0.750000 0.514896
O O20 0.271076 0.250000 0.459388
O O21 0.150999 0.750000 0.996633
#
# Coordination Sequence:
#
# PCOD9168230 Si02
#       8
#     4   4   4   4   4   4   4   4
#     4  11  23  38  58  85 115 151 193 237 285 338
#     4   9  19  39  61  82 113 151 189 234 286 338
#     4  11  22  36  56  84 116 149 189 233 280 336
#     4  10  22  38  58  84 114 151 191 233 285 341
#     4   8  17  37  61  83 113 150 188 232 288 340
#     4  11  22  37  57  82 115 152 188 232 286 341
#     4   9  20  40  61  82 113 151 189 233 286 339
#     4  11  22  36  58  85 114 152 193 237 285 339
#
# _framework density 19.753086
#
# number of rings (size 3 to 8) (size 9 to 14) (size 15 to 20)
#    0.000    2.000    1.250    3.000    1.750    3.000 
#    0.000    5.000    0.000    0.000    0.000    0.000 
#    0.000    0.000    0.000    0.000    0.000    0.000 
#
# Total GULP energy -178486.362677 kJ/mol
# GULP energy per Si atom -5577.698834 kJ/mol
# Density = 1.970813 g / cm^3
# Si number density = 19.753086 Si / 1000 Ang^3
#
#
#
# Elastic Constant Matrix: (Units=GPa)
#
#
# Indices 1 2 3 4 5 6 
#
# 1 41.1100 13.8285 6.5033 0.0000 32.5538 0.0000
# 2 13.8285 55.4785 17.4979 0.0000 11.5157 0.0000
# 3 6.5033 17.4979 91.4884 0.0000 21.2968 0.0000
# 4 0.0000 0.0000 0.0000 23.6580 0.0000 8.3338
# 5 32.5538 11.5157 21.2968 0.0000 36.5923 0.0000
# 6 0.0000 0.0000 0.0000 8.3338 0.0000 23.8965
#
#
#
# Elastic Compliance Matrix: (Units=1/GPa)
#
#
# Indices 1 2 3 4 5 6 
#
# 1 0.103759 -0.010879 0.017808 0.000000 -0.099249 0.000000
# 2 -0.010879 0.020989 -0.004576 0.000000 0.005736 0.000000
# 3 0.017808 -0.004576 0.016070 0.000000 -0.023755 0.000000
# 4 0.000000 0.000000 0.000000 0.048189 0.000000 -0.016806
# 5 -0.099249 0.005736 -0.023755 0.000000 0.127644 0.000000
# 6 0.000000 0.000000 0.000000 -0.016806 0.000000 0.047708
#
#
# Mechanical properties :
#
#
# Convention : Reuss Voigt Hill
#
# Bulk Modulus (GPa) = 6.87166 29.30404 18.08785
# Shear Modulus (GPa) = 12.25007 26.84585 19.54796
#
# Velocity S-wave (km/s) = 2.49300 3.69056 3.14923
# Velocity P-wave (km/s) = 3.43119 5.74697 4.73290
#
# Compressibility (1/GPa) = 0.14552518
#
# Stress axis : x y z
#
# Youngs Moduli (GPa) = 9.63768 47.64319 62.22960
#
# Poissons Ratio (x) = 0.51829 -1.10821
# Poissons Ratio (y) = 0.10484 0.28478
# Poissons Ratio (z) = -0.17163 0.21803
#
# Static dielectric constant tensor:
#      x y z
#    x 1.665210 0.000000 -0.030330 
#    y 0.000000 1.666060 0.000000 
#    z -0.030330 0.000000 1.828800 
# 
# From -- ./inp_files/55618.got.cif
#   From: 2010.05.17/outbox.ucp.g08.bks.cvg/sg11_28_cif.got.tgz:55618.got - 2010.06.11 11:38:39.
