data_PCOD9168962
_publ_section_title
;
Structure prediction by ZEFSAII (Michael W. Deem and Ramdas Pophale) SiO2 
 PCOD9168962
Probable space group: C 2/M
;
_chemical_formula_sum "Si O2"
_cell_formula_units_Z 40
_cell_length_a 14.147687
_cell_length_b 18.607039
_cell_length_c 20.134830
_cell_angle_alpha 90.000000
_cell_angle_beta 22.184035
_cell_angle_gamma 90.000000
_cell_volume 2001.349166
_symmetry_space_group_name_H-M "C 2/M"
_symmetry_group_IT_number 12
_symmetry_cell_setting 'monoclinic'
loop_
_space_group_symop_operation_xyz
x,y,z
-x,y,-z
-x,-y,-z
x,-y,z
1/2+x,1/2+y,z
1/2-x,1/2+y,-z
1/2-x,1/2-y,-z
1/2+x,1/2-y,z
loop_
_atom_site_type_symbol
_atom_site_label
_atom_site_fract_x
_atom_site_fract_y
_atom_site_fract_z
Si Si1 0.751682 0.778738 0.690368
Si Si2 0.141019 0.879175 0.714099
Si Si3 0.041616 0.726098 0.304151
Si Si4 0.610000 0.080287 0.316962
Si Si5 0.344491 0.845175 0.034663
O O1 0.686684 0.707240 0.691244
O O2 0.000000 0.815053 0.500000
O O3 0.835145 0.749154 0.706981
O O4 0.524339 0.830140 0.855349
O O5 0.173013 0.906897 0.768729
O O6 0.361959 0.909543 0.524175
O O7 0.882502 0.893313 0.844419
O O8 0.750000 0.750000 0.500000
O O9 0.083055 0.640676 0.277803
O O10 0.207155 0.770121 0.144159
O O11 0.627071 0.000000 0.279840
O O12 0.500000 0.867850 0.000000
#
# Coordination Sequence:
#
# PCOD9168962 Si02
#       5
#     8   8   8   8   8
#     4  10  17  29  47  75 103 137 177 222 264 305
#     4  10  16  31  49  74 108 135 179 211 259 310
#     4  10  17  31  49  75 109 138 166 222 271 311
#     4  10  19  31  55  78 105 144 179 210 260 321
#     4  10  20  28  48  79 112 137 170 226 274 310
#
# _framework density 19.986518
#
# number of rings (size 3 to 8) (size 9 to 14) (size 15 to 20)
#    0.000    2.000    6.000    1.800    0.000    0.000 
#    0.000    0.000    0.000   18.600    0.000    0.000 
#    0.000   23.200    0.000    0.000    0.000    0.000 
#
# Total GULP energy -111407.248076 kJ/mol
# GULP energy per Si atom -5570.362404 kJ/mol
# Density = 1.994103 g / cm^3
# Si number density = 19.986518 Si / 1000 Ang^3
#
#
#
# Elastic Constant Matrix: (Units=GPa)
#
#
# Indices 1 2 3 4 5 6 
#
# 1 62.2621 27.6615 21.6593 -0.0805 -29.6415 0.0082
# 2 27.6615 44.5560 9.1360 -0.0777 -10.7485 0.0187
# 3 21.6593 9.1360 85.6101 -0.2455 -10.2588 -0.0684
# 4 -0.0805 -0.0777 -0.2455 -0.0170 0.0283 4.0459
# 5 -29.6415 -10.7485 -10.2588 0.0283 39.6577 0.0331
# 6 0.0082 0.0187 -0.0684 4.0459 0.0331 15.6672
#
#
#
# Elastic Compliance Matrix: (Units=1/GPa)
#
#
# Indices 1 2 3 4 5 6 
#
# 1 0.034036 -0.015346 -0.004565 -0.000101 0.020099 -0.000036
# 2 -0.015346 0.031215 0.000193 -0.001330 -0.002959 0.000321
# 3 -0.004565 0.000193 0.012803 -0.002408 -0.000047 0.000680
# 4 -0.000101 -0.001330 -0.002408 -0.941167 -0.000591 0.243038
# 5 0.020099 -0.002959 -0.000047 -0.000591 0.039425 0.000062
# 6 -0.000036 0.000321 0.000680 0.243038 0.000062 0.001068
#
#
# Mechanical properties :
#
#
# Convention : Reuss Voigt Hill
#
# Bulk Modulus (GPa) = 25.89432 34.37130 30.13281
# Shear Modulus (GPa) = -6.49087 19.99300 6.75106
#
# Velocity S-wave (km/s) = -1.80407 3.16622 1.83988
# Velocity P-wave (km/s) = 2.94014 5.53183 4.42977
#
# Compressibility (1/GPa) = 0.03861851
#
# Stress axis : x y z
#
# Youngs Moduli (GPa) = 29.38106 32.03619 78.10499
#
# Poissons Ratio (x) = 0.49161 0.35656
# Poissons Ratio (y) = 0.45087 -0.01509
# Poissons Ratio (z) = 0.13413 -0.00619
#
# Static dielectric constant tensor:
#      x y z
#    x 1.762300 -0.000020 -0.007610 
#    y -0.000020 1.730480 0.000090 
#    z -0.007610 0.000090 1.777180 
# 
# From -- ./inp_files/62912.got.cif
#   From: 2010.05.17/outbox.cif.g08.bks.cpg/sg12_32_cif.got.tgz:62912.got - 2010.06.03 13:09:07.
