data_PCOD9168672
_publ_section_title
;
Structure prediction by ZEFSAII (Michael W. Deem and Ramdas Pophale) SiO2 
 PCOD9168672
Probable space group: C 2/M
;
_chemical_formula_sum "Si O2"
_cell_formula_units_Z 48
_cell_length_a 17.338568
_cell_length_b 13.697242
_cell_length_c 17.032039
_cell_angle_alpha 90.000000
_cell_angle_beta 31.136041
_cell_angle_gamma 90.000000
_cell_volume 2091.529001
_symmetry_space_group_name_H-M "C 2/M"
_symmetry_group_IT_number 12
_symmetry_cell_setting 'monoclinic'
loop_
_space_group_symop_operation_xyz
x,y,z
-x,y,-z
-x,-y,-z
x,-y,z
1/2+x,1/2+y,z
1/2-x,1/2+y,-z
1/2-x,1/2-y,-z
1/2+x,1/2-y,z
loop_
_atom_site_type_symbol
_atom_site_label
_atom_site_fract_x
_atom_site_fract_y
_atom_site_fract_z
Si Si1 0.825112 0.388894 0.433341
Si Si2 0.916251 0.205665 0.925256
Si Si3 0.432936 0.889673 0.141089
Si Si4 0.910213 0.247085 0.753943
Si Si5 0.653120 0.695146 0.435502
Si Si6 0.796720 0.106346 0.288865
O O1 0.849462 0.500000 0.382882
O O2 0.735331 0.325178 0.448268
O O3 0.726107 0.398259 0.597283
O O4 0.975864 0.336576 0.330304
O O5 0.756850 0.212448 0.105717
O O6 0.992847 0.312622 0.864883
O O7 0.904200 0.186217 0.841799
O O8 0.030630 0.134849 0.869907
O O9 0.253431 0.880344 0.298764
O O10 0.480210 0.000000 0.113682
O O11 0.500000 0.859041 0.000000
O O12 0.982633 0.193382 0.614442
O O13 0.694188 0.799628 0.360891
O O14 0.758167 0.000000 0.288963
#
# Coordination Sequence:
#
# PCOD9168672 Si02
#       6
#     8   8   8   8   8   8
#     4  10  16  26  47  72 100 133 166 202 251 313
#     4  10  19  32  49  71 108 130 166 215 269 306
#     4  10  21  37  56  75 100 142 187 216 245 299
#     4  10  18  30  48  75 104 134 160 214 271 323
#     4  10  17  32  50  72 103 135 178 214 255 307
#     4   9  16  27  45  70  99 129 165 204 249 309
#
# _framework density 22.949718000000001
#
# number of rings (size 3 to 8) (size 9 to 14) (size 15 to 20)
#    0.000    2.167    5.000    1.500    0.000    0.667 
#    0.000    5.000    0.000   10.000    0.000    0.000 
#    0.000   22.667    0.000    0.000    0.000    0.000 
#
# Total GULP energy -133667.415341 kJ/mol
# GULP energy per Si atom -5569.475639 kJ/mol
# Density = 2.289748 g / cm^3
# Si number density = 22.949718 Si / 1000 Ang^3
#
#
#
# Elastic Constant Matrix: (Units=GPa)
#
#
# Indices 1 2 3 4 5 6 
#
# 1 33.3883 -2.1807 17.1207 0.0001 -11.7895 0.0000
# 2 -2.1807 91.2658 -13.3264 0.0001 -15.4173 -0.0001
# 3 17.1207 -13.3264 181.8474 0.0002 -14.5734 -0.0001
# 4 0.0001 0.0001 0.0002 19.1606 -0.0001 2.8265
# 5 -11.7895 -15.4173 -14.5734 -0.0001 35.3263 0.0000
# 6 0.0000 -0.0001 -0.0001 2.8265 0.0000 6.5482
#
#
#
# Elastic Compliance Matrix: (Units=1/GPa)
#
#
# Indices 1 2 3 4 5 6 
#
# 1 0.035500 0.002567 -0.002187 0.000000 0.012066 0.000000
# 2 0.002567 0.012331 0.001202 0.000000 0.006734 0.000000
# 3 -0.002187 0.001202 0.005974 0.000000 0.002259 0.000000
# 4 0.000000 0.000000 0.000000 0.055740 0.000000 -0.024060
# 5 0.012066 0.006734 0.002259 0.000000 0.036205 0.000000
# 6 0.000000 0.000000 0.000000 -0.024060 0.000000 0.163099
#
#
# Mechanical properties :
#
#
# Convention : Reuss Voigt Hill
#
# Bulk Modulus (GPa) = 17.55347 34.41429 25.98388
# Shear Modulus (GPa) = 15.39996 32.53288 23.96642
#
# Velocity S-wave (km/s) = 2.59324 3.76915 3.23507
# Velocity P-wave (km/s) = 4.07821 5.82838 5.03000
#
# Compressibility (1/GPa) = 0.05696880
#
# Stress axis : x y z
#
# Youngs Moduli (GPa) = 28.16887 81.09378 167.38797
#
# Poissons Ratio (x) = -0.20817 0.36612
# Poissons Ratio (y) = -0.07231 -0.20115
# Poissons Ratio (z) = 0.06161 -0.09745
#
# Static dielectric constant tensor:
#      x y z
#    x 1.941250 0.000000 0.049460 
#    y 0.000000 1.875340 0.000000 
#    z 0.049460 0.000000 1.951160 
# 
# From -- ./inp_files/352004.got.cif
#   From: 2010.05.17/outbox.cif.g08.bks.cpg/sg12_177_cif.got.tgz:352004.got - 2010.06.03 13:09:07.
