data_PCOD9168879
_publ_section_title
;
Structure prediction by ZEFSAII (Michael W. Deem and Ramdas Pophale) SiO2 
 PCOD9168879
Probable space group: C 2/M
;
_chemical_formula_sum "Si O2"
_cell_formula_units_Z 64
_cell_length_a 5.299822
_cell_length_b 14.944561
_cell_length_c 39.205856
_cell_angle_alpha 90.000000
_cell_angle_beta 86.283646
_cell_angle_gamma 90.000000
_cell_volume 3098.711700
_symmetry_space_group_name_H-M "C 2/M"
_symmetry_group_IT_number 12
_symmetry_cell_setting 'monoclinic'
loop_
_space_group_symop_operation_xyz
x,y,z
-x,y,-z
-x,-y,-z
x,-y,z
1/2+x,1/2+y,z
1/2-x,1/2+y,-z
1/2-x,1/2-y,-z
1/2+x,1/2-y,z
loop_
_atom_site_type_symbol
_atom_site_label
_atom_site_fract_x
_atom_site_fract_y
_atom_site_fract_z
Si Si1 0.481197 0.607467 0.922884
Si Si2 0.250429 0.693751 0.592457
Si Si3 0.536644 0.109613 0.038680
Si Si4 0.442769 0.308101 0.222852
Si Si5 0.380165 0.607605 0.296218
Si Si6 0.137753 0.392422 0.665005
Si Si7 0.242868 0.646947 0.514952
Si Si8 0.119797 0.192108 0.850505
O O1 0.476943 0.500000 0.924747
O O2 0.700141 0.638756 0.946867
O O3 0.553396 0.635620 0.884251
O O4 0.203912 0.638894 0.936817
O O5 0.537154 0.728717 0.593434
O O6 0.182014 0.635697 0.625840
O O7 0.227227 0.648587 0.555701
O O8 0.539035 0.000000 0.038499
O O9 0.500000 0.138322 0.000000
O O10 0.725989 0.268757 0.223433
O O11 0.386298 0.364401 0.256899
O O12 0.412148 0.354571 0.186152
O O13 0.379334 0.500000 0.297942
O O14 0.630020 0.639725 0.313691
O O15 0.128091 0.640392 0.317496
O O16 0.134534 0.500000 0.666668
O O17 0.500000 0.604944 0.500000
O O18 0.250000 0.750000 0.500000
O O19 0.000000 0.605155 0.500000
O O20 0.404333 0.230172 0.851142
#
# Coordination Sequence:
#
# PCOD9168879 Si02
#       8
#     8   8   8   8   8   8   8   8
#     4  10  19  32  54  79 102 134 180 225 257 308
#     4  12  21  32  55  84 101 135 182 220 255 303
#     4   9  17  30  50  77 105 134 173 224 274 309
#     4  10  21  36  58  82 107 137 175 220 260 308
#     4  10  21  39  58  77 106 146 176 209 262 314
#     4  10  23  39  53  76 114 145 168 208 268 319
#     4  10  16  30  48  73 103 131 162 219 265 295
#     4  10  21  37  54  77 109 144 170 206 274 322
#
# _framework density 20.653745000000001
#
# number of rings (size 3 to 8) (size 9 to 14) (size 15 to 20)
#    0.000    1.875    2.500    2.625    0.000    5.000 
#    0.000    0.000    0.000   17.250    0.000    0.000 
#    0.000    0.000    0.000    0.000    0.000    0.000 
#
# Total GULP energy -178723.988721 kJ/mol
# GULP energy per Si atom -5585.124648 kJ/mol
# Density = 2.060674 g / cm^3
# Si number density = 20.653745 Si / 1000 Ang^3
#
#
#
# Elastic Constant Matrix: (Units=GPa)
#
#
# Indices 1 2 3 4 5 6 
#
# 1 92.0979 -5.1210 -7.8246 0.0000 0.6192 0.0000
# 2 -5.1210 26.9664 0.0970 0.0000 4.1598 0.0000
# 3 -7.8246 0.0970 104.7519 0.0000 -3.5322 0.0000
# 4 0.0000 0.0000 0.0000 36.1591 0.0000 -12.1186
# 5 0.6192 4.1598 -3.5322 0.0000 38.2539 0.0000
# 6 0.0000 0.0000 0.0000 -12.1186 0.0000 -1.5959
#
#
#
# Elastic Compliance Matrix: (Units=1/GPa)
#
#
# Indices 1 2 3 4 5 6 
#
# 1 0.011049 0.002147 0.000812 0.000000 -0.000337 0.000000
# 2 0.002147 0.038136 -0.000016 0.000000 -0.004183 0.000000
# 3 0.000812 -0.000016 0.009637 0.000000 0.000878 0.000000
# 4 0.000000 0.000000 0.000000 0.007801 0.000000 -0.059240
# 5 -0.000337 -0.004183 0.000878 0.000000 0.026683 0.000000
# 6 0.000000 0.000000 0.000000 -0.059240 0.000000 -0.176760
#
#
# Mechanical properties :
#
#
# Convention : Reuss Voigt Hill
#
# Bulk Modulus (GPa) = 15.45400 22.01322 18.73361
# Shear Modulus (GPa) = -73.77725 30.34108 -21.71809
#
# Velocity S-wave (km/s) = -5.98319 3.83696 -3.24625
# Velocity P-wave (km/s) = 6.34293 5.50554 2.22730
#
# Compressibility (1/GPa) = 0.06470815
#
# Stress axis : x y z
#
# Youngs Moduli (GPa) = 90.50876 26.22172 103.77055
#
# Poissons Ratio (x) = -0.05631 -0.08426
# Poissons Ratio (y) = -0.19435 0.00166
# Poissons Ratio (z) = -0.07349 0.00042
#
# Static dielectric constant tensor:
#      x y z
#    x 1.745160 0.000000 -0.012420 
#    y 0.000000 1.728970 0.000000 
#    z -0.012420 0.000000 1.727370 
# 
# From -- ./inp_files/371611.got.cif
#   From: 2010.05.17/outbox.cif.g08.bks.cpg/sg12_186_cif.got.tgz:371611.got - 2010.06.03 13:09:07.
