data_PCOD9168767
_publ_section_title
;
Structure prediction by ZEFSAII (Michael W. Deem and Ramdas Pophale) SiO2 
 PCOD9168767
Probable space group: C 2/M
;
_chemical_formula_sum "Si O2"
_cell_formula_units_Z 64
_cell_length_a 18.999448
_cell_length_b 19.193940
_cell_length_c 11.578310
_cell_angle_alpha 90.000000
_cell_angle_beta 60.456951
_cell_angle_gamma 90.000000
_cell_volume 3673.349817
_symmetry_space_group_name_H-M "C 2/M"
_symmetry_group_IT_number 12
_symmetry_cell_setting 'monoclinic'
loop_
_space_group_symop_operation_xyz
x,y,z
-x,y,-z
-x,-y,-z
x,-y,z
1/2+x,1/2+y,z
1/2-x,1/2+y,-z
1/2-x,1/2-y,-z
1/2+x,1/2-y,z
loop_
_atom_site_type_symbol
_atom_site_label
_atom_site_fract_x
_atom_site_fract_y
_atom_site_fract_z
Si Si1 0.983348 0.809973 0.383948
Si Si2 0.205881 0.420623 0.361322
Si Si3 0.978427 0.656332 0.139236
Si Si4 0.045716 0.644323 0.583391
Si Si5 0.819796 0.851550 0.426753
Si Si6 0.758017 0.306460 0.855247
Si Si7 0.704761 0.210073 0.701637
Si Si8 0.890507 0.765814 0.896269
O O1 0.952548 0.728859 0.415220
O O2 0.912849 0.854588 0.384465
O O3 0.000000 0.832392 0.500000
O O4 0.063104 0.806242 0.242098
O O5 0.188139 0.500000 0.347211
O O6 0.134089 0.387207 0.495365
O O7 0.285642 0.412148 0.374509
O O8 0.216076 0.371680 0.242128
O O9 0.988036 0.623964 0.261748
O O10 0.884092 0.678112 0.209320
O O11 0.039477 0.723006 0.094209
O O12 0.000000 0.619125 0.000000
O O13 0.000000 0.625535 0.500000
O O14 0.764424 0.840519 0.584318
O O15 0.807819 0.780409 0.362840
O O16 0.747473 0.238376 0.782332
O O17 0.827725 0.289221 0.890444
O O18 0.668654 0.314031 0.981246
#
# Coordination Sequence:
#
# PCOD9168767 Si02
#       8
#     8   8   8   8   8   8   8   8
#     4  10  17  29  52  81 107 128 167 219 292 333
#     4  11  22  35  51  73 105 152 192 218 249 308
#     4  11  18  29  48  83 109 136 164 208 287 343
#     4  10  19  34  54  78 111 140 176 224 275 335
#     4  10  17  29  49  72 100 133 177 220 262 315
#     4  10  20  32  49  77 112 136 179 217 277 333
#     4  10  16  28  48  74 104 136 161 218 281 324
#     4  10  19  30  48  79 109 141 160 223 288 338
#
# _framework density 17.422789999999999
#
# number of rings (size 3 to 8) (size 9 to 14) (size 15 to 20)
#    0.000    1.750    5.000    4.500    0.000    0.250 
#    0.000    0.000    0.000    2.250    0.000   14.000 
#    0.000    0.000    0.000    0.000    0.000    0.000 
#
# Total GULP energy -178270.031347 kJ/mol
# GULP energy per Si atom -5570.938480 kJ/mol
# Density = 1.738313 g / cm^3
# Si number density = 17.422790 Si / 1000 Ang^3
#
#
#
# Elastic Constant Matrix: (Units=GPa)
#
#
# Indices 1 2 3 4 5 6 
#
# 1 56.2849 1.7221 16.6224 0.0000 -2.3841 0.0000
# 2 1.7221 23.7908 20.2235 0.0000 -3.1954 0.0000
# 3 16.6224 20.2235 126.1684 0.0000 -5.8929 0.0000
# 4 0.0000 0.0000 0.0000 -4.6603 0.0000 -0.0186
# 5 -2.3841 -3.1954 -5.8929 0.0000 36.3079 0.0000
# 6 0.0000 0.0000 0.0000 -0.0186 0.0000 7.4334
#
#
#
# Elastic Compliance Matrix: (Units=1/GPa)
#
#
# Indices 1 2 3 4 5 6 
#
# 1 0.018529 0.000947 -0.002551 0.000000 0.000886 0.000000
# 2 0.000947 0.049047 -0.007841 0.000000 0.003106 0.000000
# 3 -0.002551 -0.007841 0.009551 0.000000 0.000693 0.000000
# 4 0.000000 0.000000 0.000000 -0.214576 0.000000 -0.000537
# 5 0.000886 0.003106 0.000693 0.000000 0.027986 0.000000
# 6 0.000000 0.000000 0.000000 -0.000537 0.000000 0.134527
#
#
# Mechanical properties :
#
#
# Convention : Reuss Voigt Hill
#
# Bulk Modulus (GPa) = 17.17182 31.48667 24.32924
# Shear Modulus (GPa) = 78.90325 18.99461 48.94893
#
# Velocity S-wave (km/s) = 6.73689 3.30542 5.30620
# Velocity P-wave (km/s) = 8.38997 5.71657 7.17881
#
# Compressibility (1/GPa) = 0.05823496
#
# Stress axis : x y z
#
# Youngs Moduli (GPa) = 53.96994 20.38847 104.69766
#
# Poissons Ratio (x) = -0.01930 0.26714
# Poissons Ratio (y) = -0.05109 0.82098
# Poissons Ratio (z) = 0.13770 0.15987
#
# Static dielectric constant tensor:
#      x y z
#    x 1.639940 0.000000 0.029630 
#    y 0.000000 1.548300 0.000000 
#    z 0.029630 0.000000 1.650720 
# 
# From -- ./inp_files/159235.got.cif
#   From: 2010.05.17/outbox.cif.g08.bks.cpg/sg12_80_cif.got.tgz:159235.got - 2010.06.03 13:09:07.
