data_PCOD9168658
_publ_section_title
;
Structure prediction by ZEFSAII (Michael W. Deem and Ramdas Pophale) SiO2 
 PCOD9168658
Probable space group: C 2/M
;
_chemical_formula_sum "Si O2"
_cell_formula_units_Z 56
_cell_length_a 19.384095
_cell_length_b 18.180458
_cell_length_c 18.106061
_cell_angle_alpha 90.000000
_cell_angle_beta 23.700357
_cell_angle_gamma 90.000000
_cell_volume 2564.780031
_symmetry_space_group_name_H-M "C 2/M"
_symmetry_group_IT_number 12
_symmetry_cell_setting 'monoclinic'
loop_
_space_group_symop_operation_xyz
x,y,z
-x,y,-z
-x,-y,-z
x,-y,z
1/2+x,1/2+y,z
1/2-x,1/2+y,-z
1/2-x,1/2-y,-z
1/2+x,1/2-y,z
loop_
_atom_site_type_symbol
_atom_site_label
_atom_site_fract_x
_atom_site_fract_y
_atom_site_fract_z
Si Si1 0.689961 0.322515 0.776710
Si Si2 0.957278 0.084356 0.205555
Si Si3 0.136790 0.913821 0.547246
Si Si4 0.833699 0.415779 0.763120
Si Si5 0.246616 0.651741 0.710704
Si Si6 0.127390 0.588969 0.970671
Si Si7 0.025516 0.587340 0.225556
O O1 0.662781 0.364739 0.726470
O O2 0.812552 0.367911 0.710875
O O3 0.747705 0.239168 0.711915
O O4 0.500000 0.320190 0.000000
O O5 0.973573 0.110080 0.274037
O O6 0.889803 0.000000 0.273186
O O7 0.142024 0.081609 0.986022
O O8 0.129861 0.874695 0.475636
O O9 0.330483 0.904949 0.389632
O O10 0.104036 0.000000 0.565825
O O11 0.885681 0.500000 0.694933
O O12 0.943074 0.382363 0.723507
O O13 0.259788 0.619097 0.780351
O O14 0.058894 0.621075 0.869692
O O15 0.121801 0.500000 0.972419
O O16 0.143085 0.611796 0.041126
O O17 0.060444 0.500000 0.199241
#
# Coordination Sequence:
#
# PCOD9168658 Si02
#       7
#     8   8   8   8   8   8   8
#     4  10  18  29  45  67  94 124 162 191 225 273
#     4   9  18  31  48  69  94 123 160 198 231 272
#     4   9  17  30  49  74  96 118 153 197 240 281
#     4   9  17  31  50  70  93 124 158 195 232 274
#     4  10  16  26  45  69  97 121 152 192 234 275
#     4   9  15  26  46  71  94 120 153 197 237 273
#     4   8  15  28  48  72  95 116 152 198 239 276
#
# _framework density 21.834230999999999
#
# number of rings (size 3 to 8) (size 9 to 14) (size 15 to 20)
#    0.000    2.857    1.429    3.000    0.000    2.286 
#    0.000    1.429    0.000    4.286    3.714    5.000 
#    0.000    0.000    0.000    0.000    0.000    0.000 
#
# Total GULP energy -156220.767668 kJ/mol
# GULP energy per Si atom -5579.313131 kJ/mol
# Density = 2.178454 g / cm^3
# Si number density = 21.834231 Si / 1000 Ang^3
#
#
#
# Elastic Constant Matrix: (Units=GPa)
#
#
# Indices 1 2 3 4 5 6 
#
# 1 35.2880 3.2050 54.8207 -0.1102 -45.2719 0.2892
# 2 3.2050 68.3174 37.6054 -0.1190 -10.3633 0.2907
# 3 54.8207 37.6054 67.6849 -0.0179 34.1583 0.0664
# 4 -0.1102 -0.1190 -0.0179 7.4567 -0.0418 4.4245
# 5 -45.2719 -10.3633 34.1583 -0.0418 -20.0252 0.1035
# 6 0.2892 0.2907 0.0664 4.4245 0.1035 -41.5241
#
#
#
# Elastic Compliance Matrix: (Units=1/GPa)
#
#
# Indices 1 2 3 4 5 6 
#
# 1 0.008282 -0.003544 0.002034 -0.000006 -0.013421 0.000002
# 2 -0.003544 0.015695 -0.003114 0.000114 -0.005422 0.000079
# 3 0.002034 -0.003114 0.008794 0.000044 0.012014 0.000041
# 4 -0.000006 0.000114 0.000044 0.126134 -0.000164 0.013440
# 5 -0.013421 -0.005422 0.012014 -0.000164 0.003703 -0.000120
# 6 0.000002 0.000079 0.000041 0.013440 -0.000120 -0.022650
#
#
# Mechanical properties :
#
#
# Convention : Reuss Voigt Hill
#
# Bulk Modulus (GPa) = 42.50999 40.28360 41.39679
# Shear Modulus (GPa) = 31.83755 -5.77459 13.03148
#
# Velocity S-wave (km/s) = 3.82271 -1.62803 2.44568
# Velocity P-wave (km/s) = 6.24467 3.86728 5.19383
#
# Compressibility (1/GPa) = 0.02352388
#
# Stress axis : x y z
#
# Youngs Moduli (GPa) = 120.73843 63.71361 113.71433
#
# Poissons Ratio (x) = 0.22580 -0.23128
# Poissons Ratio (y) = 0.42790 0.35408
# Poissons Ratio (z) = -0.24557 0.19839
#
# Static dielectric constant tensor:
#      x y z
#    x 1.850720 -0.000010 -0.001520 
#    y -0.000010 1.729570 0.000010 
#    z -0.001520 0.000010 1.887160 
# 
# From -- ./inp_files/284531.got.cif
#   From: 2010.05.17/outbox.cif.g08.bks.cpg/sg12_143_cif.got.tgz:284531.got - 2010.06.03 13:09:07.
