data_PCOD9168142
_publ_section_title
;
Structure prediction by ZEFSAII (Michael W. Deem and Ramdas Pophale) SiO2 
 PCOD9168142
Probable space group: P 21/M
;
_chemical_formula_sum "Si O2"
_cell_formula_units_Z 32
_cell_length_a 12.000000
_cell_length_b 15.000000
_cell_length_c 18.000000
_cell_angle_alpha 90.000000
_cell_angle_beta 30.000000
_cell_angle_gamma 90.000000
_cell_volume 1620.000000
_symmetry_space_group_name_H-M "P 21/M"
_symmetry_group_IT_number 11
_symmetry_cell_setting 'monoclinic'
loop_
_space_group_symop_operation_xyz
x,y,z
-x,1/2+y,-z
-x,-y,-z
x,1/2-y,z
loop_
_atom_site_type_symbol
_atom_site_label
_atom_site_fract_x
_atom_site_fract_y
_atom_site_fract_z
Si Si1 0.069950 0.100955 0.941256
Si Si2 0.023483 0.953461 0.168066
Si Si3 0.421506 0.411505 0.502574
Si Si4 0.416991 0.852169 0.748477
Si Si5 0.551103 0.143452 0.738572
Si Si6 0.531235 0.959003 0.833589
Si Si7 0.982737 0.854341 0.621790
Si Si8 0.123123 0.651351 0.713414
O O1 0.315850 0.126707 0.829237
O O2 0.055031 0.099447 0.860513
O O3 0.853443 0.151876 0.098025
O O4 0.000000 0.000000 0.000000
O O5 0.847016 0.912802 0.330179
O O6 0.295249 0.945812 0.015746
O O7 0.969831 0.060693 0.193926
O O8 0.500000 0.500000 0.500000
O O9 0.482633 0.403659 0.380519
O O10 0.607764 0.346276 0.431433
O O11 0.499728 0.750000 0.701307
O O12 0.484756 0.905623 0.783393
O O13 0.550687 0.250000 0.759947
O O14 0.784846 0.128265 0.557923
O O15 0.550914 0.064650 0.801217
O O16 0.764970 0.917137 0.730477
O O17 0.921052 0.750000 0.642737
O O18 0.052349 0.860747 0.668284
O O19 0.038985 0.750000 0.786556
#
# Coordination Sequence:
#
# PCOD9168142 Si02
#       8
#     4   4   4   4   4   4   4   4
#     4  11  19  38  61  96 133 161 203 265 331 384
#     4  10  22  37  62  93 128 169 208 256 332 388
#     4  10  21  36  59  91 129 164 207 259 317 392
#     4  11  23  39  65  94 129 173 211 260 327 389
#     4  11  23  39  65  97 126 164 218 270 318 380
#     4  11  24  42  67  95 130 172 214 274 327 374
#     4  10  23  43  64  92 125 171 226 270 321 379
#     4  10  21  37  63  92 126 170 218 265 313 385
#
# _framework density 19.753086
#
# number of rings (size 3 to 8) (size 9 to 14) (size 15 to 20)
#    0.000    1.500    2.500    3.750    3.500    1.000 
#    0.000    6.875    0.000    0.000    0.000    0.000 
#    0.000    0.000    0.000    0.000    0.000    0.000 
#
# Total GULP energy -178342.505313 kJ/mol
# GULP energy per Si atom -5573.203291 kJ/mol
# Density = 1.970813 g / cm^3
# Si number density = 19.753086 Si / 1000 Ang^3
#
#
#
# Elastic Constant Matrix: (Units=GPa)
#
#
# Indices 1 2 3 4 5 6 
#
# 1 71.0321 15.8234 38.3903 0.0000 -16.1414 0.0000
# 2 15.8234 103.6041 29.3591 0.0000 -2.0511 0.0000
# 3 38.3903 29.3591 159.6146 0.0000 -16.0913 0.0000
# 4 0.0000 0.0000 0.0000 29.5298 0.0000 -12.9612
# 5 -16.1414 -2.0511 -16.0913 0.0000 40.6692 0.0000
# 6 0.0000 0.0000 0.0000 -12.9612 0.0000 23.2708
#
#
#
# Elastic Compliance Matrix: (Units=1/GPa)
#
#
# Indices 1 2 3 4 5 6 
#
# 1 0.017511 -0.001614 -0.003356 0.000000 0.005540 0.000000
# 2 -0.001614 0.010334 -0.001588 0.000000 -0.000748 0.000000
# 3 -0.003356 -0.001588 0.007522 0.000000 0.001564 0.000000
# 4 0.000000 0.000000 0.000000 0.044822 0.000000 0.024964
# 5 0.005540 -0.000748 0.001564 0.000000 0.027369 0.000000
# 6 0.000000 0.000000 0.000000 0.024964 0.000000 0.056877
#
#
# Mechanical properties :
#
#
# Convention : Reuss Voigt Hill
#
# Bulk Modulus (GPa) = 44.94248 55.71070 50.32659
# Shear Modulus (GPa) = 27.03198 35.40583 31.21891
#
# Velocity S-wave (km/s) = 3.70333 4.23829 3.97981
# Velocity P-wave (km/s) = 6.40997 7.22604 6.83020
#
# Compressibility (1/GPa) = 0.02225066
#
# Stress axis : x y z
#
# Youngs Moduli (GPa) = 57.10846 96.76996 132.94147
#
# Poissons Ratio (x) = 0.15615 0.44618
# Poissons Ratio (y) = 0.09215 0.21112
# Poissons Ratio (z) = 0.19167 0.15367
#
# Static dielectric constant tensor:
#      x y z
#    x 1.713440 0.000000 0.022930 
#    y 0.000000 1.751740 0.000000 
#    z 0.022930 0.000000 1.737670 
# 
# From -- ./inp_files/59449.got.cif
#   From: 2010.05.17/outbox.ucp.g08.bks.cvg/sg11_30_cif.got.tgz:59449.got - 2010.06.11 11:38:39.
