data_PCOD9168197
_publ_section_title
;
Structure prediction by ZEFSAII (Michael W. Deem and Ramdas Pophale) SiO2 
 PCOD9168197
Probable space group: P 21/M
;
_chemical_formula_sum "Si O2"
_cell_formula_units_Z 32
_cell_length_a 12.000000
_cell_length_b 9.000000
_cell_length_c 30.000000
_cell_angle_alpha 90.000000
_cell_angle_beta 30.000000
_cell_angle_gamma 90.000000
_cell_volume 1620.000000
_symmetry_space_group_name_H-M "P 21/M"
_symmetry_group_IT_number 11
_symmetry_cell_setting 'monoclinic'
loop_
_space_group_symop_operation_xyz
x,y,z
-x,1/2+y,-z
-x,-y,-z
x,1/2-y,z
loop_
_atom_site_type_symbol
_atom_site_label
_atom_site_fract_x
_atom_site_fract_y
_atom_site_fract_z
Si Si1 0.087593 0.427673 0.043509
Si Si2 0.620684 0.927996 0.703870
Si Si3 0.254573 0.929086 0.579976
Si Si4 0.516433 0.070946 0.342388
Si Si5 0.741407 0.071733 0.923477
Si Si6 0.915203 0.929486 0.452160
Si Si7 0.313985 0.073684 0.874167
Si Si8 0.064557 0.928481 0.743105
O O1 0.057471 0.250000 0.060839
O O2 0.276055 0.451434 0.939947
O O3 0.146519 0.504210 0.070074
O O4 0.874556 0.493550 0.090838
O O5 0.615782 0.750000 0.709881
O O6 0.470747 0.975987 0.713369
O O7 0.539176 0.005133 0.777097
O O8 0.863989 0.987935 0.608879
O O9 0.270740 0.750000 0.568165
O O10 0.115755 0.954942 0.673521
O O11 0.500000 0.000000 0.500000
O O12 0.143650 0.008573 0.576286
O O13 0.519273 0.250000 0.340390
O O14 0.286443 0.028585 0.445283
O O15 0.716093 0.026306 0.304986
O O16 0.732154 0.250000 0.930288
O O17 0.874293 0.020264 0.833424
O O18 0.500000 0.000000 0.000000
O O19 0.938887 0.750000 0.443411
O O20 0.300973 0.250000 0.871240
O O21 0.027851 0.750000 0.761495
#
# Coordination Sequence:
#
# PCOD9168197 Si02
#       8
#     4   4   4   4   4   4   4   4
#     4  10  21  40  65  90 121 158 198 250 306 363
#     4  11  22  36  57  87 122 160 202 249 306 364
#     4  11  22  39  64  91 121 158 203 252 303 361
#     4   9  19  37  60  85 117 158 199 244 300 357
#     4  12  26  43  64  92 124 161 205 255 310 371
#     4  11  22  39  59  83 120 162 203 252 304 358
#     4  10  21  38  62  92 121 157 203 249 300 363
#     4  10  21  41  66  91 121 160 202 251 310 367
#
# _framework density 19.753086
#
# number of rings (size 3 to 8) (size 9 to 14) (size 15 to 20)
#    0.000    1.500    1.250    4.125    0.000    4.500 
#    0.000    2.500    0.000    0.000    0.000    0.000 
#    0.000    0.000    0.000    0.000    0.000    0.000 
#
# Total GULP energy -178731.528505 kJ/mol
# GULP energy per Si atom -5585.360266 kJ/mol
# Density = 1.970813 g / cm^3
# Si number density = 19.753086 Si / 1000 Ang^3
#
#
#
# Elastic Constant Matrix: (Units=GPa)
#
#
# Indices 1 2 3 4 5 6 
#
# 1 58.7332 16.3159 1.9038 0.0000 21.9595 0.0000
# 2 16.3159 87.7455 29.6893 0.0000 23.1055 0.0000
# 3 1.9038 29.6893 99.0274 0.0000 20.5897 0.0000
# 4 0.0000 0.0000 0.0000 32.7705 0.0000 0.9382
# 5 21.9595 23.1055 20.5897 0.0000 29.3376 0.0000
# 6 0.0000 0.0000 0.0000 0.9382 0.0000 33.6630
#
#
#
# Elastic Compliance Matrix: (Units=1/GPa)
#
#
# Indices 1 2 3 4 5 6 
#
# 1 0.024926 -0.000434 0.004050 0.000000 -0.021158 0.000000
# 2 -0.000434 0.014844 -0.002434 0.000000 -0.009658 0.000000
# 3 0.004050 -0.002434 0.012858 0.000000 -0.010139 0.000000
# 4 0.000000 0.000000 0.000000 0.030540 0.000000 -0.000851
# 5 -0.021158 -0.009658 -0.010139 0.000000 0.064645 0.000000
# 6 0.000000 0.000000 0.000000 -0.000851 0.000000 0.029730
#
#
# Mechanical properties :
#
#
# Convention : Reuss Voigt Hill
#
# Bulk Modulus (GPa) = 18.18419 37.92491 28.05455
# Shear Modulus (GPa) = 25.83860 32.32737 29.08298
#
# Velocity S-wave (km/s) = 3.62066 4.04985 3.84125
# Velocity P-wave (km/s) = 5.16765 6.41167 5.82298
#
# Compressibility (1/GPa) = 0.05499283
#
# Stress axis : x y z
#
# Youngs Moduli (GPa) = 40.11853 67.36754 77.77198
#
# Poissons Ratio (x) = 0.02922 -0.31498
# Poissons Ratio (y) = 0.01740 0.18929
# Poissons Ratio (z) = -0.16248 0.16397
#
# Static dielectric constant tensor:
#      x y z
#    x 1.701800 0.000000 -0.036130 
#    y 0.000000 1.656930 0.000000 
#    z -0.036130 0.000000 1.783290 
# 
# From -- ./inp_files/73078.got.cif
#   From: 2010.05.17/outbox.ucp.g08.bks.cvg/sg11_37_cif.got.tgz:73078.got - 2010.06.11 11:38:39.
