data_PCOD9168188
_publ_section_title
;
Structure prediction by ZEFSAII (Michael W. Deem and Ramdas Pophale) SiO2 
 PCOD9168188
Probable space group: P 21/M
;
_chemical_formula_sum "Si O2"
_cell_formula_units_Z 32
_cell_length_a 9.000000
_cell_length_b 15.000000
_cell_length_c 12.000000
_cell_angle_alpha 90.000000
_cell_angle_beta 90.000000
_cell_angle_gamma 90.000000
_cell_volume 1620.000000
_symmetry_space_group_name_H-M "P 21/M"
_symmetry_group_IT_number 11
_symmetry_cell_setting 'monoclinic'
loop_
_space_group_symop_operation_xyz
x,y,z
-x,1/2+y,-z
-x,-y,-z
x,1/2-y,z
loop_
_atom_site_type_symbol
_atom_site_label
_atom_site_fract_x
_atom_site_fract_y
_atom_site_fract_z
Si Si1 0.397683 0.356711 0.988095
Si Si2 0.575518 0.353599 0.211319
Si Si3 0.074478 0.493436 0.618605
Si Si4 0.065571 0.401779 0.992596
Si Si5 0.080620 0.851093 0.234460
Si Si6 0.923931 0.151560 0.216799
Si Si7 0.418373 0.857114 0.227345
Si Si8 0.573775 0.507977 0.381906
O O1 0.369600 0.250000 0.980257
O O2 0.241040 0.404109 0.975229
O O3 0.509404 0.381755 0.890242
O O4 0.476371 0.373851 0.104610
O O5 0.553587 0.250000 0.242472
O O6 0.751088 0.363954 0.183714
O O7 0.536056 0.421943 0.307557
O O8 0.032947 0.577578 0.694920
O O9 0.250229 0.490532 0.607188
O O10 0.000000 0.500000 0.500000
O O11 0.019404 0.408080 0.684748
O O12 0.987460 0.355149 0.888580
O O13 0.000000 0.500000 0.000000
O O14 0.024408 0.354774 0.107801
O O15 0.086615 0.750000 0.273195
O O16 0.248129 0.887208 0.232537
O O17 0.933198 0.250000 0.266181
O O18 0.422080 0.750000 0.236854
O O19 0.513801 0.904778 0.320779
O O20 0.500000 0.500000 0.500000
#
# Coordination Sequence:
#
# PCOD9168188 Si02
#       8
#     4   4   4   4   4   4   4   4
#     4  10  21  38  60  91 123 156 200 250 302 363
#     4   9  21  40  63  88 118 157 201 248 300 358
#     4  11  24  42  63  91 124 159 209 255 304 368
#     4  12  23  35  59  94 128 159 195 248 304 366
#     4  11  23  42  64  89 124 165 205 253 308 366
#     4  10  21  41  63  87 121 161 201 246 303 366
#     4  10  23  41  64  90 121 160 204 253 306 360
#     4  11  24  40  62  89 121 162 203 255 303 358
#
# _framework density 19.753086
#
# number of rings (size 3 to 8) (size 9 to 14) (size 15 to 20)
#    0.000    1.500    1.250    3.375    3.500    6.000 
#    0.000    2.500    0.000    0.000    0.000    0.000 
#    0.000    0.000    0.000    0.000    0.000    0.000 
#
# Total GULP energy -178841.239996 kJ/mol
# GULP energy per Si atom -5588.788750 kJ/mol
# Density = 1.970813 g / cm^3
# Si number density = 19.753086 Si / 1000 Ang^3
#
#
#
# Elastic Constant Matrix: (Units=GPa)
#
#
# Indices 1 2 3 4 5 6 
#
# 1 -11.8607 27.6229 50.8579 0.0000 4.1475 0.0000
# 2 27.6229 52.4391 33.0922 0.0000 -6.0555 0.0000
# 3 50.8579 33.0922 105.8003 0.0000 -10.5137 0.0000
# 4 0.0000 0.0000 0.0000 11.9903 0.0000 -4.3787
# 5 4.1475 -6.0555 -10.5137 0.0000 30.3534 0.0000
# 6 0.0000 0.0000 0.0000 -4.3787 0.0000 31.0673
#
#
#
# Elastic Compliance Matrix: (Units=1/GPa)
#
#
# Indices 1 2 3 4 5 6 
#
# 1 -0.023265 0.007000 0.009786 0.000000 0.007965 0.000000
# 2 0.007000 0.021802 -0.010198 0.000000 -0.000139 0.000000
# 3 0.009786 -0.010198 0.007873 0.000000 -0.000644 0.000000
# 4 0.000000 0.000000 0.000000 0.087926 0.000000 0.012392
# 5 0.007965 -0.000139 -0.000644 0.000000 0.031606 0.000000
# 6 0.000000 0.000000 0.000000 0.012392 0.000000 0.033935
#
#
# Mechanical properties :
#
#
# Convention : Reuss Voigt Hill
#
# Bulk Modulus (GPa) = 51.05870 41.05831 46.05850
# Shear Modulus (GPa) = 32.63057 17.00258 24.81658
#
# Velocity S-wave (km/s) = 4.06879 2.93705 3.54833
# Velocity P-wave (km/s) = 6.92662 5.68617 6.33682
#
# Compressibility (1/GPa) = 0.01958530
#
# Stress axis : x y z
#
# Youngs Moduli (GPa) = -42.98293 45.86747 127.00893
#
# Poissons Ratio (x) = -0.32105 -1.24286
# Poissons Ratio (y) = 0.30086 1.29520
# Poissons Ratio (z) = 0.42061 0.46774
#
# Static dielectric constant tensor:
#      x y z
#    x 1.658980 0.000000 -0.008750 
#    y 0.000000 1.764160 0.000000 
#    z -0.008750 0.000000 1.637370 
# 
# From -- ./inp_files/31901.got.cif
#   From: 2010.05.17/outbox.ucp.g08.bks.cvg/sg11_16_cif.got.tgz:31901.got - 2010.06.11 11:38:39.
