data_PCOD9168087
_publ_section_title
;
Structure prediction by ZEFSAII (Michael W. Deem and Ramdas Pophale) SiO2 
 PCOD9168087
Probable space group: P 21/M
;
_chemical_formula_sum "Si O2"
_cell_formula_units_Z 32
_cell_length_a 12.000000
_cell_length_b 18.000000
_cell_length_c 15.000000
_cell_angle_alpha 90.000000
_cell_angle_beta 30.000000
_cell_angle_gamma 90.000000
_cell_volume 1620.000000
_symmetry_space_group_name_H-M "P 21/M"
_symmetry_group_IT_number 11
_symmetry_cell_setting 'monoclinic'
loop_
_space_group_symop_operation_xyz
x,y,z
-x,1/2+y,-z
-x,-y,-z
x,1/2-y,z
loop_
_atom_site_type_symbol
_atom_site_label
_atom_site_fract_x
_atom_site_fract_y
_atom_site_fract_z
Si Si1 0.365083 0.076345 0.582385
Si Si2 0.573745 0.913353 0.739469
Si Si3 0.059326 0.662812 0.407008
Si Si4 0.704549 0.047934 0.892233
Si Si5 0.315700 0.837263 0.754859
Si Si6 0.329147 0.665037 0.405518
Si Si7 0.188046 0.162679 0.872018
Si Si8 0.169355 0.514888 0.564987
O O1 0.534934 0.138594 0.431535
O O2 0.237094 0.107596 0.755908
O O3 0.500000 0.000000 0.500000
O O4 0.208901 0.050778 0.609527
O O5 0.424823 0.878824 0.763401
O O6 0.802108 0.865468 0.597122
O O7 0.686942 0.988729 0.620979
O O8 0.400313 0.923206 0.941252
O O9 0.054611 0.750000 0.385550
O O10 0.194761 0.614393 0.239481
O O11 0.193394 0.655961 0.407541
O O12 0.905303 0.988209 0.744789
O O13 0.500000 0.000000 0.000000
O O14 0.332597 0.750000 0.758329
O O15 0.055509 0.856157 0.921801
O O16 0.289727 0.750000 0.464663
O O17 0.597569 0.656491 0.211965
O O18 0.250083 0.598765 0.525261
O O19 0.180655 0.250000 0.848497
#
# Coordination Sequence:
#
# PCOD9168087 Si02
#       8
#     4   4   4   4   4   4   4   4
#     4  11  21  38  59  87 114 150 195 240 286 348
#     4  10  21  39  63  88 115 153 192 243 299 346
#     4  10  22  39  60  87 119 154 197 243 289 347
#     4  11  22  38  61  89 120 153 195 243 296 349
#     4  10  22  39  60  87 117 151 194 244 296 345
#     4  10  20  38  59  81 117 161 196 234 288 346
#     4  10  21  39  60  85 119 157 194 239 291 346
#     4  10  21  39  59  87 118 150 196 242 292 343
#
# _framework density 19.753086
#
# number of rings (size 3 to 8) (size 9 to 14) (size 15 to 20)
#    0.000    1.750    1.250    3.000    0.000    3.500 
#    4.500    3.750    0.000    5.250    0.000    0.000 
#    0.000    0.000    0.000    0.000    0.000    0.000 
#
# Total GULP energy -178312.441182 kJ/mol
# GULP energy per Si atom -5572.263787 kJ/mol
# Density = 1.970813 g / cm^3
# Si number density = 19.753086 Si / 1000 Ang^3
#
#
#
# Elastic Constant Matrix: (Units=GPa)
#
#
# Indices 1 2 3 4 5 6 
#
# 1 46.6459 12.5192 11.2076 0.0000 -19.9385 0.0000
# 2 12.5192 70.6943 23.5066 0.0000 -17.1104 0.0000
# 3 11.2076 23.5066 93.2476 0.0000 -22.8251 0.0000
# 4 0.0000 0.0000 0.0000 24.7691 0.0000 -4.4447
# 5 -19.9385 -17.1104 -22.8251 0.0000 41.6410 0.0000
# 6 0.0000 0.0000 0.0000 -4.4447 0.0000 25.7245
#
#
#
# Elastic Compliance Matrix: (Units=1/GPa)
#
#
# Indices 1 2 3 4 5 6 
#
# 1 0.027175 -0.001900 0.000239 0.000000 0.012362 0.000000
# 2 -0.001900 0.016475 -0.002876 0.000000 0.004283 0.000000
# 3 0.000239 -0.002876 0.012889 0.000000 0.005997 0.000000
# 4 0.000000 0.000000 0.000000 0.041665 0.000000 0.007199
# 5 0.012362 0.004283 0.005997 0.000000 0.034981 0.000000
# 6 0.000000 0.000000 0.000000 0.007199 0.000000 0.040117
#
#
# Mechanical properties :
#
#
# Convention : Reuss Voigt Hill
#
# Bulk Modulus (GPa) = 21.06882 33.89493 27.48188
# Shear Modulus (GPa) = 25.22741 29.31723 27.27232
#
# Velocity S-wave (km/s) = 3.57758 3.85669 3.71976
# Velocity P-wave (km/s) = 5.26827 6.08512 5.69137
#
# Compressibility (1/GPa) = 0.04746350
#
# Stress axis : x y z
#
# Youngs Moduli (GPa) = 36.79901 60.69816 77.58849
#
# Poissons Ratio (x) = 0.11531 -0.01852
# Poissons Ratio (y) = 0.06991 0.22317
# Poissons Ratio (z) = -0.00878 0.17459
#
# Static dielectric constant tensor:
#      x y z
#    x 1.853340 0.000000 -0.061240 
#    y 0.000000 1.711000 0.000000 
#    z -0.061240 0.000000 1.805920 
# 
# From -- ./inp_files/50682.got.cif
#   From: 2010.05.17/outbox.ucp.g08.bks.cvg/sg11_26_cif.got.tgz:50682.got - 2010.06.11 11:38:39.
