data_PCOD9168476
_publ_section_title
;
Structure prediction by ZEFSAII (Michael W. Deem and Ramdas Pophale) SiO2 
 PCOD9168476
Probable space group: C 2/M
;
_chemical_formula_sum "Si O2"
_cell_formula_units_Z 50
_cell_length_a 13.580198
_cell_length_b 19.293213
_cell_length_c 11.783280
_cell_angle_alpha 90.000000
_cell_angle_beta 148.074645
_cell_angle_gamma 90.000000
_cell_volume 1632.599970
_symmetry_space_group_name_H-M "C 2/M"
_symmetry_group_IT_number 12
_symmetry_cell_setting 'monoclinic'
loop_
_space_group_symop_operation_xyz
x,y,z
-x,y,-z
-x,-y,-z
x,-y,z
1/2+x,1/2+y,z
1/2-x,1/2+y,-z
1/2-x,1/2-y,-z
1/2+x,1/2-y,z
loop_
_atom_site_type_symbol
_atom_site_label
_atom_site_fract_x
_atom_site_fract_y
_atom_site_fract_z
Si Si1 0.246464 0.422455 0.301947
Si Si2 0.234204 0.397056 0.676696
Si Si3 0.470465 0.596901 0.223158
Si Si4 0.554803 0.099379 0.798159
Si Si5 0.941904 0.247818 0.674378
Si Si6 0.183845 0.766659 0.661983
Si Si7 0.000000 0.000000 0.000000
O O1 0.243219 0.500000 0.246189
O O2 0.435401 0.415879 0.562148
O O3 0.235266 0.345465 0.232045
O O4 0.081987 0.423836 0.235313
O O5 0.370726 0.427120 0.708753
O O6 0.241621 0.316587 0.722393
O O7 0.338574 0.440750 0.871886
O O8 0.039040 0.410917 0.419717
O O9 0.477330 0.677951 0.196991
O O10 0.260550 0.573785 0.019698
O O11 0.552513 0.182395 0.803642
O O12 0.026144 0.235277 0.617726
O O13 0.763804 0.268157 0.599157
#
# Coordination Sequence:
#
# PCOD9168476 Si02
#       7
#     8   8   8   8   8   8   2
#     4  10  21  38  61  97 140 168 222 292 334 392
#     4  10  23  44  61  90 133 171 224 277 336 410
#     4  10  19  35  65  93 123 170 221 278 345 392
#     4  10  19  35  66  93 122 169 221 280 336 402
#     4  10  15  35  61  94 126 162 221 284 330 391
#     4  10  20  39  67  92 134 184 226 270 337 411
#     4  12  28  44  66  88 138 182 206 284 362 400
#
# _framework density 30.625997000000002
#
# number of rings (size 3 to 8) (size 9 to 14) (size 15 to 20)
#    0.000    1.920    6.400    0.480    4.480    3.520 
#    0.000    4.400    0.000    0.000    0.000    6.160 
#    0.000    0.000    0.000    0.000    0.000    0.160 
#
# Total GULP energy -139352.154120 kJ/mol
# GULP energy per Si atom -5574.086165 kJ/mol
# Density = 3.055629 g / cm^3
# Si number density = 30.625997 Si / 1000 Ang^3
#
#
#
# Elastic Constant Matrix: (Units=GPa)
#
#
# Indices 1 2 3 4 5 6 
#
# 1 183.9572 37.2163 44.2452 0.0000 26.1126 0.0000
# 2 37.2163 326.2576 55.6325 0.0000 22.7399 0.0000
# 3 44.2452 55.6325 219.5094 0.0000 45.9170 0.0000
# 4 0.0000 0.0000 0.0000 11.8798 0.0000 -14.6454
# 5 26.1126 22.7399 45.9170 0.0000 45.2844 0.0000
# 6 0.0000 0.0000 0.0000 -14.6454 0.0000 12.2491
#
#
#
# Elastic Compliance Matrix: (Units=1/GPa)
#
#
# Indices 1 2 3 4 5 6 
#
# 1 0.006036 -0.000406 -0.000544 0.000000 -0.002725 0.000000
# 2 -0.000406 0.003267 -0.000574 0.000000 -0.000825 0.000000
# 3 -0.000544 -0.000574 0.005946 0.000000 -0.005427 0.000000
# 4 0.000000 0.000000 0.000000 -0.177596 0.000000 -0.212340
# 5 -0.002725 -0.000825 -0.005427 0.000000 0.029572 0.000000
# 6 0.000000 0.000000 0.000000 -0.212340 0.000000 -0.172242
#
#
# Mechanical properties :
#
#
# Convention : Reuss Voigt Hill
#
# Bulk Modulus (GPa) = 81.95259 111.54583 96.74921
# Shear Modulus (GPa) = -16.78391 53.39134 18.30372
#
# Velocity S-wave (km/s) = -2.34354 4.17985 2.44735
# Velocity P-wave (km/s) = 4.41524 7.73278 6.29644
#
# Compressibility (1/GPa) = 0.01220218
#
# Stress axis : x y z
#
# Youngs Moduli (GPa) = 165.67870 306.12434 168.18411
#
# Poissons Ratio (x) = 0.12424 0.09143
# Poissons Ratio (y) = 0.06724 0.09647
# Poissons Ratio (z) = 0.09007 0.17558
#
# Static dielectric constant tensor:
#      x y z
#    x 4.024330 0.000000 -1.657050 
#    y 0.000000 2.363200 0.000000 
#    z -1.657050 0.000000 4.373720 
# 
# From -- ./inp_files/326239.got.cif
#   From: 2010.05.17/outbox.cif.g08.bks.cpg/sg12_164_cif.got.tgz:326239.got - 2010.06.03 13:09:07.
