data_PCOD9168979
_publ_section_title
;
Structure prediction by ZEFSAII (Michael W. Deem and Ramdas Pophale) SiO2 
 PCOD9168979
Probable space group: C 2/M
;
_chemical_formula_sum "Si O2"
_cell_formula_units_Z 56
_cell_length_a 15.200417
_cell_length_b 17.668727
_cell_length_c 11.769546
_cell_angle_alpha 90.000000
_cell_angle_beta 64.961809
_cell_angle_gamma 90.000000
_cell_volume 2863.921300
_symmetry_space_group_name_H-M "C 2/M"
_symmetry_group_IT_number 12
_symmetry_cell_setting 'monoclinic'
loop_
_space_group_symop_operation_xyz
x,y,z
-x,y,-z
-x,-y,-z
x,-y,z
1/2+x,1/2+y,z
1/2-x,1/2+y,-z
1/2-x,1/2-y,-z
1/2+x,1/2-y,z
loop_
_atom_site_type_symbol
_atom_site_label
_atom_site_fract_x
_atom_site_fract_y
_atom_site_fract_z
Si Si1 0.215798 0.148719 0.635571
Si Si2 0.165109 0.500000 0.373766
Si Si3 0.169923 0.910229 0.185383
Si Si4 0.764542 0.189122 0.636750
Si Si5 0.484247 0.000000 0.342019
Si Si6 0.023661 0.090969 0.855029
Si Si7 0.058752 0.633612 0.798341
Si Si8 0.374705 0.912064 0.990454
O O1 0.271770 0.073751 0.641897
O O2 0.206306 0.156802 0.503180
O O3 0.281068 0.221235 0.634165
O O4 0.112493 0.138924 0.755073
O O5 0.081843 0.500000 0.512281
O O6 0.099848 0.500000 0.297137
O O7 0.187720 0.859139 0.287562
O O8 0.260407 0.896867 0.049914
O O9 0.070325 0.896334 0.173216
O O10 0.174380 0.000000 0.213958
O O11 0.646429 0.187087 0.714075
O O12 0.450809 0.073365 0.294311
O O13 0.045820 0.000000 0.838585
O O14 0.000000 0.109099 0.000000
O O15 0.098101 0.594898 0.891714
O O16 0.945555 0.648259 0.890476
O O17 0.394605 0.000000 0.948036
#
# Coordination Sequence:
#
# PCOD9168979 Si02
#       8
#     8   4   8   8   4   8   8   8
#     4  11  23  44  62  86 122 172 207 252 319 365
#     4  11  24  38  59  82 119 160 209 244 298 381
#     4   9  20  37  63  97 122 157 207 260 309 365
#     4  10  23  39  64  91 125 156 207 265 315 367
#     4  11  20  33  56  89 116 152 199 240 295 367
#     4  10  22  43  67  89 123 168 218 258 302 374
#     4  10  16  31  54  85 121 151 183 240 303 361
#     4   9  15  26  53  90 121 147 183 236 305 363
#
# _framework density 19.553611
#
# number of rings (size 3 to 8) (size 9 to 14) (size 15 to 20)
#    0.000    2.000    3.571    0.429    2.000    1.714 
#    7.714    2.143    0.000    0.000    0.000    0.000 
#    0.000    0.000    0.000    0.000    0.000    0.000 
#
# Total GULP energy -155914.487545 kJ/mol
# GULP energy per Si atom -5568.374555 kJ/mol
# Density = 1.950911 g / cm^3
# Si number density = 19.553611 Si / 1000 Ang^3
#
#
#
# Elastic Constant Matrix: (Units=GPa)
#
#
# Indices 1 2 3 4 5 6 
#
# 1 81.6982 40.8759 34.9392 0.0000 -8.5223 0.0000
# 2 40.8759 81.7392 23.8378 0.0000 5.1794 0.0000
# 3 34.9392 23.8378 110.2181 0.0000 -6.5695 0.0000
# 4 0.0000 0.0000 0.0000 0.6211 0.0000 4.2061
# 5 -8.5223 5.1794 -6.5695 0.0000 25.1660 0.0000
# 6 0.0000 0.0000 0.0000 4.2061 0.0000 3.8527
#
#
#
# Elastic Compliance Matrix: (Units=1/GPa)
#
#
# Indices 1 2 3 4 5 6 
#
# 1 0.019032 -0.008911 -0.003669 0.000000 0.007321 0.000000
# 2 -0.008911 0.017537 -0.001385 0.000000 -0.006988 0.000000
# 3 -0.003669 -0.001385 0.010644 0.000000 0.001821 0.000000
# 4 0.000000 0.000000 0.000000 -0.251834 0.000000 0.274936
# 5 0.007321 -0.006988 0.001821 0.000000 0.044129 0.000000
# 6 0.000000 0.000000 0.000000 0.274936 0.000000 -0.040598
#
#
# Mechanical properties :
#
#
# Convention : Reuss Voigt Hill
#
# Bulk Modulus (GPa) = 51.86043 52.55124 52.20583
# Shear Modulus (GPa) = -29.98809 17.52813 -6.22998
#
# Velocity S-wave (km/s) = -3.92041 2.99727 -1.78690
# Velocity P-wave (km/s) = 2.46717 6.23794 4.74336
#
# Compressibility (1/GPa) = 0.01928252
#
# Stress axis : x y z
#
# Youngs Moduli (GPa) = 52.54427 57.02278 93.94870
#
# Poissons Ratio (x) = 0.50813 0.34473
# Poissons Ratio (y) = 0.46822 0.13008
# Poissons Ratio (z) = 0.19280 0.07895
#
# Static dielectric constant tensor:
#      x y z
#    x 1.712930 0.000000 -0.020600 
#    y 0.000000 1.686290 0.000000 
#    z -0.020600 0.000000 1.758910 
# 
# From -- ./inp_files/146087.got.cif
#   From: 2010.05.17/outbox.cif.g08.bks.cpg/sg12_74_cif.got.tgz:146087.got - 2010.06.03 13:09:07.
