data_PCOD9168356
_publ_section_title
;
Structure prediction by ZEFSAII (Michael W. Deem and Ramdas Pophale) SiO2 
 PCOD9168356
Probable space group: C 2/M
;
_chemical_formula_sum "Si O2"
_cell_formula_units_Z 36
_cell_length_a 26.185076
_cell_length_b 13.876407
_cell_length_c 9.055699
_cell_angle_alpha 90.000000
_cell_angle_beta 148.753930
_cell_angle_gamma 90.000000
_cell_volume 1706.794888
_symmetry_space_group_name_H-M "C 2/M"
_symmetry_group_IT_number 12
_symmetry_cell_setting 'monoclinic'
loop_
_space_group_symop_operation_xyz
x,y,z
-x,y,-z
-x,-y,-z
x,-y,z
1/2+x,1/2+y,z
1/2-x,1/2+y,-z
1/2-x,1/2-y,-z
1/2+x,1/2-y,z
loop_
_atom_site_type_symbol
_atom_site_label
_atom_site_fract_x
_atom_site_fract_y
_atom_site_fract_z
Si Si1 0.822169 0.171389 0.746986
Si Si2 0.225659 0.000000 0.852196
Si Si3 0.309994 0.109530 0.306866
Si Si4 0.385578 0.500000 0.697270
Si Si5 0.426281 0.000000 0.176051
Si Si6 0.495703 0.794571 0.309429
O O1 0.750000 0.250000 0.500000
O O2 0.760289 0.129508 0.730929
O O3 0.841684 0.092407 0.670832
O O4 0.925584 0.215257 0.062268
O O5 0.132093 0.000000 0.520779
O O6 0.241141 0.092929 0.993422
O O7 0.316784 0.000000 0.966093
O O8 0.394347 0.187734 0.482719
O O9 0.354674 0.000000 0.433004
O O10 0.500000 0.500000 0.000000
O O11 0.500000 0.000000 0.500000
O O12 0.444861 0.102002 0.147123
O O13 0.500000 0.783395 0.500000
#
# Coordination Sequence:
#
# PCOD9168356 Si02
#       6
#     8   4   8   4   4   8
#     4  12  29  46  68 106 150 189 230 292 364 431
#     4  10  19  43  82  93 132 190 239 294 349 405
#     4  10  21  46  76 103 133 184 243 294 348 409
#     4  12  29  51  66 100 155 195 228 288 372 427
#     4  10  14  36  67 113 132 156 227 310 348 376
#     4  11  21  41  74 110 137 178 248 298 346 419
#
# _framework density 21.092164
#
# number of rings (size 3 to 8) (size 9 to 14) (size 15 to 20)
#    0.667    0.444    6.667    1.333    3.111    2.667 
#    0.000    2.778    0.000    0.000    0.000    0.000 
#    0.000    0.000    0.000    0.000    0.000    0.000 
#
# Total GULP energy -100471.223525 kJ/mol
# GULP energy per Si atom -5581.734640 kJ/mol
# Density = 2.104416 g / cm^3
# Si number density = 21.092164 Si / 1000 Ang^3
#
#
#
# Elastic Constant Matrix: (Units=GPa)
#
#
# Indices 1 2 3 4 5 6 
#
# 1 78.3790 12.4522 21.2675 0.0000 4.3028 0.0000
# 2 12.4522 78.1669 23.2161 0.0000 -9.1549 0.0000
# 3 21.2675 23.2161 105.0872 0.0000 -5.7662 0.0000
# 4 0.0000 0.0000 0.0000 34.1157 0.0000 9.3636
# 5 4.3028 -9.1549 -5.7662 0.0000 19.2824 0.0000
# 6 0.0000 0.0000 0.0000 9.3636 0.0000 18.8247
#
#
#
# Elastic Compliance Matrix: (Units=1/GPa)
#
#
# Indices 1 2 3 4 5 6 
#
# 1 0.014073 -0.002023 -0.002670 0.000000 -0.004899 0.000000
# 2 -0.002023 0.014625 -0.002456 0.000000 0.006660 0.000000
# 3 -0.002670 -0.002456 0.010744 0.000000 0.002643 0.000000
# 4 0.000000 0.000000 0.000000 0.033946 0.000000 -0.016885
# 5 -0.004899 0.006660 0.002643 0.000000 0.056907 0.000000
# 6 0.000000 0.000000 0.000000 -0.016885 0.000000 0.061521
#
#
# Mechanical properties :
#
#
# Convention : Reuss Voigt Hill
#
# Bulk Modulus (GPa) = 39.77051 41.72273 40.74662
# Shear Modulus (GPa) = 23.31056 28.09105 25.70080
#
# Velocity S-wave (km/s) = 3.32803 3.65338 3.49449
# Velocity P-wave (km/s) = 5.80208 6.13354 5.97011
#
# Compressibility (1/GPa) = 0.02514426
#
# Stress axis : x y z
#
# Youngs Moduli (GPa) = 71.05629 68.37647 93.07597
#
# Poissons Ratio (x) = 0.13830 0.24853
# Poissons Ratio (y) = 0.14372 0.22861
# Poissons Ratio (z) = 0.18973 0.16794
#
# Static dielectric constant tensor:
#      x y z
#    x 1.367990 0.000000 0.284330 
#    y 0.000000 1.795970 0.000000 
#    z 0.284330 0.000000 1.537650 
# 
# From -- ./inp_files/105130.got.cif
#   From: 2010.05.17/outbox.cif.g08.bks.cpg/sg12_53_cif.got.tgz:105130.got - 2010.06.03 13:09:07.
