data_PCOD9168614
_publ_section_title
;
Structure prediction by ZEFSAII (Michael W. Deem and Ramdas Pophale) SiO2 
 PCOD9168614
Probable space group: C 2/M
;
_chemical_formula_sum "Si O2"
_cell_formula_units_Z 40
_cell_length_a 5.454722
_cell_length_b 35.526933
_cell_length_c 13.661136
_cell_angle_alpha 90.000000
_cell_angle_beta 89.999890
_cell_angle_gamma 90.000000
_cell_volume 2647.385303
_symmetry_space_group_name_H-M "C 2/M"
_symmetry_group_IT_number 12
_symmetry_cell_setting 'monoclinic'
loop_
_space_group_symop_operation_xyz
x,y,z
-x,y,-z
-x,-y,-z
x,-y,z
1/2+x,1/2+y,z
1/2-x,1/2+y,-z
1/2-x,1/2-y,-z
1/2+x,1/2-y,z
loop_
_atom_site_type_symbol
_atom_site_label
_atom_site_fract_x
_atom_site_fract_y
_atom_site_fract_z
Si Si1 0.750001 0.164321 0.937658
Si Si2 0.249998 0.076474 0.110506
Si Si3 0.750000 0.206863 0.541060
Si Si4 0.749998 0.955055 0.113118
Si Si5 0.750003 0.274226 0.232242
O O1 0.750003 0.121230 0.900577
O O2 0.749999 0.193382 0.848637
O O3 0.500000 0.169645 0.000000
O O4 0.000000 0.169646 0.000000
O O5 0.500406 0.061505 0.157410
O O6 0.999590 0.061505 0.157410
O O7 0.250000 0.059079 0.000124
O O8 0.500000 0.189357 0.500000
O O9 0.750000 0.250000 0.500000
O O10 0.749999 0.209429 0.657718
O O11 0.000000 0.189357 0.500000
O O12 0.749997 0.000000 0.114162
O O13 0.500004 0.250000 0.221648
#
# Coordination Sequence:
#
# PCOD9168614 Si02
#       5
#     8   8   8   8   8
#     4  12  23  37  47  59  95 138 158 191 226 261
#     4  10  16  29  41  58  86 116 149 184 226 261
#     4  10  16  32  56  71  90 102 128 202 261 282
#     4  10  16  25  46  65  78 104 160 198 214 251
#     4  12  23  35  52  73  84 116 169 199 230 281
#
# _framework density 15.109247
#
# number of rings (size 3 to 8) (size 9 to 14) (size 15 to 20)
#    0.000    1.200    8.000    4.200    0.000    2.400 
#    0.000    0.000    0.000    0.000    0.000    0.000 
#    0.000    0.000    0.000    0.000    0.000   34.000 
#
# Total GULP energy -111453.762376 kJ/mol
# GULP energy per Si atom -5572.688119 kJ/mol
# Density = 1.507486 g / cm^3
# Si number density = 15.109247 Si / 1000 Ang^3
#
#
#
# Elastic Constant Matrix: (Units=GPa)
#
#
# Indices 1 2 3 4 5 6 
#
# 1 197.7454 65.3961 50.6993 0.0000 9.6230 0.0000
# 2 65.3961 92.5231 71.6298 0.0000 -0.4856 0.0000
# 3 50.6993 71.6298 65.9153 0.0000 0.6756 0.0000
# 4 0.0000 0.0000 0.0000 -1.3099 0.0000 1.1985
# 5 9.6230 -0.4856 0.6756 0.0000 12.6235 0.0000
# 6 0.0000 0.0000 0.0000 1.1985 0.0000 14.0371
#
#
#
# Elastic Compliance Matrix: (Units=1/GPa)
#
#
# Indices 1 2 3 4 5 6 
#
# 1 0.006964 -0.005346 0.000510 0.000000 -0.005542 0.000000
# 2 -0.005346 0.072759 -0.075067 0.000000 0.010892 0.000000
# 3 0.000510 -0.075067 0.096440 0.000000 -0.008438 0.000000
# 4 0.000000 0.000000 0.000000 -0.708082 0.000000 0.060459
# 5 -0.005542 0.010892 -0.008438 0.000000 0.084312 0.000000
# 6 0.000000 0.000000 0.000000 0.060459 0.000000 0.066078
#
#
# Mechanical properties :
#
#
# Convention : Reuss Voigt Hill
#
# Bulk Modulus (GPa) = 61.13465 81.29268 71.21366
# Shear Modulus (GPa) = -23.11914 16.30071 -3.40922
#
# Velocity S-wave (km/s) = -3.91593 3.28816 -1.50375
# Velocity P-wave (km/s) = 4.48370 8.26656 6.64980
#
# Compressibility (1/GPa) = 0.01635734
#
# Stress axis : x y z
#
# Youngs Moduli (GPa) = 143.59737 13.74393 10.36916
#
# Poissons Ratio (x) = 0.07348 -0.00529
# Poissons Ratio (y) = 0.76768 0.77838
# Poissons Ratio (z) = -0.07323 1.03171
#
# Static dielectric constant tensor:
#      x y z
#    x 1.648440 0.000000 0.015720 
#    y 0.000000 1.469900 0.000000 
#    z 0.015720 0.000000 1.447110 
# 
# From -- ./inp_files/115898.got.cif
#   From: 2010.05.17/outbox.cif.g08.bks.cpg/sg12_58_cif.got.tgz:115898.got - 2010.06.03 13:09:07.
