data_PCOD9168858
_publ_section_title
;
Structure prediction by ZEFSAII (Michael W. Deem and Ramdas Pophale) SiO2 
 PCOD9168858
Probable space group: C 2/M
;
_chemical_formula_sum "Si O2"
_cell_formula_units_Z 36
_cell_length_a 13.164881
_cell_length_b 20.297706
_cell_length_c 19.603537
_cell_angle_alpha 90.000000
_cell_angle_beta 25.399006
_cell_angle_gamma 90.000000
_cell_volume 2246.850024
_symmetry_space_group_name_H-M "C 2/M"
_symmetry_group_IT_number 12
_symmetry_cell_setting 'monoclinic'
loop_
_space_group_symop_operation_xyz
x,y,z
-x,y,-z
-x,-y,-z
x,-y,z
1/2+x,1/2+y,z
1/2-x,1/2+y,-z
1/2-x,1/2-y,-z
1/2+x,1/2-y,z
loop_
_atom_site_type_symbol
_atom_site_label
_atom_site_fract_x
_atom_site_fract_y
_atom_site_fract_z
Si Si1 0.949661 0.816613 0.152600
Si Si2 0.492591 0.697336 0.285386
Si Si3 0.773342 0.074655 0.086060
Si Si4 0.024595 0.341905 0.635093
Si Si5 0.500000 0.211525 0.000000
O O1 0.960994 0.795967 0.223704
O O2 0.685718 0.841083 0.293234
O O3 0.141554 0.873935 0.022537
O O4 0.000650 0.759215 0.066288
O O5 0.280877 0.654217 0.445298
O O6 0.481748 0.770582 0.324266
O O7 0.754980 0.672524 0.145004
O O8 0.554254 0.104083 0.261703
O O9 0.733513 0.000000 0.087376
O O10 0.000000 0.074650 0.000000
#
# Coordination Sequence:
#
# PCOD9168858 Si02
#       5
#     8   8   8   8   4
#     4  10  16  30  46  69  95 119 147 184 225 271
#     4  10  18  28  47  65 101 117 147 188 226 267
#     4   9  16  29  47  66  93 122 147 181 227 276
#     4   9  18  30  43  73  95 119 146 183 232 272
#     4  10  18  28  43  72  95 120 150 178 224 278
#
# _framework density 16.02243
#
# number of rings (size 3 to 8) (size 9 to 14) (size 15 to 20)
#    0.000    2.444    5.556    1.333    0.000    0.000 
#    0.000    1.111    0.000    5.333    0.000    4.667 
#    0.000    0.000    0.000    0.000    0.000    0.000 
#
# Total GULP energy -100206.354808 kJ/mol
# GULP energy per Si atom -5567.019712 kJ/mol
# Density = 1.598596 g / cm^3
# Si number density = 16.022430 Si / 1000 Ang^3
#
#
#
# Elastic Constant Matrix: (Units=GPa)
#
#
# Indices 1 2 3 4 5 6 
#
# 1 69.0264 15.1068 46.6848 -0.0367 6.0717 0.0082
# 2 15.1068 33.8816 26.3262 -0.1122 -1.7773 0.0351
# 3 46.6848 26.3262 145.1545 -0.1392 -13.1474 0.0011
# 4 -0.0367 -0.1122 -0.1392 16.1812 0.0031 -1.6392
# 5 6.0717 -1.7773 -13.1474 0.0031 22.9565 0.0082
# 6 0.0082 0.0351 0.0011 -1.6392 0.0082 5.7520
#
#
#
# Elastic Compliance Matrix: (Units=1/GPa)
#
#
# Indices 1 2 3 4 5 6 
#
# 1 0.020942 -0.004573 -0.006792 -0.000041 -0.009783 0.000002
# 2 -0.004573 0.035375 -0.004838 0.000177 0.001177 -0.000160
# 3 -0.006792 -0.004838 0.010632 0.000045 0.007511 0.000039
# 4 -0.000041 0.000177 0.000045 0.063639 0.000035 0.018135
# 5 -0.009783 0.001177 0.007511 0.000035 0.050541 -0.000057
# 6 0.000002 -0.000160 0.000039 0.018135 -0.000057 0.179021
#
#
# Mechanical properties :
#
#
# Convention : Reuss Voigt Hill
#
# Bulk Modulus (GPa) = 28.95035 47.14424 38.04730
# Shear Modulus (GPa) = 12.37406 19.64092 16.00749
#
# Velocity S-wave (km/s) = 2.78204 3.50500 3.16423
# Velocity P-wave (km/s) = 5.33174 6.77258 6.09489
#
# Compressibility (1/GPa) = 0.03454189
#
# Stress axis : x y z
#
# Youngs Moduli (GPa) = 47.74994 28.26820 94.05954
#
# Poissons Ratio (x) = 0.12928 0.63888
# Poissons Ratio (y) = 0.21837 0.45508
# Poissons Ratio (z) = 0.32433 0.13677
#
# Static dielectric constant tensor:
#      x y z
#    x 1.522010 -0.000010 -0.017160 
#    y -0.000010 1.523660 0.000050 
#    z -0.017160 0.000050 1.589330 
# 
# From -- ./inp_files/47223.got.cif
#   From: 2010.05.17/outbox.cif.g08.bks.cpg/sg12_24_cif.got.tgz:47223.got - 2010.06.03 13:09:07.
