data_PCOD9168241
_publ_section_title
;
Structure prediction by ZEFSAII (Michael W. Deem and Ramdas Pophale) SiO2 
 PCOD9168241
Probable space group: P 21/M
;
_chemical_formula_sum "Si O2"
_cell_formula_units_Z 28
_cell_length_a 15.000000
_cell_length_b 9.000000
_cell_length_c 12.000000
_cell_angle_alpha 90.000000
_cell_angle_beta 120.000000
_cell_angle_gamma 90.000000
_cell_volume 1402.961154
_symmetry_space_group_name_H-M "P 21/M"
_symmetry_group_IT_number 11
_symmetry_cell_setting 'monoclinic'
loop_
_space_group_symop_operation_xyz
x,y,z
-x,1/2+y,-z
-x,-y,-z
x,1/2-y,z
loop_
_atom_site_type_symbol
_atom_site_label
_atom_site_fract_x
_atom_site_fract_y
_atom_site_fract_z
Si Si1 0.387992 0.069727 0.419126
Si Si2 0.547087 0.074609 0.140908
Si Si3 0.660304 0.924775 0.853983
Si Si4 0.179450 0.425600 0.868439
Si Si5 0.763612 0.570450 0.337936
Si Si6 0.797180 0.429251 0.582472
Si Si7 0.968117 0.076252 0.864868
O O1 0.391628 0.250000 0.426139
O O2 0.340016 0.017496 0.271013
O O3 0.500000 0.000000 0.500000
O O4 0.313901 0.000305 0.464181
O O5 0.569983 0.250000 0.136194
O O6 0.454849 0.066184 0.171919
O O7 0.646570 0.988413 0.248238
O O8 0.500000 0.000000 0.000000
O O9 0.687667 0.750000 0.860939
O O10 0.738392 0.992192 0.992957
O O11 0.206145 0.250000 0.876143
O O12 0.185998 0.479502 0.747197
O O13 0.067376 0.437784 0.848659
O O14 0.764099 0.750000 0.350765
O O15 0.822418 0.494588 0.477235
O O16 0.794903 0.250000 0.578466
O O17 0.872722 0.478240 0.730213
O O18 0.949651 0.250000 0.877130
O O19 0.000000 0.000000 0.000000
#
# Coordination Sequence:
#
# PCOD9168241 Si02
#       7
#     4   4   4   4   4   4   4
#     4  11  22  38  62  88 118 160 203 247 300 359
#     4  11  20  34  56  86 123 161 197 242 298 359
#     4   9  18  33  56  83 113 150 194 243 294 350
#     4   9  18  36  60  86 114 150 198 248 301 357
#     4  11  22  38  61  87 117 159 207 251 302 366
#     4  11  24  41  59  87 126 161 197 249 309 365
#     4  10  22  41  66  90 118 156 199 252 306 360
#
# _framework density 19.957787
#
# number of rings (size 3 to 8) (size 9 to 14) (size 15 to 20)
#    0.000    1.714    1.429    3.429    0.000    4.000 
#    0.000    3.571    0.000    0.000    0.000    0.000 
#    0.000    0.000    0.000    0.000    0.000    0.000 
#
# Total GULP energy -156217.847331 kJ/mol
# GULP energy per Si atom -5579.208833 kJ/mol
# Density = 1.991236 g / cm^3
# Si number density = 19.957787 Si / 1000 Ang^3
#
#
#
# Elastic Constant Matrix: (Units=GPa)
#
#
# Indices 1 2 3 4 5 6 
#
# 1 -55.5307 3.1792 41.5853 0.0000 -25.4762 0.0000
# 2 3.1792 61.2964 33.9720 0.0000 -2.0664 0.0000
# 3 41.5853 33.9720 150.7247 0.0000 -12.5145 0.0000
# 4 0.0000 0.0000 0.0000 34.6550 0.0000 1.6199
# 5 -25.4762 -2.0664 -12.5145 0.0000 26.3117 0.0000
# 6 0.0000 0.0000 0.0000 1.6199 0.0000 15.8683
#
#
#
# Elastic Compliance Matrix: (Units=1/GPa)
#
#
# Indices 1 2 3 4 5 6 
#
# 1 -0.011525 -0.001190 0.002617 0.000000 -0.010008 0.000000
# 2 -0.001190 0.018528 -0.003980 0.000000 -0.001590 0.000000
# 3 0.002617 -0.003980 0.007282 0.000000 0.005685 0.000000
# 4 0.000000 0.000000 0.000000 0.028994 0.000000 -0.002960
# 5 -0.010008 -0.001590 0.005685 0.000000 0.030895 0.000000
# 6 0.000000 0.000000 0.000000 -0.002960 0.000000 0.063321
#
#
# Mechanical properties :
#
#
# Convention : Reuss Voigt Hill
#
# Bulk Modulus (GPa) = 108.94345 34.88481 71.91413
# Shear Modulus (GPa) = 34.32667 20.55060 27.43863
#
# Velocity S-wave (km/s) = 4.15174 3.21238 3.71190
# Velocity P-wave (km/s) = 8.81408 5.59253 7.38121
#
# Compressibility (1/GPa) = 0.00917907
#
# Stress axis : x y z
#
# Youngs Moduli (GPa) = -86.76794 53.97259 137.33363
#
# Poissons Ratio (x) = 0.06423 -0.35941
# Poissons Ratio (y) = -0.10326 0.54655
# Poissons Ratio (z) = 0.22708 0.21479
#
# Static dielectric constant tensor:
#      x y z
#    x 1.738210 0.000000 -0.032250 
#    y 0.000000 1.686290 0.000000 
#    z -0.032250 0.000000 1.735740 
# 
# From -- ./inp_files/37476.got.cif
#   From: 2010.05.17/outbox.ucp.g08.bks.cvg/sg11_19_cif.got.tgz:37476.got - 2010.06.11 11:38:39.
