data_PCOD9168319
_publ_section_title
;
Structure prediction by ZEFSAII (Michael W. Deem and Ramdas Pophale) SiO2 
 PCOD9168319
Probable space group: C 2/M
;
_chemical_formula_sum "Si O2"
_cell_formula_units_Z 46
_cell_length_a 20.990669
_cell_length_b 23.434727
_cell_length_c 14.298042
_cell_angle_alpha 90.000000
_cell_angle_beta 17.473360
_cell_angle_gamma 90.000000
_cell_volume 2111.852582
_symmetry_space_group_name_H-M "C 2/M"
_symmetry_group_IT_number 12
_symmetry_cell_setting 'monoclinic'
loop_
_space_group_symop_operation_xyz
x,y,z
-x,y,-z
-x,-y,-z
x,-y,z
1/2+x,1/2+y,z
1/2-x,1/2+y,-z
1/2-x,1/2-y,-z
1/2+x,1/2-y,z
loop_
_atom_site_type_symbol
_atom_site_label
_atom_site_fract_x
_atom_site_fract_y
_atom_site_fract_z
Si Si1 0.291796 0.000000 0.638013
Si Si2 0.767943 0.701802 0.272011
Si Si3 0.000000 0.500000 0.000000
Si Si4 0.988081 0.000000 0.232662
Si Si5 0.535764 0.714206 0.781784
Si Si6 0.326553 0.092191 0.092203
Si Si7 0.208449 0.098046 0.607355
Si Si8 0.776449 0.000000 0.910104
O O1 0.190526 0.000000 0.881316
O O2 0.214691 0.056018 0.688605
O O3 0.543655 0.000000 0.283118
O O4 0.573804 0.709015 0.617030
O O5 0.707652 0.645783 0.299315
O O6 0.000000 0.691178 0.000000
O O7 0.835372 0.753285 0.107767
O O8 0.897135 0.549178 0.074604
O O9 0.052141 0.000000 0.249287
O O10 0.851511 0.054362 0.392393
O O11 0.750000 0.750000 0.500000
O O12 0.562843 0.653257 0.796688
O O13 0.549506 0.117277 0.741131
O O14 0.220781 0.055231 0.159201
#
# Coordination Sequence:
#
# PCOD9168319 Si02
#       8
#     4   8   2   4   8   8   8   4
#     4   9  20  33  54  76 107 147 193 223 278 340
#     4  10  18  31  52  84 115 147 182 235 280 335
#     4  10  14  24  52  72  94 132 174 226 254 316
#     4  11  21  34  51  77 114 143 185 233 290 326
#     4  10  19  31  52  85 119 142 181 232 293 325
#     4  10  17  31  52  79 104 143 188 220 278 334
#     4  10  18  32  51  82 109 140 178 234 278 333
#     4   9  21  34  51  75 108 150 184 232 279 342
#
# _framework density 21.781824
#
# number of rings (size 3 to 8) (size 9 to 14) (size 15 to 20)
#    0.000    2.087    4.348    2.870    0.000    4.174 
#    0.000    0.000    0.000   19.826    0.000    0.000 
#    0.000    0.000    0.000    0.000    0.000    0.000 
#
# Total GULP energy -128097.055563 kJ/mol
# GULP energy per Si atom -5569.437198 kJ/mol
# Density = 2.173225 g / cm^3
# Si number density = 21.781824 Si / 1000 Ang^3
#
#
#
# Elastic Constant Matrix: (Units=GPa)
#
#
# Indices 1 2 3 4 5 6 
#
# 1 126.9976 41.8795 23.3377 0.0509 12.5212 -0.0289
# 2 41.8795 149.2915 10.1503 0.0178 15.4077 0.0414
# 3 23.3377 10.1503 85.6519 0.0872 21.6726 -0.0558
# 4 0.0509 0.0178 0.0872 14.9153 -0.0557 1.5644
# 5 12.5212 15.4077 21.6726 -0.0557 34.6916 0.0433
# 6 -0.0289 0.0414 -0.0558 1.5644 0.0433 6.2102
#
#
#
# Elastic Compliance Matrix: (Units=1/GPa)
#
#
# Indices 1 2 3 4 5 6 
#
# 1 0.009096 -0.002312 -0.001940 -0.000027 -0.001044 0.000054
# 2 -0.002312 0.007608 0.000442 -0.000011 -0.002821 -0.000035
# 3 -0.001940 0.000442 0.014282 -0.000131 -0.008419 0.000208
# 4 -0.000027 -0.000011 -0.000131 0.068867 0.000228 -0.017351
# 5 -0.001044 -0.002821 -0.008419 0.000228 0.035715 -0.000368
# 6 0.000054 -0.000035 0.000208 -0.017351 -0.000368 0.165402
#
#
# Mechanical properties :
#
#
# Convention : Reuss Voigt Hill
#
# Bulk Modulus (GPa) = 42.79772 56.96401 49.88087
# Shear Modulus (GPa) = 15.80385 30.26833 23.03609
#
# Velocity S-wave (km/s) = 2.69653 3.73180 3.25558
# Velocity P-wave (km/s) = 5.42089 6.69158 6.08947
#
# Compressibility (1/GPa) = 0.02336573
#
# Stress axis : x y z
#
# Youngs Moduli (GPa) = 109.93739 131.44195 70.01881
#
# Poissons Ratio (x) = 0.30389 0.13585
# Poissons Ratio (y) = 0.25417 -0.03095
# Poissons Ratio (z) = 0.21329 -0.05810
#
# Static dielectric constant tensor:
#      x y z
#    x 1.845360 -0.000080 0.094670 
#    y -0.000080 1.766230 0.000080 
#    z 0.094670 0.000080 1.895760 
# 
# From -- ./inp_files/235553.got.cif
#   From: 2010.05.17/outbox.cif.g08.bks.cpg/sg12_118_cif.got.tgz:235553.got - 2010.06.03 13:09:07.
