data_PCOD9168420
_publ_section_title
;
Structure prediction by ZEFSAII (Michael W. Deem and Ramdas Pophale) SiO2 
 PCOD9168420
Probable space group: C 2/M
;
_chemical_formula_sum "Si O2"
_cell_formula_units_Z 50
_cell_length_a 25.632472
_cell_length_b 14.241723
_cell_length_c 8.107140
_cell_angle_alpha 90.000000
_cell_angle_beta 40.742092
_cell_angle_gamma 90.000000
_cell_volume 1931.543497
_symmetry_space_group_name_H-M "C 2/M"
_symmetry_group_IT_number 12
_symmetry_cell_setting 'monoclinic'
loop_
_space_group_symop_operation_xyz
x,y,z
-x,y,-z
-x,-y,-z
x,-y,z
1/2+x,1/2+y,z
1/2-x,1/2+y,-z
1/2-x,1/2-y,-z
1/2+x,1/2-y,z
loop_
_atom_site_type_symbol
_atom_site_label
_atom_site_fract_x
_atom_site_fract_y
_atom_site_fract_z
Si Si1 0.822067 0.136833 0.909120
Si Si2 0.918401 0.134066 0.992989
Si Si3 0.631108 0.850745 0.882360
Si Si4 0.500000 0.500000 0.000000
Si Si5 0.585582 0.827851 0.318167
Si Si6 0.849784 0.637784 0.516880
Si Si7 0.315314 0.645485 0.546796
O O1 0.843945 0.248966 0.847867
O O2 0.817941 0.105549 0.727675
O O3 0.887382 0.104598 0.887353
O O4 0.738537 0.116086 0.201891
O O5 0.910440 0.246920 0.019903
O O6 0.862020 0.099219 0.281288
O O7 0.998389 0.083278 0.857461
O O8 0.624958 0.898687 0.721243
O O9 0.725746 0.842811 0.691701
O O10 0.598326 0.892313 0.129789
O O11 0.500000 0.779468 0.500000
O O12 0.590616 0.880774 0.477654
O O13 0.848919 0.749737 0.487179
#
# Coordination Sequence:
#
# PCOD9168420 Si02
#       7
#     8   8   8   2   8   8   8
#     4  10  17  30  54  75  92 130 187 233 284 327
#     4  10  21  35  52  65 100 147 192 236 261 312
#     4  10  17  29  54  75  95 123 190 235 295 324
#     4  12  28  44  46  72 124 174 206 218 258 328
#     4  10  19  25  37  70 113 131 150 206 283 360
#     4  10  15  27  48  73  99 118 177 226 278 345
#     4  10  15  29  54  82  86 115 184 253 292 315
#
# _framework density 25.886033999999999
#
# number of rings (size 3 to 8) (size 9 to 14) (size 15 to 20)
#    0.000    1.920    6.400    1.920    0.000    8.320 
#    0.000    1.600    0.000    0.000    0.000    0.000 
#    0.000    0.000    0.000    4.320    2.880    0.320 
#
# Total GULP energy -139189.505513 kJ/mol
# GULP energy per Si atom -5567.580221 kJ/mol
# Density = 2.582712 g / cm^3
# Si number density = 25.886034 Si / 1000 Ang^3
#
#
#
# Elastic Constant Matrix: (Units=GPa)
#
#
# Indices 1 2 3 4 5 6 
#
# 1 197.5196 20.0677 47.7237 0.0000 56.1201 0.0000
# 2 20.0677 125.4856 3.3447 0.0000 9.3666 0.0000
# 3 47.7237 3.3447 106.3180 0.0000 40.2133 0.0000
# 4 0.0000 0.0000 0.0000 7.3884 0.0000 -85.6008
# 5 56.1201 9.3666 40.2133 0.0000 68.9063 0.0000
# 6 0.0000 0.0000 0.0000 -85.6008 0.0000 179.2630
#
#
#
# Elastic Compliance Matrix: (Units=1/GPa)
#
#
# Indices 1 2 3 4 5 6 
#
# 1 0.006767 -0.000699 -0.001241 0.000000 -0.004692 0.000000
# 2 -0.000699 0.008126 0.000334 0.000000 -0.000731 0.000000
# 3 -0.001241 0.000334 0.012303 0.000000 -0.006215 0.000000
# 4 0.000000 0.000000 0.000000 -0.029862 0.000000 -0.014260
# 5 -0.004692 -0.000731 -0.006215 0.000000 0.022060 0.000000
# 6 0.000000 0.000000 0.000000 -0.014260 0.000000 -0.001231
#
#
# Mechanical properties :
#
#
# Convention : Reuss Voigt Hill
#
# Bulk Modulus (GPa) = 41.69176 63.51058 52.60117
# Shear Modulus (GPa) = 170.24957 74.99069 122.62013
#
# Velocity S-wave (km/s) = 8.11860 5.38818 6.89000
# Velocity P-wave (km/s) = 10.19917 7.95600 9.14661
#
# Compressibility (1/GPa) = 0.02398555
#
# Stress axis : x y z
#
# Youngs Moduli (GPa) = 147.78311 123.05539 81.28207
#
# Poissons Ratio (x) = 0.08600 0.10085
# Poissons Ratio (y) = 0.10328 -0.02718
# Poissons Ratio (z) = 0.18336 -0.04115
#
# Static dielectric constant tensor:
#      x y z
#    x 2.191110 0.000000 -0.042660 
#    y 0.000000 2.063220 0.000000 
#    z -0.042660 0.000000 2.160380 
# 
# From -- ./inp_files/105771.got.cif
#   From: 2010.05.17/outbox.cif.g08.bks.cpg/sg12_53_cif.got.tgz:105771.got - 2010.06.03 13:09:07.
