data_PCOD9168246
_publ_section_title
;
Structure prediction by ZEFSAII (Michael W. Deem and Ramdas Pophale) SiO2 
 PCOD9168246
Probable space group: P 21/M
;
_chemical_formula_sum "Si O2"
_cell_formula_units_Z 26
_cell_length_a 9.000000
_cell_length_b 21.000000
_cell_length_c 9.000000
_cell_angle_alpha 90.000000
_cell_angle_beta 50.000000
_cell_angle_gamma 90.000000
_cell_volume 1303.041598
_symmetry_space_group_name_H-M "P 21/M"
_symmetry_group_IT_number 11
_symmetry_cell_setting 'monoclinic'
loop_
_space_group_symop_operation_xyz
x,y,z
-x,1/2+y,-z
-x,-y,-z
x,1/2-y,z
loop_
_atom_site_type_symbol
_atom_site_label
_atom_site_fract_x
_atom_site_fract_y
_atom_site_fract_z
Si Si1 0.144186 0.508269 0.637500
Si Si2 0.666216 0.250000 0.764868
Si Si3 0.723388 0.005962 0.789033
Si Si4 0.675706 0.126968 0.295842
Si Si5 0.248197 0.250000 0.888468
Si Si6 0.772903 0.866181 0.331651
Si Si7 0.133078 0.750000 0.672973
Si Si8 0.810093 0.359916 0.865317
O O1 0.248897 0.496320 0.407728
O O2 0.247593 0.564359 0.664905
O O3 0.168026 0.441975 0.716310
O O4 0.915758 0.525917 0.746983
O O5 0.462425 0.250000 0.814705
O O6 0.827701 0.250000 0.529302
O O7 0.682968 0.308264 0.865809
O O8 0.776042 0.077981 0.790802
O O9 0.500000 0.000000 0.000000
O O10 0.441223 0.132745 0.458400
O O11 0.764271 0.187847 0.323296
O O12 0.749738 0.128732 0.076627
O O13 0.232014 0.315913 0.802571
O O14 0.085015 0.250000 0.121753
O O15 0.963706 0.840952 0.294110
#
# Coordination Sequence:
#
# PCOD9168246 Si02
#       8
#     4   2   4   4   2   4   2   4
#     4  10  24  41  68 105 138 178 230 278 334 402
#     4  12  26  46  68  96 134 174 222 292 342 400
#     4  10  22  42  65  99 144 181 216 275 341 401
#     4  12  23  43  71 102 135 179 229 278 335 407
#     4  12  25  45  69 101 130 175 232 280 345 404
#     4  11  23  44  71 101 135 178 223 284 332 406
#     4  12  25  43  67  99 132 175 228 280 335 404
#     4  11  25  42  68  99 135 174 227 277 340 401
#
# _framework density 19.953315
#
# number of rings (size 3 to 8) (size 9 to 14) (size 15 to 20)
#    0.000    0.923    3.077    3.231    0.000    6.154 
#    0.000    0.000    0.000    0.000    0.000    0.000 
#    0.000    0.000    0.000    0.000    0.000    0.000 
#
# Total GULP energy -144959.503097 kJ/mol
# GULP energy per Si atom -5575.365504 kJ/mol
# Density = 1.990790 g / cm^3
# Si number density = 19.953315 Si / 1000 Ang^3
#
#
#
# Elastic Constant Matrix: (Units=GPa)
#
#
# Indices 1 2 3 4 5 6 
#
# 1 116.6340 48.7945 50.0178 0.0000 -12.0567 0.0000
# 2 48.7945 89.1515 18.8772 0.0000 17.1021 0.0000
# 3 50.0178 18.8772 130.3127 0.0000 -15.9536 0.0000
# 4 0.0000 0.0000 0.0000 -38.0122 0.0000 10.6697
# 5 -12.0567 17.1021 -15.9536 0.0000 50.6024 0.0000
# 6 0.0000 0.0000 0.0000 10.6697 0.0000 41.9880
#
#
#
# Elastic Compliance Matrix: (Units=1/GPa)
#
#
# Indices 1 2 3 4 5 6 
#
# 1 0.013851 -0.007732 -0.003612 0.000000 0.004775 0.000000
# 2 -0.007732 0.017028 -0.000446 0.000000 -0.007738 0.000000
# 3 -0.003612 -0.000446 0.009401 0.000000 0.002254 0.000000
# 4 0.000000 0.000000 0.000000 -0.024556 0.000000 0.006240
# 5 0.004775 -0.007738 0.002254 0.000000 0.024225 0.000000
# 6 0.000000 0.000000 0.000000 0.006240 0.000000 0.022231
#
#
# Mechanical properties :
#
#
# Convention : Reuss Voigt Hill
#
# Bulk Modulus (GPa) = 59.88275 63.49748 61.69012
# Shear Modulus (GPa) = 54.74869 25.47621 40.11245
#
# Velocity S-wave (km/s) = 5.24385 3.57710 4.48852
# Velocity P-wave (km/s) = 8.16949 6.99664 7.60570
#
# Compressibility (1/GPa) = 0.01669930
#
# Stress axis : x y z
#
# Youngs Moduli (GPa) = 72.19627 58.72795 106.37452
#
# Poissons Ratio (x) = 0.45410 0.38421
# Poissons Ratio (y) = 0.55824 0.04745
# Poissons Ratio (z) = 0.26076 0.02620
#
# Static dielectric constant tensor:
#      x y z
#    x 1.719800 0.000000 -0.028330 
#    y 0.000000 2.301720 0.000000 
#    z -0.028330 0.000000 1.714460 
# 
# From -- ./inp_files/14514.got.cif
#   From: 2010.05.17/outbox.ucp.g08.bks.cvg/sg11_8_cif.got.tgz:14514.got - 2010.06.11 11:38:39.
