data_PCOD9168963
_publ_section_title
;
Structure prediction by ZEFSAII (Michael W. Deem and Ramdas Pophale) SiO2 
 PCOD9168963
Probable space group: C 2/M
;
_chemical_formula_sum "Si O2"
_cell_formula_units_Z 56
_cell_length_a 20.602938
_cell_length_b 15.690417
_cell_length_c 8.242243
_cell_angle_alpha 90.000000
_cell_angle_beta 115.850592
_cell_angle_gamma 90.000000
_cell_volume 2397.837624
_symmetry_space_group_name_H-M "C 2/M"
_symmetry_group_IT_number 12
_symmetry_cell_setting 'monoclinic'
loop_
_space_group_symop_operation_xyz
x,y,z
-x,y,-z
-x,-y,-z
x,-y,z
1/2+x,1/2+y,z
1/2-x,1/2+y,-z
1/2-x,1/2-y,-z
1/2+x,1/2-y,z
loop_
_atom_site_type_symbol
_atom_site_label
_atom_site_fract_x
_atom_site_fract_y
_atom_site_fract_z
Si Si1 0.943605 0.714031 0.733690
Si Si2 0.676710 0.286799 0.843831
Si Si3 0.549957 0.596039 0.215774
Si Si4 0.403503 0.166456 0.045747
Si Si5 0.171505 0.598384 0.541587
Si Si6 0.263004 0.907521 0.745739
Si Si7 0.815078 0.098104 0.857450
O O1 0.963071 0.812236 0.712390
O O2 0.890958 0.666612 0.553395
O O3 0.012264 0.650901 0.831490
O O4 0.907811 0.717347 0.876779
O O5 0.618538 0.215253 0.814390
O O6 0.703595 0.335500 0.715069
O O7 0.750000 0.250000 0.000000
O O8 0.653131 0.357533 0.950671
O O9 0.540371 0.500000 0.279372
O O10 0.631729 0.601557 0.237498
O O11 0.500000 0.596824 0.000000
O O12 0.336152 0.104763 0.933740
O O13 0.149671 0.500000 0.558339
O O14 0.209562 0.593824 0.407099
O O15 0.235306 0.630405 0.726765
O O16 0.231630 0.000000 0.748184
O O17 0.805050 0.000000 0.885154
#
# Coordination Sequence:
#
# PCOD9168963 Si02
#       7
#     8   8   8   8   8   8   8
#     4  10  16  31  50  73 106 139 167 222 269 303
#     4  10  18  31  49  75 100 133 174 214 255 309
#     4  10  18  29  48  75 103 131 171 220 263 303
#     4   9  17  29  48  73 102 133 175 215 258 311
#     4   9  20  34  51  80 109 136 175 214 265 324
#     4   9  18  32  49  74 105 137 171 215 263 315
#     4  10  19  33  52  77 105 133 174 223 261 310
#
# _framework density 23.354375000000001
#
# number of rings (size 3 to 8) (size 9 to 14) (size 15 to 20)
#    0.000    2.429    2.857    0.429    0.000    1.143 
#    0.000    3.571    0.000    3.429    3.714    9.000 
#    0.000   11.429    0.000    0.000    0.000    0.000 
#
# Total GULP energy -155947.394598 kJ/mol
# GULP energy per Si atom -5569.549807 kJ/mol
# Density = 2.330122 g / cm^3
# Si number density = 23.354375 Si / 1000 Ang^3
#
#
#
# Elastic Constant Matrix: (Units=GPa)
#
#
# Indices 1 2 3 4 5 6 
#
# 1 51.8023 1.4424 9.4754 0.0000 4.4325 0.0000
# 2 1.4424 73.6895 21.9092 0.0000 0.0356 0.0000
# 3 9.4754 21.9092 57.9149 0.0000 7.5635 0.0000
# 4 0.0000 0.0000 0.0000 15.0829 0.0000 6.0882
# 5 4.4325 0.0356 7.5635 0.0000 25.5455 0.0000
# 6 0.0000 0.0000 0.0000 6.0882 0.0000 22.9993
#
#
#
# Elastic Compliance Matrix: (Units=1/GPa)
#
#
# Indices 1 2 3 4 5 6 
#
# 1 0.020085 0.000548 -0.003160 0.000000 -0.002550 0.000000
# 2 0.000548 0.015382 -0.006130 0.000000 0.001699 0.000000
# 3 -0.003160 -0.006130 0.020836 0.000000 -0.005612 0.000000
# 4 0.000000 0.000000 0.000000 0.074232 0.000000 -0.019650
# 5 -0.002550 0.001699 -0.005612 0.000000 0.041248 0.000000
# 6 0.000000 0.000000 0.000000 -0.019650 0.000000 0.048681
#
#
# Mechanical properties :
#
#
# Convention : Reuss Voigt Hill
#
# Bulk Modulus (GPa) = 25.76203 27.67340 26.71772
# Shear Modulus (GPa) = 19.92922 22.76418 21.34670
#
# Velocity S-wave (km/s) = 2.92437 3.12545 3.02658
# Velocity P-wave (km/s) = 4.73893 4.98996 4.86606
#
# Compressibility (1/GPa) = 0.03881682
#
# Stress axis : x y z
#
# Youngs Moduli (GPa) = 49.78796 65.01299 47.99436
#
# Poissons Ratio (x) = -0.03561 0.15167
# Poissons Ratio (y) = -0.02727 0.29422
# Poissons Ratio (z) = 0.15734 0.39855
#
# Static dielectric constant tensor:
#      x y z
#    x 1.909810 0.000000 -0.019900 
#    y 0.000000 1.954520 0.000000 
#    z -0.019900 0.000000 1.899720 
# 
# From -- ./inp_files/88056.got.cif
#   From: 2010.05.17/outbox.cif.g08.bks.cpg/sg12_45_cif.got.tgz:88056.got - 2010.06.03 13:09:07.
