data_PCOD9168253
_publ_section_title
;
Structure prediction by ZEFSAII (Michael W. Deem and Ramdas Pophale) SiO2 
 PCOD9168253
Probable space group: P 21/M
;
_chemical_formula_sum "Si O2"
_cell_formula_units_Z 26
_cell_length_a 12.000000
_cell_length_b 21.000000
_cell_length_c 9.000000
_cell_angle_alpha 90.000000
_cell_angle_beta 140.000000
_cell_angle_gamma 90.000000
_cell_volume 1457.842299
_symmetry_space_group_name_H-M "P 21/M"
_symmetry_group_IT_number 11
_symmetry_cell_setting 'monoclinic'
loop_
_space_group_symop_operation_xyz
x,y,z
-x,1/2+y,-z
-x,-y,-z
x,1/2-y,z
loop_
_atom_site_type_symbol
_atom_site_label
_atom_site_fract_x
_atom_site_fract_y
_atom_site_fract_z
Si Si1 0.592541 0.869487 0.886480
Si Si2 0.057863 0.481020 0.267479
Si Si3 0.581943 0.750000 0.651691
Si Si4 0.170812 0.872414 0.472499
Si Si5 0.871938 0.750000 0.679535
Si Si6 0.697061 0.979616 0.761304
Si Si7 0.889420 0.865686 0.448807
Si Si8 0.833624 0.250000 0.756505
O O1 0.616299 0.810109 0.796500
O O2 0.383460 0.873789 0.710616
O O3 0.651651 0.928947 0.844092
O O4 0.719646 0.864917 0.162613
O O5 0.107207 0.556149 0.353614
O O6 0.192639 0.459789 0.273762
O O7 0.087661 0.433046 0.437679
O O8 0.855284 0.478165 0.001985
O O9 0.704739 0.750000 0.626851
O O10 0.372002 0.750000 0.405743
O O11 0.139464 0.814393 0.319435
O O12 0.054844 0.858153 0.503117
O O13 0.876801 0.810823 0.567254
O O14 0.035613 0.750000 0.966022
O O15 0.500000 0.000000 0.500000
#
# Coordination Sequence:
#
# PCOD9168253 Si02
#       8
#     4   4   2   4   2   4   4   2
#     4  11  23  42  67  93 128 171 211 262 324 378
#     4  11  25  40  66  96 132 164 216 265 313 385
#     4  10  23  43  69  93 121 164 226 267 306 381
#     4  11  23  44  66  94 129 170 212 261 321 382
#     4  12  26  42  68  92 126 172 214 265 322 379
#     4  11  23  41  65  91 126 166 216 261 316 366
#     4  12  26  41  62  97 134 167 208 262 326 386
#     4  10  25  43  69  91 123 168 220 266 316 372
#
# _framework density 17.834575999999998
#
# number of rings (size 3 to 8) (size 9 to 14) (size 15 to 20)
#    0.000    0.923    3.077    3.231    4.308    3.077 
#    0.000    0.000    0.000    0.000    0.000    0.000 
#    0.000    0.000    0.000    0.000    0.000    0.000 
#
# Total GULP energy -144806.604403 kJ/mol
# GULP energy per Si atom -5569.484785 kJ/mol
# Density = 1.779398 g / cm^3
# Si number density = 17.834576 Si / 1000 Ang^3
#
#
#
# Elastic Constant Matrix: (Units=GPa)
#
#
# Indices 1 2 3 4 5 6 
#
# 1 174.5435 44.6902 73.8848 0.0000 2.9686 0.0000
# 2 44.6902 115.3899 56.0983 0.0000 -11.2899 0.0000
# 3 73.8848 56.0983 193.2024 0.0000 2.1193 0.0000
# 4 0.0000 0.0000 0.0000 41.1421 0.0000 -13.2029
# 5 2.9686 -11.2899 2.1193 0.0000 47.3024 0.0000
# 6 0.0000 0.0000 0.0000 -13.2029 0.0000 45.6974
#
#
#
# Elastic Compliance Matrix: (Units=1/GPa)
#
#
# Indices 1 2 3 4 5 6 
#
# 1 0.007127 -0.001764 -0.002205 0.000000 -0.000769 0.000000
# 2 -0.001764 0.010842 -0.002504 0.000000 0.002811 0.000000
# 3 -0.002205 -0.002504 0.006755 0.000000 -0.000762 0.000000
# 4 0.000000 0.000000 0.000000 0.026790 0.000000 0.007740
# 5 -0.000769 0.002811 -0.000762 0.000000 0.021894 0.000000
# 6 0.000000 0.000000 0.000000 0.007740 0.000000 0.024119
#
#
# Mechanical properties :
#
#
# Convention : Reuss Voigt Hill
#
# Bulk Modulus (GPa) = 84.90699 92.49804 88.70251
# Shear Modulus (GPa) = 43.70661 47.39256 45.54959
#
# Velocity S-wave (km/s) = 4.95579 5.16053 5.05920
# Velocity P-wave (km/s) = 8.96983 9.35335 9.16360
#
# Compressibility (1/GPa) = 0.01177759
#
# Stress axis : x y z
#
# Youngs Moduli (GPa) = 140.30553 92.23500 148.04406
#
# Poissons Ratio (x) = 0.16267 0.32645
# Poissons Ratio (y) = 0.24745 0.37077
# Poissons Ratio (z) = 0.30939 0.23100
#
# Static dielectric constant tensor:
#      x y z
#    x 1.616470 0.000000 0.015310 
#    y 0.000000 1.661480 0.000000 
#    z 0.015310 0.000000 1.640110 
# 
# From -- ./inp_files/19482.got.cif
#   From: 2010.05.17/outbox.ucp.g08.bks.cvg/sg11_10_cif.got.tgz:19482.got - 2010.06.11 11:38:39.
