data_PCOD9168925
_publ_section_title
;
Structure prediction by ZEFSAII (Michael W. Deem and Ramdas Pophale) SiO2 
 PCOD9168925
Probable space group: C 2/M
;
_chemical_formula_sum "Si O2"
_cell_formula_units_Z 56
_cell_length_a 22.606968
_cell_length_b 15.240672
_cell_length_c 8.860289
_cell_angle_alpha 90.000000
_cell_angle_beta 122.705283
_cell_angle_gamma 90.000000
_cell_volume 2568.788202
_symmetry_space_group_name_H-M "C 2/M"
_symmetry_group_IT_number 12
_symmetry_cell_setting 'monoclinic'
loop_
_space_group_symop_operation_xyz
x,y,z
-x,y,-z
-x,-y,-z
x,-y,z
1/2+x,1/2+y,z
1/2-x,1/2+y,-z
1/2-x,1/2-y,-z
1/2+x,1/2-y,z
loop_
_atom_site_type_symbol
_atom_site_label
_atom_site_fract_x
_atom_site_fract_y
_atom_site_fract_z
Si Si1 0.834602 0.093566 0.924504
Si Si2 0.840345 0.217487 0.429674
Si Si3 0.810366 0.715886 0.799661
Si Si4 0.691247 0.857752 0.871559
Si Si5 0.932636 0.150110 0.315001
Si Si6 0.441821 0.199227 0.810363
Si Si7 0.460209 0.139829 0.294255
O O1 0.829447 0.181025 0.817725
O O2 0.763622 0.095488 0.929348
O O3 0.837171 0.000000 0.847519
O O4 0.902288 0.104255 0.125844
O O5 0.763091 0.193270 0.380810
O O6 0.826706 0.303084 0.305357
O O7 0.870912 0.148905 0.353693
O O8 0.900266 0.241051 0.632027
O O9 0.877501 0.666022 0.825375
O O10 0.797886 0.698381 0.960378
O O11 0.616836 0.901919 0.810411
O O12 0.947193 0.253042 0.290089
O O13 0.000000 0.117607 0.500000
O O14 0.500000 0.242870 0.000000
O O15 0.511953 0.131040 0.223525
O O16 0.500000 0.113298 0.500000
#
# Coordination Sequence:
#
# PCOD9168925 Si02
#       7
#     8   8   8   8   8   8   8
#     4  11  21  34  54  79 107 148 185 218 262 317
#     4  10  18  32  50  78 107 139 173 218 270 317
#     4  11  20  33  52  83 111 136 177 231 271 317
#     4  10  17  34  57  78 106 137 178 230 263 315
#     4  10  16  30  54  71 103 134 181 216 251 303
#     4  12  20  27  50  88 111 134 165 224 282 320
#     4  10  17  31  54  82 107 133 173 228 268 315
#
# _framework density 21.800163999999999
#
# number of rings (size 3 to 8) (size 9 to 14) (size 15 to 20)
#    0.000    1.429   10.000    1.286    0.000    0.286 
#    0.000    0.000    0.000    5.143    0.000    2.000 
#    0.000    0.000    0.000    0.000    0.000    0.000 
#
# Total GULP energy -155959.474450 kJ/mol
# GULP energy per Si atom -5569.981230 kJ/mol
# Density = 2.175055 g / cm^3
# Si number density = 21.800164 Si / 1000 Ang^3
#
#
#
# Elastic Constant Matrix: (Units=GPa)
#
#
# Indices 1 2 3 4 5 6 
#
# 1 138.6435 -3.9301 25.9525 0.0000 20.9229 0.0000
# 2 -3.9301 44.4416 6.1999 0.0000 3.7637 0.0000
# 3 25.9525 6.1999 115.3654 0.0000 25.0770 0.0000
# 4 0.0000 0.0000 0.0000 -2.4122 0.0000 -3.8853
# 5 20.9229 3.7637 25.0770 0.0000 50.8570 0.0000
# 6 0.0000 0.0000 0.0000 -3.8853 0.0000 -9.0117
#
#
#
# Elastic Compliance Matrix: (Units=1/GPa)
#
#
# Indices 1 2 3 4 5 6 
#
# 1 0.007886 0.001101 -0.001244 0.000000 -0.002713 0.000000
# 2 0.001101 0.022891 -0.001133 0.000000 -0.001588 0.000000
# 3 -0.001244 -0.001133 0.009945 0.000000 -0.004308 0.000000
# 4 0.000000 0.000000 0.000000 -1.356730 0.000000 0.584940
# 5 -0.002713 -0.001588 -0.004308 0.000000 0.023021 0.000000
# 6 0.000000 0.000000 0.000000 0.584940 0.000000 -0.363158
#
#
# Mechanical properties :
#
#
# Convention : Reuss Voigt Hill
#
# Bulk Modulus (GPa) = 26.19740 39.43281 32.81511
# Shear Modulus (GPa) = -3.04716 25.90184 11.42734
#
# Velocity S-wave (km/s) = -1.18356 3.45069 2.29199
# Velocity P-wave (km/s) = 3.18989 5.83129 4.69997
#
# Compressibility (1/GPa) = 0.03817172
#
# Stress axis : x y z
#
# Youngs Moduli (GPa) = 126.80556 43.68470 100.55049
#
# Poissons Ratio (x) = -0.04808 0.12504
# Poissons Ratio (y) = -0.13956 0.11388
# Poissons Ratio (z) = 0.15769 0.04947
#
# Static dielectric constant tensor:
#      x y z
#    x 1.899720 0.000000 0.000470 
#    y 0.000000 1.822410 0.000000 
#    z 0.000470 0.000000 1.831180 
# 
# From -- ./inp_files/105616.got.cif
#   From: 2010.05.17/outbox.cif.g08.bks.cpg/sg12_53_cif.got.tgz:105616.got - 2010.06.03 13:09:07.
