data_PCOD9168885
_publ_section_title
;
Structure prediction by ZEFSAII (Michael W. Deem and Ramdas Pophale) SiO2 
 PCOD9168885
Probable space group: C 2/M
;
_chemical_formula_sum "Si O2"
_cell_formula_units_Z 56
_cell_length_a 5.421427
_cell_length_b 14.773876
_cell_length_c 35.951819
_cell_angle_alpha 90.000000
_cell_angle_beta 67.613157
_cell_angle_gamma 90.000000
_cell_volume 2662.554855
_symmetry_space_group_name_H-M "C 2/M"
_symmetry_group_IT_number 12
_symmetry_cell_setting 'monoclinic'
loop_
_space_group_symop_operation_xyz
x,y,z
-x,y,-z
-x,-y,-z
x,-y,z
1/2+x,1/2+y,z
1/2-x,1/2+y,-z
1/2-x,1/2-y,-z
1/2+x,1/2-y,z
loop_
_atom_site_type_symbol
_atom_site_label
_atom_site_fract_x
_atom_site_fract_y
_atom_site_fract_z
Si Si1 0.906089 0.693246 0.324288
Si Si2 0.256053 0.891691 0.410206
Si Si3 0.748905 0.644922 0.199111
Si Si4 0.804345 0.608506 0.978525
Si Si5 0.492545 0.192507 0.891849
Si Si6 0.645631 0.889167 0.453776
Si Si7 0.163372 0.645747 0.232965
O O1 0.628430 0.734904 0.325412
O O2 0.843536 0.633565 0.363768
O O3 0.042891 0.646440 0.281005
O O4 0.471450 0.859366 0.428247
O O5 0.953332 0.859314 0.434683
O O6 0.248987 0.000000 0.414085
O O7 0.455647 0.604682 0.215817
O O8 0.705820 0.749876 0.215706
O O9 0.875390 0.643863 0.151082
O O10 0.953777 0.604571 0.216600
O O11 0.795481 0.500000 0.982218
O O12 0.918890 0.633766 0.931828
O O13 0.500000 0.641965 0.000000
O O14 0.000000 0.642186 0.000000
O O15 0.720332 0.262222 0.892546
O O16 0.500000 0.860672 0.500000
O O17 0.648191 0.000000 0.453473
#
# Coordination Sequence:
#
# PCOD9168885 Si02
#       7
#     8   8   8   8   8   8   8
#     4  12  21  33  55  80 104 144 187 213 249 324
#     4  10  21  35  53  81 111 133 169 230 272 300
#     4  10  16  30  48  78 104 129 170 224 258 299
#     4  10  23  42  57  74 110 154 181 206 262 336
#     4  12  21  32  58  88 108 133 173 237 276 292
#     4   9  17  33  57  79 100 137 182 217 260 320
#     4  10  16  30  49  73 101 141 171 210 252 317
#
# _framework density 21.032432
#
# number of rings (size 3 to 8) (size 9 to 14) (size 15 to 20)
#    0.000    1.571    5.714    2.143    0.000    3.429 
#    0.000    0.000    0.000   10.286    0.000    0.000 
#    0.000    0.000    0.000    0.000    0.000    0.000 
#
# Total GULP energy -156415.750547 kJ/mol
# GULP energy per Si atom -5586.276805 kJ/mol
# Density = 2.098456 g / cm^3
# Si number density = 21.032432 Si / 1000 Ang^3
#
#
#
# Elastic Constant Matrix: (Units=GPa)
#
#
# Indices 1 2 3 4 5 6 
#
# 1 128.7742 3.5358 22.2307 -0.0001 7.7814 0.0000
# 2 3.5358 42.1993 4.0883 0.0000 -1.3769 0.0000
# 3 22.2307 4.0883 133.0377 -0.0002 5.6514 0.0000
# 4 -0.0001 0.0000 -0.0002 53.8591 0.0000 9.5820
# 5 7.7814 -1.3769 5.6514 0.0000 45.5258 0.0000
# 6 0.0000 0.0000 0.0000 9.5820 0.0000 -11.1531
#
#
#
# Elastic Compliance Matrix: (Units=1/GPa)
#
#
# Indices 1 2 3 4 5 6 
#
# 1 0.008078 -0.000593 -0.001279 0.000000 -0.001240 0.000000
# 2 -0.000593 0.023841 -0.000672 0.000000 0.000906 0.000000
# 3 -0.001279 -0.000672 0.007784 0.000000 -0.000768 0.000000
# 4 0.000000 0.000000 0.000000 0.016105 0.000000 0.013837
# 5 -0.001240 0.000906 -0.000768 0.000000 0.022300 0.000000
# 6 0.000000 0.000000 0.000000 0.013837 0.000000 -0.077774
#
#
# Mechanical properties :
#
#
# Convention : Reuss Voigt Hill
#
# Bulk Modulus (GPa) = 28.88989 40.41343 34.65166
# Shear Modulus (GPa) = 294.80038 35.92346 165.36192
#
# Velocity S-wave (km/s) = 11.85196 4.13728 8.87654
# Velocity P-wave (km/s) = 14.17948 6.48686 11.02581
#
# Compressibility (1/GPa) = 0.03461418
#
# Stress axis : x y z
#
# Youngs Moduli (GPa) = 123.80048 41.94379 128.47458
#
# Poissons Ratio (x) = 0.02489 0.16430
# Poissons Ratio (y) = 0.07346 0.08633
# Poissons Ratio (z) = 0.15832 0.02819
#
# Static dielectric constant tensor:
#      x y z
#    x 1.757450 0.000000 0.014870 
#    y 0.000000 1.742330 0.000000 
#    z 0.014870 0.000000 1.737040 
# 
# From -- ./inp_files/371592.got.cif
#   From: 2010.05.17/outbox.cif.g08.bks.cpg/sg12_186_cif.got.tgz:371592.got - 2010.06.03 13:09:07.
