data_PCOD9168450
_publ_section_title
;
Structure prediction by ZEFSAII (Michael W. Deem and Ramdas Pophale) SiO2 
 PCOD9168450
Probable space group: C 2/M
;
_chemical_formula_sum "Si O2"
_cell_formula_units_Z 56
_cell_length_a 17.993654
_cell_length_b 19.581589
_cell_length_c 11.665773
_cell_angle_alpha 90.000000
_cell_angle_beta 52.255930
_cell_angle_gamma 90.000000
_cell_volume 3250.286386
_symmetry_space_group_name_H-M "C 2/M"
_symmetry_group_IT_number 12
_symmetry_cell_setting 'monoclinic'
loop_
_space_group_symop_operation_xyz
x,y,z
-x,y,-z
-x,-y,-z
x,-y,z
1/2+x,1/2+y,z
1/2-x,1/2+y,-z
1/2-x,1/2-y,-z
1/2+x,1/2-y,z
loop_
_atom_site_type_symbol
_atom_site_label
_atom_site_fract_x
_atom_site_fract_y
_atom_site_fract_z
Si Si1 0.312305 0.833614 0.533867
Si Si2 0.865151 0.714479 0.006552
Si Si3 0.226985 0.310578 0.681989
Si Si4 0.469353 0.191740 0.692627
Si Si5 0.672328 0.078143 0.266711
Si Si6 0.408621 0.340354 0.656578
Si Si7 0.807776 0.143949 0.968938
O O1 0.250882 0.768403 0.629932
O O2 0.292461 0.847408 0.419311
O O3 0.421681 0.812516 0.438074
O O4 0.297865 0.894458 0.636699
O O5 0.855566 0.690473 0.145669
O O6 0.776658 0.680138 0.023252
O O7 0.952856 0.694578 0.845043
O O8 0.850602 0.795820 0.007228
O O9 0.319455 0.339936 0.656785
O O10 0.410841 0.128366 0.697719
O O11 0.426821 0.261847 0.681182
O O12 0.642543 0.000000 0.297528
O O13 0.758027 0.089383 0.096878
O O14 0.500000 0.363055 0.500000
O O15 0.381090 0.377972 0.801288
#
# Coordination Sequence:
#
# PCOD9168450 Si02
#       7
#     8   8   8   8   8   8   8
#     4  11  20  29  44  72 108 133 162 200 243 298
#     4   8  14  28  48  66  98 128 155 203 258 290
#     4  10  18  29  46  69 104 135 157 199 260 299
#     4  10  18  30  48  75 105 129 159 206 246 290
#     4  11  20  33  51  71 101 141 173 194 230 292
#     4  10  15  29  53  76 102 122 155 212 267 292
#     4   8  15  27  46  73  96 123 163 206 245 289
#
# _framework density 17.229251000000001
#
# number of rings (size 3 to 8) (size 9 to 14) (size 15 to 20)
#    0.000    2.286    4.286    2.143    0.000    1.714 
#    0.000    0.000    0.000    9.000    0.000   11.000 
#    0.000    0.000    0.000    0.000    0.000    0.000 
#
# Total GULP energy -155999.810387 kJ/mol
# GULP energy per Si atom -5571.421800 kJ/mol
# Density = 1.719004 g / cm^3
# Si number density = 17.229251 Si / 1000 Ang^3
#
#
#
# Elastic Constant Matrix: (Units=GPa)
#
#
# Indices 1 2 3 4 5 6 
#
# 1 51.5011 13.4216 29.7591 0.0000 21.8181 0.0000
# 2 13.4216 32.0507 11.6826 0.0000 3.3457 0.0000
# 3 29.7591 11.6826 138.3313 0.0000 18.0403 0.0000
# 4 0.0000 0.0000 0.0000 9.4366 0.0000 1.6175
# 5 21.8181 3.3457 18.0403 0.0000 26.4167 0.0000
# 6 0.0000 0.0000 0.0000 1.6175 0.0000 8.5642
#
#
#
# Elastic Compliance Matrix: (Units=1/GPa)
#
#
# Indices 1 2 3 4 5 6 
#
# 1 0.034747 -0.010730 -0.003297 0.000000 -0.025088 0.000000
# 2 -0.010730 0.035649 -0.001393 0.000000 0.005299 0.000000
# 3 -0.003297 -0.001393 0.008428 0.000000 -0.002856 0.000000
# 4 0.000000 0.000000 0.000000 0.109515 0.000000 -0.020684
# 5 -0.025088 0.005299 -0.002856 0.000000 0.059855 0.000000
# 6 0.000000 0.000000 0.000000 -0.020684 0.000000 0.120672
#
#
# Mechanical properties :
#
#
# Convention : Reuss Voigt Hill
#
# Bulk Modulus (GPa) = 20.84073 36.84552 28.84313
# Shear Modulus (GPa) = 12.02786 20.01815 16.02300
#
# Velocity S-wave (km/s) = 2.64504 3.41232 3.05288
# Velocity P-wave (km/s) = 4.63149 6.07924 5.40406
#
# Compressibility (1/GPa) = 0.04798296
#
# Stress axis : x y z
#
# Youngs Moduli (GPa) = 28.77964 28.05152 118.64507
#
# Poissons Ratio (x) = 0.30099 0.39119
# Poissons Ratio (y) = 0.30881 0.16531
# Poissons Ratio (z) = 0.09489 0.03909
#
# Static dielectric constant tensor:
#      x y z
#    x 1.592020 0.000000 0.008760 
#    y 0.000000 1.541790 0.000000 
#    z 0.008760 0.000000 1.658690 
# 
# From -- ./inp_files/169166.got.cif
#   From: 2010.05.17/outbox.cif.g08.bks.cpg/sg12_85_cif.got.tgz:169166.got - 2010.06.03 13:09:07.
