data_PCOD9168407
_publ_section_title
;
Structure prediction by ZEFSAII (Michael W. Deem and Ramdas Pophale) SiO2 
 PCOD9168407
Probable space group: C 2/M
;
_chemical_formula_sum "Si O2"
_cell_formula_units_Z 56
_cell_length_a 22.413278
_cell_length_b 22.823623
_cell_length_c 11.197082
_cell_angle_alpha 90.000000
_cell_angle_beta 143.259622
_cell_angle_gamma 90.000000
_cell_volume 3426.367912
_symmetry_space_group_name_H-M "C 2/M"
_symmetry_group_IT_number 12
_symmetry_cell_setting 'monoclinic'
loop_
_space_group_symop_operation_xyz
x,y,z
-x,y,-z
-x,-y,-z
x,-y,z
1/2+x,1/2+y,z
1/2-x,1/2+y,-z
1/2-x,1/2-y,-z
1/2+x,1/2-y,z
loop_
_atom_site_type_symbol
_atom_site_label
_atom_site_fract_x
_atom_site_fract_y
_atom_site_fract_z
Si Si1 0.847142 0.623578 0.959562
Si Si2 0.060377 0.500000 0.924686
Si Si3 0.342186 0.000000 0.652838
Si Si4 0.832580 0.067745 0.218726
Si Si5 0.284114 0.871953 0.578696
Si Si6 0.526383 0.200089 0.184279
Si Si7 0.062823 0.168642 0.222001
Si Si8 0.995707 0.933195 0.692264
O O1 0.752364 0.615922 0.893944
O O2 0.806695 0.628993 0.757885
O O3 0.902352 0.561427 0.064952
O O4 0.932550 0.672776 0.104023
O O5 0.941219 0.500000 0.732302
O O6 0.108388 0.500000 0.135328
O O7 0.281555 0.940500 0.541281
O O8 0.900263 0.076251 0.210575
O O9 0.908612 0.069874 0.452712
O O10 0.794005 0.000000 0.154877
O O11 0.375438 0.840718 0.656532
O O12 0.179946 0.840993 0.386736
O O13 0.548055 0.266793 0.253870
O O14 0.500000 0.200138 0.000000
O O15 0.025725 0.116406 0.246596
O O16 0.000000 0.166783 0.000000
O O17 0.994694 0.000000 0.738296
#
# Coordination Sequence:
#
# PCOD9168407 Si02
#       8
#     8   4   4   8   8   8   8   8
#     4  10  15  26  49  76  97 120 147 190 255 297
#     4   9  14  22  42  72 106 113 137 191 251 299
#     4   9  16  24  41  71  97 124 144 192 243 289
#     4   9  16  29  52  77  97 116 146 196 254 292
#     4  10  18  29  46  68 101 128 152 192 238 285
#     4   9  19  31  45  69  98 127 159 195 238 285
#     4  11  22  34  46  64  96 137 172 188 219 277
#     4   9  19  33  48  71  97 122 159 199 233 280
#
# _framework density 16.343837000000001
#
# number of rings (size 3 to 8) (size 9 to 14) (size 15 to 20)
#    0.000    2.429    3.571    1.286    1.000    0.286 
#    0.000    0.714    0.000    0.000    0.000    0.000 
#    0.000    3.429    0.000    0.000    0.000    0.000 
#
# Total GULP energy -155889.342292 kJ/mol
# GULP energy per Si atom -5567.476510 kJ/mol
# Density = 1.630664 g / cm^3
# Si number density = 16.343837 Si / 1000 Ang^3
#
#
#
# Elastic Constant Matrix: (Units=GPa)
#
#
# Indices 1 2 3 4 5 6 
#
# 1 54.7424 36.5895 19.3458 0.0000 26.1626 0.0000
# 2 36.5895 115.7917 36.8012 0.0000 21.6576 0.0000
# 3 19.3458 36.8012 53.4445 0.0000 26.2908 0.0000
# 4 0.0000 0.0000 0.0000 15.2005 0.0000 4.0164
# 5 26.1626 21.6576 26.2908 0.0000 28.3752 0.0000
# 6 0.0000 0.0000 0.0000 4.0164 0.0000 11.4686
#
#
#
# Elastic Compliance Matrix: (Units=1/GPa)
#
#
# Indices 1 2 3 4 5 6 
#
# 1 0.039091 -0.008477 0.011456 0.000000 -0.040188 0.000000
# 2 -0.008477 0.012995 -0.008903 0.000000 0.006147 0.000000
# 3 0.011456 -0.008903 0.041433 0.000000 -0.042157 0.000000
# 4 0.000000 0.000000 0.000000 0.072495 0.000000 -0.025389
# 5 -0.040188 0.006147 -0.042157 0.000000 0.106664 0.000000
# 6 0.000000 0.000000 0.000000 -0.025389 0.000000 0.096086
#
#
# Mechanical properties :
#
#
# Convention : Reuss Voigt Hill
#
# Bulk Modulus (GPa) = 12.24427 45.49463 28.86945
# Shear Modulus (GPa) = 12.25981 19.75834 16.00907
#
# Velocity S-wave (km/s) = 2.74180 3.48072 3.13312
# Velocity P-wave (km/s) = 4.18703 6.63704 5.54894
#
# Compressibility (1/GPa) = 0.08167086
#
# Stress axis : x y z
#
# Youngs Moduli (GPa) = 25.58106 76.95333 24.13544
#
# Poissons Ratio (x) = 0.65234 -0.27651
# Poissons Ratio (y) = 0.21685 0.21489
# Poissons Ratio (z) = -0.29307 0.68515
#
# Static dielectric constant tensor:
#      x y z
#    x 1.562180 0.000000 0.025330 
#    y 0.000000 1.555300 0.000000 
#    z 0.025330 0.000000 1.543520 
# 
# From -- ./inp_files/178332.got.cif
#   From: 2010.05.17/outbox.cif.g08.bks.cpg/sg12_90_cif.got.tgz:178332.got - 2010.06.03 13:09:07.
