data_PCOD9168964
_publ_section_title
;
Structure prediction by ZEFSAII (Michael W. Deem and Ramdas Pophale) SiO2 
 PCOD9168964
Probable space group: C 2/M
;
_chemical_formula_sum "Si O2"
_cell_formula_units_Z 56
_cell_length_a 19.338102
_cell_length_b 17.962226
_cell_length_c 13.546423
_cell_angle_alpha 90.000000
_cell_angle_beta 47.519813
_cell_angle_gamma 90.000000
_cell_volume 3470.300532
_symmetry_space_group_name_H-M "C 2/M"
_symmetry_group_IT_number 12
_symmetry_cell_setting 'monoclinic'
loop_
_space_group_symop_operation_xyz
x,y,z
-x,y,-z
-x,-y,-z
x,-y,z
1/2+x,1/2+y,z
1/2-x,1/2+y,-z
1/2-x,1/2-y,-z
1/2+x,1/2-y,z
loop_
_atom_site_type_symbol
_atom_site_label
_atom_site_fract_x
_atom_site_fract_y
_atom_site_fract_z
Si Si1 0.379364 0.082968 0.519748
Si Si2 0.705623 0.415539 0.535381
Si Si3 0.734605 0.834117 0.722411
Si Si4 0.415731 0.087633 0.002024
Si Si5 0.149474 0.765324 0.650518
Si Si6 0.894264 0.274564 0.639414
Si Si7 0.521809 0.166101 0.257752
O O1 0.298040 0.085016 0.515497
O O2 0.364687 0.149782 0.610727
O O3 0.475816 0.101833 0.370225
O O4 0.381263 0.000000 0.561075
O O5 0.670104 0.500000 0.566182
O O6 0.734793 0.387086 0.398371
O O7 0.638040 0.353542 0.648789
O O8 0.666264 0.770836 0.741014
O O9 0.823780 0.790719 0.679064
O O10 0.677234 0.880572 0.857257
O O11 0.440625 0.132351 0.879313
O O12 0.407038 0.000000 0.988825
O O13 0.500000 0.096253 0.000000
O O14 0.250000 0.750000 0.500000
O O15 0.065027 0.721578 0.680932
O O16 0.000000 0.257480 0.500000
O O17 0.903033 0.292119 0.746674
#
# Coordination Sequence:
#
# PCOD9168964 Si02
#       7
#     8   8   8   8   8   8   8
#     4  10  17  28  47  75 106 134 163 209 268 312
#     4  10  17  28  51  78 101 129 171 218 263 303
#     4  11  19  34  53  74 107 141 173 213 254 310
#     4  11  22  35  54  81 107 136 172 210 259 312
#     4  10  16  31  51  72  99 135 170 209 253 299
#     4  10  21  33  51  77 104 139 176 215 261 313
#     4  11  20  33  50  74 107 139 171 213 253 309
#
# _framework density 16.13693
#
# number of rings (size 3 to 8) (size 9 to 14) (size 15 to 20)
#    0.000    1.571    5.714    3.429    0.000    6.000 
#    0.000    0.000    0.000    7.714    0.000    3.000 
#    0.000    0.000    0.000    0.000    0.000    0.000 
#
# Total GULP energy -156112.529375 kJ/mol
# GULP energy per Si atom -5575.447478 kJ/mol
# Density = 1.610020 g / cm^3
# Si number density = 16.136930 Si / 1000 Ang^3
#
#
#
# Elastic Constant Matrix: (Units=GPa)
#
#
# Indices 1 2 3 4 5 6 
#
# 1 93.7834 49.8618 28.5451 0.0000 12.3001 0.0000
# 2 49.8618 121.8531 32.1119 0.0000 0.6476 0.0000
# 3 28.5451 32.1119 48.2024 0.0000 14.0097 0.0000
# 4 0.0000 0.0000 0.0000 23.3772 0.0000 0.3363
# 5 12.3001 0.6476 14.0097 0.0000 19.2836 0.0000
# 6 0.0000 0.0000 0.0000 0.3363 0.0000 21.5665
#
#
#
# Elastic Compliance Matrix: (Units=1/GPa)
#
#
# Indices 1 2 3 4 5 6 
#
# 1 0.015544 -0.005393 -0.003529 0.000000 -0.007170 0.000000
# 2 -0.005393 0.012342 -0.007489 0.000000 0.008466 0.000000
# 3 -0.003529 -0.007489 0.034351 0.000000 -0.022454 0.000000
# 4 0.000000 0.000000 0.000000 0.042786 0.000000 -0.000667
# 5 -0.007170 0.008466 -0.022454 0.000000 0.072460 0.000000
# 6 0.000000 0.000000 0.000000 -0.000667 0.000000 0.046379
#
#
# Mechanical properties :
#
#
# Convention : Reuss Voigt Hill
#
# Bulk Modulus (GPa) = 33.99516 53.87518 43.93517
# Shear Modulus (GPa) = 18.76252 23.06679 20.91465
#
# Velocity S-wave (km/s) = 3.41355 3.78490 3.60401
# Velocity P-wave (km/s) = 6.05383 7.24978 6.67863
#
# Compressibility (1/GPa) = 0.02941595
#
# Stress axis : x y z
#
# Youngs Moduli (GPa) = 64.33156 81.02482 29.11133
#
# Poissons Ratio (x) = 0.43694 0.10273
# Poissons Ratio (y) = 0.34692 0.21802
# Poissons Ratio (z) = 0.22701 0.60681
#
# Static dielectric constant tensor:
#      x y z
#    x 1.556750 0.000000 0.023330 
#    y 0.000000 1.578330 0.000000 
#    z 0.023330 0.000000 1.531850 
# 
# From -- ./inp_files/157742.got.cif
#   From: 2010.05.17/outbox.cif.g08.bks.cpg/sg12_79_cif.got.tgz:157742.got - 2010.06.03 13:09:07.
