data_PCOD9168052
_publ_section_title
;
Structure prediction by ZEFSAII (Michael W. Deem and Ramdas Pophale) SiO2 
 PCOD9168052
Probable space group: P 21/M
;
_chemical_formula_sum "Si O2"
_cell_formula_units_Z 32
_cell_length_a 9.000000
_cell_length_b 15.000000
_cell_length_c 12.000000
_cell_angle_alpha 90.000000
_cell_angle_beta 90.000000
_cell_angle_gamma 90.000000
_cell_volume 1620.000000
_symmetry_space_group_name_H-M "P 21/M"
_symmetry_group_IT_number 11
_symmetry_cell_setting 'monoclinic'
loop_
_space_group_symop_operation_xyz
x,y,z
-x,1/2+y,-z
-x,-y,-z
x,1/2-y,z
loop_
_atom_site_type_symbol
_atom_site_label
_atom_site_fract_x
_atom_site_fract_y
_atom_site_fract_z
Si Si1 0.826205 0.487190 0.209018
Si Si2 0.371754 0.354119 0.716339
Si Si3 0.725808 0.457736 0.969493
Si Si4 0.435417 0.356268 0.066730
Si Si5 0.726726 0.357691 0.742382
Si Si6 0.675021 0.644354 0.545935
Si Si7 0.409964 0.851574 0.696366
Si Si8 0.091134 0.998481 0.383376
O O1 0.731793 0.579439 0.213844
O O2 0.722789 0.416980 0.275053
O O3 0.976498 0.492798 0.280061
O O4 0.831056 0.457820 0.079165
O O5 0.348685 0.250000 0.744903
O O6 0.547986 0.372895 0.730699
O O7 0.326159 0.367100 0.587192
O O8 0.682797 0.562200 0.947224
O O9 0.776333 0.407349 0.857062
O O10 0.579721 0.398733 0.004455
O O11 0.407373 0.250000 0.034772
O O12 0.481027 0.353457 0.196553
O O13 0.750907 0.250000 0.744067
O O14 0.814424 0.408569 0.643300
O O15 0.700226 0.750000 0.569776
O O16 0.510983 0.622033 0.592022
O O17 0.793755 0.580504 0.604760
O O18 0.357291 0.750000 0.681447
O O19 0.000000 0.000000 0.500000
#
# Coordination Sequence:
#
# PCOD9168052 Si02
#       8
#     4   4   4   4   4   4   4   4
#     4  11  23  38  62  93 129 165 205 254 308 372
#     4  10  21  38  63  93 123 163 210 259 312 366
#     4  10  20  36  59  89 125 169 208 255 309 370
#     4   9  16  30  56  92 127 158 204 264 318 360
#     4  11  25  44  66  92 124 163 210 257 313 380
#     4  10  21  39  62  88 124 163 208 259 308 370
#     4   9  19  35  59  90 119 156 205 258 310 363
#     4  12  26  42  62  90 126 171 206 256 315 372
#
# _framework density 19.753086
#
# number of rings (size 3 to 8) (size 9 to 14) (size 15 to 20)
#    0.000    1.750    1.250    4.125    1.750    5.000 
#    0.000    0.000    0.000    1.500    0.000    0.000 
#    0.000    0.000    0.000    0.000    0.000    0.000 
#
# Total GULP energy -178709.741639 kJ/mol
# GULP energy per Si atom -5584.679426 kJ/mol
# Density = 1.970813 g / cm^3
# Si number density = 19.753086 Si / 1000 Ang^3
#
#
#
# Elastic Constant Matrix: (Units=GPa)
#
#
# Indices 1 2 3 4 5 6 
#
# 1 63.8592 39.6041 28.5362 0.0000 21.7513 0.0000
# 2 39.6041 127.8223 35.1965 0.0000 8.2009 0.0000
# 3 28.5362 35.1965 80.4080 0.0000 -0.6491 0.0000
# 4 0.0000 0.0000 0.0000 34.7176 0.0000 -0.3100
# 5 21.7513 8.2009 -0.6491 0.0000 33.2201 0.0000
# 6 0.0000 0.0000 0.0000 -0.3100 0.0000 18.2287
#
#
#
# Elastic Compliance Matrix: (Units=1/GPa)
#
#
# Indices 1 2 3 4 5 6 
#
# 1 0.028578 -0.005572 -0.007844 0.000000 -0.017489 0.000000
# 2 -0.005572 0.010157 -0.002460 0.000000 0.001093 0.000000
# 3 -0.007844 -0.002460 0.016346 0.000000 0.006062 0.000000
# 4 0.000000 0.000000 0.000000 0.028808 0.000000 0.000490
# 5 -0.017489 0.001093 0.006062 0.000000 0.041402 0.000000
# 6 0.000000 0.000000 0.000000 0.000490 0.000000 0.054867
#
#
# Mechanical properties :
#
#
# Convention : Reuss Voigt Hill
#
# Bulk Modulus (GPa) = 42.86585 53.19590 48.03088
# Shear Modulus (GPa) = 22.75982 28.48348 25.62165
#
# Velocity S-wave (km/s) = 3.39811 3.80146 3.60543
# Velocity P-wave (km/s) = 6.09460 6.80125 6.45760
#
# Compressibility (1/GPa) = 0.02332859
#
# Stress axis : x y z
#
# Youngs Moduli (GPa) = 34.99252 98.45416 61.17756
#
# Poissons Ratio (x) = 0.54863 0.47987
# Poissons Ratio (y) = 0.19499 0.15047
# Poissons Ratio (z) = 0.27448 0.24215
#
# Static dielectric constant tensor:
#      x y z
#    x 1.695690 0.000000 -0.012920 
#    y 0.000000 1.691850 0.000000 
#    z -0.012920 0.000000 1.722950 
# 
# From -- ./inp_files/31899.got.cif
#   From: 2010.05.17/outbox.ucp.g08.bks.cvg/sg11_16_cif.got.tgz:31899.got - 2010.06.11 11:38:39.
