data_PCOD9168809
_publ_section_title
;
Structure prediction by ZEFSAII (Michael W. Deem and Ramdas Pophale) SiO2 
 PCOD9168809
Probable space group: C 2/M
;
_chemical_formula_sum "Si O2"
_cell_formula_units_Z 38
_cell_length_a 14.178880
_cell_length_b 16.030198
_cell_length_c 9.918065
_cell_angle_alpha 90.000000
_cell_angle_beta 51.390566
_cell_angle_gamma 90.000000
_cell_volume 1761.533995
_symmetry_space_group_name_H-M "C 2/M"
_symmetry_group_IT_number 12
_symmetry_cell_setting 'monoclinic'
loop_
_space_group_symop_operation_xyz
x,y,z
-x,y,-z
-x,-y,-z
x,-y,z
1/2+x,1/2+y,z
1/2-x,1/2+y,-z
1/2-x,1/2-y,-z
1/2+x,1/2-y,z
loop_
_atom_site_type_symbol
_atom_site_label
_atom_site_fract_x
_atom_site_fract_y
_atom_site_fract_z
Si Si1 0.704314 0.155346 0.514272
Si Si2 0.632475 0.656247 0.246884
Si Si3 0.500000 0.500000 0.500000
Si Si4 0.543195 0.593005 0.808637
Si Si5 0.000000 0.695225 0.500000
Si Si6 0.363764 0.901610 0.127817
O O1 0.750000 0.250000 0.500000
O O2 0.817591 0.114997 0.335615
O O3 0.580406 0.148620 0.539675
O O4 0.683005 0.114761 0.678917
O O5 0.594847 0.575528 0.370285
O O6 0.546822 0.650771 0.194047
O O7 0.598005 0.741997 0.348276
O O8 0.774843 0.645686 0.104637
O O9 0.528073 0.500000 0.759992
O O10 0.500000 0.591749 0.000000
O O11 0.365181 0.000000 0.095995
O O12 0.500000 0.869294 0.000000
#
# Coordination Sequence:
#
# PCOD9168809 Si02
#       6
#     8   8   2   8   4   8
#     4  12  23  42  64  94 132 164 212 261 325 372
#     4  11  19  37  66  92 123 163 225 269 296 373
#     4  10  16  28  68  92 106 160 222 264 302 336
#     4  11  24  41  66  98 128 166 215 268 320 377
#     4  11  24  39  61  98 125 168 214 258 315 392
#     4  11  24  41  66  98 128 166 215 268 320 377
#
# _framework density 21.572106000000002
#
# number of rings (size 3 to 8) (size 9 to 14) (size 15 to 20)
#    0.000    0.842    6.316    1.895    0.000    2.526 
#    0.000    6.316    0.000    0.000    0.000    0.000 
#    0.000    0.000    0.000    0.000    0.000    0.000 
#
# Total GULP energy -105941.258515 kJ/mol
# GULP energy per Si atom -5575.855711 kJ/mol
# Density = 2.152301 g / cm^3
# Si number density = 21.572106 Si / 1000 Ang^3
#
#
#
# Elastic Constant Matrix: (Units=GPa)
#
#
# Indices 1 2 3 4 5 6 
#
# 1 159.6572 -0.3887 23.1962 0.0000 -13.9741 0.0000
# 2 -0.3887 14.6122 2.5437 0.0000 0.0302 0.0000
# 3 23.1962 2.5437 55.8435 0.0000 -25.8697 0.0000
# 4 0.0000 0.0000 0.0000 14.0910 0.0000 0.5363
# 5 -13.9741 0.0302 -25.8697 0.0000 37.9156 0.0000
# 6 0.0000 0.0000 0.0000 0.5363 0.0000 14.1357
#
#
#
# Elastic Compliance Matrix: (Units=1/GPa)
#
#
# Indices 1 2 3 4 5 6 
#
# 1 0.006689 0.000600 -0.002433 0.000000 0.000805 0.000000
# 2 0.000600 0.069306 -0.004868 0.000000 -0.003155 0.000000
# 3 -0.002433 -0.004868 0.027380 0.000000 0.017789 0.000000
# 4 0.000000 0.000000 0.000000 0.071070 0.000000 -0.002696
# 5 0.000805 -0.003155 0.017789 0.000000 0.038811 0.000000
# 6 0.000000 0.000000 0.000000 -0.002696 0.000000 0.070845
#
#
# Mechanical properties :
#
#
# Convention : Reuss Voigt Hill
#
# Bulk Modulus (GPa) = 11.11442 31.20168 21.15805
# Shear Modulus (GPa) = 15.26747 26.87924 21.07336
#
# Velocity S-wave (km/s) = 2.66323 3.53373 3.12890
# Velocity P-wave (km/s) = 3.82367 5.58077 4.78359
#
# Compressibility (1/GPa) = 0.08997322
#
# Stress axis : x y z
#
# Youngs Moduli (GPa) = 149.50399 14.42876 36.52282
#
# Poissons Ratio (x) = -0.00865 0.08886
# Poissons Ratio (y) = -0.08967 0.17779
# Poissons Ratio (z) = 0.36373 0.07024
#
# Static dielectric constant tensor:
#      x y z
#    x 1.880880 0.000000 0.031900 
#    y 0.000000 1.805740 0.000000 
#    z 0.031900 0.000000 1.823870 
# 
# From -- ./inp_files/60921.got.cif
#   From: 2010.05.17/outbox.cif.g08.bks.cpg/sg12_31_cif.got.tgz:60921.got - 2010.06.03 13:09:07.
