data_PCOD9168045
_publ_section_title
;
Structure prediction by ZEFSAII (Michael W. Deem and Ramdas Pophale) SiO2 
 PCOD9168045
Probable space group: P 21/M
;
_chemical_formula_sum "Si O2"
_cell_formula_units_Z 32
_cell_length_a 12.000000
_cell_length_b 9.000000
_cell_length_c 30.000000
_cell_angle_alpha 90.000000
_cell_angle_beta 150.000000
_cell_angle_gamma 90.000000
_cell_volume 1620.000000
_symmetry_space_group_name_H-M "P 21/M"
_symmetry_group_IT_number 11
_symmetry_cell_setting 'monoclinic'
loop_
_space_group_symop_operation_xyz
x,y,z
-x,1/2+y,-z
-x,-y,-z
x,1/2-y,z
loop_
_atom_site_type_symbol
_atom_site_label
_atom_site_fract_x
_atom_site_fract_y
_atom_site_fract_z
Si Si1 0.740059 0.927111 0.077452
Si Si2 0.824915 0.920467 0.629561
Si Si3 0.756135 0.570684 0.419175
Si Si4 0.212077 0.077489 0.807746
Si Si5 0.555661 0.926318 0.868755
Si Si6 0.443430 0.075865 0.552885
Si Si7 0.967985 0.930977 0.065349
Si Si8 0.519769 0.070791 0.764923
O O1 0.712188 0.750000 0.062852
O O2 0.861332 0.952049 0.166820
O O3 0.868235 0.981475 0.078242
O O4 0.500000 0.000000 0.000000
O O5 0.893596 0.750000 0.662210
O O6 0.747182 0.928439 0.551307
O O7 0.627948 0.968806 0.595087
O O8 0.017017 0.036175 0.706666
O O9 0.774567 0.750000 0.425213
O O10 0.640002 0.533349 0.426586
O O11 0.615567 0.526836 0.326325
O O12 0.000000 0.500000 0.500000
O O13 0.277483 0.250000 0.827192
O O14 0.413077 0.972791 0.862412
O O15 0.553450 0.750000 0.861912
O O16 0.453630 0.002586 0.789635
O O17 0.804711 0.977575 0.968683
O O18 0.520905 0.250000 0.581519
O O19 0.966455 0.750000 0.064830
O O20 0.222738 0.977492 0.150373
O O21 0.509425 0.250000 0.764265
#
# Coordination Sequence:
#
# PCOD9168045 Si02
#       8
#     4   4   4   4   4   4   4   4
#     4  10  20  36  58  84 116 154 190 234 287 344
#     4  10  21  37  60  90 121 153 191 242 293 351
#     4  10  23  41  63  87 117 156 198 247 295 349
#     4  11  23  36  58  88 120 157 196 240 288 351
#     4  11  22  38  60  85 120 158 196 247 295 347
#     4   9  20  40  62  86 116 153 195 240 298 356
#     4   9  19  37  61  86 116 152 193 241 293 348
#     4  10  22  40  62  87 114 152 201 247 296 352
#
# _framework density 19.753086
#
# number of rings (size 3 to 8) (size 9 to 14) (size 15 to 20)
#    0.000    2.000    1.250    1.500    3.500    2.000 
#    0.000    1.250    0.000    0.000    0.000    0.000 
#    0.000    0.000    0.000    0.000    0.000    0.000 
#
# Total GULP energy -178514.488594 kJ/mol
# GULP energy per Si atom -5578.577769 kJ/mol
# Density = 1.970813 g / cm^3
# Si number density = 19.753086 Si / 1000 Ang^3
#
#
#
# Elastic Constant Matrix: (Units=GPa)
#
#
# Indices 1 2 3 4 5 6 
#
# 1 104.9189 15.7782 33.0017 0.0000 -28.7365 0.0000
# 2 15.7782 19.2879 17.0941 0.0000 -14.6061 0.0000
# 3 33.0017 17.0941 91.8915 0.0000 -19.5258 0.0000
# 4 0.0000 0.0000 0.0000 25.7252 0.0000 0.8066
# 5 -28.7365 -14.6061 -19.5258 0.0000 29.0464 0.0000
# 6 0.0000 0.0000 0.0000 0.8066 0.0000 28.0798
#
#
#
# Elastic Compliance Matrix: (Units=1/GPa)
#
#
# Indices 1 2 3 4 5 6 
#
# 1 0.013493 -0.000077 -0.002337 0.000000 0.011740 0.000000
# 2 -0.000077 0.088723 -0.008182 0.000000 0.039039 0.000000
# 3 -0.002337 -0.008182 0.013858 0.000000 0.002889 0.000000
# 4 0.000000 0.000000 0.000000 0.038907 0.000000 -0.001118
# 5 0.011740 0.039039 0.002889 0.000000 0.067615 0.000000
# 6 0.000000 0.000000 0.000000 -0.001118 0.000000 0.035645
#
#
# Mechanical properties :
#
#
# Convention : Reuss Voigt Hill
#
# Bulk Modulus (GPa) = 10.53937 38.64958 24.59448
# Shear Modulus (GPa) = 16.07410 26.58522 21.32966
#
# Velocity S-wave (km/s) = 2.85573 3.67260 3.28962
# Velocity P-wave (km/s) = 4.02749 6.13130 5.18717
#
# Compressibility (1/GPa) = 0.09488233
#
# Stress axis : x y z
#
# Youngs Moduli (GPa) = 74.11123 11.27108 72.16212
#
# Poissons Ratio (x) = 0.00086 0.16865
# Poissons Ratio (y) = 0.00567 0.59042
# Poissons Ratio (z) = 0.17321 0.09222
#
# Static dielectric constant tensor:
#      x y z
#    x 1.700650 0.000000 0.017020 
#    y 0.000000 1.667030 0.000000 
#    z 0.017020 0.000000 1.735750 
# 
# From -- ./inp_files/45287.got.cif
#   From: 2010.05.17/outbox.ucp.g08.bks.cvg/sg11_23_cif.got.tgz:45287.got - 2010.06.11 11:38:39.
