data_PCOD9168545
_publ_section_title
;
Structure prediction by ZEFSAII (Michael W. Deem and Ramdas Pophale) SiO2 
 PCOD9168545
Probable space group: C 2/M
;
_chemical_formula_sum "Si O2"
_cell_formula_units_Z 56
_cell_length_a 35.910884
_cell_length_b 7.749188
_cell_length_c 14.373867
_cell_angle_alpha 90.000000
_cell_angle_beta 54.061628
_cell_angle_gamma 90.000000
_cell_volume 3238.564625
_symmetry_space_group_name_H-M "C 2/M"
_symmetry_group_IT_number 12
_symmetry_cell_setting 'monoclinic'
loop_
_space_group_symop_operation_xyz
x,y,z
-x,y,-z
-x,-y,-z
x,-y,z
1/2+x,1/2+y,z
1/2-x,1/2+y,-z
1/2-x,1/2-y,-z
1/2+x,1/2-y,z
loop_
_atom_site_type_symbol
_atom_site_label
_atom_site_fract_x
_atom_site_fract_y
_atom_site_fract_z
Si Si1 0.483886 0.211396 0.422388
Si Si2 0.106763 0.292205 0.546304
Si Si3 0.894367 0.704878 0.081689
Si Si4 0.195360 0.200051 0.687338
Si Si5 0.964243 0.710028 0.837981
Si Si6 0.702859 0.703829 0.466533
Si Si7 0.944477 0.710356 0.191987
O O1 0.500000 0.269166 0.500000
O O2 0.431913 0.264258 0.470735
O O3 0.517821 0.268863 0.289086
O O4 0.484164 0.000000 0.422025
O O5 0.106703 0.500000 0.545760
O O6 0.159314 0.234592 0.464668
O O7 0.087503 0.234718 0.675146
O O8 0.902341 0.500000 0.068685
O O9 0.841344 0.728138 0.186249
O O10 0.923803 0.774789 0.125995
O O11 0.916171 0.769630 0.953036
O O12 0.248573 0.220395 0.636752
O O13 0.192060 0.275744 0.586805
O O14 0.183829 0.000000 0.696419
O O15 0.964036 0.500000 0.831492
O O16 0.003945 0.757102 0.854420
O O17 0.710239 0.500000 0.465299
O O18 0.943692 0.500000 0.190536
#
# Coordination Sequence:
#
# PCOD9168545 Si02
#       7
#     8   8   8   8   8   8   8
#     4   8  14  25  42  67  94 114 139 178 216 251
#     4   9  15  25  43  64  86 114 145 176 213 251
#     4  10  16  24  40  60  84 114 147 178 207 242
#     4  10  20  30  41  58  85 117 147 177 212 253
#     4   8  14  22  36  60  85 113 146 175 206 247
#     4  10  19  30  43  60  83 113 148 181 212 249
#     4   8  13  21  35  57  83 110 142 175 201 235
#
# _framework density 17.291611
#
# number of rings (size 3 to 8) (size 9 to 14) (size 15 to 20)
#    0.000    3.000    1.429    3.000    0.000    2.857 
#    0.000    0.000    0.000    5.571    0.000    1.000 
#    0.000    0.000    0.000    0.000    0.000    0.000 
#
# Total GULP energy -155930.472418 kJ/mol
# GULP energy per Si atom -5568.945443 kJ/mol
# Density = 1.725226 g / cm^3
# Si number density = 17.291611 Si / 1000 Ang^3
#
#
#
# Elastic Constant Matrix: (Units=GPa)
#
#
# Indices 1 2 3 4 5 6 
#
# 1 94.7080 -1.0615 68.0246 0.0000 -3.4542 0.0000
# 2 -1.0615 21.3087 -0.4021 0.0000 5.1321 0.0000
# 3 68.0246 -0.4021 114.6924 0.0000 -16.6478 0.0000
# 4 0.0000 0.0000 0.0000 6.8472 0.0000 -4.5487
# 5 -3.4542 5.1321 -16.6478 0.0000 18.5888 0.0000
# 6 0.0000 0.0000 0.0000 -4.5487 0.0000 8.5660
#
#
#
# Elastic Compliance Matrix: (Units=1/GPa)
#
#
# Indices 1 2 3 4 5 6 
#
# 1 0.019453 0.002799 -0.012776 0.000000 -0.008600 0.000000
# 2 0.002799 0.051124 -0.003970 0.000000 -0.017150 0.000000
# 3 -0.012776 -0.003970 0.018502 0.000000 0.015293 0.000000
# 4 0.000000 0.000000 0.000000 0.225640 0.000000 0.119818
# 5 -0.008600 -0.017150 0.015293 0.000000 0.070628 0.000000
# 6 0.000000 0.000000 0.000000 0.119818 0.000000 0.180366
#
#
# Mechanical properties :
#
#
# Convention : Reuss Voigt Hill
#
# Bulk Modulus (GPa) = 16.34383 40.42566 28.38475
# Shear Modulus (GPa) = 8.14326 17.74361 12.94343
#
# Velocity S-wave (km/s) = 2.17246 3.20682 2.73891
# Velocity P-wave (km/s) = 3.97054 6.09435 5.14326
#
# Compressibility (1/GPa) = 0.06118516
#
# Stress axis : x y z
#
# Youngs Moduli (GPa) = 51.40574 19.56015 54.04697
#
# Poissons Ratio (x) = -0.05475 0.69052
# Poissons Ratio (y) = -0.14390 0.21459
# Poissons Ratio (z) = 0.65677 0.07766
#
# Static dielectric constant tensor:
#      x y z
#    x 1.579610 0.000000 -0.017590 
#    y 0.000000 1.640290 0.000000 
#    z -0.017590 0.000000 1.615970 
# 
# From -- ./inp_files/247914.got.cif
#   From: 2010.05.17/outbox.cif.g08.bks.cpg/sg12_124_cif.got.tgz:247914.got - 2010.06.03 13:09:07.
