data_PCOD9168463
_publ_section_title
;
Structure prediction by ZEFSAII (Michael W. Deem and Ramdas Pophale) SiO2 
 PCOD9168463
Probable space group: C 2/M
;
_chemical_formula_sum "Si O2"
_cell_formula_units_Z 44
_cell_length_a 14.481477
_cell_length_b 20.895278
_cell_length_c 8.970005
_cell_angle_alpha 90.000000
_cell_angle_beta 107.596109
_cell_angle_gamma 90.000000
_cell_volume 2587.276441
_symmetry_space_group_name_H-M "C 2/M"
_symmetry_group_IT_number 12
_symmetry_cell_setting 'monoclinic'
loop_
_space_group_symop_operation_xyz
x,y,z
-x,y,-z
-x,-y,-z
x,-y,z
1/2+x,1/2+y,z
1/2-x,1/2+y,-z
1/2-x,1/2-y,-z
1/2+x,1/2-y,z
loop_
_atom_site_type_symbol
_atom_site_label
_atom_site_fract_x
_atom_site_fract_y
_atom_site_fract_z
Si Si1 0.000000 0.613637 0.500000
Si Si2 0.817210 0.572396 0.592100
Si Si3 0.860908 0.692833 0.208777
Si Si4 0.519306 0.725777 0.171000
Si Si5 0.897082 0.361452 0.910917
Si Si6 0.211841 0.189650 0.386441
O O1 0.921791 0.575994 0.560157
O O2 0.935299 0.655833 0.355148
O O3 0.781177 0.500000 0.568689
O O4 0.834885 0.597108 0.768351
O O5 0.750417 0.624504 0.477719
O O6 0.761531 0.698243 0.248725
O O7 0.917538 0.758185 0.198452
O O8 0.849895 0.657347 0.045153
O O9 0.569739 0.795303 0.156285
O O10 0.596885 0.691167 0.310880
O O11 0.500000 0.695430 0.000000
O O12 0.000000 0.394196 0.000000
O O13 0.250000 0.250000 0.500000
#
# Coordination Sequence:
#
# PCOD9168463 Si02
#       6
#     4   8   8   8   8   8
#     4  10  15  32  46  72 106 142 167 204 265 318
#     4  11  21  32  49  74 107 141 177 215 261 320
#     4   9  18  30  55  76 108 135 173 213 249 324
#     4   9  17  32  52  76 107 132 174 213 257 305
#     4   9  16  32  46  72 103 138 170 204 257 314
#     4  11  20  34  54  80 108 139 173 216 265 308
#
# _framework density 17.006301000000001
#
# number of rings (size 3 to 8) (size 9 to 14) (size 15 to 20)
#    0.000    2.545    5.455    1.364    0.000    3.273 
#    0.000    0.909    0.000    0.545    0.000    2.545 
#    0.000    0.000    0.000    0.000    0.000    0.000 
#
# Total GULP energy -122591.301970 kJ/mol
# GULP energy per Si atom -5572.331908 kJ/mol
# Density = 1.696759 g / cm^3
# Si number density = 17.006301 Si / 1000 Ang^3
#
#
#
# Elastic Constant Matrix: (Units=GPa)
#
#
# Indices 1 2 3 4 5 6 
#
# 1 37.4994 13.6287 26.9805 0.0000 -0.6123 0.0000
# 2 13.6287 61.1567 21.2608 0.0000 7.6640 0.0000
# 3 26.9805 21.2608 82.8295 0.0000 -5.8158 0.0000
# 4 0.0000 0.0000 0.0000 12.9734 0.0000 4.0220
# 5 -0.6123 7.6640 -5.8158 0.0000 33.7573 0.0000
# 6 0.0000 0.0000 0.0000 4.0220 0.0000 12.5677
#
#
#
# Elastic Compliance Matrix: (Units=1/GPa)
#
#
# Indices 1 2 3 4 5 6 
#
# 1 0.035838 -0.004280 -0.010589 0.000000 -0.000203 0.000000
# 2 -0.004280 0.019313 -0.003924 0.000000 -0.005138 0.000000
# 3 -0.010589 -0.003924 0.016782 0.000000 0.003590 0.000000
# 4 0.000000 0.000000 0.000000 0.085571 0.000000 -0.027385
# 5 -0.000203 -0.005138 0.003590 0.000000 0.031405 0.000000
# 6 0.000000 0.000000 0.000000 -0.027385 0.000000 0.088333
#
#
# Mechanical properties :
#
#
# Convention : Reuss Voigt Hill
#
# Bulk Modulus (GPa) = 29.11495 33.91395 31.51445
# Shear Modulus (GPa) = 15.32439 19.83405 17.57922
#
# Velocity S-wave (km/s) = 3.00509 3.41878 3.21859
# Velocity P-wave (km/s) = 5.40352 5.96401 5.69067
#
# Compressibility (1/GPa) = 0.03434662
#
# Stress axis : x y z
#
# Youngs Moduli (GPa) = 27.90317 51.77777 59.58877
#
# Poissons Ratio (x) = 0.22159 0.63101
# Poissons Ratio (y) = 0.11942 0.23383
# Poissons Ratio (z) = 0.29548 0.20318
#
# Static dielectric constant tensor:
#      x y z
#    x 1.597980 0.000000 -0.008220 
#    y 0.000000 1.570610 0.000000 
#    z -0.008220 0.000000 1.612550 
# 
# From -- ./inp_files/62829.got.cif
#   From: 2010.05.17/outbox.cif.g08.bks.cpg/sg12_32_cif.got.tgz:62829.got - 2010.06.03 13:09:07.
