data_PCOD9168830
_publ_section_title
;
Structure prediction by ZEFSAII (Michael W. Deem and Ramdas Pophale) SiO2 
 PCOD9168830
Probable space group: C 2/M
;
_chemical_formula_sum "Si O2"
_cell_formula_units_Z 48
_cell_length_a 21.602016
_cell_length_b 18.391175
_cell_length_c 8.292602
_cell_angle_alpha 90.000000
_cell_angle_beta 138.908159
_cell_angle_gamma 90.000000
_cell_volume 2165.394479
_symmetry_space_group_name_H-M "C 2/M"
_symmetry_group_IT_number 12
_symmetry_cell_setting 'monoclinic'
loop_
_space_group_symop_operation_xyz
x,y,z
-x,y,-z
-x,-y,-z
x,-y,z
1/2+x,1/2+y,z
1/2-x,1/2+y,-z
1/2-x,1/2-y,-z
1/2+x,1/2-y,z
loop_
_atom_site_type_symbol
_atom_site_label
_atom_site_fract_x
_atom_site_fract_y
_atom_site_fract_z
Si Si1 0.799307 0.719027 0.255085
Si Si2 0.582190 0.165840 0.966996
Si Si3 0.743572 0.917431 0.399139
Si Si4 0.989935 0.799197 0.652358
Si Si5 0.868442 0.192770 0.819472
Si Si6 0.892796 0.418363 0.553828
O O1 0.883955 0.773294 0.468087
O O2 0.720158 0.709955 0.237137
O O3 0.846825 0.639336 0.341350
O O4 0.750000 0.750000 0.000000
O O5 0.678612 0.122105 0.139057
O O6 0.598565 0.223569 0.148904
O O7 0.551385 0.223763 0.769702
O O8 0.495751 0.110619 0.805891
O O9 0.829287 0.865893 0.619430
O O10 0.673317 0.920368 0.416822
O O11 0.769785 0.000000 0.409785
O O12 0.000000 0.836572 0.500000
O O13 0.043295 0.837896 0.903823
O O14 0.899009 0.500000 0.501474
#
# Coordination Sequence:
#
# PCOD9168830 Si02
#       6
#     8   8   8   8   8   8
#     4  10  16  29  50  70  96 135 158 199 241 285
#     4   9  17  28  47  69  99 125 157 199 244 295
#     4  10  18  30  48  72 102 130 158 203 250 291
#     4   9  17  29  47  72  97 121 161 204 239 280
#     4   9  19  29  48  73 102 122 171 197 238 293
#     4   9  18  29  46  75 101 123 158 205 257 292
#
# _framework density 22.166861999999998
#
# number of rings (size 3 to 8) (size 9 to 14) (size 15 to 20)
#    1.000    1.667    1.667    1.500    0.000    1.333 
#    0.000    0.000    0.000   29.000    0.000    1.167 
#    0.000    0.000    0.000    0.000    0.000    0.000 
#
# Total GULP energy -133815.024667 kJ/mol
# GULP energy per Si atom -5575.626028 kJ/mol
# Density = 2.211641 g / cm^3
# Si number density = 22.166862 Si / 1000 Ang^3
#
#
#
# Elastic Constant Matrix: (Units=GPa)
#
#
# Indices 1 2 3 4 5 6 
#
# 1 38.1760 18.7130 33.7343 0.0000 6.2506 0.0000
# 2 18.7130 142.5928 78.0742 0.0000 3.7594 0.0000
# 3 33.7343 78.0742 187.4856 0.0000 19.5659 0.0000
# 4 0.0000 0.0000 0.0000 28.2283 0.0000 6.0360
# 5 6.2506 3.7594 19.5659 0.0000 33.2474 0.0000
# 6 0.0000 0.0000 0.0000 6.0360 0.0000 17.1714
#
#
#
# Elastic Compliance Matrix: (Units=1/GPa)
#
#
# Indices 1 2 3 4 5 6 
#
# 1 0.031611 -0.001458 -0.004771 0.000000 -0.002971 0.000000
# 2 -0.001458 0.009203 -0.003718 0.000000 0.001422 0.000000
# 3 -0.004771 -0.003718 0.008101 0.000000 -0.003450 0.000000
# 4 0.000000 0.000000 0.000000 0.038305 0.000000 -0.013465
# 5 -0.002971 0.001422 -0.003450 0.000000 0.032505 0.000000
# 6 0.000000 0.000000 0.000000 -0.013465 0.000000 0.062969
#
#
# Mechanical properties :
#
#
# Convention : Reuss Voigt Hill
#
# Bulk Modulus (GPa) = 34.45846 69.92195 52.19021
# Shear Modulus (GPa) = 23.55588 31.57828 27.56708
#
# Velocity S-wave (km/s) = 3.26339 3.77844 3.53032
# Velocity P-wave (km/s) = 5.45696 7.11670 6.34137
#
# Compressibility (1/GPa) = 0.02902045
#
# Stress axis : x y z
#
# Youngs Moduli (GPa) = 31.63444 108.66337 123.44867
#
# Poissons Ratio (x) = 0.15844 0.58892
# Poissons Ratio (y) = 0.04613 0.45902
# Poissons Ratio (z) = 0.15091 0.40404
#
# Static dielectric constant tensor:
#      x y z
#    x 1.898220 0.000000 -0.025930 
#    y 0.000000 1.807760 0.000000 
#    z -0.025930 0.000000 1.857920 
# 
# From -- ./inp_files/189786.got.cif
#   From: 2010.05.17/outbox.cif.g08.bks.cpg/sg12_95_cif.got.tgz:189786.got - 2010.06.03 13:09:07.
