data_PCOD9168428
_publ_section_title
;
Structure prediction by ZEFSAII (Michael W. Deem and Ramdas Pophale) SiO2 
 PCOD9168428
Probable space group: C 2/M
;
_chemical_formula_sum "Si O2"
_cell_formula_units_Z 60
_cell_length_a 13.626522
_cell_length_b 21.142573
_cell_length_c 11.444550
_cell_angle_alpha 90.000000
_cell_angle_beta 77.919413
_cell_angle_gamma 90.000000
_cell_volume 3224.153339
_symmetry_space_group_name_H-M "C 2/M"
_symmetry_group_IT_number 12
_symmetry_cell_setting 'monoclinic'
loop_
_space_group_symop_operation_xyz
x,y,z
-x,y,-z
-x,-y,-z
x,-y,z
1/2+x,1/2+y,z
1/2-x,1/2+y,-z
1/2-x,1/2-y,-z
1/2+x,1/2-y,z
loop_
_atom_site_type_symbol
_atom_site_label
_atom_site_fract_x
_atom_site_fract_y
_atom_site_fract_z
Si Si1 0.075812 0.095791 0.747527
Si Si2 0.140611 0.249820 0.282798
Si Si3 0.082917 0.884213 0.386309
Si Si4 0.743361 0.569026 0.525595
Si Si5 0.129314 0.760434 0.027129
Si Si6 0.121625 0.757548 0.769352
Si Si7 0.347752 0.202136 0.478748
Si Si8 0.000000 0.119610 0.000000
O O1 0.177236 0.074078 0.660523
O O2 0.079499 0.172845 0.750477
O O3 0.982955 0.077296 0.688982
O O4 0.051059 0.079502 0.885778
O O5 0.133568 0.174848 0.309472
O O6 0.097138 0.263414 0.164569
O O7 0.257978 0.267638 0.250740
O O8 0.099704 0.281248 0.411573
O O9 0.163074 0.922610 0.440674
O O10 0.000000 0.859087 0.500000
O O11 0.791397 0.500000 0.507668
O O12 0.812875 0.630006 0.497441
O O13 0.250000 0.750000 0.000000
O O14 0.094886 0.734763 0.907718
O O15 0.086997 0.832632 0.027856
O O16 0.103522 0.715223 0.659595
O O17 0.250000 0.250000 0.500000
#
# Coordination Sequence:
#
# PCOD9168428 Si02
#       8
#     8   8   8   8   8   8   8   4
#     4  10  18  30  45  69  96 131 165 202 234 294
#     4  10  15  28  46  68  87 122 163 199 250 286
#     4  10  18  27  44  67  95 126 161 199 233 285
#     4  11  21  32  47  69  96 133 172 208 244 293
#     4   9  18  27  44  71  99 127 161 208 259 297
#     4   9  16  28  47  67  90 123 157 204 253 285
#     4  10  15  29  51  68  88 120 164 205 254 288
#     4  10  18  30  47  70 100 138 171 206 248 304
#
# _framework density 18.609537
#
# number of rings (size 3 to 8) (size 9 to 14) (size 15 to 20)
#    0.000    2.133    6.667    0.800    0.000    2.400 
#    0.000    0.333    0.000    0.000    0.000    0.000 
#    0.000    4.800    0.000    5.667    0.000    0.000 
#
# Total GULP energy -167018.423111 kJ/mol
# GULP energy per Si atom -5567.280770 kJ/mol
# Density = 1.856718 g / cm^3
# Si number density = 18.609537 Si / 1000 Ang^3
#
#
#
# Elastic Constant Matrix: (Units=GPa)
#
#
# Indices 1 2 3 4 5 6 
#
# 1 47.8508 12.5109 28.3700 0.0000 14.6623 0.0000
# 2 12.5109 94.7359 32.8583 0.0000 -1.1629 0.0000
# 3 28.3700 32.8583 201.4297 0.0000 18.4406 0.0000
# 4 0.0000 0.0000 0.0000 3.3939 0.0000 -3.1908
# 5 14.6623 -1.1629 18.4406 0.0000 35.2444 0.0000
# 6 0.0000 0.0000 0.0000 -3.1908 0.0000 2.7112
#
#
#
# Elastic Compliance Matrix: (Units=1/GPa)
#
#
# Indices 1 2 3 4 5 6 
#
# 1 0.025956 -0.002741 -0.002323 0.000000 -0.009673 0.000000
# 2 -0.002741 0.011543 -0.001719 0.000000 0.002420 0.000000
# 3 -0.002323 -0.001719 0.005765 0.000000 -0.002107 0.000000
# 4 0.000000 0.000000 0.000000 -2.767430 0.000000 -3.257026
# 5 -0.009673 0.002420 -0.002107 0.000000 0.033580 0.000000
# 6 0.000000 0.000000 0.000000 -3.257026 0.000000 -3.464392
#
#
# Mechanical properties :
#
#
# Convention : Reuss Voigt Hill
#
# Bulk Modulus (GPa) = 33.67046 54.61054 44.14050
# Shear Modulus (GPa) = -0.81546 26.28837 12.73646
#
# Velocity S-wave (km/s) = -0.66268 3.76257 2.61895
# Velocity P-wave (km/s) = 4.18890 6.94875 5.73725
#
# Compressibility (1/GPa) = 0.02969962
#
# Stress axis : x y z
#
# Youngs Moduli (GPa) = 38.52635 86.62964 173.46357
#
# Poissons Ratio (x) = 0.23743 0.40297
# Poissons Ratio (y) = 0.10559 0.29811
# Poissons Ratio (z) = 0.08950 0.14888
#
# Static dielectric constant tensor:
#      x y z
#    x 1.702500 0.000000 -0.002850 
#    y 0.000000 1.619660 0.000000 
#    z -0.002850 0.000000 1.747440 
# 
# From -- ./inp_files/147115.got.cif
#   From: 2010.05.17/outbox.cif.g08.bks.cpg/sg12_74_cif.got.tgz:147115.got - 2010.06.03 13:09:07.
