data_PCOD9168100
_publ_section_title
;
Structure prediction by ZEFSAII (Michael W. Deem and Ramdas Pophale) SiO2 
 PCOD9168100
Probable space group: P 21/M
;
_chemical_formula_sum "Si O2"
_cell_formula_units_Z 32
_cell_length_a 12.000000
_cell_length_b 18.000000
_cell_length_c 15.000000
_cell_angle_alpha 90.000000
_cell_angle_beta 150.000000
_cell_angle_gamma 90.000000
_cell_volume 1620.000000
_symmetry_space_group_name_H-M "P 21/M"
_symmetry_group_IT_number 11
_symmetry_cell_setting 'monoclinic'
loop_
_space_group_symop_operation_xyz
x,y,z
-x,1/2+y,-z
-x,-y,-z
x,1/2-y,z
loop_
_atom_site_type_symbol
_atom_site_label
_atom_site_fract_x
_atom_site_fract_y
_atom_site_fract_z
Si Si1 0.011399 0.839474 0.099880
Si Si2 0.869389 0.160606 0.343812
Si Si3 0.336681 0.419688 0.659906
Si Si4 0.519756 0.660150 0.423244
Si Si5 0.136971 0.339333 0.809010
Si Si6 0.457310 0.915984 0.005799
Si Si7 0.715924 0.094700 0.416613
Si Si8 0.337813 0.339879 0.283684
O O1 0.010297 0.750000 0.101683
O O2 0.888057 0.860742 0.923795
O O3 0.883942 0.862508 0.101591
O O4 0.267933 0.861518 0.275854
O O5 0.880186 0.250000 0.340729
O O6 0.716003 0.139306 0.322846
O O7 0.110180 0.123953 0.528881
O O8 0.773468 0.118023 0.190480
O O9 0.417244 0.381348 0.623953
O O10 0.501004 0.413625 0.859145
O O11 0.294697 0.507159 0.612544
O O12 0.531405 0.750000 0.417403
O O13 0.658828 0.641801 0.609166
O O14 0.106144 0.250000 0.781555
O O15 0.363020 0.363578 0.918854
O O16 0.943381 0.381693 0.622382
O O17 0.500000 0.000000 0.000000
O O18 0.526818 0.120903 0.354904
O O19 0.373511 0.250000 0.302627
#
# Coordination Sequence:
#
# PCOD9168100 Si02
#       8
#     4   4   4   4   4   4   4   4
#     4   9  19  37  63  93 122 158 212 274 321 361
#     4  12  25  43  70  99 124 170 228 269 318 393
#     4  12  27  44  63  94 138 178 209 263 332 399
#     4  10  22  42  64  89 125 171 217 262 316 388
#     4  11  21  38  68  98 124 165 219 273 322 378
#     4  12  25  44  65  94 138 174 208 265 336 390
#     4  12  22  40  66  94 132 168 210 271 335 382
#     4  10  20  38  65  94 124 163 217 274 317 371
#
# _framework density 19.753086
#
# number of rings (size 3 to 8) (size 9 to 14) (size 15 to 20)
#    0.000    1.000    3.750    3.750    0.000    4.000 
#    0.000    1.875    0.000    0.000    0.000    0.000 
#    0.000    0.000    0.000    0.000    0.000    0.000 
#
# Total GULP energy -178797.890854 kJ/mol
# GULP energy per Si atom -5587.434089 kJ/mol
# Density = 1.970813 g / cm^3
# Si number density = 19.753086 Si / 1000 Ang^3
#
#
#
# Elastic Constant Matrix: (Units=GPa)
#
#
# Indices 1 2 3 4 5 6 
#
# 1 106.0315 23.0003 20.5106 0.0000 -39.6241 0.0000
# 2 23.0003 89.8461 9.5149 0.0000 -19.4072 0.0000
# 3 20.5106 9.5149 92.6124 0.0000 -40.3492 0.0000
# 4 0.0000 0.0000 0.0000 28.1692 0.0000 -2.1413
# 5 -39.6241 -19.4072 -40.3492 0.0000 38.5345 0.0000
# 6 0.0000 0.0000 0.0000 -2.1413 0.0000 30.3826
#
#
#
# Elastic Compliance Matrix: (Units=1/GPa)
#
#
# Indices 1 2 3 4 5 6 
#
# 1 0.017693 0.000332 0.007441 0.000000 0.026152 0.000000
# 2 0.000332 0.012867 0.002899 0.000000 0.009857 0.000000
# 3 0.007441 0.002899 0.023578 0.000000 0.033800 0.000000
# 4 0.000000 0.000000 0.000000 0.035691 0.000000 0.002515
# 5 0.026152 0.009857 0.033800 0.000000 0.093198 0.000000
# 6 0.000000 0.000000 0.000000 0.002515 0.000000 0.033091
#
#
# Mechanical properties :
#
#
# Convention : Reuss Voigt Hill
#
# Bulk Modulus (GPa) = 13.24819 43.83792 28.54305
# Shear Modulus (GPa) = 22.73403 35.11486 28.92445
#
# Velocity S-wave (km/s) = 3.39619 4.22084 3.83077
# Velocity P-wave (km/s) = 4.70109 6.78197 5.83504
#
# Compressibility (1/GPa) = 0.07548202
#
# Stress axis : x y z
#
# Youngs Moduli (GPa) = 56.52022 77.71580 42.41286
#
# Poissons Ratio (x) = -0.02577 -0.31561
# Poissons Ratio (y) = -0.01874 -0.12296
# Poissons Ratio (z) = -0.42059 -0.22530
#
# Static dielectric constant tensor:
#      x y z
#    x 1.691660 0.000000 0.021790 
#    y 0.000000 1.658820 0.000000 
#    z 0.021790 0.000000 1.794040 
# 
# From -- ./inp_files/50742.got.cif
#   From: 2010.05.17/outbox.ucp.g08.bks.cvg/sg11_26_cif.got.tgz:50742.got - 2010.06.11 11:38:39.
