data_PCOD9168471
_publ_section_title
;
Structure prediction by ZEFSAII (Michael W. Deem and Ramdas Pophale) SiO2 
 PCOD9168471
Probable space group: C 2/M
;
_chemical_formula_sum "Si O2"
_cell_formula_units_Z 44
_cell_length_a 14.211316
_cell_length_b 19.957330
_cell_length_c 11.469071
_cell_angle_alpha 90.000000
_cell_angle_beta 55.652209
_cell_angle_gamma 90.000000
_cell_volume 2685.649732
_symmetry_space_group_name_H-M "C 2/M"
_symmetry_group_IT_number 12
_symmetry_cell_setting 'monoclinic'
loop_
_space_group_symop_operation_xyz
x,y,z
-x,y,-z
-x,-y,-z
x,-y,z
1/2+x,1/2+y,z
1/2-x,1/2+y,-z
1/2-x,1/2-y,-z
1/2+x,1/2-y,z
loop_
_atom_site_type_symbol
_atom_site_label
_atom_site_fract_x
_atom_site_fract_y
_atom_site_fract_z
Si Si1 0.500000 0.118266 0.000000
Si Si2 0.336287 0.925721 0.306572
Si Si3 0.857435 0.277625 0.354959
Si Si4 0.412243 0.297637 0.815834
Si Si5 0.836118 0.737481 0.093174
Si Si6 0.902734 0.922518 0.663379
O O1 0.438772 0.076486 0.141951
O O2 0.403560 0.168390 0.015864
O O3 0.355805 0.858479 0.367236
O O4 0.218953 0.914977 0.316291
O O5 0.330400 0.000000 0.365526
O O6 0.750000 0.250000 0.500000
O O7 0.845262 0.259220 0.225974
O O8 0.977181 0.243405 0.303576
O O9 0.296130 0.265878 0.846554
O O10 0.415738 0.371839 0.760888
O O11 0.396445 0.291433 0.966830
O O12 0.000000 0.907988 0.500000
O O13 0.913563 0.000000 0.691611
#
# Coordination Sequence:
#
# PCOD9168471 Si02
#       6
#     4   8   8   8   8   8
#     4  10  15  34  46  78 107 130 170 208 267 318
#     4  10  19  33  51  77 111 132 168 226 275 316
#     4  11  21  34  54  81 108 142 184 220 265 322
#     4  11  19  33  57  72 113 141 170 226 262 321
#     4  10  20  33  51  79 107 137 181 212 268 312
#     4  10  20  33  51  78 109 138 174 223 276 320
#
# _framework density 16.383372000000001
#
# number of rings (size 3 to 8) (size 9 to 14) (size 15 to 20)
#    0.000    1.636    7.273    1.364    0.000    0.000 
#    0.000    0.000    0.000    3.273    0.000    1.273 
#    0.000    0.000    0.000    0.000    0.000    0.000 
#
# Total GULP energy -122514.308854 kJ/mol
# GULP energy per Si atom -5568.832221 kJ/mol
# Density = 1.634608 g / cm^3
# Si number density = 16.383372 Si / 1000 Ang^3
#
#
#
# Elastic Constant Matrix: (Units=GPa)
#
#
# Indices 1 2 3 4 5 6 
#
# 1 89.4055 25.1794 27.6036 0.0000 -26.6552 0.0000
# 2 25.1794 109.3249 43.9002 0.0000 -8.3243 0.0000
# 3 27.6036 43.9002 71.8975 0.0000 -26.9613 0.0000
# 4 0.0000 0.0000 0.0000 -207.7749 0.0000 -330.7529
# 5 -26.6552 -8.3243 -26.9613 0.0000 29.3304 0.0000
# 6 0.0000 0.0000 0.0000 -330.7529 0.0000 -446.8623
#
#
#
# Elastic Compliance Matrix: (Units=1/GPa)
#
#
# Indices 1 2 3 4 5 6 
#
# 1 0.016117 -0.003104 0.001327 0.000000 0.014986 0.000000
# 2 -0.003104 0.013244 -0.009985 0.000000 -0.008241 0.000000
# 3 0.001327 -0.009985 0.028820 0.000000 0.024865 0.000000
# 4 0.000000 0.000000 0.000000 0.027000 0.000000 -0.019984
# 5 0.014986 -0.008241 0.024865 0.000000 0.068231 0.000000
# 6 0.000000 0.000000 0.000000 -0.019984 0.000000 0.012554
#
#
# Mechanical properties :
#
#
# Convention : Reuss Voigt Hill
#
# Bulk Modulus (GPa) = 28.85380 51.55492 40.20436
# Shear Modulus (GPa) = 24.87026 -113.46505 -44.29740
#
# Velocity S-wave (km/s) = 3.90040 -8.33106 -5.20545
# Velocity P-wave (km/s) = 6.15906 7.81063 3.39646
#
# Compressibility (1/GPa) = 0.03465748
#
# Stress axis : x y z
#
# Youngs Moduli (GPa) = 62.04461 75.50489 34.69775
#
# Poissons Ratio (x) = 0.23436 -0.04605
# Poissons Ratio (y) = 0.19258 0.34647
# Poissons Ratio (z) = -0.08234 0.75395
#
# Static dielectric constant tensor:
#      x y z
#    x 1.573720 0.000000 -0.008460 
#    y 0.000000 1.570600 0.000000 
#    z -0.008460 0.000000 1.561400 
# 
# From -- ./inp_files/64669.got.cif
#   From: 2010.05.17/outbox.cif.g08.bks.cpg/sg12_33_cif.got.tgz:64669.got - 2010.06.03 13:09:07.
