data_PCOD9168639
_publ_section_title
;
Structure prediction by ZEFSAII (Michael W. Deem and Ramdas Pophale) SiO2 
 PCOD9168639
Probable space group: C 2/M
;
_chemical_formula_sum "Si O2"
_cell_formula_units_Z 40
_cell_length_a 9.900230
_cell_length_b 25.395343
_cell_length_c 9.695174
_cell_angle_alpha 90.000000
_cell_angle_beta 134.695392
_cell_angle_gamma 90.000000
_cell_volume 1732.752898
_symmetry_space_group_name_H-M "C 2/M"
_symmetry_group_IT_number 12
_symmetry_cell_setting 'monoclinic'
loop_
_space_group_symop_operation_xyz
x,y,z
-x,y,-z
-x,-y,-z
x,-y,z
1/2+x,1/2+y,z
1/2-x,1/2+y,-z
1/2-x,1/2-y,-z
1/2+x,1/2-y,z
loop_
_atom_site_type_symbol
_atom_site_label
_atom_site_fract_x
_atom_site_fract_y
_atom_site_fract_z
Si Si1 0.210999 0.000000 0.723711
Si Si2 0.207358 0.591106 0.620349
Si Si3 0.672405 0.809336 0.737787
Si Si4 0.629777 0.225733 0.281468
Si Si5 0.497741 0.500000 0.835046
Si Si6 0.773651 0.885077 0.362079
O O1 0.296881 0.942993 0.741036
O O2 0.000000 0.000000 0.500000
O O3 0.178699 0.000000 0.865640
O O4 0.241438 0.630540 0.772118
O O5 0.372587 0.550448 0.712271
O O6 0.208935 0.620397 0.474903
O O7 0.000000 0.566742 0.500000
O O8 0.500000 0.807942 0.500000
O O9 0.576102 0.789078 0.807360
O O10 0.834936 0.771671 0.800766
O O11 0.750000 0.250000 0.500000
O O12 0.706116 0.172160 0.263087
O O13 0.500000 0.500000 0.000000
O O14 0.000000 0.885965 0.500000
#
# Coordination Sequence:
#
# PCOD9168639 Si02
#       6
#     4   8   8   8   4   8
#     4  10  20  34  53  83 105 145 199 231 279 347
#     4  11  19  35  55  86 112 147 195 242 282 339
#     4   9  17  26  42  76 119 140 186 221 300 326
#     4  10  16  26  42  78 123 145 170 238 297 333
#     4  12  25  40  58  84 117 158 195 240 296 352
#     4  11  17  29  52  79 115 148 186 235 286 338
#
# _framework density 23.084651999999998
#
# number of rings (size 3 to 8) (size 9 to 14) (size 15 to 20)
#    0.000    1.600   10.000    2.100    0.000    0.000 
#    0.000    0.000    0.000    2.400    0.000    5.600 
#    0.000    0.000    0.000    0.000    0.000    0.000 
#
# Total GULP energy -111394.372267 kJ/mol
# GULP energy per Si atom -5569.718613 kJ/mol
# Density = 2.303211 g / cm^3
# Si number density = 23.084652 Si / 1000 Ang^3
#
#
#
# Elastic Constant Matrix: (Units=GPa)
#
#
# Indices 1 2 3 4 5 6 
#
# 1 148.1134 33.3100 -0.0223 0.0000 -10.8038 0.0000
# 2 33.3100 160.7821 3.0167 0.0000 0.3827 0.0000
# 3 -0.0223 3.0167 32.5329 0.0000 -3.3061 0.0000
# 4 0.0000 0.0000 0.0000 -5.5458 0.0000 -4.0024
# 5 -10.8038 0.3827 -3.3061 0.0000 10.0103 0.0000
# 6 0.0000 0.0000 0.0000 -4.0024 0.0000 56.9038
#
#
#
# Elastic Compliance Matrix: (Units=1/GPa)
#
#
# Indices 1 2 3 4 5 6 
#
# 1 0.007764 -0.001649 0.001051 0.000000 0.008789 0.000000
# 2 -0.001649 0.006583 -0.000846 0.000000 -0.002311 0.000000
# 3 0.001051 -0.000846 0.032010 0.000000 0.011739 0.000000
# 4 0.000000 0.000000 0.000000 -0.171607 0.000000 -0.012070
# 5 0.008789 -0.002311 0.011739 0.000000 0.113349 0.000000
# 6 0.000000 0.000000 0.000000 -0.012070 0.000000 0.016725
#
#
# Mechanical properties :
#
#
# Convention : Reuss Voigt Hill
#
# Bulk Modulus (GPa) = 23.00508 46.00414 34.50461
# Shear Modulus (GPa) = 225.21671 32.61527 128.91599
#
# Velocity S-wave (km/s) = 9.88802 3.76287 7.48105
# Velocity P-wave (km/s) = 11.84699 6.23303 9.46578
#
# Compressibility (1/GPa) = 0.04346866
#
# Stress axis : x y z
#
# Youngs Moduli (GPa) = 128.80390 151.91488 31.23991
#
# Poissons Ratio (x) = 0.25052 -0.03285
# Poissons Ratio (y) = 0.21241 0.02644
# Poissons Ratio (z) = -0.13543 0.12858
#
# Static dielectric constant tensor:
#      x y z
#    x 1.846210 0.000000 -0.077570 
#    y 0.000000 1.791130 0.000000 
#    z -0.077570 0.000000 2.253110 
# 
# From -- ./inp_files/123223.got.cif
#   From: 2010.05.17/outbox.cif.g08.bks.cpg/sg12_62_cif.got.tgz:123223.got - 2010.06.03 13:09:07.
