data_PCOD9168810
_publ_section_title
;
Structure prediction by ZEFSAII (Michael W. Deem and Ramdas Pophale) SiO2 
 PCOD9168810
Probable space group: C 2/M
;
_chemical_formula_sum "Si O2"
_cell_formula_units_Z 56
_cell_length_a 20.141740
_cell_length_b 14.303869
_cell_length_c 8.278829
_cell_angle_alpha 90.000000
_cell_angle_beta 84.212525
_cell_angle_gamma 90.000000
_cell_volume 2373.012712
_symmetry_space_group_name_H-M "C 2/M"
_symmetry_group_IT_number 12
_symmetry_cell_setting 'monoclinic'
loop_
_space_group_symop_operation_xyz
x,y,z
-x,y,-z
-x,-y,-z
x,-y,z
1/2+x,1/2+y,z
1/2-x,1/2+y,-z
1/2-x,1/2-y,-z
1/2+x,1/2-y,z
loop_
_atom_site_type_symbol
_atom_site_label
_atom_site_fract_x
_atom_site_fract_y
_atom_site_fract_z
Si Si1 0.241586 0.359787 0.946944
Si Si2 0.499817 0.312415 0.809114
Si Si3 0.856298 0.850039 0.720101
Si Si4 0.658678 0.129942 0.642224
Si Si5 0.209165 0.360574 0.283917
Si Si6 0.491861 0.101206 0.308523
Si Si7 0.143434 0.148354 0.638783
O O1 0.315886 0.391439 0.881441
O O2 0.205632 0.379394 0.785457
O O3 0.250000 0.250000 0.000000
O O4 0.198382 0.398190 0.106217
O O5 0.433961 0.351557 0.740839
O O6 0.491213 0.199960 0.777694
O O7 0.568306 0.358776 0.725075
O O8 0.500000 0.326057 0.000000
O O9 0.823918 0.744349 0.711816
O O10 0.847879 0.891419 0.543382
O O11 0.682798 0.098856 0.459249
O O12 0.586592 0.092955 0.700969
O O13 0.650233 0.240289 0.624570
O O14 0.289900 0.373359 0.276852
O O15 0.500000 0.113605 0.500000
O O16 0.523699 0.000000 0.256654
#
# Coordination Sequence:
#
# PCOD9168810 Si02
#       7
#     8   8   8   8   8   8   8
#     4  10  17  25  46  71  90 113 145 193 246 301
#     4  11  22  29  45  67  95 127 169 204 244 285
#     4  10  17  28  42  64  89 122 152 190 234 294
#     4  10  17  31  48  67  86 116 156 204 245 288
#     4  10  17  26  46  65  90 113 149 191 238 297
#     4  10  22  39  51  61  87 131 179 220 253 277
#     4  10  16  29  41  64  91 119 153 192 231 294
#
# _framework density 23.598693000000001
#
# number of rings (size 3 to 8) (size 9 to 14) (size 15 to 20)
#    0.000    1.857    4.286    4.714    6.000    0.286 
#    0.000    0.000    0.000    0.000    0.000    0.000 
#    0.000    0.000    0.000    2.571    0.000    6.714 
#
# Total GULP energy -155872.292149 kJ/mol
# GULP energy per Si atom -5566.867577 kJ/mol
# Density = 2.354498 g / cm^3
# Si number density = 23.598693 Si / 1000 Ang^3
#
#
#
# Elastic Constant Matrix: (Units=GPa)
#
#
# Indices 1 2 3 4 5 6 
#
# 1 100.8166 -21.6174 11.6019 0.0000 -1.0481 0.0000
# 2 -21.6174 57.8025 -9.7004 0.0000 1.2966 0.0000
# 3 11.6019 -9.7004 142.3021 0.0000 -17.5759 0.0000
# 4 0.0000 0.0000 0.0000 13.8571 0.0000 21.4773
# 5 -1.0481 1.2966 -17.5759 0.0000 32.3290 0.0000
# 6 0.0000 0.0000 0.0000 21.4773 0.0000 16.8428
#
#
#
# Elastic Compliance Matrix: (Units=1/GPa)
#
#
# Indices 1 2 3 4 5 6 
#
# 1 0.010837 0.003950 -0.000633 0.000000 -0.000151 0.000000
# 2 0.003950 0.018940 0.000955 0.000000 -0.000112 0.000000
# 3 -0.000633 0.000955 0.007650 0.000000 0.004100 0.000000
# 4 0.000000 0.000000 0.000000 -0.073910 0.000000 0.094247
# 5 -0.000151 -0.000112 0.004100 0.000000 0.033161 0.000000
# 6 0.000000 0.000000 0.000000 0.094247 0.000000 -0.060808
#
#
# Mechanical properties :
#
#
# Convention : Reuss Voigt Hill
#
# Bulk Modulus (GPa) = 21.75192 29.05439 25.40315
# Shear Modulus (GPa) = -87.18512 33.98157 -26.60177
#
# Velocity S-wave (km/s) = -6.08483 3.79882 -3.36111
# Velocity P-wave (km/s) = 6.33477 5.61961 2.06753
#
# Compressibility (1/GPa) = 0.04597295
#
# Stress axis : x y z
#
# Youngs Moduli (GPa) = 92.27415 52.79718 130.71095
#
# Poissons Ratio (x) = -0.20856 0.08274
# Poissons Ratio (y) = -0.36450 -0.12486
# Poissons Ratio (z) = 0.05841 -0.05043
#
# Static dielectric constant tensor:
#      x y z
#    x 1.959110 0.000000 0.007960 
#    y 0.000000 1.767020 0.000000 
#    z 0.007960 0.000000 1.924440 
# 
# From -- ./inp_files/78448.got.cif
#   From: 2010.05.17/outbox.cif.g08.bks.cpg/sg12_40_cif.got.tgz:78448.got - 2010.06.03 13:09:07.
