data_PCOD9168702
_publ_section_title
;
Structure prediction by ZEFSAII (Michael W. Deem and Ramdas Pophale) SiO2 
 PCOD9168702
Probable space group: C 2/M
;
_chemical_formula_sum "Si O2"
_cell_formula_units_Z 48
_cell_length_a 14.482546
_cell_length_b 13.427810
_cell_length_c 13.302080
_cell_angle_alpha 90.000000
_cell_angle_beta 55.720042
_cell_angle_gamma 90.000000
_cell_volume 2137.494353
_symmetry_space_group_name_H-M "C 2/M"
_symmetry_group_IT_number 12
_symmetry_cell_setting 'monoclinic'
loop_
_space_group_symop_operation_xyz
x,y,z
-x,y,-z
-x,-y,-z
x,-y,z
1/2+x,1/2+y,z
1/2-x,1/2+y,-z
1/2-x,1/2-y,-z
1/2+x,1/2-y,z
loop_
_atom_site_type_symbol
_atom_site_label
_atom_site_fract_x
_atom_site_fract_y
_atom_site_fract_z
Si Si1 0.775013 0.378520 0.420605
Si Si2 0.921357 0.121165 0.334322
Si Si3 0.328713 0.807221 0.059174
Si Si4 0.862724 0.880509 0.693157
Si Si5 0.965926 0.618528 0.168993
Si Si6 0.427087 0.611353 0.944086
O O1 0.775160 0.500000 0.425798
O O2 0.703769 0.345065 0.561555
O O3 0.699437 0.349236 0.370268
O O4 0.902033 0.352375 0.311384
O O5 0.009243 0.148523 0.368128
O O6 0.984485 0.148981 0.193551
O O7 0.917294 0.000000 0.332822
O O8 0.208261 0.845271 0.166486
O O9 0.400222 0.828994 0.117385
O O10 0.403698 0.860076 0.927689
O O11 0.332902 0.691879 0.026654
O O12 0.859452 0.000000 0.693904
O O13 0.948878 0.500000 0.165453
O O14 0.387288 0.500000 0.942242
O O15 0.500000 0.604221 0.000000
#
# Coordination Sequence:
#
# PCOD9168702 Si02
#       6
#     8   8   8   8   8   8
#     4   8  14  25  43  67  95 119 138 169 222 278
#     4   9  17  29  44  65  92 119 150 183 216 261
#     4  10  16  27  44  64  94 115 147 179 218 264
#     4   9  16  26  46  73  97 117 135 169 229 287
#     4   9  15  25  44  69  93 118 139 170 223 280
#     4  10  20  33  46  59  83 122 164 197 216 236
#
# _framework density 22.456199999999999
#
# number of rings (size 3 to 8) (size 9 to 14) (size 15 to 20)
#    0.000    2.833    1.667    3.500    0.000    2.667 
#    0.000    0.833    0.000    0.000    0.000    0.000 
#    0.000   12.000    0.000    6.000    0.000    0.000 
#
# Total GULP energy -133862.648878 kJ/mol
# GULP energy per Si atom -5577.610370 kJ/mol
# Density = 2.240509 g / cm^3
# Si number density = 22.456200 Si / 1000 Ang^3
#
#
#
# Elastic Constant Matrix: (Units=GPa)
#
#
# Indices 1 2 3 4 5 6 
#
# 1 37.9793 7.4532 22.3443 0.0000 -7.8638 0.0000
# 2 7.4532 80.2915 21.1011 0.0000 -7.6122 0.0000
# 3 22.3443 21.1011 147.3930 0.0000 -32.5614 0.0000
# 4 0.0000 0.0000 0.0000 37.2396 0.0000 -4.7689
# 5 -7.8638 -7.6122 -32.5614 0.0000 38.9419 0.0000
# 6 0.0000 0.0000 0.0000 -4.7689 0.0000 15.3663
#
#
#
# Elastic Compliance Matrix: (Units=1/GPa)
#
#
# Indices 1 2 3 4 5 6 
#
# 1 0.029312 -0.001516 -0.003661 0.000000 0.002562 0.000000
# 2 -0.001516 0.013066 -0.001403 0.000000 0.001075 0.000000
# 3 -0.003661 -0.001403 0.008974 0.000000 0.006490 0.000000
# 4 0.000000 0.000000 0.000000 0.027965 0.000000 0.008679
# 5 0.002562 0.001075 0.006490 0.000000 0.031834 0.000000
# 6 0.000000 0.000000 0.000000 0.008679 0.000000 0.067771
#
#
# Mechanical properties :
#
#
# Convention : Reuss Voigt Hill
#
# Bulk Modulus (GPa) = 26.18334 40.82900 33.50617
# Shear Modulus (GPa) = 24.41271 32.62724 28.51998
#
# Velocity S-wave (km/s) = 3.30074 3.81586 3.56761
# Velocity P-wave (km/s) = 5.11972 6.13478 5.65009
#
# Compressibility (1/GPa) = 0.03819222
#
# Stress axis : x y z
#
# Youngs Moduli (GPa) = 34.11601 76.53439 111.43028
#
# Poissons Ratio (x) = 0.11603 0.40789
# Poissons Ratio (y) = 0.05172 0.15638
# Poissons Ratio (z) = 0.12488 0.10741
#
# Static dielectric constant tensor:
#      x y z
#    x 1.842390 0.000000 -0.000830 
#    y 0.000000 1.898540 0.000000 
#    z -0.000830 0.000000 1.882200 
# 
# From -- ./inp_files/233365.got.cif
#   From: 2010.05.17/outbox.cif.g08.bks.cpg/sg12_117_cif.got.tgz:233365.got - 2010.06.03 13:09:07.
