data_PCOD9168666
_publ_section_title
;
Structure prediction by ZEFSAII (Michael W. Deem and Ramdas Pophale) SiO2 
 PCOD9168666
Probable space group: C 2/M
;
_chemical_formula_sum "Si O2"
_cell_formula_units_Z 40
_cell_length_a 8.902295
_cell_length_b 26.343926
_cell_length_c 6.934035
_cell_angle_alpha 90.000000
_cell_angle_beta 72.247146
_cell_angle_gamma 90.000000
_cell_volume 1548.741924
_symmetry_space_group_name_H-M "C 2/M"
_symmetry_group_IT_number 12
_symmetry_cell_setting 'monoclinic'
loop_
_space_group_symop_operation_xyz
x,y,z
-x,y,-z
-x,-y,-z
x,-y,z
1/2+x,1/2+y,z
1/2-x,1/2+y,-z
1/2-x,1/2-y,-z
1/2+x,1/2-y,z
loop_
_atom_site_type_symbol
_atom_site_label
_atom_site_fract_x
_atom_site_fract_y
_atom_site_fract_z
Si Si1 0.652467 0.708728 0.160783
Si Si2 0.377362 0.600960 0.726270
Si Si3 0.023597 0.000000 0.723125
Si Si4 0.379151 0.000000 0.731117
Si Si5 0.427648 0.789564 0.316825
Si Si6 0.475308 0.100326 0.279696
O O1 0.637762 0.649407 0.127948
O O2 0.484081 0.734976 0.224061
O O3 0.744775 0.707134 0.332022
O O4 0.750000 0.750000 0.000000
O O5 0.500000 0.611955 0.500000
O O6 0.438280 0.551676 0.813216
O O7 0.206885 0.589875 0.698797
O O8 0.000000 0.000000 0.500000
O O9 0.203890 0.000000 0.716406
O O10 0.500000 0.000000 0.500000
O O11 0.418812 0.052639 0.825402
O O12 0.500000 0.790471 0.500000
O O13 0.503470 0.841609 0.200240
O O14 0.500000 0.103177 0.500000
#
# Coordination Sequence:
#
# PCOD9168666 Si02
#       6
#     8   8   4   4   8   8
#     4  11  23  38  57  84 119 159 198 247 307 365
#     4  10  19  33  54  83 118 159 200 245 296 357
#     4  10  18  28  50  85 118 155 197 244 298 353
#     4  10  16  26  46  77 114 147 180 236 297 347
#     4  10  21  37  58  83 111 151 203 253 301 360
#     4   9  17  29  48  76 109 145 187 239 289 343
#
# _framework density 25.827414000000001
#
# number of rings (size 3 to 8) (size 9 to 14) (size 15 to 20)
#    0.000    2.000    0.000    7.200    0.000    4.800 
#    0.000    0.000    0.000    1.200    0.000    9.800 
#    0.000    0.000    0.000    0.000    0.000    0.000 
#
# Total GULP energy -111679.343793 kJ/mol
# GULP energy per Si atom -5583.967190 kJ/mol
# Density = 2.576863 g / cm^3
# Si number density = 25.827414 Si / 1000 Ang^3
#
#
#
# Elastic Constant Matrix: (Units=GPa)
#
#
# Indices 1 2 3 4 5 6 
#
# 1 204.7375 95.2529 22.4554 0.0000 21.2140 0.0000
# 2 95.2529 263.3605 15.3629 0.0000 -4.5226 0.0000
# 3 22.4554 15.3629 91.1679 0.0000 19.6151 0.0000
# 4 0.0000 0.0000 0.0000 4.9058 0.0000 -7.7539
# 5 21.2140 -4.5226 19.6151 0.0000 36.5593 0.0000
# 6 0.0000 0.0000 0.0000 -7.7539 0.0000 29.6942
#
#
#
# Elastic Compliance Matrix: (Units=1/GPa)
#
#
# Indices 1 2 3 4 5 6 
#
# 1 0.006422 -0.002367 -0.000360 0.000000 -0.003826 0.000000
# 2 -0.002367 0.004736 -0.000720 0.000000 0.002346 0.000000
# 3 -0.000360 -0.000720 0.012608 0.000000 -0.006645 0.000000
# 4 0.000000 0.000000 0.000000 0.347096 0.000000 0.090636
# 5 -0.003826 0.002346 -0.006645 0.000000 0.033428 0.000000
# 6 0.000000 0.000000 0.000000 0.090636 0.000000 0.057344
#
#
# Mechanical properties :
#
#
# Convention : Reuss Voigt Hill
#
# Bulk Modulus (GPa) = 59.26781 91.71204 75.48993
# Shear Modulus (GPa) = 10.54517 42.64483 26.59500
#
# Velocity S-wave (km/s) = 2.02282 4.06784 3.21241
# Velocity P-wave (km/s) = 5.33415 7.59274 6.56136
#
# Compressibility (1/GPa) = 0.01687256
#
# Stress axis : x y z
#
# Youngs Moduli (GPa) = 155.72547 211.16911 79.31282
#
# Poissons Ratio (x) = 0.49990 0.02852
# Poissons Ratio (y) = 0.36865 0.05707
# Poissons Ratio (z) = 0.05599 0.15195
#
# Static dielectric constant tensor:
#      x y z
#    x 1.981280 0.000000 0.068660 
#    y 0.000000 2.109050 0.000000 
#    z 0.068660 0.000000 2.493380 
# 
# From -- ./inp_files/40377.got.cif
#   From: 2010.05.17/outbox.cif.g08.bks.cpg/sg12_21_cif.got.tgz:40377.got - 2010.06.03 13:09:07.
