data_PCOD9168414
_publ_section_title
;
Structure prediction by ZEFSAII (Michael W. Deem and Ramdas Pophale) SiO2 
 PCOD9168414
Probable space group: C 2/M
;
_chemical_formula_sum "Si O2"
_cell_formula_units_Z 64
_cell_length_a 22.091731
_cell_length_b 24.081210
_cell_length_c 8.390007
_cell_angle_alpha 90.000000
_cell_angle_beta 123.589067
_cell_angle_gamma 90.000000
_cell_volume 3718.171004
_symmetry_space_group_name_H-M "C 2/M"
_symmetry_group_IT_number 12
_symmetry_cell_setting 'monoclinic'
loop_
_space_group_symop_operation_xyz
x,y,z
-x,y,-z
-x,-y,-z
x,-y,z
1/2+x,1/2+y,z
1/2-x,1/2+y,-z
1/2-x,1/2-y,-z
1/2+x,1/2-y,z
loop_
_atom_site_type_symbol
_atom_site_label
_atom_site_fract_x
_atom_site_fract_y
_atom_site_fract_z
Si Si1 0.415352 0.254988 0.666719
Si Si2 0.775317 0.785270 0.887339
Si Si3 0.094008 0.434365 0.265360
Si Si4 0.578174 0.252070 0.939109
Si Si5 0.458641 0.065916 0.284784
Si Si6 0.349675 0.131801 0.963052
Si Si7 0.182059 0.649007 0.552798
Si Si8 0.226352 0.183427 0.619248
O O1 0.499946 0.259557 0.745408
O O2 0.380790 0.195762 0.564876
O O3 0.358595 0.301583 0.520728
O O4 0.420894 0.256809 0.867264
O O5 0.724391 0.836799 0.775629
O O6 0.762028 0.743041 0.718034
O O7 0.750000 0.750000 0.000000
O O8 0.860448 0.794916 0.029029
O O9 0.101594 0.500000 0.244687
O O10 0.118818 0.397200 0.152203
O O11 0.147030 0.411075 0.480688
O O12 0.012897 0.424375 0.213591
O O13 0.609605 0.190528 0.952281
O O14 0.500000 0.088103 0.500000
O O15 0.451391 0.000000 0.290041
O O16 0.380718 0.092584 0.144034
O O17 0.264499 0.143732 0.807165
O O18 0.240730 0.660032 0.496760
#
# Coordination Sequence:
#
# PCOD9168414 Si02
#       8
#     8   8   8   8   8   8   8   8
#     4  10  15  27  46  63  86 113 150 184 217 278
#     4  10  18  29  43  65  92 117 150 187 223 276
#     4  10  19  29  45  65  83 113 155 196 230 263
#     4  10  18  26  45  69  86 115 152 184 227 268
#     4  10  21  33  42  59  91 122 149 190 235 270
#     4  10  18  29  48  64  85 111 158 191 221 271
#     4  10  16  31  45  58  89 121 150 184 230 269
#     4   9  17  30  44  62  84 117 146 179 229 270
#
# _framework density 17.212764
#
# number of rings (size 3 to 8) (size 9 to 14) (size 15 to 20)
#    0.000    2.125    5.000    2.250    1.750    3.000 
#    0.000    2.500    0.000    0.000    0.000    0.000 
#    0.000    9.000    0.000    0.000    0.000  100.750 
#
# Total GULP energy -178198.253270 kJ/mol
# GULP energy per Si atom -5568.695415 kJ/mol
# Density = 1.717359 g / cm^3
# Si number density = 17.212764 Si / 1000 Ang^3
#
#
#
# Elastic Constant Matrix: (Units=GPa)
#
#
# Indices 1 2 3 4 5 6 
#
# 1 48.8290 9.9369 27.7135 0.0000 28.7931 0.0000
# 2 9.9369 38.0743 18.9713 0.0000 13.7240 0.0000
# 3 27.7135 18.9713 88.5688 0.0000 33.1632 0.0000
# 4 0.0000 0.0000 0.0000 17.6315 0.0000 -1.4586
# 5 28.7931 13.7240 33.1632 0.0000 37.2716 0.0000
# 6 0.0000 0.0000 0.0000 -1.4586 0.0000 12.3985
#
#
#
# Elastic Compliance Matrix: (Units=1/GPa)
#
#
# Indices 1 2 3 4 5 6 
#
# 1 0.037756 0.001059 -0.001460 0.000000 -0.028258 0.000000
# 2 0.001059 0.031040 -0.003590 0.000000 -0.009053 0.000000
# 3 -0.001460 -0.003590 0.017394 0.000000 -0.013027 0.000000
# 4 0.000000 0.000000 0.000000 0.057274 0.000000 0.006738
# 5 -0.028258 -0.009053 -0.013027 0.000000 0.063585 0.000000
# 6 0.000000 0.000000 0.000000 0.006738 0.000000 0.081448
#
#
# Mechanical properties :
#
#
# Convention : Reuss Voigt Hill
#
# Bulk Modulus (GPa) = 12.78637 32.07949 22.43293
# Shear Modulus (GPa) = 15.50156 21.38369 18.44262
#
# Velocity S-wave (km/s) = 3.00423 3.52847 3.27685
# Velocity P-wave (km/s) = 4.41344 5.93950 5.23240
#
# Compressibility (1/GPa) = 0.07820828
#
# Stress axis : x y z
#
# Youngs Moduli (GPa) = 26.48601 32.21631 57.48998
#
# Poissons Ratio (x) = -0.03413 0.08394
# Poissons Ratio (y) = -0.02806 0.20641
# Poissons Ratio (z) = 0.03867 0.11567
#
# Static dielectric constant tensor:
#      x y z
#    x 1.659950 0.000000 -0.022510 
#    y 0.000000 1.579910 0.000000 
#    z -0.022510 0.000000 1.686950 
# 
# From -- ./inp_files/99933.got.cif
#   From: 2010.05.17/outbox.cif.g08.bks.cpg/sg12_50_cif.got.tgz:99933.got - 2010.06.03 13:09:07.
