data_PCOD9168854
_publ_section_title
;
Structure prediction by ZEFSAII (Michael W. Deem and Ramdas Pophale) SiO2 
 PCOD9168854
Probable space group: C 2/M
;
_chemical_formula_sum "Si O2"
_cell_formula_units_Z 64
_cell_length_a 21.054686
_cell_length_b 27.167995
_cell_length_c 8.280173
_cell_angle_alpha 90.000000
_cell_angle_beta 122.455668
_cell_angle_gamma 90.000000
_cell_volume 3996.583146
_symmetry_space_group_name_H-M "C 2/M"
_symmetry_group_IT_number 12
_symmetry_cell_setting 'monoclinic'
loop_
_space_group_symop_operation_xyz
x,y,z
-x,y,-z
-x,-y,-z
x,-y,z
1/2+x,1/2+y,z
1/2-x,1/2+y,-z
1/2-x,1/2-y,-z
1/2+x,1/2-y,z
loop_
_atom_site_type_symbol
_atom_site_label
_atom_site_fract_x
_atom_site_fract_y
_atom_site_fract_z
Si Si1 0.848273 0.647712 0.919400
Si Si2 0.818610 0.651441 0.496379
Si Si3 0.397466 0.944087 0.504568
Si Si4 0.823864 0.213100 0.750814
Si Si5 0.450508 0.242022 0.096540
Si Si6 0.935745 0.556083 0.175659
Si Si7 0.227222 0.784764 0.821920
Si Si8 0.598091 0.750130 0.468933
O O1 0.837812 0.650500 0.712553
O O2 0.767527 0.662593 0.887395
O O3 0.904252 0.691466 0.052643
O O4 0.884846 0.596358 0.019236
O O5 0.837782 0.597970 0.456764
O O6 0.732821 0.667930 0.345447
O O7 0.871927 0.693439 0.488692
O O8 0.474935 0.932471 0.706882
O O9 0.416157 0.943400 0.339542
O O10 0.375074 0.000000 0.515665
O O11 0.768892 0.258102 0.726625
O O12 0.866280 0.225645 0.643914
O O13 0.889555 0.215339 0.975066
O O14 0.509242 0.250428 0.319765
O O15 0.500000 0.235930 0.000000
O O16 0.924693 0.500000 0.101525
O O17 0.139106 0.779318 0.667804
O O18 0.250000 0.750000 0.000000
#
# Coordination Sequence:
#
# PCOD9168854 Si02
#       8
#     8   8   8   8   8   8   8   8
#     4  11  19  29  43  67  89 116 155 188 219 256
#     4  11  17  28  48  64  87 116 151 184 221 265
#     4   9  20  35  47  62  85 117 151 190 229 267
#     4   9  17  30  42  63  90 116 144 184 218 255
#     4   9  16  27  45  64  89 118 152 179 212 268
#     4   9  20  35  45  61  90 115 149 192 228 262
#     4  10  19  29  41  63  92 118 150 184 219 266
#     4  10  16  30  45  63  89 124 146 178 219 259
#
# _framework density 16.013679
#
# number of rings (size 3 to 8) (size 9 to 14) (size 15 to 20)
#    0.000    2.250    5.000    2.250    3.500    0.500 
#    0.000    3.125    0.000    0.000    0.000    0.000 
#    0.000    5.500    0.000    2.750    1.000    0.000 
#
# Total GULP energy -178328.630097 kJ/mol
# GULP energy per Si atom -5572.769691 kJ/mol
# Density = 1.597723 g / cm^3
# Si number density = 16.013679 Si / 1000 Ang^3
#
#
#
# Elastic Constant Matrix: (Units=GPa)
#
#
# Indices 1 2 3 4 5 6 
#
# 1 39.4857 30.8638 24.5563 0.0000 18.8041 0.0000
# 2 30.8638 99.9141 35.1880 0.0000 20.0456 0.0000
# 3 24.5563 35.1880 96.1641 0.0000 32.9980 0.0000
# 4 0.0000 0.0000 0.0000 25.7136 0.0000 6.6545
# 5 18.8041 20.0456 32.9980 0.0000 29.6222 0.0000
# 6 0.0000 0.0000 0.0000 6.6545 0.0000 24.1048
#
#
#
# Elastic Compliance Matrix: (Units=1/GPa)
#
#
# Indices 1 2 3 4 5 6 
#
# 1 0.042151 -0.008755 -0.000666 0.000000 -0.020091 0.000000
# 2 -0.008755 0.013785 -0.002452 0.000000 -0.001039 0.000000
# 3 -0.000666 -0.002452 0.017405 0.000000 -0.017306 0.000000
# 4 0.000000 0.000000 0.000000 0.041882 0.000000 -0.011562
# 5 -0.020091 -0.001039 -0.017306 0.000000 0.066494 0.000000
# 6 0.000000 0.000000 0.000000 -0.011562 0.000000 0.044677
#
#
# Mechanical properties :
#
#
# Convention : Reuss Voigt Hill
#
# Bulk Modulus (GPa) = 20.16333 46.30889 33.23611
# Shear Modulus (GPa) = 18.74961 25.55183 22.15072
#
# Velocity S-wave (km/s) = 3.42548 3.99886 3.72322
# Velocity P-wave (km/s) = 5.31638 7.09241 6.26762
#
# Compressibility (1/GPa) = 0.04959498
#
# Stress axis : x y z
#
# Youngs Moduli (GPa) = 23.72414 72.54174 57.45616
#
# Poissons Ratio (x) = 0.63513 0.03826
# Poissons Ratio (y) = 0.20771 0.14087
# Poissons Ratio (z) = 0.01580 0.17786
#
# Static dielectric constant tensor:
#      x y z
#    x 1.591850 0.000000 -0.011240 
#    y 0.000000 1.521060 0.000000 
#    z -0.011240 0.000000 1.611480 
# 
# From -- ./inp_files/90433.got.cif
#   From: 2010.05.17/outbox.cif.g08.bks.cpg/sg12_46_cif.got.tgz:90433.got - 2010.06.03 13:09:07.
