data_PCOD9168861
_publ_section_title
;
Structure prediction by ZEFSAII (Michael W. Deem and Ramdas Pophale) SiO2 
 PCOD9168861
Probable space group: C 2/M
;
_chemical_formula_sum "Si O2"
_cell_formula_units_Z 48
_cell_length_a 12.452583
_cell_length_b 14.187963
_cell_length_c 11.399208
_cell_angle_alpha 90.000000
_cell_angle_beta 75.987452
_cell_angle_gamma 90.000000
_cell_volume 1954.045013
_symmetry_space_group_name_H-M "C 2/M"
_symmetry_group_IT_number 12
_symmetry_cell_setting 'monoclinic'
loop_
_space_group_symop_operation_xyz
x,y,z
-x,y,-z
-x,-y,-z
x,-y,z
1/2+x,1/2+y,z
1/2-x,1/2+y,-z
1/2-x,1/2-y,-z
1/2+x,1/2-y,z
loop_
_atom_site_type_symbol
_atom_site_label
_atom_site_fract_x
_atom_site_fract_y
_atom_site_fract_z
Si Si1 0.066310 0.607607 0.182451
Si Si2 0.262211 0.859075 0.527153
Si Si3 0.940808 0.272219 0.620535
Si Si4 0.325075 0.396392 0.201583
Si Si5 0.782363 0.896223 0.724698
Si Si6 0.647216 0.215280 0.945395
O O1 0.029283 0.500000 0.181563
O O2 0.999544 0.670202 0.293917
O O3 0.195322 0.605451 0.194220
O O4 0.071517 0.665740 0.062469
O O5 0.250000 0.750000 0.500000
O O6 0.379268 0.855352 0.562490
O O7 0.179158 0.885766 0.655116
O O8 0.252313 0.904188 0.403031
O O9 0.865462 0.193412 0.702473
O O10 0.000000 0.217731 0.500000
O O11 0.369456 0.500000 0.160289
O O12 0.382563 0.309263 0.121070
O O13 0.689411 0.862894 0.841132
O O14 0.825262 0.000000 0.748337
O O15 0.750000 0.250000 0.000000
#
# Coordination Sequence:
#
# PCOD9168861 Si02
#       6
#     8   8   8   8   8   8
#     4   9  17  30  47  70 100 131 168 213 256 302
#     4   9  16  32  49  74 105 134 172 216 258 302
#     4  10  20  35  53  76 108 141 174 211 256 315
#     4   9  15  25  45  69  98 126 158 210 260 302
#     4  11  20  32  54  80 108 135 169 219 269 309
#     4  10  16  30  46  75 104 130 169 218 264 302
#
# _framework density 24.564427999999999
#
# number of rings (size 3 to 8) (size 9 to 14) (size 15 to 20)
#    0.000    2.333    6.667    1.000    0.000    2.000 
#    0.000    0.000    0.000    1.000    0.000    2.333 
#    0.000    5.667    0.000    0.000    0.000    0.000 
#
# Total GULP energy -133834.360310 kJ/mol
# GULP energy per Si atom -5576.431680 kJ/mol
# Density = 2.450852 g / cm^3
# Si number density = 24.564428 Si / 1000 Ang^3
#
#
#
# Elastic Constant Matrix: (Units=GPa)
#
#
# Indices 1 2 3 4 5 6 
#
# 1 29.5193 8.6470 15.9050 0.0000 15.8483 0.0000
# 2 8.6470 196.0990 77.4035 0.0000 4.0539 0.0000
# 3 15.9050 77.4035 196.9895 0.0000 9.4694 0.0000
# 4 0.0000 0.0000 0.0000 13.7149 0.0000 2.7244
# 5 15.8483 4.0539 9.4694 0.0000 37.8382 0.0000
# 6 0.0000 0.0000 0.0000 2.7244 0.0000 8.8196
#
#
#
# Elastic Compliance Matrix: (Units=1/GPa)
#
#
# Indices 1 2 3 4 5 6 
#
# 1 0.045212 -0.000618 -0.002531 0.000000 -0.018237 0.000000
# 2 -0.000618 0.006044 -0.002334 0.000000 0.000195 0.000000
# 3 -0.002531 -0.002334 0.006210 0.000000 -0.000244 0.000000
# 4 0.000000 0.000000 0.000000 0.077680 0.000000 -0.023996
# 5 -0.018237 0.000195 -0.000244 0.000000 0.034107 0.000000
# 6 0.000000 0.000000 0.000000 -0.023996 0.000000 0.120796
#
#
# Mechanical properties :
#
#
# Convention : Reuss Voigt Hill
#
# Bulk Modulus (GPa) = 21.50558 69.61321 45.55940
# Shear Modulus (GPa) = 15.79703 33.45135 24.62419
#
# Velocity S-wave (km/s) = 2.53866 3.69423 3.16956
# Velocity P-wave (km/s) = 4.16736 6.82620 5.65526
#
# Compressibility (1/GPa) = 0.04649955
#
# Stress axis : x y z
#
# Youngs Moduli (GPa) = 22.11809 165.45044 161.03638
#
# Poissons Ratio (x) = 0.10217 0.40760
# Poissons Ratio (y) = 0.01366 0.37593
# Poissons Ratio (z) = 0.05598 0.38624
#
# Static dielectric constant tensor:
#      x y z
#    x 2.166010 0.000000 -0.038910 
#    y 0.000000 1.921170 0.000000 
#    z -0.038910 0.000000 2.008450 
# 
# From -- ./inp_files/166158.got.cif
#   From: 2010.05.17/outbox.cif.g08.bks.cpg/sg12_84_cif.got.tgz:166158.got - 2010.06.03 13:09:07.
