data_PCOD9168121
_publ_section_title
;
Structure prediction by ZEFSAII (Michael W. Deem and Ramdas Pophale) SiO2 
 PCOD9168121
Probable space group: P 21/M
;
_chemical_formula_sum "Si O2"
_cell_formula_units_Z 32
_cell_length_a 24.000000
_cell_length_b 9.000000
_cell_length_c 24.000000
_cell_angle_alpha 90.000000
_cell_angle_beta 20.000000
_cell_angle_gamma 90.000000
_cell_volume 1773.032423
_symmetry_space_group_name_H-M "P 21/M"
_symmetry_group_IT_number 11
_symmetry_cell_setting 'monoclinic'
loop_
_space_group_symop_operation_xyz
x,y,z
-x,1/2+y,-z
-x,-y,-z
x,1/2-y,z
loop_
_atom_site_type_symbol
_atom_site_label
_atom_site_fract_x
_atom_site_fract_y
_atom_site_fract_z
Si Si1 0.529320 0.419418 0.913996
Si Si2 0.113988 0.926536 0.143143
Si Si3 0.938637 0.072246 0.939527
Si Si4 0.283057 0.570565 0.654363
Si Si5 0.653052 0.929431 0.283981
Si Si6 0.479632 0.570454 0.843141
Si Si7 0.165779 0.568602 0.516789
Si Si8 0.086177 0.583651 0.469019
O O1 0.464012 0.250000 0.975141
O O2 0.469777 0.510683 0.916030
O O3 0.723377 0.409751 0.724307
O O4 0.500000 0.500000 0.000000
O O5 0.096972 0.750000 0.171685
O O6 0.092935 0.947068 0.096669
O O7 0.302084 0.967683 0.982887
O O8 0.965285 0.011438 0.314410
O O9 0.944474 0.250000 0.946328
O O10 0.114994 0.999017 0.788413
O O11 0.786658 0.998817 0.116115
O O12 0.266830 0.750000 0.672881
O O13 0.306741 0.500141 0.693477
O O14 0.457366 0.540033 0.458843
O O15 0.671510 0.750000 0.267935
O O16 0.497839 0.750000 0.824514
O O17 0.647401 0.498084 0.659078
O O18 0.178858 0.750000 0.505663
O O19 0.086008 0.522285 0.532066
O O20 0.017536 0.750000 0.535884
O O21 0.000000 0.500000 0.500000
#
# Coordination Sequence:
#
# PCOD9168121 Si02
#       8
#     4   4   4   4   4   4   4   4
#     4  10  21  36  54  82 113 144 183 228 285 348
#     4  10  24  42  61  85 114 157 204 242 292 351
#     4  11  23  39  59  86 120 157 200 248 294 347
#     4  10  21  38  61  90 123 159 199 243 294 350
#     4  10  21  38  61  89 122 160 199 242 295 348
#     4  10  21  40  62  84 113 151 194 240 290 348
#     4  10  22  40  60  85 115 149 191 240 294 349
#     4   9  20  35  52  79 109 139 177 221 278 342
#
# _framework density 18.048175000000001
#
# number of rings (size 3 to 8) (size 9 to 14) (size 15 to 20)
#    0.000    2.000    0.000    3.375    1.750    7.500 
#    0.000    3.750    0.000    0.000    0.000    0.000 
#    0.000    0.000    0.000    0.000    0.000    0.000 
#
# Total GULP energy -178422.326270 kJ/mol
# GULP energy per Si atom -5575.697696 kJ/mol
# Density = 1.800710 g / cm^3
# Si number density = 18.048175 Si / 1000 Ang^3
#
#
#
# Elastic Constant Matrix: (Units=GPa)
#
#
# Indices 1 2 3 4 5 6 
#
# 1 105.9552 50.8431 79.1268 0.0000 -8.8695 0.0000
# 2 50.8431 109.6398 70.0281 0.0000 -2.6664 0.0000
# 3 79.1268 70.0281 161.6123 0.0000 -0.8157 0.0000
# 4 0.0000 0.0000 0.0000 39.1803 0.0000 0.9440
# 5 -8.8695 -2.6664 -0.8157 0.0000 35.2984 0.0000
# 6 0.0000 0.0000 0.0000 0.9440 0.0000 29.0245
#
#
#
# Elastic Compliance Matrix: (Units=1/GPa)
#
#
# Indices 1 2 3 4 5 6 
#
# 1 0.016143 -0.003264 -0.006471 0.000000 0.003660 0.000000
# 2 -0.003264 0.013295 -0.004162 0.000000 0.000088 0.000000
# 3 -0.006471 -0.004162 0.011151 0.000000 -0.001683 0.000000
# 4 0.000000 0.000000 0.000000 0.025543 0.000000 -0.000831
# 5 0.003660 0.000088 -0.001683 0.000000 0.029217 0.000000
# 6 0.000000 0.000000 0.000000 -0.000831 0.000000 0.034481
#
#
# Mechanical properties :
#
#
# Convention : Reuss Voigt Hill
#
# Bulk Modulus (GPa) = 78.15843 86.35592 82.25717
# Shear Modulus (GPa) = 30.88521 32.51458 31.69989
#
# Velocity S-wave (km/s) = 4.14123 4.24906 4.19549
# Velocity P-wave (km/s) = 8.14038 8.48670 8.31534
#
# Compressibility (1/GPa) = 0.01279453
#
# Stress axis : x y z
#
# Youngs Moduli (GPa) = 61.94607 75.21607 89.67767
#
# Poissons Ratio (x) = 0.24549 0.58031
# Poissons Ratio (y) = 0.20218 0.37327
# Poissons Ratio (z) = 0.40086 0.31308
#
# Static dielectric constant tensor:
#      x y z
#    x 1.616380 0.000000 0.000080 
#    y 0.000000 1.635030 0.000000 
#    z 0.000080 0.000000 1.624300 
# 
# From -- ./inp_files/69981.got.cif
#   From: 2010.05.17/outbox.ucp.g08.bks.cvg/sg11_35_cif.got.tgz:69981.got - 2010.06.11 11:38:39.
