data_PCOD9168992
_publ_section_title
;
Structure prediction by ZEFSAII (Michael W. Deem and Ramdas Pophale) SiO2 
 PCOD9168992
Probable space group: C 2/M
;
_chemical_formula_sum "Si O2"
_cell_formula_units_Z 48
_cell_length_a 7.128941
_cell_length_b 19.164234
_cell_length_c 16.637622
_cell_angle_alpha 90.000000
_cell_angle_beta 101.613864
_cell_angle_gamma 90.000000
_cell_volume 2226.506450
_symmetry_space_group_name_H-M "C 2/M"
_symmetry_group_IT_number 12
_symmetry_cell_setting 'monoclinic'
loop_
_space_group_symop_operation_xyz
x,y,z
-x,y,-z
-x,-y,-z
x,-y,z
1/2+x,1/2+y,z
1/2-x,1/2+y,-z
1/2-x,1/2-y,-z
1/2+x,1/2-y,z
loop_
_atom_site_type_symbol
_atom_site_label
_atom_site_fract_x
_atom_site_fract_y
_atom_site_fract_z
Si Si1 0.771559 0.919407 0.320399
Si Si2 0.045100 0.666187 0.632513
Si Si3 0.244607 0.848381 0.842531
Si Si4 0.773149 0.167195 0.985208
Si Si5 0.703085 0.313778 0.186728
Si Si6 0.084068 0.180932 0.418179
O O1 0.605315 0.894743 0.366490
O O2 0.705958 0.900806 0.224319
O O3 0.952650 0.870657 0.355373
O O4 0.817550 0.000000 0.332859
O O5 0.175065 0.670877 0.724026
O O6 0.935472 0.739910 0.615306
O O7 0.195054 0.660127 0.572711
O O8 0.311783 0.770090 0.825307
O O9 0.012182 0.842199 0.824588
O O10 0.304576 0.866133 0.939222
O O11 0.704419 0.156409 0.888008
O O12 0.750000 0.250000 0.000000
O O13 0.000000 0.152276 0.000000
O O14 0.000000 0.179015 0.500000
#
# Coordination Sequence:
#
# PCOD9168992 Si02
#       6
#     8   8   8   8   8   8
#     4  12  27  43  64  96 135 176 215 263 327 390
#     4  12  22  41  69 100 128 165 214 270 320 385
#     4  10  17  33  54  87 130 164 206 261 315 367
#     4   8  16  25  48  85 123 154 200 262 310 356
#     4  10  16  31  59  92 117 161 215 264 312 365
#     4  12  25  44  74 100 126 164 218 271 327 390
#
# _framework density 21.558436
#
# number of rings (size 3 to 8) (size 9 to 14) (size 15 to 20)
#    0.000    1.333    5.000    1.500    0.000    2.333 
#    0.000    0.833    0.000    6.500    0.000    0.000 
#    0.000    0.000    0.000    0.000    0.000    0.000 
#
# Total GULP energy -134205.736265 kJ/mol
# GULP energy per Si atom -5591.905678 kJ/mol
# Density = 2.150937 g / cm^3
# Si number density = 21.558436 Si / 1000 Ang^3
#
#
#
# Elastic Constant Matrix: (Units=GPa)
#
#
# Indices 1 2 3 4 5 6 
#
# 1 79.6978 -3.3566 8.0699 0.0000 -18.0755 0.0000
# 2 -3.3566 50.3563 21.6068 0.0000 -7.3126 0.0000
# 3 8.0699 21.6068 100.6598 0.0000 -13.1482 0.0000
# 4 0.0000 0.0000 0.0000 6.2377 0.0000 -5.3794
# 5 -18.0755 -7.3126 -13.1482 0.0000 35.9780 0.0000
# 6 0.0000 0.0000 0.0000 -5.3794 0.0000 11.9471
#
#
#
# Elastic Compliance Matrix: (Units=1/GPa)
#
#
# Indices 1 2 3 4 5 6 
#
# 1 0.014408 0.002337 -0.000682 0.000000 0.007464 0.000000
# 2 0.002337 0.022537 -0.004488 0.000000 0.004115 0.000000
# 3 -0.000682 -0.004488 0.011329 0.000000 0.002886 0.000000
# 4 0.000000 0.000000 0.000000 0.262086 0.000000 0.118010
# 5 0.007464 0.004115 0.002886 0.000000 0.033436 0.000000
# 6 0.000000 0.000000 0.000000 0.118010 0.000000 0.136839
#
#
# Mechanical properties :
#
#
# Convention : Reuss Voigt Hill
#
# Bulk Modulus (GPa) = 23.46887 31.48378 27.47632
# Shear Modulus (GPa) = 9.98995 24.45883 17.22439
#
# Velocity S-wave (km/s) = 2.15498 3.37194 2.82966
# Velocity P-wave (km/s) = 4.13542 5.45854 4.84238
#
# Compressibility (1/GPa) = 0.04260964
#
# Stress axis : x y z
#
# Youngs Moduli (GPa) = 69.40702 44.37092 88.26682
#
# Poissons Ratio (x) = -0.10369 0.06017
# Poissons Ratio (y) = -0.16219 0.39610
# Poissons Ratio (z) = 0.04731 0.19912
#
# Static dielectric constant tensor:
#      x y z
#    x 1.861400 0.000000 -0.000410 
#    y 0.000000 1.693650 0.000000 
#    z -0.000410 0.000000 1.885650 
# 
# From -- ./inp_files/256214.got.cif
#   From: 2010.05.17/outbox.cif.g08.bks.cpg/sg12_129_cif.got.tgz:256214.got - 2010.06.03 13:09:07.
