data_PCOD9168070
_publ_section_title
;
Structure prediction by ZEFSAII (Michael W. Deem and Ramdas Pophale) SiO2 
 PCOD9168070
Probable space group: P 21/M
;
_chemical_formula_sum "Si O2"
_cell_formula_units_Z 28
_cell_length_a 9.000000
_cell_length_b 9.000000
_cell_length_c 27.000000
_cell_angle_alpha 90.000000
_cell_angle_beta 140.000000
_cell_angle_gamma 90.000000
_cell_volume 1405.776502
_symmetry_space_group_name_H-M "P 21/M"
_symmetry_group_IT_number 11
_symmetry_cell_setting 'monoclinic'
loop_
_space_group_symop_operation_xyz
x,y,z
-x,1/2+y,-z
-x,-y,-z
x,1/2-y,z
loop_
_atom_site_type_symbol
_atom_site_label
_atom_site_fract_x
_atom_site_fract_y
_atom_site_fract_z
Si Si1 0.199180 0.582689 0.146737
Si Si2 0.300671 0.427870 0.979526
Si Si3 0.405923 0.927813 0.425575
Si Si4 0.752488 0.076897 0.440089
Si Si5 0.086690 0.569685 0.705773
Si Si6 0.453942 0.073481 0.124488
Si Si7 0.338855 0.080005 0.677893
O O1 0.165424 0.750000 0.117521
O O2 0.299305 0.480860 0.129825
O O3 0.398835 0.591298 0.237564
O O4 0.953720 0.530838 0.103427
O O5 0.323388 0.250000 0.983029
O O6 0.500000 0.500000 0.000000
O O7 0.340522 0.481877 0.045493
O O8 0.380934 0.750000 0.423264
O O9 0.500000 0.000000 0.500000
O O10 0.597331 0.975825 0.435343
O O11 0.166345 0.006012 0.349221
O O12 0.755646 0.250000 0.455090
O O13 0.660503 0.049099 0.361989
O O14 0.000000 0.000000 0.500000
O O15 0.081816 0.750000 0.697370
O O16 0.279248 0.532487 0.796547
O O17 0.178325 0.481036 0.680979
O O18 0.450842 0.250000 0.122192
O O19 0.267140 0.250000 0.644976
#
# Coordination Sequence:
#
# PCOD9168070 Si02
#       7
#     4   4   4   4   4   4   4
#     4   9  19  35  57  82 111 145 187 231 276 330
#     4  10  21  36  52  78 112 148 187 232 280 330
#     4  12  25  42  62  86 115 150 188 231 279 333
#     4  12  25  42  62  86 115 150 188 231 279 333
#     4  10  20  37  59  86 116 149 187 232 281 335
#     4   9  19  35  57  82 111 145 187 231 276 330
#     4  10  20  37  59  86 116 149 187 232 281 335
#
# _framework density 19.917818
#
# number of rings (size 3 to 8) (size 9 to 14) (size 15 to 20)
#    0.000    1.714    0.000    4.714    0.000    3.429 
#    0.000    2.857    0.000    0.000    0.000    0.000 
#    0.000    0.000    0.000    0.000    0.000    0.000 
#
# Total GULP energy -156068.963684 kJ/mol
# GULP energy per Si atom -5573.891560 kJ/mol
# Density = 1.987248 g / cm^3
# Si number density = 19.917818 Si / 1000 Ang^3
#
#
#
# Elastic Constant Matrix: (Units=GPa)
#
#
# Indices 1 2 3 4 5 6 
#
# 1 47.7135 7.4586 66.9531 0.0000 47.4796 0.0000
# 2 7.4586 64.0592 26.1822 0.0000 16.0283 0.0000
# 3 66.9531 26.1822 25.9005 0.0000 23.3210 0.0000
# 4 0.0000 0.0000 0.0000 20.1765 0.0000 -2.4359
# 5 47.4796 16.0283 23.3210 0.0000 30.7118 0.0000
# 6 0.0000 0.0000 0.0000 -2.4359 0.0000 20.7089
#
#
#
# Elastic Compliance Matrix: (Units=1/GPa)
#
#
# Indices 1 2 3 4 5 6 
#
# 1 -0.003362 -0.007435 0.025400 0.000000 -0.010209 0.000000
# 2 -0.007435 0.015072 0.002267 0.000000 0.001907 0.000000
# 3 0.025400 0.002267 0.022387 0.000000 -0.057450 0.000000
# 4 0.000000 0.000000 0.000000 0.050277 0.000000 0.005914
# 5 -0.010209 0.001907 -0.057450 0.000000 0.090973 0.000000
# 6 0.000000 0.000000 0.000000 0.005914 0.000000 0.048984
#
#
# Mechanical properties :
#
#
# Convention : Reuss Voigt Hill
#
# Bulk Modulus (GPa) = 13.41190 37.65123 25.53156
# Shear Modulus (GPa) = 23.95533 16.79138 20.37336
#
# Velocity S-wave (km/s) = 3.47177 2.90665 3.20171
# Velocity P-wave (km/s) = 4.77694 5.49629 5.14919
#
# Compressibility (1/GPa) = 0.07456065
#
# Stress axis : x y z
#
# Youngs Moduli (GPa) = -297.43110 66.34639 44.66843
#
# Poissons Ratio (x) = 0.49332 -1.13457
# Poissons Ratio (y) = -2.21155 -0.10127
# Poissons Ratio (z) = 7.55470 -0.15042
#
# Static dielectric constant tensor:
#      x y z
#    x 1.945590 0.000000 -0.034260 
#    y 0.000000 1.761460 0.000000 
#    z -0.034260 0.000000 1.802470 
# 
# From -- ./inp_files/70906.got.cif
#   From: 2010.05.17/outbox.ucp.g08.bks.cvg/sg11_36_cif.got.tgz:70906.got - 2010.06.11 11:38:39.
