data_PCOD9168612
_publ_section_title
;
Structure prediction by ZEFSAII (Michael W. Deem and Ramdas Pophale) SiO2 
 PCOD9168612
Probable space group: C 2/M
;
_chemical_formula_sum "Si O2"
_cell_formula_units_Z 56
_cell_length_a 18.257193
_cell_length_b 23.984030
_cell_length_c 13.076825
_cell_angle_alpha 90.000000
_cell_angle_beta 31.293306
_cell_angle_gamma 90.000000
_cell_volume 2974.243650
_symmetry_space_group_name_H-M "C 2/M"
_symmetry_group_IT_number 12
_symmetry_cell_setting 'monoclinic'
loop_
_space_group_symop_operation_xyz
x,y,z
-x,y,-z
-x,-y,-z
x,-y,z
1/2+x,1/2+y,z
1/2-x,1/2+y,-z
1/2-x,1/2-y,-z
1/2+x,1/2-y,z
loop_
_atom_site_type_symbol
_atom_site_label
_atom_site_fract_x
_atom_site_fract_y
_atom_site_fract_z
Si Si1 0.003368 0.333269 0.718258
Si Si2 0.442299 0.351794 0.186513
Si Si3 0.166577 0.441218 0.284023
Si Si4 0.232647 0.827966 0.933721
Si Si5 0.875808 0.271791 0.230281
Si Si6 0.632033 0.248261 0.397149
Si Si7 0.202805 0.564151 0.475224
O O1 0.072198 0.303431 0.732782
O O2 0.064571 0.302650 0.543844
O O3 0.063193 0.396688 0.652160
O O4 0.834271 0.321183 0.911382
O O5 0.359466 0.293893 0.273027
O O6 0.338546 0.400288 0.348961
O O7 0.500000 0.363011 0.000000
O O8 0.565940 0.336939 0.119912
O O9 0.206074 0.500000 0.186290
O O10 0.209285 0.386901 0.174900
O O11 0.229471 0.439582 0.321889
O O12 0.000000 0.440915 0.500000
O O13 0.271497 0.780324 0.804897
O O14 0.727456 0.286646 0.355246
O O15 0.000000 0.277405 0.000000
O O16 0.500000 0.276961 0.500000
O O17 0.188612 0.500000 0.529389
#
# Coordination Sequence:
#
# PCOD9168612 Si02
#       7
#     8   8   8   8   8   8   8
#     4  11  21  33  55  75 100 143 174 209 252 300
#     4  11  19  32  47  72 110 140 162 206 255 305
#     4  10  16  25  45  69  98 133 168 200 240 296
#     4  11  18  32  48  74 109 135 167 205 252 304
#     4  11  21  37  52  73 106 139 173 212 256 300
#     4  10  18  32  52  77 103 134 170 206 248 304
#     4  11  21  32  49  75 102 135 177 209 248 308
#
# _framework density 18.828316999999998
#
# number of rings (size 3 to 8) (size 9 to 14) (size 15 to 20)
#    0.000    1.286    8.571    0.857    0.000    1.429 
#    0.000    0.000    0.000    0.429    0.000    0.000 
#    0.000    1.714    0.000    0.000    0.000    0.000 
#
# Total GULP energy -156032.739003 kJ/mol
# GULP energy per Si atom -5572.597822 kJ/mol
# Density = 1.878546 g / cm^3
# Si number density = 18.828317 Si / 1000 Ang^3
#
#
#
# Elastic Constant Matrix: (Units=GPa)
#
#
# Indices 1 2 3 4 5 6 
#
# 1 131.4338 23.4331 36.9794 0.0010 -39.9878 0.0023
# 2 23.4331 47.2212 6.9056 0.0098 8.5055 -0.0068
# 3 36.9794 6.9056 38.8598 0.0081 -19.8773 -0.0023
# 4 0.0010 0.0098 0.0081 14.4594 -0.0024 -9.6219
# 5 -39.9878 8.5055 -19.8773 -0.0024 36.3809 -0.0016
# 6 0.0023 -0.0068 -0.0023 -9.6219 -0.0016 32.5432
#
#
#
# Elastic Compliance Matrix: (Units=1/GPa)
#
#
# Indices 1 2 3 4 5 6 
#
# 1 0.016155 -0.010595 -0.004359 0.000012 0.017852 0.000001
# 2 -0.010595 0.031661 -0.007338 -0.000021 -0.023056 0.000000
# 3 -0.004359 -0.007338 0.041098 -0.000016 0.019379 -0.000002
# 4 0.000012 -0.000021 -0.000016 0.086099 0.000016 0.025456
# 5 0.017852 -0.023056 0.019379 0.000016 0.063087 0.000003
# 6 0.000001 0.000000 -0.000002 0.025456 0.000003 0.038255
#
#
# Mechanical properties :
#
#
# Convention : Reuss Voigt Hill
#
# Bulk Modulus (GPa) = 22.55769 39.12789 30.84279
# Shear Modulus (GPa) = 14.89358 26.68980 20.79169
#
# Velocity S-wave (km/s) = 2.81556 3.76910 3.32667
# Velocity P-wave (km/s) = 4.75148 6.30619 5.58322
#
# Compressibility (1/GPa) = 0.04433078
#
# Stress axis : x y z
#
# Youngs Moduli (GPa) = 61.89974 31.58509 24.33195
#
# Poissons Ratio (x) = 0.33464 0.10606
# Poissons Ratio (y) = 0.65582 0.17854
# Poissons Ratio (z) = 0.26982 0.23176
#
# Static dielectric constant tensor:
#      x y z
#    x 1.820670 0.000000 -0.077960 
#    y 0.000000 1.680020 0.000000 
#    z -0.077960 0.000000 1.722800 
# 
# From -- ./inp_files/79049.got.cif
#   From: 2010.05.17/outbox.cif.g08.bks.cpg/sg12_40_cif.got.tgz:79049.got - 2010.06.03 13:09:07.
