data_PCOD9168682
_publ_section_title
;
Structure prediction by ZEFSAII (Michael W. Deem and Ramdas Pophale) SiO2 
 PCOD9168682
Probable space group: C 2/M
;
_chemical_formula_sum "Si O2"
_cell_formula_units_Z 40
_cell_length_a 14.093849
_cell_length_b 18.100022
_cell_length_c 9.738875
_cell_angle_alpha 90.000000
_cell_angle_beta 54.201873
_cell_angle_gamma 90.000000
_cell_volume 2015.035843
_symmetry_space_group_name_H-M "C 2/M"
_symmetry_group_IT_number 12
_symmetry_cell_setting 'monoclinic'
loop_
_space_group_symop_operation_xyz
x,y,z
-x,y,-z
-x,-y,-z
x,-y,z
1/2+x,1/2+y,z
1/2-x,1/2+y,-z
1/2-x,1/2-y,-z
1/2+x,1/2-y,z
loop_
_atom_site_type_symbol
_atom_site_label
_atom_site_fract_x
_atom_site_fract_y
_atom_site_fract_z
Si Si1 0.364775 0.710882 0.148690
Si Si2 0.515516 0.419405 0.323666
Si Si3 0.268459 0.585125 0.376087
Si Si4 0.095940 0.287923 0.596023
Si Si5 0.360201 0.269228 0.746660
O O1 0.310121 0.629249 0.205967
O O2 0.360686 0.747007 0.304421
O O3 0.277590 0.755359 0.124101
O O4 0.500000 0.708834 0.000000
O O5 0.500000 0.421868 0.500000
O O6 0.562148 0.500000 0.238388
O O7 0.386197 0.411775 0.368940
O O8 0.595859 0.347724 0.232262
O O9 0.237245 0.500000 0.383192
O O10 0.162112 0.634324 0.524787
O O11 0.121255 0.240200 0.435869
O O12 0.954776 0.289994 0.721992
#
# Coordination Sequence:
#
# PCOD9168682 Si02
#       5
#     8   8   8   8   8
#     4  11  22  35  53  80 114 148 175 214 268 332
#     4  10  16  26  50  81 104 129 171 227 274 300
#     4  10  20  35  56  80 108 140 179 229 267 309
#     4  10  19  34  55  79 107 134 186 222 265 313
#     4  10  18  33  56  78 104 140 183 235 257 305
#
# _framework density 19.850763000000001
#
# number of rings (size 3 to 8) (size 9 to 14) (size 15 to 20)
#    0.000    1.800    4.000    3.600    0.000    1.200 
#    0.000    8.000    0.000    2.400    0.000    0.000 
#    0.000    0.000    0.000    0.000    0.000    0.000 
#
# Total GULP energy -111477.976804 kJ/mol
# GULP energy per Si atom -5573.898840 kJ/mol
# Density = 1.980558 g / cm^3
# Si number density = 19.850763 Si / 1000 Ang^3
#
#
#
# Elastic Constant Matrix: (Units=GPa)
#
#
# Indices 1 2 3 4 5 6 
#
# 1 115.8219 59.6998 24.4559 0.0000 -23.9160 0.0000
# 2 59.6998 189.0937 46.8069 0.0000 -34.7741 0.0000
# 3 24.4559 46.8069 58.9349 0.0000 -26.3179 0.0000
# 4 0.0000 0.0000 0.0000 9.8728 0.0000 -5.8682
# 5 -23.9160 -34.7741 -26.3179 0.0000 43.6024 0.0000
# 6 0.0000 0.0000 0.0000 -5.8682 0.0000 29.6263
#
#
#
# Elastic Compliance Matrix: (Units=1/GPa)
#
#
# Indices 1 2 3 4 5 6 
#
# 1 0.010851 -0.002575 -0.000981 0.000000 0.003306 0.000000
# 2 -0.002575 0.007466 -0.003878 0.000000 0.002201 0.000000
# 3 -0.000981 -0.003878 0.025783 0.000000 0.011931 0.000000
# 4 0.000000 0.000000 0.000000 0.114805 0.000000 0.022740
# 5 0.003306 0.002201 0.011931 0.000000 0.033705 0.000000
# 6 0.000000 0.000000 0.000000 0.022740 0.000000 0.038258
#
#
# Mechanical properties :
#
#
# Convention : Reuss Voigt Hill
#
# Bulk Modulus (GPa) = 34.21012 69.53064 51.87038
# Shear Modulus (GPa) = 19.57092 32.14615 25.85853
#
# Velocity S-wave (km/s) = 3.14331 4.02853 3.61314
# Velocity P-wave (km/s) = 5.51770 7.53269 6.60252
#
# Compressibility (1/GPa) = 0.02923112
#
# Stress axis : x y z
#
# Youngs Moduli (GPa) = 92.15694 133.93831 38.78485
#
# Poissons Ratio (x) = 0.34489 0.03807
# Poissons Ratio (y) = 0.23730 0.15042
# Poissons Ratio (z) = 0.09045 0.51944
#
# Static dielectric constant tensor:
#      x y z
#    x 1.755540 0.000000 0.002680 
#    y 0.000000 1.737740 0.000000 
#    z 0.002680 0.000000 1.810360 
# 
# From -- ./inp_files/144633.got.cif
#   From: 2010.05.17/outbox.cif.g08.bks.cpg/sg12_73_cif.got.tgz:144633.got - 2010.06.03 13:09:07.
