data_PCOD9168824
_publ_section_title
;
Structure prediction by ZEFSAII (Michael W. Deem and Ramdas Pophale) SiO2 
 PCOD9168824
Probable space group: C 2/M
;
_chemical_formula_sum "Si O2"
_cell_formula_units_Z 64
_cell_length_a 12.674010
_cell_length_b 26.913297
_cell_length_c 11.792900
_cell_angle_alpha 90.000000
_cell_angle_beta 77.749835
_cell_angle_gamma 90.000000
_cell_volume 3930.959564
_symmetry_space_group_name_H-M "C 2/M"
_symmetry_group_IT_number 12
_symmetry_cell_setting 'monoclinic'
loop_
_space_group_symop_operation_xyz
x,y,z
-x,y,-z
-x,-y,-z
x,-y,z
1/2+x,1/2+y,z
1/2-x,1/2+y,-z
1/2-x,1/2-y,-z
1/2+x,1/2-y,z
loop_
_atom_site_type_symbol
_atom_site_label
_atom_site_fract_x
_atom_site_fract_y
_atom_site_fract_z
Si Si1 0.463121 0.441923 0.378065
Si Si2 0.899799 0.126060 0.796720
Si Si3 0.261704 0.681751 0.972381
Si Si4 0.092248 0.305695 0.383475
Si Si5 0.587150 0.687682 0.844135
Si Si6 0.584018 0.229505 0.132037
Si Si7 0.294885 0.644893 0.390772
Si Si8 0.619568 0.695505 0.418221
O O1 0.500000 0.432806 0.500000
O O2 0.440204 0.500000 0.370282
O O3 0.558475 0.423719 0.272138
O O4 0.360792 0.406508 0.375475
O O5 0.892019 0.165353 0.695049
O O6 0.993846 0.145858 0.859478
O O7 0.790789 0.133188 0.892685
O O8 0.326493 0.679970 0.077008
O O9 0.137480 0.691587 0.030667
O O10 0.319273 0.728194 0.892676
O O11 0.063578 0.296275 0.258117
O O12 0.172665 0.351915 0.377585
O O13 0.150495 0.252851 0.397723
O O14 0.000000 0.310309 0.500000
O O15 0.523215 0.739281 0.871227
O O16 0.643069 0.681775 0.709776
O O17 0.302613 0.666922 0.514585
O O18 0.500000 0.694904 0.500000
#
# Coordination Sequence:
#
# PCOD9168824 Si02
#       8
#     8   8   8   8   8   8   8   8
#     4  10  19  33  56  78  99 125 162 214 258 300
#     4  10  16  29  48  68 101 122 162 201 245 292
#     4  10  19  29  45  64  94 138 171 200 234 280
#     4  11  21  31  44  69 102 134 169 202 240 292
#     4  10  17  30  47  63  90 134 176 198 233 285
#     4  10  18  30  42  65  93 129 182 203 220 291
#     4  11  19  32  49  69  99 135 163 205 258 295
#     4  11  16  29  43  69 100 132 161 195 242 299
#
# _framework density 16.281012
#
# number of rings (size 3 to 8) (size 9 to 14) (size 15 to 20)
#    0.000    1.625    7.500    2.625    0.000    0.000 
#    0.000    1.250    0.000    6.375    0.000    0.000 
#    0.000    0.000    0.000    2.750    0.000    0.000 
#
# Total GULP energy -178146.110314 kJ/mol
# GULP energy per Si atom -5567.065947 kJ/mol
# Density = 1.624396 g / cm^3
# Si number density = 16.281012 Si / 1000 Ang^3
#
#
#
# Elastic Constant Matrix: (Units=GPa)
#
#
# Indices 1 2 3 4 5 6 
#
# 1 40.6340 29.5848 28.3871 0.0000 -4.4124 0.0000
# 2 29.5848 72.5017 30.1610 0.0000 -2.6266 0.0000
# 3 28.3871 30.1610 88.1185 0.0000 -2.4742 0.0000
# 4 0.0000 0.0000 0.0000 16.5269 0.0000 -1.7313
# 5 -4.4124 -2.6266 -2.4742 0.0000 23.1027 0.0000
# 6 0.0000 0.0000 0.0000 -1.7313 0.0000 15.6226
#
#
#
# Elastic Compliance Matrix: (Units=1/GPa)
#
#
# Indices 1 2 3 4 5 6 
#
# 1 0.040426 -0.012764 -0.008504 0.000000 0.005359 0.000000
# 2 -0.012764 0.020149 -0.002797 0.000000 -0.000447 0.000000
# 3 -0.008504 -0.002797 0.015036 0.000000 -0.000332 0.000000
# 4 0.000000 0.000000 0.000000 0.061218 0.000000 0.006784
# 5 0.005359 -0.000447 -0.000332 0.000000 0.044222 0.000000
# 6 0.000000 0.000000 0.000000 0.006784 0.000000 0.064762
#
#
# Mechanical properties :
#
#
# Convention : Reuss Voigt Hill
#
# Bulk Modulus (GPa) = 36.38948 41.94668 39.16808
# Shear Modulus (GPa) = 16.49603 18.59186 17.54395
#
# Velocity S-wave (km/s) = 3.18654 3.38292 3.28620
# Velocity P-wave (km/s) = 5.99484 6.40929 6.20553
#
# Compressibility (1/GPa) = 0.02748047
#
# Stress axis : x y z
#
# Youngs Moduli (GPa) = 24.73647 49.63080 66.50783
#
# Poissons Ratio (x) = 0.63351 0.56556
# Poissons Ratio (y) = 0.31575 0.18602
# Poissons Ratio (z) = 0.21035 0.13882
#
# Static dielectric constant tensor:
#      x y z
#    x 1.612010 0.000000 -0.010040 
#    y 0.000000 1.538280 0.000000 
#    z -0.010040 0.000000 1.612340 
# 
# From -- ./inp_files/136650.got.cif
#   From: 2010.05.17/outbox.cif.g08.bks.cpg/sg12_69_cif.got.tgz:136650.got - 2010.06.03 13:09:07.
