data_PCOD9168687
_publ_section_title
;
Structure prediction by ZEFSAII (Michael W. Deem and Ramdas Pophale) SiO2 
 PCOD9168687
Probable space group: C 2/M
;
_chemical_formula_sum "Si O2"
_cell_formula_units_Z 48
_cell_length_a 21.741672
_cell_length_b 13.251123
_cell_length_c 13.155256
_cell_angle_alpha 90.000000
_cell_angle_beta 135.077256
_cell_angle_gamma 90.000000
_cell_volume 2676.353959
_symmetry_space_group_name_H-M "C 2/M"
_symmetry_group_IT_number 12
_symmetry_cell_setting 'monoclinic'
loop_
_space_group_symop_operation_xyz
x,y,z
-x,y,-z
-x,-y,-z
x,-y,z
1/2+x,1/2+y,z
1/2-x,1/2+y,-z
1/2-x,1/2-y,-z
1/2+x,1/2-y,z
loop_
_atom_site_type_symbol
_atom_site_label
_atom_site_fract_x
_atom_site_fract_y
_atom_site_fract_z
Si Si1 0.439559 0.614057 0.531610
Si Si2 0.420458 0.117936 0.985106
Si Si3 0.347054 0.886669 0.270330
Si Si4 0.953698 0.728543 0.233639
Si Si5 0.196670 0.113022 0.926073
Si Si6 0.235384 0.805427 0.750946
O O1 0.500000 0.627651 0.500000
O O2 0.456245 0.500000 0.587360
O O3 0.465238 0.702264 0.639635
O O4 0.337955 0.625877 0.386657
O O5 0.452428 0.161662 0.131082
O O6 0.395296 0.000000 0.969086
O O7 0.500000 0.124093 0.000000
O O8 0.335947 0.177159 0.842237
O O9 0.426998 0.837429 0.301608
O O10 0.305858 0.806960 0.300900
O O11 0.365201 0.000000 0.328680
O O12 0.272081 0.892765 0.096678
O O13 0.878885 0.812475 0.129034
O O14 0.233475 0.160026 0.866392
O O15 0.164263 0.000000 0.867834
#
# Coordination Sequence:
#
# PCOD9168687 Si02
#       6
#     8   8   8   8   8   8
#     4  11  21  32  53  86 119 147 175 213 272 340
#     4  11  23  39  60  80 101 142 196 237 267 309
#     4  10  18  28  50  81 112 143 173 217 283 332
#     4  11  19  33  50  81 114 143 175 222 274 322
#     4  10  16  26  51  80 109 138 169 219 278 327
#     4  11  19  35  53  81 113 142 179 226 270 322
#
# _framework density 17.934847000000001
#
# number of rings (size 3 to 8) (size 9 to 14) (size 15 to 20)
#    0.000    1.333    6.667    3.500    0.000    0.000 
#    0.000    3.333    0.000    4.500    0.000    0.000 
#    0.000    0.000    0.000    0.000    0.000    0.000 
#
# Total GULP energy -133822.974113 kJ/mol
# GULP energy per Si atom -5575.957255 kJ/mol
# Density = 1.789403 g / cm^3
# Si number density = 17.934847 Si / 1000 Ang^3
#
#
#
# Elastic Constant Matrix: (Units=GPa)
#
#
# Indices 1 2 3 4 5 6 
#
# 1 45.5176 28.7156 13.7481 0.0000 12.7429 0.0000
# 2 28.7156 142.1888 11.2329 0.0000 4.6050 0.0000
# 3 13.7481 11.2329 63.8319 0.0000 15.5857 0.0000
# 4 0.0000 0.0000 0.0000 24.3863 0.0000 -1.2553
# 5 12.7429 4.6050 15.5857 0.0000 12.1831 0.0000
# 6 0.0000 0.0000 0.0000 -1.2553 0.0000 18.3057
#
#
#
# Elastic Compliance Matrix: (Units=1/GPa)
#
#
# Indices 1 2 3 4 5 6 
#
# 1 0.035909 -0.006219 0.002846 0.000000 -0.038850 0.000000
# 2 -0.006219 0.008230 -0.001363 0.000000 0.005138 0.000000
# 3 0.002846 -0.001363 0.023114 0.000000 -0.032031 0.000000
# 4 0.000000 0.000000 0.000000 0.041152 0.000000 0.002822
# 5 -0.038850 0.005138 -0.032031 0.000000 0.161753 0.000000
# 6 0.000000 0.000000 0.000000 0.002822 0.000000 0.054821
#
#
# Mechanical properties :
#
#
# Convention : Reuss Voigt Hill
#
# Bulk Modulus (GPa) = 17.30647 39.88127 28.59387
# Shear Modulus (GPa) = 14.13579 24.16446 19.15013
#
# Velocity S-wave (km/s) = 2.81049 3.67460 3.27121
# Velocity P-wave (km/s) = 4.49471 6.34733 5.49959
#
# Compressibility (1/GPa) = 0.05778185
#
# Stress axis : x y z
#
# Youngs Moduli (GPa) = 27.84783 121.50515 43.26355
#
# Poissons Ratio (x) = 0.75560 -0.12314
# Poissons Ratio (y) = 0.17318 0.05899
# Poissons Ratio (z) = -0.07926 0.16566
#
# Static dielectric constant tensor:
#      x y z
#    x 1.597740 0.000000 0.017660 
#    y 0.000000 1.643400 0.000000 
#    z 0.017660 0.000000 1.654910 
# 
# From -- ./inp_files/233470.got.cif
#   From: 2010.05.17/outbox.cif.g08.bks.cpg/sg12_117_cif.got.tgz:233470.got - 2010.06.03 13:09:07.
