data_PCOD9168541
_publ_section_title
;
Structure prediction by ZEFSAII (Michael W. Deem and Ramdas Pophale) SiO2 
 PCOD9168541
Probable space group: C 2/M
;
_chemical_formula_sum "Si O2"
_cell_formula_units_Z 48
_cell_length_a 12.567586
_cell_length_b 13.806663
_cell_length_c 10.138627
_cell_angle_alpha 90.000000
_cell_angle_beta 90.569009
_cell_angle_gamma 90.000000
_cell_volume 1759.131556
_symmetry_space_group_name_H-M "C 2/M"
_symmetry_group_IT_number 12
_symmetry_cell_setting 'monoclinic'
loop_
_space_group_symop_operation_xyz
x,y,z
-x,y,-z
-x,-y,-z
x,-y,z
1/2+x,1/2+y,z
1/2-x,1/2+y,-z
1/2-x,1/2-y,-z
1/2+x,1/2-y,z
loop_
_atom_site_type_symbol
_atom_site_label
_atom_site_fract_x
_atom_site_fract_y
_atom_site_fract_z
Si Si1 0.089841 0.884640 0.887254
Si Si2 0.139181 0.611553 0.268410
Si Si3 0.410353 0.314608 0.734469
Si Si4 0.211926 0.884875 0.494291
Si Si5 0.262674 0.889050 0.082192
Si Si6 0.401585 0.884843 0.308752
O O1 0.032900 0.837566 0.761392
O O2 0.097864 0.000000 0.864703
O O3 0.201946 0.852037 0.950779
O O4 0.000000 0.870056 0.000000
O O5 0.136417 0.500000 0.218870
O O6 0.123072 0.713621 0.196173
O O7 0.245113 0.622790 0.356459
O O8 0.025397 0.621799 0.343970
O O9 0.380588 0.327191 0.581025
O O10 0.331260 0.388403 0.808790
O O11 0.316692 0.850336 0.413631
O O12 0.191155 0.000000 0.476430
O O13 0.364767 0.848515 0.162219
O O14 0.289467 0.000000 0.050565
O O15 0.382651 0.000000 0.303247
#
# Coordination Sequence:
#
# PCOD9168541 Si02
#       6
#     8   8   8   8   8   8
#     4   8  13  23  41  63  81  96 121 162 206 237
#     4  10  19  27  36  56  85 111 132 155 188 230
#     4  10  16  24  39  61  84 102 124 159 201 236
#     4   9  16  27  43  60  77 100 131 166 200 231
#     4   8  14  26  46  66  79  95 124 165 206 236
#     4   8  14  26  42  58  78 103 129 159 195 233
#
# _framework density 27.286190999999999
#
# number of rings (size 3 to 8) (size 9 to 14) (size 15 to 20)
#    0.000    3.167    0.000    4.500    0.000    2.000 
#    0.000    0.833    0.000    4.500    0.000   14.000 
#    0.000   28.000    0.000    0.000    0.000    0.000 
#
# Total GULP energy -133836.222147 kJ/mol
# GULP energy per Si atom -5576.509256 kJ/mol
# Density = 2.722409 g / cm^3
# Si number density = 27.286191 Si / 1000 Ang^3
#
#
#
# Elastic Constant Matrix: (Units=GPa)
#
#
# Indices 1 2 3 4 5 6 
#
# 1 89.5188 12.6636 32.9571 0.0000 26.2905 0.0000
# 2 12.6636 116.9327 37.6201 0.0000 15.9491 0.0000
# 3 32.9571 37.6201 136.8103 0.0000 49.4354 0.0000
# 4 0.0000 0.0000 0.0000 28.9305 0.0000 22.7645
# 5 26.2905 15.9491 49.4354 0.0000 46.3766 0.0000
# 6 0.0000 0.0000 0.0000 22.7645 0.0000 17.6433
#
#
#
# Elastic Compliance Matrix: (Units=1/GPa)
#
#
# Indices 1 2 3 4 5 6 
#
# 1 0.013464 -0.000305 -0.000715 0.000000 -0.006766 0.000000
# 2 -0.000305 0.009406 -0.002288 0.000000 -0.000623 0.000000
# 3 -0.000715 -0.002288 0.012491 0.000000 -0.012123 0.000000
# 4 0.000000 0.000000 0.000000 -2.263332 0.000000 2.920302
# 5 -0.006766 -0.000623 -0.012123 0.000000 0.038535 0.000000
# 6 0.000000 0.000000 0.000000 2.920302 0.000000 -3.711291
#
#
# Mechanical properties :
#
#
# Convention : Reuss Voigt Hill
#
# Bulk Modulus (GPa) = 34.78774 56.63815 45.71294
# Shear Modulus (GPa) = -0.84969 35.92482 17.53757
#
# Velocity S-wave (km/s) = -0.55864 3.63243 2.53796
# Velocity P-wave (km/s) = 3.51579 6.19636 5.03764
#
# Compressibility (1/GPa) = 0.02874576
#
# Stress axis : x y z
#
# Youngs Moduli (GPa) = 74.27095 106.31507 80.05573
#
# Poissons Ratio (x) = 0.03247 0.05722
# Poissons Ratio (y) = 0.02268 0.18315
# Poissons Ratio (z) = 0.05308 0.24323
#
# Static dielectric constant tensor:
#      x y z
#    x 2.097970 0.000000 -0.057540 
#    y 0.000000 2.196920 0.000000 
#    z -0.057540 0.000000 2.270790 
# 
# From -- ./inp_files/240213.got.cif
#   From: 2010.05.17/outbox.cif.g08.bks.cpg/sg12_121_cif.got.tgz:240213.got - 2010.06.03 13:09:07.
