data_PCOD9168769
_publ_section_title
;
Structure prediction by ZEFSAII (Michael W. Deem and Ramdas Pophale) SiO2 
 PCOD9168769
Probable space group: C 2/M
;
_chemical_formula_sum "Si O2"
_cell_formula_units_Z 40
_cell_length_a 13.711422
_cell_length_b 25.981956
_cell_length_c 8.074242
_cell_angle_alpha 90.000000
_cell_angle_beta 139.840514
_cell_angle_gamma 90.000000
_cell_volume 1855.069677
_symmetry_space_group_name_H-M "C 2/M"
_symmetry_group_IT_number 12
_symmetry_cell_setting 'monoclinic'
loop_
_space_group_symop_operation_xyz
x,y,z
-x,y,-z
-x,-y,-z
x,-y,z
1/2+x,1/2+y,z
1/2-x,1/2+y,-z
1/2-x,1/2-y,-z
1/2+x,1/2-y,z
loop_
_atom_site_type_symbol
_atom_site_label
_atom_site_fract_x
_atom_site_fract_y
_atom_site_fract_z
Si Si1 0.132419 0.000000 0.917849
Si Si2 0.325963 0.603108 0.843298
Si Si3 0.312966 0.281461 0.419844
Si Si4 0.796790 0.000000 0.377460
Si Si5 0.605778 0.289102 0.968559
Si Si6 0.164926 0.389217 0.292597
O O1 0.165546 0.000000 0.767027
O O2 0.949004 0.000000 0.686465
O O3 0.196631 0.949159 0.086534
O O4 0.202343 0.610444 0.538025
O O5 0.500000 0.599844 0.000000
O O6 0.324142 0.654245 0.952072
O O7 0.250000 0.250000 0.500000
O O8 0.491053 0.277953 0.673335
O O9 0.267502 0.341358 0.366168
O O10 0.229185 0.253805 0.162051
O O11 0.711957 0.946692 0.301334
O O12 0.500000 0.290626 0.000000
O O13 0.000000 0.379304 0.000000
#
# Coordination Sequence:
#
# PCOD9168769 Si02
#       6
#     4   8   8   4   8   8
#     4  11  22  38  62  76 108 148 181 234 273 327
#     4  11  18  35  57  84 107 140 191 225 266 324
#     4  10  16  28  48  81 113 137 169 227 277 309
#     4  11  24  39  54  85 110 141 188 224 283 323
#     4   9  16  26  46  80 112 133 173 222 267 325
#     4  12  22  35  56  85 115 142 180 232 271 321
#
# _framework density 21.562533999999999
#
# number of rings (size 3 to 8) (size 9 to 14) (size 15 to 20)
#    0.000    1.400    8.000    3.000    0.000    0.000 
#    0.000    2.000    0.000    1.200    0.000    0.000 
#    0.000    0.000    0.000    0.000    0.000    0.000 
#
# Total GULP energy -111678.537557 kJ/mol
# GULP energy per Si atom -5583.926878 kJ/mol
# Density = 2.151346 g / cm^3
# Si number density = 21.562534 Si / 1000 Ang^3
#
#
#
# Elastic Constant Matrix: (Units=GPa)
#
#
# Indices 1 2 3 4 5 6 
#
# 1 22.7851 16.2701 24.9088 0.0000 0.5072 0.0000
# 2 16.2701 179.8678 74.4379 0.0000 3.2645 0.0000
# 3 24.9088 74.4379 230.6608 0.0000 5.9853 0.0000
# 4 0.0000 0.0000 0.0000 37.1647 0.0000 4.7700
# 5 0.5072 3.2645 5.9853 0.0000 23.4958 0.0000
# 6 0.0000 0.0000 0.0000 4.7700 0.0000 -11.3714
#
#
#
# Elastic Compliance Matrix: (Units=1/GPa)
#
#
# Indices 1 2 3 4 5 6 
#
# 1 0.050868 -0.002691 -0.004637 0.000000 0.000457 0.000000
# 2 -0.002691 0.006562 -0.001817 0.000000 -0.000391 0.000000
# 3 -0.004637 -0.001817 0.005449 0.000000 -0.001036 0.000000
# 4 0.000000 0.000000 0.000000 0.025533 0.000000 0.010710
# 5 0.000457 -0.000391 -0.001036 0.000000 0.042869 0.000000
# 6 0.000000 0.000000 0.000000 0.010710 0.000000 -0.083447
#
#
# Mechanical properties :
#
#
# Convention : Reuss Voigt Hill
#
# Bulk Modulus (GPa) = 22.42611 73.83861 48.13236
# Shear Modulus (GPa) = 61.73835 31.03761 46.38798
#
# Velocity S-wave (km/s) = 5.35671 3.79809 4.64327
# Velocity P-wave (km/s) = 6.97727 7.31794 7.14963
#
# Compressibility (1/GPa) = 0.04459089
#
# Stress axis : x y z
#
# Youngs Moduli (GPa) = 19.65857 152.39076 183.50895
#
# Poissons Ratio (x) = 0.41004 0.85088
# Poissons Ratio (y) = 0.05290 0.33343
# Poissons Ratio (z) = 0.09115 0.27689
#
# Static dielectric constant tensor:
#      x y z
#    x 1.817730 0.000000 -0.009180 
#    y 0.000000 1.809410 0.000000 
#    z -0.009180 0.000000 1.783710 
# 
# From -- ./inp_files/79964.got.cif
#   From: 2010.05.17/outbox.cif.g08.bks.cpg/sg12_40_cif.got.tgz:79964.got - 2010.06.03 13:09:07.
