data_PCOD9168391
_publ_section_title
;
Structure prediction by ZEFSAII (Michael W. Deem and Ramdas Pophale) SiO2 
 PCOD9168391
Probable space group: C 2/M
;
_chemical_formula_sum "Si O2"
_cell_formula_units_Z 58
_cell_length_a 14.210002
_cell_length_b 12.949263
_cell_length_c 17.943110
_cell_angle_alpha 90.000000
_cell_angle_beta 130.629334
_cell_angle_gamma 90.000000
_cell_volume 2505.781650
_symmetry_space_group_name_H-M "C 2/M"
_symmetry_group_IT_number 12
_symmetry_cell_setting 'monoclinic'
loop_
_space_group_symop_operation_xyz
x,y,z
-x,y,-z
-x,-y,-z
x,-y,z
1/2+x,1/2+y,z
1/2-x,1/2+y,-z
1/2-x,1/2-y,-z
1/2+x,1/2-y,z
loop_
_atom_site_type_symbol
_atom_site_label
_atom_site_fract_x
_atom_site_fract_y
_atom_site_fract_z
Si Si1 0.878194 0.374785 0.978843
Si Si2 0.101542 0.877133 0.434830
Si Si3 0.321655 0.181231 0.436341
Si Si4 0.762035 0.624554 0.240484
Si Si5 0.477687 0.375263 0.104918
Si Si6 0.611949 0.624964 0.780539
Si Si7 0.712499 0.124043 0.906081
Si Si8 0.500000 0.000000 0.500000
O O1 0.882924 0.500000 0.980967
O O2 0.855485 0.155661 0.995696
O O3 0.863476 0.348896 0.058922
O O4 0.000000 0.337160 0.000000
O O5 0.198602 0.853793 0.417745
O O6 0.137870 0.794864 0.516630
O O7 0.965906 0.849252 0.332485
O O8 0.106531 0.000000 0.456315
O O9 0.299316 0.176486 0.336400
O O10 0.422201 0.092028 0.503655
O O11 0.777485 0.500000 0.261939
O O12 0.616773 0.647952 0.152470
O O13 0.831779 0.652146 0.199732
O O14 0.472830 0.500000 0.101074
O O15 0.458417 0.342091 0.180367
O O16 0.609423 0.500000 0.780394
O O17 0.754673 0.652203 0.869237
O O18 0.715007 0.000000 0.905146
#
# Coordination Sequence:
#
# PCOD9168391 Si02
#       8
#     8   8   8   8   8   8   8   2
#     4   8  13  22  37  70 118 181 229 278 341 415
#     4  10  19  37  61  98 130 185 249 302 349 425
#     4  11  22  35  62  93 139 187 236 302 369 430
#     4  10  15  25  43  75 120 178 224 271 346 429
#     4   8  12  19  35  66 117 169 207 259 333 411
#     4   8  13  23  45  75 122 169 225 284 342 413
#     4   8  14  20  34  66 114 175 219 266 339 417
#     4  12  24  44  58 104 138 186 228 294 396 440
#
# _framework density 23.146470000000001
#
# number of rings (size 3 to 8) (size 9 to 14) (size 15 to 20)
#    0.000    2.897    2.759    2.069    0.000    1.655 
#    0.000    0.345    0.000    0.000    7.172    0.000 
#    0.000   11.034    8.552    0.138    1.793    0.552 
#
# Total GULP energy -161754.489235 kJ/mol
# GULP energy per Si atom -5577.741008 kJ/mol
# Density = 2.309379 g / cm^3
# Si number density = 23.146470 Si / 1000 Ang^3
#
#
#
# Elastic Constant Matrix: (Units=GPa)
#
#
# Indices 1 2 3 4 5 6 
#
# 1 123.5941 29.9770 65.7064 0.0000 -20.8655 0.0000
# 2 29.9770 155.8635 74.7480 0.0000 -10.4822 0.0000
# 3 65.7064 74.7480 161.2647 0.0000 -28.8125 0.0000
# 4 0.0000 0.0000 0.0000 39.7036 0.0000 1.7796
# 5 -20.8655 -10.4822 -28.8125 0.0000 21.4224 0.0000
# 6 0.0000 0.0000 0.0000 1.7796 0.0000 22.7661
#
#
#
# Elastic Compliance Matrix: (Units=1/GPa)
#
#
# Indices 1 2 3 4 5 6 
#
# 1 0.010906 -0.000102 -0.003300 0.000000 0.006134 0.000000
# 2 -0.000102 0.008285 -0.004070 0.000000 -0.001520 0.000000
# 3 -0.003300 -0.004070 0.011191 0.000000 0.009846 0.000000
# 4 0.000000 0.000000 0.000000 0.025275 0.000000 -0.001976
# 5 0.006134 -0.001520 0.009846 0.000000 0.065153 0.000000
# 6 0.000000 0.000000 0.000000 -0.001976 0.000000 0.044079
#
#
# Mechanical properties :
#
#
# Convention : Reuss Voigt Hill
#
# Bulk Modulus (GPa) = 64.77935 86.84279 75.81107
# Shear Modulus (GPa) = 27.02974 34.79781 30.91378
#
# Velocity S-wave (km/s) = 3.42097 3.88154 3.65851
# Velocity P-wave (km/s) = 6.60693 7.59531 7.11830
#
# Compressibility (1/GPa) = 0.01543702
#
# Stress axis : x y z
#
# Youngs Moduli (GPa) = 91.69429 120.69586 89.35439
#
# Poissons Ratio (x) = 0.01235 0.29489
# Poissons Ratio (y) = 0.00938 0.36369
# Poissons Ratio (z) = 0.30261 0.49126
#
# Static dielectric constant tensor:
#      x y z
#    x 1.882840 0.000000 0.023530 
#    y 0.000000 1.925550 0.000000 
#    z 0.023530 0.000000 1.868680 
# 
# From -- ./inp_files/276619.got.cif
#   From: 2010.05.17/outbox.cif.g08.bks.cpg/sg12_139_cif.got.tgz:276619.got - 2010.06.03 13:09:07.
