data_PCOD9168075
_publ_section_title
;
Structure prediction by ZEFSAII (Michael W. Deem and Ramdas Pophale) SiO2 
 PCOD9168075
Probable space group: P 21/M
;
_chemical_formula_sum "Si O2"
_cell_formula_units_Z 28
_cell_length_a 15.000000
_cell_length_b 9.000000
_cell_length_c 21.000000
_cell_angle_alpha 90.000000
_cell_angle_beta 150.000000
_cell_angle_gamma 90.000000
_cell_volume 1417.500000
_symmetry_space_group_name_H-M "P 21/M"
_symmetry_group_IT_number 11
_symmetry_cell_setting 'monoclinic'
loop_
_space_group_symop_operation_xyz
x,y,z
-x,1/2+y,-z
-x,-y,-z
x,1/2-y,z
loop_
_atom_site_type_symbol
_atom_site_label
_atom_site_fract_x
_atom_site_fract_y
_atom_site_fract_z
Si Si1 0.590262 0.921552 0.477293
Si Si2 0.062222 0.074862 0.604719
Si Si3 0.212391 0.928389 0.298620
Si Si4 0.265486 0.419632 0.567743
Si Si5 0.926945 0.927330 0.018889
Si Si6 0.435351 0.428150 0.895274
Si Si7 0.418636 0.925502 0.146537
O O1 0.603413 0.750000 0.505997
O O2 0.396226 0.977499 0.377839
O O3 0.601771 0.925975 0.409114
O O4 0.754130 0.006728 0.610992
O O5 0.081695 0.250000 0.606665
O O6 0.241339 0.020323 0.750002
O O7 0.000000 0.000000 0.500000
O O8 0.892049 0.033458 0.541669
O O9 0.207873 0.750000 0.298551
O O10 0.046564 0.977158 0.153481
O O11 0.195746 0.250000 0.528381
O O12 0.384290 0.450247 0.703046
O O13 0.940462 0.750000 0.022187
O O14 0.726815 0.978361 0.908010
O O15 0.000000 0.000000 0.000000
O O16 0.425461 0.250000 0.896644
O O17 0.571596 0.459573 0.922008
O O18 0.500000 0.500000 0.000000
O O19 0.381034 0.750000 0.132356
#
# Coordination Sequence:
#
# PCOD9168075 Si02
#       7
#     4   4   4   4   4   4   4
#     4   9  18  33  56  81 107 146 188 231 286 344
#     4  11  22  39  62  88 117 152 195 244 297 353
#     4   9  19  36  54  75 111 150 185 233 286 337
#     4  10  20  37  60  86 117 151 193 243 296 351
#     4  11  23  38  58  85 116 154 196 240 293 352
#     4  10  23  42  63  88 122 163 203 250 309 364
#     4  10  21  40  61  83 118 158 196 245 300 355
#
# _framework density 19.753086
#
# number of rings (size 3 to 8) (size 9 to 14) (size 15 to 20)
#    0.000    2.000    1.429    1.714    0.000    7.429 
#    0.000    8.571    0.000    0.000    0.000    0.000 
#    0.000    0.000    0.000    0.000    0.000    0.000 
#
# Total GULP energy -156093.845079 kJ/mol
# GULP energy per Si atom -5574.780181 kJ/mol
# Density = 1.970813 g / cm^3
# Si number density = 19.753086 Si / 1000 Ang^3
#
#
#
# Elastic Constant Matrix: (Units=GPa)
#
#
# Indices 1 2 3 4 5 6 
#
# 1 70.7071 30.3788 27.3473 0.0000 -12.6593 0.0000
# 2 30.3788 32.1448 39.8651 0.0000 -2.2401 0.0000
# 3 27.3473 39.8651 95.1048 0.0000 -10.7499 0.0000
# 4 0.0000 0.0000 0.0000 32.7537 0.0000 -2.8189
# 5 -12.6593 -2.2401 -10.7499 0.0000 27.5746 0.0000
# 6 0.0000 0.0000 0.0000 -2.8189 0.0000 28.8622
#
#
#
# Elastic Compliance Matrix: (Units=1/GPa)
#
#
# Indices 1 2 3 4 5 6 
#
# 1 0.029580 -0.038312 0.009139 0.000000 0.014031 0.000000
# 2 -0.038312 0.115238 -0.039979 0.000000 -0.023813 0.000000
# 3 0.009139 -0.039979 0.025893 0.000000 0.011042 0.000000
# 4 0.000000 0.000000 0.000000 0.030790 0.000000 0.003007
# 5 0.014031 -0.023813 0.011042 0.000000 0.045077 0.000000
# 6 0.000000 0.000000 0.000000 0.003007 0.000000 0.034941
#
#
# Mechanical properties :
#
#
# Convention : Reuss Voigt Hill
#
# Bulk Modulus (GPa) = 30.85696 43.68213 37.26954
# Shear Modulus (GPa) = 11.61100 24.52912 18.07006
#
# Velocity S-wave (km/s) = 2.42710 3.52772 3.02784
# Velocity P-wave (km/s) = 4.84868 6.22537 5.57965
#
# Compressibility (1/GPa) = 0.03240760
#
# Stress axis : x y z
#
# Youngs Moduli (GPa) = 33.80606 8.67769 38.62035
#
# Poissons Ratio (x) = 0.33246 -0.35296
# Poissons Ratio (y) = 1.29517 1.54402
# Poissons Ratio (z) = -0.30896 0.34693
#
# Static dielectric constant tensor:
#      x y z
#    x 1.763230 0.000000 0.002860 
#    y 0.000000 1.693540 0.000000 
#    z 0.002860 0.000000 1.697490 
# 
# From -- ./inp_files/65463.got.cif
#   From: 2010.05.17/outbox.ucp.g08.bks.cvg/sg11_33_cif.got.tgz:65463.got - 2010.06.11 11:38:39.
