data_PCOD9168465
_publ_section_title
;
Structure prediction by ZEFSAII (Michael W. Deem and Ramdas Pophale) SiO2 
 PCOD9168465
Probable space group: C 2/M
;
_chemical_formula_sum "Si O2"
_cell_formula_units_Z 32
_cell_length_a 15.004325
_cell_length_b 17.802354
_cell_length_c 6.913956
_cell_angle_alpha 90.000000
_cell_angle_beta 126.646687
_cell_angle_gamma 90.000000
_cell_volume 1481.747779
_symmetry_space_group_name_H-M "C 2/M"
_symmetry_group_IT_number 12
_symmetry_cell_setting 'monoclinic'
loop_
_space_group_symop_operation_xyz
x,y,z
-x,y,-z
-x,-y,-z
x,-y,z
1/2+x,1/2+y,z
1/2-x,1/2+y,-z
1/2-x,1/2-y,-z
1/2+x,1/2-y,z
loop_
_atom_site_type_symbol
_atom_site_label
_atom_site_fract_x
_atom_site_fract_y
_atom_site_fract_z
Si Si1 0.306871 0.414684 0.266611
Si Si2 0.123885 0.780787 0.883773
Si Si3 0.393998 0.124880 0.270766
Si Si4 0.719655 0.669371 0.372621
O O1 0.345437 0.500000 0.299891
O O2 0.384263 0.352807 0.263010
O O3 0.298208 0.387703 0.476248
O O4 0.186527 0.408873 0.999573
O O5 0.059364 0.704462 0.756549
O O6 0.250000 0.750000 0.000000
O O7 0.120830 0.810971 0.096531
O O8 0.500000 0.084282 0.500000
O O9 0.314038 0.139227 0.350626
O O10 0.750000 0.750000 0.500000
#
# Coordination Sequence:
#
# PCOD9168465 Si02
#       4
#     8   8   8   8
#     4  10  19  32  51  76 101 131 167 205 243 290
#     4   8  16  31  51  69  94 126 174 204 235 281
#     4  10  20  32  50  76 105 131 161 200 251 298
#     4  10  15  32  53  69  92 133 178 201 227 287
#
# _framework density 21.596117
#
# number of rings (size 3 to 8) (size 9 to 14) (size 15 to 20)
#    0.000    3.000    7.500    0.000    0.000    5.500 
#    0.000    1.250    0.000    0.750    0.000    1.750 
#    0.000    0.000    0.000    0.000    0.000    0.000 
#
# Total GULP energy -89093.151650 kJ/mol
# GULP energy per Si atom -5568.321978 kJ/mol
# Density = 2.154696 g / cm^3
# Si number density = 21.596117 Si / 1000 Ang^3
#
#
#
# Elastic Constant Matrix: (Units=GPa)
#
#
# Indices 1 2 3 4 5 6 
#
# 1 39.1040 7.6579 44.7888 0.0000 -0.7895 0.0000
# 2 7.6579 154.4664 31.1896 0.0000 -16.9123 0.0000
# 3 44.7888 31.1896 144.2417 0.0000 -24.1670 0.0000
# 4 0.0000 0.0000 0.0000 14.6237 0.0000 -10.7654
# 5 -0.7895 -16.9123 -24.1670 0.0000 40.5013 0.0000
# 6 0.0000 0.0000 0.0000 -10.7654 0.0000 3.9207
#
#
#
# Elastic Compliance Matrix: (Units=1/GPa)
#
#
# Indices 1 2 3 4 5 6 
#
# 1 0.041737 -0.000036 -0.014242 0.000000 -0.007700 0.000000
# 2 -0.000036 0.006946 -0.001116 0.000000 0.002234 0.000000
# 3 -0.014242 -0.001116 0.012746 0.000000 0.006862 0.000000
# 4 0.000000 0.000000 0.000000 -0.066953 0.000000 -0.183839
# 5 -0.007700 0.002234 0.006862 0.000000 0.029568 0.000000
# 6 0.000000 0.000000 0.000000 -0.183839 0.000000 -0.249727
#
#
# Mechanical properties :
#
#
# Convention : Reuss Voigt Hill
#
# Bulk Modulus (GPa) = 32.63797 56.12053 44.37925
# Shear Modulus (GPa) = -27.07378 28.75419 0.84020
#
# Velocity S-wave (km/s) = -3.54452 3.65286 0.62442
# Velocity P-wave (km/s) = 1.26720 6.62073 4.59501
#
# Compressibility (1/GPa) = 0.03063916
#
# Stress axis : x y z
#
# Youngs Moduli (GPa) = 23.95957 143.97484 78.45493
#
# Poissons Ratio (x) = 0.00525 1.11736
# Poissons Ratio (y) = 0.00087 0.08758
# Poissons Ratio (z) = 0.34123 0.16072
#
# Static dielectric constant tensor:
#      x y z
#    x 1.824120 0.000000 0.061220 
#    y 0.000000 1.782610 0.000000 
#    z 0.061220 0.000000 1.868120 
# 
# From -- ./inp_files/14873.got.cif
#   From: 2010.05.17/outbox.cif.g08.bks.cpg/sg12_8_cif.got.tgz:14873.got - 2010.06.03 13:09:07.
