data_PCOD9168626
_publ_section_title
;
Structure prediction by ZEFSAII (Michael W. Deem and Ramdas Pophale) SiO2 
 PCOD9168626
Probable space group: C 2/M
;
_chemical_formula_sum "Si O2"
_cell_formula_units_Z 64
_cell_length_a 19.448166
_cell_length_b 28.108621
_cell_length_c 10.869308
_cell_angle_alpha 90.000000
_cell_angle_beta 44.099082
_cell_angle_gamma 90.000000
_cell_volume 4134.925888
_symmetry_space_group_name_H-M "C 2/M"
_symmetry_group_IT_number 12
_symmetry_cell_setting 'monoclinic'
loop_
_space_group_symop_operation_xyz
x,y,z
-x,y,-z
-x,-y,-z
x,-y,z
1/2+x,1/2+y,z
1/2-x,1/2+y,-z
1/2-x,1/2-y,-z
1/2+x,1/2-y,z
loop_
_atom_site_type_symbol
_atom_site_label
_atom_site_fract_x
_atom_site_fract_y
_atom_site_fract_z
Si Si1 0.808304 0.131642 0.690674
Si Si2 0.545183 0.445843 0.581160
Si Si3 0.565241 0.292911 0.591195
Si Si4 0.094401 0.335770 0.941009
Si Si5 0.901999 0.721086 0.813567
Si Si6 0.776021 0.197639 0.122866
Si Si7 0.109704 0.232721 0.807606
Si Si8 0.600989 0.374679 0.160756
O O1 0.863902 0.090987 0.541407
O O2 0.854123 0.184053 0.602004
O O3 0.692966 0.133736 0.815863
O O4 0.834530 0.122440 0.798453
O O5 0.500000 0.444947 0.500000
O O6 0.570379 0.500000 0.578805
O O7 0.459572 0.423238 0.776324
O O8 0.501869 0.246381 0.639903
O O9 0.611826 0.281613 0.663609
O O10 0.484271 0.335157 0.706697
O O11 0.111577 0.288793 0.834243
O O12 0.078014 0.316035 0.101242
O O13 0.000000 0.359829 0.000000
O O14 0.832761 0.700977 0.794575
O O15 0.839180 0.763004 0.963469
O O16 0.799921 0.210903 0.231805
O O17 0.827177 0.146888 0.032875
O O18 0.000000 0.217066 0.000000
#
# Coordination Sequence:
#
# PCOD9168626 Si02
#       8
#     8   8   8   8   8   8   8   8
#     4  10  19  27  43  62  81 103 139 174 204 248
#     4   8  15  27  41  61  85 103 123 165 219 256
#     4  10  17  27  39  59  80 107 139 173 202 231
#     4  10  17  28  40  55  80 111 143 169 198 235
#     4   9  15  25  38  52  75 108 142 172 190 230
#     4   9  15  23  41  55  74 108 145 163 196 231
#     4  10  16  26  37  53  79 113 144 166 190 231
#     4   9  15  26  42  63  79 104 137 168 200 247
#
# _framework density 15.477907999999999
#
# number of rings (size 3 to 8) (size 9 to 14) (size 15 to 20)
#    0.000    2.625    6.250    1.125    1.750    0.500 
#    0.000    0.000    0.000    0.375    0.000    7.000 
#    0.000    0.000    0.000    0.000    0.000    5.000 
#
# Total GULP energy -178151.256646 kJ/mol
# GULP energy per Si atom -5567.226770 kJ/mol
# Density = 1.544268 g / cm^3
# Si number density = 15.477908 Si / 1000 Ang^3
#
#
#
# Elastic Constant Matrix: (Units=GPa)
#
#
# Indices 1 2 3 4 5 6 
#
# 1 111.5957 26.0256 22.8690 0.0000 -17.4000 0.0000
# 2 26.0256 54.1847 21.7346 0.0000 -13.0444 0.0000
# 3 22.8690 21.7346 27.3477 0.0000 -10.5241 0.0000
# 4 0.0000 0.0000 0.0000 12.0194 0.0000 2.2696
# 5 -17.4000 -13.0444 -10.5241 0.0000 17.9062 0.0000
# 6 0.0000 0.0000 0.0000 2.2696 0.0000 -10.3737
#
#
#
# Elastic Compliance Matrix: (Units=1/GPa)
#
#
# Indices 1 2 3 4 5 6 
#
# 1 0.011568 -0.001619 -0.005834 0.000000 0.006632 0.000000
# 2 -0.001619 0.028531 -0.017999 0.000000 0.008632 0.000000
# 3 -0.005834 -0.017999 0.062704 0.000000 0.018072 0.000000
# 4 0.000000 0.000000 0.000000 0.079898 0.000000 0.017480
# 5 0.006632 0.008632 0.018072 0.000000 0.079202 0.000000
# 6 0.000000 0.000000 0.000000 0.017480 0.000000 -0.092573
#
#
# Mechanical properties :
#
#
# Convention : Reuss Voigt Hill
#
# Bulk Modulus (GPa) = 19.26849 37.15405 28.21127
# Shear Modulus (GPa) = 21.04948 12.07698 16.56323
#
# Velocity S-wave (km/s) = 3.69178 2.79636 3.27482
# Velocity P-wave (km/s) = 5.53609 5.87221 5.70663
#
# Compressibility (1/GPa) = 0.05189821
#
# Stress axis : x y z
#
# Youngs Moduli (GPa) = 86.44272 35.04946 15.94782
#
# Poissons Ratio (x) = 0.05676 0.09305
# Poissons Ratio (y) = 0.13999 0.28705
# Poissons Ratio (z) = 0.50434 0.63086
#
# Static dielectric constant tensor:
#      x y z
#    x 1.543200 0.000000 -0.012510 
#    y 0.000000 1.511360 0.000000 
#    z -0.012510 0.000000 1.563300 
# 
# From -- ./inp_files/160630.got.cif
#   From: 2010.05.17/outbox.cif.g08.bks.cpg/sg12_81_cif.got.tgz:160630.got - 2010.06.03 13:09:07.
