data_PCOD9168332
_publ_section_title
;
Structure prediction by ZEFSAII (Michael W. Deem and Ramdas Pophale) SiO2 
 PCOD9168332
Probable space group: C 2/M
;
_chemical_formula_sum "Si O2"
_cell_formula_units_Z 32
_cell_length_a 13.807869
_cell_length_b 11.131853
_cell_length_c 14.169668
_cell_angle_alpha 90.000000
_cell_angle_beta 136.665132
_cell_angle_gamma 90.000000
_cell_volume 1494.662679
_symmetry_space_group_name_H-M "C 2/M"
_symmetry_group_IT_number 12
_symmetry_cell_setting 'monoclinic'
loop_
_space_group_symop_operation_xyz
x,y,z
-x,y,-z
-x,-y,-z
x,-y,z
1/2+x,1/2+y,z
1/2-x,1/2+y,-z
1/2-x,1/2-y,-z
1/2+x,1/2-y,z
loop_
_atom_site_type_symbol
_atom_site_label
_atom_site_fract_x
_atom_site_fract_y
_atom_site_fract_z
Si Si1 0.717126 0.500000 0.839024
Si Si2 0.352099 0.759100 0.452303
Si Si3 0.435615 0.000000 0.145298
Si Si4 0.576533 0.500000 0.452186
Si Si5 0.044247 0.500000 0.420652
Si Si6 0.889724 0.699303 0.845723
O O1 0.549847 0.500000 0.712652
O O2 0.784329 0.612806 0.830726
O O3 0.782173 0.500000 0.988969
O O4 0.500000 0.752682 0.500000
O O5 0.343081 0.626515 0.490881
O O6 0.373858 0.875062 0.531700
O O7 0.216380 0.779421 0.289905
O O8 0.519849 0.113951 0.160586
O O9 0.433520 0.000000 0.256463
O O10 0.500000 0.500000 0.500000
O O11 0.000000 0.500000 0.500000
O O12 0.000000 0.752173 0.000000
#
# Coordination Sequence:
#
# PCOD9168332 Si02
#       6
#     4   8   4   4   4   8
#     4   9  14  28  52  83 107 126 162 230 269 297
#     4  10  18  32  55  79 106 140 177 209 261 312
#     4   9  19  32  51  80 110 137 177 211 272 317
#     4  10  14  26  56  82 101 126 177 224 250 293
#     4  10  23  38  50  71 111 156 175 205 257 328
#     4   9  16  29  54  84 105 129 166 229 275 299
#
# _framework density 21.409514000000001
#
# number of rings (size 3 to 8) (size 9 to 14) (size 15 to 20)
#    0.000    2.500    5.000    2.250    0.000    1.000 
#    0.000    1.875    0.000    0.000    0.000    0.000 
#    0.000    0.000    0.000    0.000    0.000    0.000 
#
# Total GULP energy -89151.382202 kJ/mol
# GULP energy per Si atom -5571.961388 kJ/mol
# Density = 2.136078 g / cm^3
# Si number density = 21.409514 Si / 1000 Ang^3
#
#
#
# Elastic Constant Matrix: (Units=GPa)
#
#
# Indices 1 2 3 4 5 6 
#
# 1 91.2101 -2.8449 19.1572 0.0000 -8.0735 0.0000
# 2 -2.8449 114.3094 23.4247 0.0000 -4.5464 0.0000
# 3 19.1572 23.4247 210.0058 0.0000 -8.9496 0.0000
# 4 0.0000 0.0000 0.0000 52.7221 0.0000 13.6822
# 5 -8.0735 -4.5464 -8.9496 0.0000 30.5172 0.0000
# 6 0.0000 0.0000 0.0000 13.6822 0.0000 -26.4985
#
#
#
# Elastic Compliance Matrix: (Units=1/GPa)
#
#
# Indices 1 2 3 4 5 6 
#
# 1 0.011440 0.000600 -0.000990 0.000000 0.002826 0.000000
# 2 0.000600 0.009018 -0.001009 0.000000 0.001206 0.000000
# 3 -0.000990 -0.001009 0.005010 0.000000 0.001057 0.000000
# 4 0.000000 0.000000 0.000000 0.016726 0.000000 0.008636
# 5 0.002826 0.001206 0.001057 0.000000 0.034006 0.000000
# 6 0.000000 0.000000 0.000000 0.008636 0.000000 -0.033279
#
#
# Mechanical properties :
#
#
# Convention : Reuss Voigt Hill
#
# Bulk Modulus (GPa) = 44.11227 54.99993 49.55610
# Shear Modulus (GPa) = 93.85027 36.40069 65.12548
#
# Velocity S-wave (km/s) = 6.62804 4.12783 5.52132
# Velocity P-wave (km/s) = 8.90075 6.96160 7.99022
#
# Compressibility (1/GPa) = 0.02266943
#
# Stress axis : x y z
#
# Youngs Moduli (GPa) = 87.40878 110.89049 199.61252
#
# Poissons Ratio (x) = -0.06654 0.19764
# Poissons Ratio (y) = -0.05245 0.20145
# Poissons Ratio (z) = 0.08655 0.11191
#
# Static dielectric constant tensor:
#      x y z
#    x 1.758620 0.000000 -0.026230 
#    y 0.000000 1.739220 0.000000 
#    z -0.026230 0.000000 1.783700 
# 
# From -- ./inp_files/213137.got.cif
#   From: 2010.05.17/outbox.cif.g08.bks.cpg/sg12_107_cif.got.tgz:213137.got - 2010.06.03 13:09:07.
