data_PCOD9168027
_publ_section_title
;
Structure prediction by ZEFSAII (Michael W. Deem and Ramdas Pophale) SiO2 
 PCOD9168027
Probable space group: P 21/M
;
_chemical_formula_sum "Si O2"
_cell_formula_units_Z 28
_cell_length_a 15.000000
_cell_length_b 9.000000
_cell_length_c 18.000000
_cell_angle_alpha 90.000000
_cell_angle_beta 40.000000
_cell_angle_gamma 90.000000
_cell_volume 1561.973892
_symmetry_space_group_name_H-M "P 21/M"
_symmetry_group_IT_number 11
_symmetry_cell_setting 'monoclinic'
loop_
_space_group_symop_operation_xyz
x,y,z
-x,1/2+y,-z
-x,-y,-z
x,1/2-y,z
loop_
_atom_site_type_symbol
_atom_site_label
_atom_site_fract_x
_atom_site_fract_y
_atom_site_fract_z
Si Si1 0.612528 0.427188 0.172549
Si Si2 0.748502 0.578147 0.947045
Si Si3 0.677628 0.429033 0.672484
Si Si4 0.917707 0.075943 0.257742
Si Si5 0.862990 0.429195 0.124390
Si Si6 0.087766 0.071035 0.582115
Si Si7 0.783417 0.929320 0.754661
O O1 0.588547 0.250000 0.192191
O O2 0.467978 0.514923 0.268536
O O3 0.726594 0.467906 0.162947
O O4 0.676740 0.471152 0.051643
O O5 0.706766 0.750000 0.987941
O O6 0.723119 0.544907 0.876221
O O7 0.914499 0.568769 0.853643
O O8 0.685074 0.250000 0.669409
O O9 0.800594 0.498793 0.544388
O O10 0.697823 0.496278 0.742617
O O11 0.882045 0.250000 0.294042
O O12 0.858350 0.030068 0.215037
O O13 0.878533 0.979012 0.354578
O O14 0.877730 0.250000 0.112326
O O15 0.000000 0.500000 0.000000
O O16 0.084923 0.250000 0.577593
O O17 0.937131 0.001729 0.658347
O O18 0.793698 0.750000 0.738026
#
# Coordination Sequence:
#
# PCOD9168027 Si02
#       7
#     4   4   4   4   4   4   4
#     4  11  23  37  56  85 119 153 191 236 286 340
#     4   9  18  34  57  84 116 151 186 230 285 338
#     4  12  25  41  59  80 112 155 196 236 287 341
#     4   9  18  35  58  86 118 150 189 236 284 333
#     4  10  20  35  59  88 118 151 189 235 283 337
#     4  11  22  38  61  88 116 147 191 239 284 337
#     4  10  21  39  62  87 116 149 191 237 283 336
#
# _framework density 17.926036
#
# number of rings (size 3 to 8) (size 9 to 14) (size 15 to 20)
#    0.000    1.714    1.429    4.714    0.000    4.571 
#    0.000    0.714    0.000    0.000    0.000    0.000 
#    0.000    0.000    0.000    0.000    0.000    0.000 
#
# Total GULP energy -156397.124616 kJ/mol
# GULP energy per Si atom -5585.611593 kJ/mol
# Density = 1.788524 g / cm^3
# Si number density = 17.926036 Si / 1000 Ang^3
#
#
#
# Elastic Constant Matrix: (Units=GPa)
#
#
# Indices 1 2 3 4 5 6 
#
# 1 124.5056 35.3034 13.8576 0.0000 8.0515 0.0000
# 2 35.3034 100.5707 13.3588 0.0000 3.9905 0.0000
# 3 13.8576 13.3588 17.3653 0.0000 4.4584 0.0000
# 4 0.0000 0.0000 0.0000 34.2155 0.0000 2.4610
# 5 8.0515 3.9905 4.4584 0.0000 25.1147 0.0000
# 6 0.0000 0.0000 0.0000 2.4610 0.0000 32.3471
#
#
#
# Elastic Compliance Matrix: (Units=1/GPa)
#
#
# Indices 1 2 3 4 5 6 
#
# 1 0.009440 -0.002566 -0.005120 0.000000 -0.001710 0.000000
# 2 -0.002566 0.011774 -0.007063 0.000000 0.000206 0.000000
# 3 -0.005120 -0.007063 0.069566 0.000000 -0.009586 0.000000
# 4 0.000000 0.000000 0.000000 0.029387 0.000000 -0.002236
# 5 -0.001710 0.000206 -0.009586 0.000000 0.042034 0.000000
# 6 0.000000 0.000000 0.000000 -0.002236 0.000000 0.031085
#
#
# Mechanical properties :
#
#
# Convention : Reuss Voigt Hill
#
# Bulk Modulus (GPa) = 16.31786 40.83124 28.57455
# Shear Modulus (GPa) = 20.55825 30.33025 25.44425
#
# Velocity S-wave (km/s) = 3.39017 4.11781 3.77158
# Velocity P-wave (km/s) = 4.94439 6.74059 5.91112
#
# Compressibility (1/GPa) = 0.06128255
#
# Stress axis : x y z
#
# Youngs Moduli (GPa) = 105.93550 84.93380 14.37476
#
# Poissons Ratio (x) = 0.21791 0.07360
# Poissons Ratio (y) = 0.27180 0.10153
# Poissons Ratio (z) = 0.54242 0.59987
#
# Static dielectric constant tensor:
#      x y z
#    x 1.616020 0.000000 0.006580 
#    y 0.000000 1.602210 0.000000 
#    z 0.006580 0.000000 1.607260 
# 
# From -- ./inp_files/60097.got.cif
#   From: 2010.05.17/outbox.ucp.g08.bks.cvg/sg11_31_cif.got.tgz:60097.got - 2010.06.11 11:38:39.
