data_PCOD9168196
_publ_section_title
;
Structure prediction by ZEFSAII (Michael W. Deem and Ramdas Pophale) SiO2 
 PCOD9168196
Probable space group: P 21/M
;
_chemical_formula_sum "Si O2"
_cell_formula_units_Z 24
_cell_length_a 15.000000
_cell_length_b 9.000000
_cell_length_c 9.000000
_cell_angle_alpha 90.000000
_cell_angle_beta 80.000000
_cell_angle_gamma 90.000000
_cell_volume 1196.541420
_symmetry_space_group_name_H-M "P 21/M"
_symmetry_group_IT_number 11
_symmetry_cell_setting 'monoclinic'
loop_
_space_group_symop_operation_xyz
x,y,z
-x,1/2+y,-z
-x,-y,-z
x,1/2-y,z
loop_
_atom_site_type_symbol
_atom_site_label
_atom_site_fract_x
_atom_site_fract_y
_atom_site_fract_z
Si Si1 0.266632 0.426274 0.965646
Si Si2 0.087165 0.574530 0.541793
Si Si3 0.086279 0.572033 0.892941
Si Si4 0.606013 0.079230 0.293572
Si Si5 0.608571 0.917299 0.593986
Si Si6 0.750102 0.423131 0.718432
O O1 0.277195 0.250000 0.946123
O O2 0.177071 0.489222 0.914289
O O3 0.351276 0.513381 0.868308
O O4 0.249685 0.472935 0.139477
O O5 0.081409 0.750000 0.520978
O O6 0.084182 0.548673 0.717374
O O7 0.176561 0.528176 0.425895
O O8 0.000000 0.500000 0.500000
O O9 0.089927 0.750000 0.922287
O O10 0.000000 0.500000 0.000000
O O11 0.639385 0.250000 0.307338
O O12 0.497472 0.085277 0.336257
O O13 0.629423 0.965874 0.419397
O O14 0.643548 0.750000 0.612499
O O15 0.653185 0.047424 0.675194
O O16 0.764045 0.250000 0.753121
#
# Coordination Sequence:
#
# PCOD9168196 Si02
#       6
#     4   4   4   4   4   4
#     4  12  25  40  60  88 120 157 202 251 302 356
#     4  10  23  40  61  87 116 152 193 238 288 347
#     4  11  23  41  63  90 122 156 197 244 298 359
#     4  10  21  39  62  88 120 158 199 245 299 359
#     4  10  21  38  62  91 120 154 199 248 298 356
#     4  11  23  40  61  86 119 159 200 246 302 359
#
# _framework density 20.05781
#
# number of rings (size 3 to 8) (size 9 to 14) (size 15 to 20)
#    0.000    1.333    0.000    5.500    0.000    9.333 
#    0.000    0.000    0.000    0.000    0.000    0.000 
#    0.000    0.000    0.000    0.000    0.000    0.000 
#
# Total GULP energy -133951.351640 kJ/mol
# GULP energy per Si atom -5581.306318 kJ/mol
# Density = 2.001216 g / cm^3
# Si number density = 20.057810 Si / 1000 Ang^3
#
#
#
# Elastic Constant Matrix: (Units=GPa)
#
#
# Indices 1 2 3 4 5 6 
#
# 1 21.0159 18.9109 30.2275 0.0000 -5.9993 0.0000
# 2 18.9109 54.9006 89.1249 0.0000 -17.7176 0.0000
# 3 30.2275 89.1249 89.5194 0.0000 -23.1937 0.0000
# 4 0.0000 0.0000 0.0000 31.5794 0.0000 -1.3445
# 5 -5.9993 -17.7176 -23.1937 0.0000 27.9786 0.0000
# 6 0.0000 0.0000 0.0000 -1.3445 0.0000 33.6928
#
#
#
# Elastic Compliance Matrix: (Units=1/GPa)
#
#
# Indices 1 2 3 4 5 6 
#
# 1 0.068938 -0.022815 -0.000607 0.000000 -0.000169 0.000000
# 2 -0.022815 -0.020902 0.030332 0.000000 0.007016 0.000000
# 3 -0.000607 0.030332 -0.017676 0.000000 0.004425 0.000000
# 4 0.000000 0.000000 0.000000 0.031720 0.000000 0.001266
# 5 -0.000169 0.007016 0.004425 0.000000 0.043816 0.000000
# 6 0.000000 0.000000 0.000000 0.001266 0.000000 0.029730
#
#
# Mechanical properties :
#
#
# Convention : Reuss Voigt Hill
#
# Bulk Modulus (GPa) = 22.63535 49.10693 35.87114
# Shear Modulus (GPa) = 36.62087 20.46167 28.54127
#
# Velocity S-wave (km/s) = 4.27753 3.19742 3.77629
# Velocity P-wave (km/s) = 5.97545 6.17796 6.07755
#
# Compressibility (1/GPa) = 0.04417869
#
# Stress axis : x y z
#
# Youngs Moduli (GPa) = 14.50582 -47.84205 -56.57490
#
# Poissons Ratio (x) = -1.09152 -0.03435
# Poissons Ratio (y) = 0.33095 1.71600
# Poissons Ratio (z) = 0.00881 1.45112
#
# Static dielectric constant tensor:
#      x y z
#    x 1.816950 0.000000 0.238140 
#    y 0.000000 1.692010 0.000000 
#    z 0.238140 0.000000 2.158890 
# 
# From -- ./inp_files/20410.got.cif
#   From: 2010.05.17/outbox.ucp.g08.bks.cvg/sg11_11_cif.got.tgz:20410.got - 2010.06.11 11:38:39.
