data_PCOD9168719
_publ_section_title
;
Structure prediction by ZEFSAII (Michael W. Deem and Ramdas Pophale) SiO2 
 PCOD9168719
Probable space group: C 2/M
;
_chemical_formula_sum "Si O2"
_cell_formula_units_Z 64
_cell_length_a 20.484058
_cell_length_b 20.883747
_cell_length_c 10.037975
_cell_angle_alpha 90.000000
_cell_angle_beta 81.225925
_cell_angle_gamma 90.000000
_cell_volume 4243.832436
_symmetry_space_group_name_H-M "C 2/M"
_symmetry_group_IT_number 12
_symmetry_cell_setting 'monoclinic'
loop_
_space_group_symop_operation_xyz
x,y,z
-x,y,-z
-x,-y,-z
x,-y,z
1/2+x,1/2+y,z
1/2-x,1/2+y,-z
1/2-x,1/2-y,-z
1/2+x,1/2-y,z
loop_
_atom_site_type_symbol
_atom_site_label
_atom_site_fract_x
_atom_site_fract_y
_atom_site_fract_z
Si Si1 0.821348 0.373193 0.688407
Si Si2 0.277675 0.266530 0.280572
Si Si3 0.938023 0.727693 0.612078
Si Si4 0.834256 0.185301 0.528000
Si Si5 0.849994 0.352354 0.185836
Si Si6 0.894435 0.573925 0.911756
Si Si7 0.738433 0.924509 0.566951
Si Si8 0.001707 0.682008 0.848291
O O1 0.763514 0.326383 0.761677
O O2 0.882001 0.327427 0.624004
O O3 0.848889 0.417767 0.795909
O O4 0.792928 0.408361 0.567719
O O5 0.222747 0.225847 0.378564
O O6 0.328796 0.292496 0.375938
O O7 0.312816 0.215397 0.175159
O O8 0.902269 0.792079 0.572367
O O9 0.000000 0.712138 0.500000
O O10 0.965519 0.727199 0.753773
O O11 0.808503 0.112948 0.549191
O O12 0.809285 0.392474 0.307544
O O13 0.923327 0.334147 0.213248
O O14 0.859607 0.392997 0.049136
O O15 0.908992 0.500000 0.933002
O O16 0.960047 0.615900 0.865680
O O17 0.743989 0.000000 0.584839
O O18 0.000000 0.707643 0.000000
#
# Coordination Sequence:
#
# PCOD9168719 Si02
#       8
#     8   8   8   8   8   8   8   8
#     4   9  18  30  44  64  87 111 139 174 214 248
#     4   8  14  27  44  62  84 105 135 179 217 247
#     4  10  16  27  47  65  83 107 139 176 212 250
#     4   8  15  26  42  65  87 106 131 172 221 250
#     4  10  18  29  45  63  82 109 147 180 207 244
#     4  10  20  31  41  58  89 122 145 168 203 246
#     4  10  18  29  46  64  85 113 143 172 202 249
#     4   9  19  30  41  60  86 114 142 174 209 245
#
# _framework density 15.080709000000001
#
# number of rings (size 3 to 8) (size 9 to 14) (size 15 to 20)
#    0.000    2.750    0.000    4.500    0.000    3.250 
#    0.000    1.250    0.000    4.500    0.000    0.000 
#    0.000    0.500    0.000    0.000    0.000   32.125 
#
# Total GULP energy -178150.578291 kJ/mol
# GULP energy per Si atom -5567.205572 kJ/mol
# Density = 1.504638 g / cm^3
# Si number density = 15.080709 Si / 1000 Ang^3
#
#
#
# Elastic Constant Matrix: (Units=GPa)
#
#
# Indices 1 2 3 4 5 6 
#
# 1 66.8463 36.9018 32.2219 0.0000 6.3179 0.0000
# 2 36.9018 56.9182 14.6609 0.0000 -2.5917 0.0000
# 3 32.2219 14.6609 34.6706 0.0000 3.7693 0.0000
# 4 0.0000 0.0000 0.0000 18.2447 0.0000 1.8762
# 5 6.3179 -2.5917 3.7693 0.0000 17.8097 0.0000
# 6 0.0000 0.0000 0.0000 1.8762 0.0000 9.3282
#
#
#
# Elastic Compliance Matrix: (Units=1/GPa)
#
#
# Indices 1 2 3 4 5 6 
#
# 1 0.040156 -0.019349 -0.027926 0.000000 -0.011151 0.000000
# 2 -0.019349 0.029439 0.004424 0.000000 0.010212 0.000000
# 3 -0.027926 0.004424 0.052998 0.000000 -0.000666 0.000000
# 4 0.000000 0.000000 0.000000 0.055968 0.000000 -0.011257
# 5 -0.011151 0.010212 -0.000666 0.000000 0.061732 0.000000
# 6 0.000000 0.000000 0.000000 -0.011257 0.000000 0.109466
#
#
# Mechanical properties :
#
#
# Convention : Reuss Voigt Hill
#
# Bulk Modulus (GPa) = 27.10690 36.22272 31.66481
# Shear Modulus (GPa) = 11.16674 14.05322 12.60998
#
# Velocity S-wave (km/s) = 2.72410 3.05596 2.89479
# Velocity P-wave (km/s) = 5.28279 6.04345 5.67588
#
# Compressibility (1/GPa) = 0.03689097
#
# Stress axis : x y z
#
# Youngs Moduli (GPa) = 24.90289 33.96826 18.86866
#
# Poissons Ratio (x) = 0.65725 0.52692
# Poissons Ratio (y) = 0.48185 -0.08347
# Poissons Ratio (z) = 0.69543 -0.15026
#
# Static dielectric constant tensor:
#      x y z
#    x 1.506230 0.000000 0.011510 
#    y 0.000000 1.494560 0.000000 
#    z 0.011510 0.000000 1.513490 
# 
# From -- ./inp_files/89130.got.cif
#   From: 2010.05.17/outbox.cif.g08.bks.cpg/sg12_45_cif.got.tgz:89130.got - 2010.06.03 13:09:07.
