data_PCOD9168850
_publ_section_title
;
Structure prediction by ZEFSAII (Michael W. Deem and Ramdas Pophale) SiO2 
 PCOD9168850
Probable space group: C 2/M
;
_chemical_formula_sum "Si O2"
_cell_formula_units_Z 48
_cell_length_a 7.973075
_cell_length_b 21.345907
_cell_length_c 12.995344
_cell_angle_alpha 90.000000
_cell_angle_beta 105.062984
_cell_angle_gamma 90.000000
_cell_volume 2135.717556
_symmetry_space_group_name_H-M "C 2/M"
_symmetry_group_IT_number 12
_symmetry_cell_setting 'monoclinic'
loop_
_space_group_symop_operation_xyz
x,y,z
-x,y,-z
-x,-y,-z
x,-y,z
1/2+x,1/2+y,z
1/2-x,1/2+y,-z
1/2-x,1/2-y,-z
1/2+x,1/2-y,z
loop_
_atom_site_type_symbol
_atom_site_label
_atom_site_fract_x
_atom_site_fract_y
_atom_site_fract_z
Si Si1 0.064305 0.428080 0.868624
Si Si2 0.813353 0.652513 0.696963
Si Si3 0.858049 0.893307 0.754356
Si Si4 0.198852 0.381297 0.522214
Si Si5 0.144357 0.924716 0.940025
Si Si6 0.338480 0.780127 0.327456
O O1 0.009683 0.500000 0.875520
O O2 0.683685 0.410972 0.370052
O O3 0.904618 0.388196 0.799508
O O4 0.170745 0.404114 0.985524
O O5 0.977861 0.692380 0.678549
O O6 0.748563 0.613857 0.587388
O O7 0.676162 0.707176 0.695334
O O8 0.715602 0.927207 0.804305
O O9 0.805615 0.820204 0.757493
O O10 0.000000 0.903012 0.000000
O O11 0.052920 0.906000 0.819613
O O12 0.192183 0.308437 0.562548
O O13 0.000000 0.404726 0.500000
O O14 0.149079 0.000000 0.944170
#
# Coordination Sequence:
#
# PCOD9168850 Si02
#       6
#     8   8   8   8   8   8
#     4   9  16  25  41  61  87 115 143 176 216 261
#     4  10  16  30  42  68  87 119 143 179 211 261
#     4   8  14  24  38  58  83 109 140 176 209 249
#     4   8  14  25  39  59  85 113 138 173 212 255
#     4   8  13  23  38  56  80 115 147 171 208 262
#     4   8  17  25  45  60  90 112 149 174 215 253
#
# _framework density 22.474882000000001
#
# number of rings (size 3 to 8) (size 9 to 14) (size 15 to 20)
#    1.000    2.500    1.667    2.000    0.000    0.000 
#    0.000    3.333    0.000    0.000    0.000    5.833 
#    0.000   10.667    0.000    0.000    0.000    0.000 
#
# Total GULP energy -133657.394467 kJ/mol
# GULP energy per Si atom -5569.058103 kJ/mol
# Density = 2.242373 g / cm^3
# Si number density = 22.474882 Si / 1000 Ang^3
#
#
#
# Elastic Constant Matrix: (Units=GPa)
#
#
# Indices 1 2 3 4 5 6 
#
# 1 82.2265 2.9441 33.9346 0.0000 19.2128 0.0000
# 2 2.9441 22.8245 37.7396 0.0000 1.8504 0.0000
# 3 33.9346 37.7396 207.4154 0.0000 31.2913 0.0000
# 4 0.0000 0.0000 0.0000 27.7314 0.0000 13.5400
# 5 19.2128 1.8504 31.2913 0.0000 25.5670 0.0000
# 6 0.0000 0.0000 0.0000 13.5400 0.0000 15.9392
#
#
#
# Elastic Compliance Matrix: (Units=1/GPa)
#
#
# Indices 1 2 3 4 5 6 
#
# 1 0.014899 0.000618 -0.001048 0.000000 -0.009958 0.000000
# 2 0.000618 0.065603 -0.013799 0.000000 0.011677 0.000000
# 3 -0.001048 -0.013799 0.008872 0.000000 -0.009073 0.000000
# 4 0.000000 0.000000 0.000000 0.061616 0.000000 -0.052342
# 5 -0.009958 0.011677 -0.009073 0.000000 0.056855 0.000000
# 6 0.000000 0.000000 0.000000 -0.052342 0.000000 0.107202
#
#
# Mechanical properties :
#
#
# Convention : Reuss Voigt Hill
#
# Bulk Modulus (GPa) = 16.41618 51.30030 33.85824
# Shear Modulus (GPa) = 13.74341 29.70407 21.72374
#
# Velocity S-wave (km/s) = 2.47554 3.63940 3.11236
# Velocity P-wave (km/s) = 3.93588 6.36675 5.29276
#
# Compressibility (1/GPa) = 0.06091551
#
# Stress axis : x y z
#
# Youngs Moduli (GPa) = 67.12042 15.24324 112.71245
#
# Poissons Ratio (x) = -0.00942 0.11807
# Poissons Ratio (y) = -0.04146 1.55534
# Poissons Ratio (z) = 0.07031 0.21034
#
# Static dielectric constant tensor:
#      x y z
#    x 1.907060 0.000000 -0.042470 
#    y 0.000000 1.816980 0.000000 
#    z -0.042470 0.000000 1.901670 
# 
# From -- ./inp_files/208266.got.cif
#   From: 2010.05.17/outbox.cif.g08.bks.cpg/sg12_105_cif.got.tgz:208266.got - 2010.06.03 13:09:07.
