data_PCOD9168118
_publ_section_title
;
Structure prediction by ZEFSAII (Michael W. Deem and Ramdas Pophale) SiO2 
 PCOD9168118
Probable space group: P 21/M
;
_chemical_formula_sum "Si O2"
_cell_formula_units_Z 28
_cell_length_a 30.000000
_cell_length_b 9.000000
_cell_length_c 30.000000
_cell_angle_alpha 90.000000
_cell_angle_beta 10.000000
_cell_angle_gamma 90.000000
_cell_volume 1406.550239
_symmetry_space_group_name_H-M "P 21/M"
_symmetry_group_IT_number 11
_symmetry_cell_setting 'monoclinic'
loop_
_space_group_symop_operation_xyz
x,y,z
-x,1/2+y,-z
-x,-y,-z
x,1/2-y,z
loop_
_atom_site_type_symbol
_atom_site_label
_atom_site_fract_x
_atom_site_fract_y
_atom_site_fract_z
Si Si1 0.652251 0.575546 0.093126
Si Si2 0.241735 0.582814 0.742051
Si Si3 0.625988 0.429579 0.919180
Si Si4 0.884068 0.076563 0.428743
Si Si5 0.813775 0.081193 0.309219
Si Si6 0.149664 0.072224 0.444479
Si Si7 0.333226 0.925288 0.827481
O O1 0.671082 0.750000 0.088226
O O2 0.395498 0.558970 0.317276
O O3 0.639595 0.471426 0.148051
O O4 0.899411 0.538079 0.820295
O O5 0.500000 0.500000 0.500000
O O6 0.251346 0.750000 0.750216
O O7 0.212407 0.587064 0.717962
O O8 0.000000 0.500000 0.000000
O O9 0.625377 0.250000 0.915994
O O10 0.915976 0.480326 0.643139
O O11 0.500000 0.500000 0.000000
O O12 0.431277 0.473765 0.150640
O O13 0.919981 0.250000 0.404824
O O14 0.905659 0.982640 0.451826
O O15 0.824283 0.250000 0.316480
O O16 0.569421 0.998361 0.569291
O O17 0.070290 0.995818 0.069223
O O18 0.143965 0.250000 0.449095
O O19 0.332326 0.750000 0.822442
#
# Coordination Sequence:
#
# PCOD9168118 Si02
#       7
#     4   4   4   4   4   4   4
#     4  10  21  38  58  82 115 153 190 233 287 349
#     4  11  24  41  64  92 123 161 204 249 302 360
#     4  10  21  36  54  78 106 140 179 220 271 329
#     4  10  21  36  57  83 109 145 192 231 274 338
#     4  11  24  43  64  88 123 167 204 241 302 370
#     4  10  21  36  54  78 109 141 176 223 280 330
#     4  12  25  40  63  95 123 155 204 257 302 350
#
# _framework density 19.906860999999999
#
# number of rings (size 3 to 8) (size 9 to 14) (size 15 to 20)
#    0.000    1.429    0.000    5.143    0.000    9.143 
#    0.000    0.000    0.000    0.000    0.000    0.000 
#    0.000    0.000    0.000    0.000    0.000    0.000 
#
# Total GULP energy -156519.802912 kJ/mol
# GULP energy per Si atom -5589.992961 kJ/mol
# Density = 1.986155 g / cm^3
# Si number density = 19.906861 Si / 1000 Ang^3
#
#
#
# Elastic Constant Matrix: (Units=GPa)
#
#
# Indices 1 2 3 4 5 6 
#
# 1 41.3452 34.2650 19.8923 0.0000 1.5617 0.0000
# 2 34.2650 99.9790 57.1177 0.0000 2.0708 0.0000
# 3 19.8923 57.1177 140.2735 0.0000 15.6819 0.0000
# 4 0.0000 0.0000 0.0000 54.3142 0.0000 -1.8474
# 5 1.5617 2.0708 15.6819 0.0000 26.2290 0.0000
# 6 0.0000 0.0000 0.0000 -1.8474 0.0000 35.0012
#
#
#
# Elastic Compliance Matrix: (Units=1/GPa)
#
#
# Indices 1 2 3 4 5 6 
#
# 1 0.033814 -0.011595 0.000053 0.000000 -0.001129 0.000000
# 2 -0.011595 0.017141 -0.005638 0.000000 0.002708 0.000000
# 3 0.000053 -0.005638 0.010039 0.000000 -0.005560 0.000000
# 4 0.000000 0.000000 0.000000 0.018445 0.000000 0.000974
# 5 -0.001129 0.002708 -0.005560 0.000000 0.041303 0.000000
# 6 0.000000 0.000000 0.000000 0.000974 0.000000 0.028622
#
#
# Mechanical properties :
#
#
# Convention : Reuss Voigt Hill
#
# Bulk Modulus (GPa) = 37.54898 56.01643 46.78270
# Shear Modulus (GPa) = 25.96031 34.46372 30.21201
#
# Velocity S-wave (km/s) = 3.61513 4.16534 3.89995
# Velocity P-wave (km/s) = 6.02734 7.16476 6.62052
#
# Compressibility (1/GPa) = 0.02663189
#
# Stress axis : x y z
#
# Youngs Moduli (GPa) = 29.57393 58.33990 99.61367
#
# Poissons Ratio (x) = 0.67647 -0.00524
# Poissons Ratio (y) = 0.34292 0.56162
# Poissons Ratio (z) = -0.00155 0.32892
#
# Static dielectric constant tensor:
#      x y z
#    x 1.678080 0.000000 0.009940 
#    y 0.000000 1.679820 0.000000 
#    z 0.009940 0.000000 1.672350 
# 
# From -- ./inp_files/73833.got.cif
#   From: 2010.05.17/outbox.ucp.g08.bks.cvg/sg11_37_cif.got.tgz:73833.got - 2010.06.11 11:38:39.
