data_PCOD9168073
_publ_section_title
;
Structure prediction by ZEFSAII (Michael W. Deem and Ramdas Pophale) SiO2 
 PCOD9168073
Probable space group: P 21/M
;
_chemical_formula_sum "Si O2"
_cell_formula_units_Z 32
_cell_length_a 12.000000
_cell_length_b 9.000000
_cell_length_c 15.000000
_cell_angle_alpha 90.000000
_cell_angle_beta 90.000000
_cell_angle_gamma 90.000000
_cell_volume 1620.000000
_symmetry_space_group_name_H-M "P 21/M"
_symmetry_group_IT_number 11
_symmetry_cell_setting 'monoclinic'
loop_
_space_group_symop_operation_xyz
x,y,z
-x,1/2+y,-z
-x,-y,-z
x,1/2-y,z
loop_
_atom_site_type_symbol
_atom_site_label
_atom_site_fract_x
_atom_site_fract_y
_atom_site_fract_z
Si Si1 0.054357 0.571691 0.913873
Si Si2 0.469236 0.580527 0.637870
Si Si3 0.330601 0.579691 0.455577
Si Si4 0.094801 0.072736 0.442218
Si Si5 0.699505 0.420130 0.840902
Si Si6 0.697189 0.072458 0.044559
Si Si7 0.438853 0.081227 0.809340
Si Si8 0.100217 0.072462 0.243361
O O1 0.044003 0.750000 0.920710
O O2 0.184772 0.539500 0.909849
O O3 0.986032 0.516146 0.829539
O O4 0.000000 0.500000 0.000000
O O5 0.500892 0.750000 0.656998
O O6 0.390349 0.577615 0.551679
O O7 0.579294 0.489187 0.611691
O O8 0.407470 0.511946 0.722546
O O9 0.307152 0.750000 0.430280
O O10 0.217873 0.487866 0.460893
O O11 0.094133 0.250000 0.450808
O O12 0.067392 0.028590 0.341352
O O13 0.000000 0.000000 0.500000
O O14 0.740539 0.250000 0.840628
O O15 0.572220 0.420639 0.812631
O O16 0.777675 0.515167 0.778832
O O17 0.705578 0.476298 0.942350
O O18 0.677423 0.250000 0.044554
O O19 0.603943 0.990911 0.100303
O O20 0.399927 0.250000 0.802083
O O21 0.100964 0.250000 0.238983
#
# Coordination Sequence:
#
# PCOD9168073 Si02
#       8
#     4   4   4   4   4   4   4   4
#     4  10  20  37  60  84 112 147 190 238 284 339
#     4  10  21  38  61  87 116 152 192 240 298 358
#     4  10  21  39  63  88 115 150 195 245 295 353
#     4  11  24  41  60  87 123 160 199 247 300 355
#     4  10  21  37  57  83 115 151 193 238 286 343
#     4  10  21  37  56  80 114 155 192 234 290 344
#     4  11  23  36  54  84 119 152 193 241 288 346
#     4  10  22  38  60  88 115 149 193 239 292 348
#
# _framework density 19.753086
#
# number of rings (size 3 to 8) (size 9 to 14) (size 15 to 20)
#    0.000    1.750    1.250    2.625    0.000    7.500 
#    0.000    2.500    0.000    0.000    0.000    0.000 
#    0.000    0.000    0.000    0.000    0.000    0.000 
#
# Total GULP energy -178673.348317 kJ/mol
# GULP energy per Si atom -5583.542135 kJ/mol
# Density = 1.970813 g / cm^3
# Si number density = 19.753086 Si / 1000 Ang^3
#
#
#
# Elastic Constant Matrix: (Units=GPa)
#
#
# Indices 1 2 3 4 5 6 
#
# 1 16.7611 31.5510 57.2452 0.0000 15.3575 0.0000
# 2 31.5510 19.4050 55.6974 0.0000 -8.4217 0.0000
# 3 57.2452 55.6974 104.4951 0.0000 -30.5821 0.0000
# 4 0.0000 0.0000 0.0000 22.8118 0.0000 0.7193
# 5 15.3575 -8.4217 -30.5821 0.0000 10.6215 0.0000
# 6 0.0000 0.0000 0.0000 0.7193 0.0000 18.8290
#
#
#
# Elastic Compliance Matrix: (Units=1/GPa)
#
#
# Indices 1 2 3 4 5 6 
#
# 1 -0.006453 0.020456 0.000694 0.000000 0.027546 0.000000
# 2 0.020456 -0.085931 0.038132 0.000000 0.012079 0.000000
# 3 0.000694 0.038132 -0.016396 0.000000 -0.017978 0.000000
# 4 0.000000 0.000000 0.000000 0.043890 0.000000 -0.001677
# 5 0.027546 0.012079 -0.017978 0.000000 0.012133 0.000000
# 6 0.000000 0.000000 0.000000 -0.001677 0.000000 0.053174
#
#
# Mechanical properties :
#
#
# Convention : Reuss Voigt Hill
#
# Bulk Modulus (GPa) = 102.23235 47.73870 74.98553
# Shear Modulus (GPa) = -43.52173 10.19697 -16.66238
#
# Velocity S-wave (km/s) = -4.69901 2.27452 -2.90751
# Velocity P-wave (km/s) = 4.73567 5.57836 5.17420
#
# Compressibility (1/GPa) = 0.00978164
#
# Stress axis : x y z
#
# Youngs Moduli (GPa) = -154.97327 -11.63721 -60.98907
#
# Poissons Ratio (x) = 0.23805 0.04230
# Poissons Ratio (y) = 3.17011 2.32561
# Poissons Ratio (z) = 0.10749 0.44374
#
# Static dielectric constant tensor:
#      x y z
#    x 1.763360 0.000000 0.059250 
#    y 0.000000 1.670050 0.000000 
#    z 0.059250 0.000000 1.706050 
# 
# From -- ./inp_files/49353.got.cif
#   From: 2010.05.17/outbox.ucp.g08.bks.cvg/sg11_25_cif.got.tgz:49353.got - 2010.06.11 11:38:39.
