data_PCOD9168215
_publ_section_title
;
Structure prediction by ZEFSAII (Michael W. Deem and Ramdas Pophale) SiO2 
 PCOD9168215
Probable space group: P 21/M
;
_chemical_formula_sum "Si O2"
_cell_formula_units_Z 32
_cell_length_a 15.000000
_cell_length_b 18.000000
_cell_length_c 12.000000
_cell_angle_alpha 90.000000
_cell_angle_beta 150.000000
_cell_angle_gamma 90.000000
_cell_volume 1620.000000
_symmetry_space_group_name_H-M "P 21/M"
_symmetry_group_IT_number 11
_symmetry_cell_setting 'monoclinic'
loop_
_space_group_symop_operation_xyz
x,y,z
-x,1/2+y,-z
-x,-y,-z
x,1/2-y,z
loop_
_atom_site_type_symbol
_atom_site_label
_atom_site_fract_x
_atom_site_fract_y
_atom_site_fract_z
Si Si1 0.484809 0.336800 0.108627
Si Si2 0.809753 0.066235 0.389172
Si Si3 0.154227 0.101175 0.624305
Si Si4 0.487092 0.839680 0.388073
Si Si5 0.882954 0.406859 0.953623
Si Si6 0.015667 0.566431 0.179951
Si Si7 0.197488 0.337965 0.425396
Si Si8 0.335663 0.339015 0.182972
O O1 0.533822 0.250000 0.160553
O O2 0.633676 0.384725 0.207634
O O3 0.454087 0.360686 0.204038
O O4 0.297730 0.349500 0.844180
O O5 0.965396 0.103376 0.483322
O O6 0.877661 0.056904 0.590163
O O7 0.782542 0.984741 0.307608
O O8 0.147334 0.125668 0.488324
O O9 0.469422 0.750000 0.364459
O O10 0.295464 0.877043 0.183332
O O11 0.615249 0.863795 0.425670
O O12 0.579374 0.858802 0.606034
O O13 0.873815 0.407379 0.809195
O O14 0.927904 0.488926 0.046486
O O15 0.047737 0.356609 0.171931
O O16 0.856624 0.623521 0.031746
O O17 0.208436 0.250000 0.453240
O O18 0.317485 0.250000 0.159228
#
# Coordination Sequence:
#
# PCOD9168215 Si02
#       8
#     4   4   4   4   4   4   4   4
#     4  11  24  41  65  95 123 161 210 261 315 371
#     4  11  24  43  67  93 124 168 212 260 317 370
#     4  11  24  44  65  90 126 169 211 262 309 369
#     4  10  22  40  62  91 124 163 203 247 312 374
#     4  11  23  39  64  95 127 161 205 254 310 376
#     4  11  22  41  64  95 124 162 208 254 315 373
#     4  11  23  41  63  91 127 166 207 254 309 369
#     4  10  21  39  63  91 124 160 201 255 314 368
#
# _framework density 19.753086
#
# number of rings (size 3 to 8) (size 9 to 14) (size 15 to 20)
#    0.000    1.250    3.750    1.875    0.000    4.500 
#    0.000    0.000    0.000    0.000    0.000    0.000 
#    0.000    0.000    0.000    0.000    0.000    0.000 
#
# Total GULP energy -178843.726050 kJ/mol
# GULP energy per Si atom -5588.866439 kJ/mol
# Density = 1.970813 g / cm^3
# Si number density = 19.753086 Si / 1000 Ang^3
#
#
#
# Elastic Constant Matrix: (Units=GPa)
#
#
# Indices 1 2 3 4 5 6 
#
# 1 129.2661 22.7609 14.2612 0.0000 6.1894 0.0000
# 2 22.7609 24.9163 3.5136 0.0000 13.5704 0.0000
# 3 14.2612 3.5136 29.9273 0.0000 8.4930 0.0000
# 4 0.0000 0.0000 0.0000 23.6501 0.0000 -5.3405
# 5 6.1894 13.5704 8.4930 0.0000 30.5833 0.0000
# 6 0.0000 0.0000 0.0000 -5.3405 0.0000 26.9756
#
#
#
# Elastic Compliance Matrix: (Units=1/GPa)
#
#
# Indices 1 2 3 4 5 6 
#
# 1 0.009915 -0.010565 -0.004609 0.000000 0.003961 0.000000
# 2 -0.010565 0.064188 0.005400 0.000000 -0.027843 0.000000
# 3 -0.004609 0.005400 0.038420 0.000000 -0.012133 0.000000
# 4 0.000000 0.000000 0.000000 0.044262 0.000000 0.008763
# 5 0.003961 -0.027843 -0.012133 0.000000 0.047620 0.000000
# 6 0.000000 0.000000 0.000000 0.008763 0.000000 0.038805
#
#
# Mechanical properties :
#
#
# Convention : Reuss Voigt Hill
#
# Bulk Modulus (GPa) = 10.75542 29.46455 20.10999
# Shear Modulus (GPa) = 17.02137 25.81341 21.41739
#
# Velocity S-wave (km/s) = 2.93867 3.61890 3.29638
# Velocity P-wave (km/s) = 4.11960 5.69304 4.96899
#
# Compressibility (1/GPa) = 0.09297637
#
# Stress axis : x y z
#
# Youngs Moduli (GPa) = 100.85760 15.57916 26.02841
#
# Poissons Ratio (x) = 0.16459 0.11995
# Poissons Ratio (y) = 1.06553 -0.14055
# Poissons Ratio (z) = 0.46480 -0.08413
#
# Static dielectric constant tensor:
#      x y z
#    x 1.676590 0.000000 -0.008380 
#    y 0.000000 1.681920 0.000000 
#    z -0.008380 0.000000 1.677470 
# 
# From -- ./inp_files/40010.got.cif
#   From: 2010.05.17/outbox.ucp.g08.bks.cvg/sg11_21_cif.got.tgz:40010.got - 2010.06.11 11:38:39.
