data_PCOD9168212
_publ_section_title
;
Structure prediction by ZEFSAII (Michael W. Deem and Ramdas Pophale) SiO2 
 PCOD9168212
Probable space group: P 21/M
;
_chemical_formula_sum "Si O2"
_cell_formula_units_Z 32
_cell_length_a 24.000000
_cell_length_b 9.000000
_cell_length_c 15.000000
_cell_angle_alpha 90.000000
_cell_angle_beta 30.000000
_cell_angle_gamma 90.000000
_cell_volume 1620.000000
_symmetry_space_group_name_H-M "P 21/M"
_symmetry_group_IT_number 11
_symmetry_cell_setting 'monoclinic'
loop_
_space_group_symop_operation_xyz
x,y,z
-x,1/2+y,-z
-x,-y,-z
x,1/2-y,z
loop_
_atom_site_type_symbol
_atom_site_label
_atom_site_fract_x
_atom_site_fract_y
_atom_site_fract_z
Si Si1 0.728311 0.573983 0.480013
Si Si2 0.389989 0.428095 0.694369
Si Si3 0.262319 0.429461 0.040931
Si Si4 0.985519 0.926932 0.181498
Si Si5 0.217146 0.071260 0.299610
Si Si6 0.988935 0.571431 0.662028
Si Si7 0.200485 0.427130 0.811742
Si Si8 0.611496 0.428165 0.802757
O O1 0.705582 0.750000 0.523728
O O2 0.728927 0.537041 0.374546
O O3 0.643071 0.483027 0.659448
O O4 0.858544 0.549760 0.325631
O O5 0.500000 0.500000 0.500000
O O6 0.407125 0.250000 0.673087
O O7 0.281056 0.455222 0.783857
O O8 0.352957 0.483308 0.843995
O O9 0.262125 0.250000 0.033281
O O10 0.279296 0.463851 0.120817
O O11 0.135407 0.475186 0.194403
O O12 0.998519 0.750000 0.179617
O O13 0.999740 0.021963 0.251348
O O14 0.085009 0.983420 0.979750
O O15 0.215827 0.250000 0.315154
O O16 0.284315 0.989653 0.284099
O O17 0.090606 0.011302 0.471943
O O18 0.999303 0.750000 0.637578
O O19 0.174447 0.250000 0.844642
O O20 0.603741 0.250000 0.816817
O O21 0.500000 0.500000 0.000000
#
# Coordination Sequence:
#
# PCOD9168212 Si02
#       8
#     4   4   4   4   4   4   4   4
#     4  10  22  40  62  91 124 157 195 246 302 358
#     4  10  21  40  60  83 114 154 199 244 293 347
#     4   9  20  38  61  87 122 160 196 241 300 357
#     4  11  21  34  58  91 126 159 196 245 297 353
#     4  11  22  39  62  91 123 156 197 249 299 356
#     4  11  20  36  61  89 122 162 198 238 299 364
#     4  10  21  39  63  87 121 161 198 243 297 360
#     4  12  26  44  65  87 117 160 204 253 303 357
#
# _framework density 19.753086
#
# number of rings (size 3 to 8) (size 9 to 14) (size 15 to 20)
#    0.000    1.500    2.500    3.000    0.000    2.500 
#    0.000    5.625    0.000    0.000    0.000    0.000 
#    0.000    0.000    0.000    0.000    0.000    0.000 
#
# Total GULP energy -178765.092629 kJ/mol
# GULP energy per Si atom -5586.409145 kJ/mol
# Density = 1.970813 g / cm^3
# Si number density = 19.753086 Si / 1000 Ang^3
#
#
#
# Elastic Constant Matrix: (Units=GPa)
#
#
# Indices 1 2 3 4 5 6 
#
# 1 24.5702 8.0201 8.4452 0.0000 23.5055 0.0000
# 2 8.0201 79.9166 42.7604 0.0000 8.9878 0.0000
# 3 8.4452 42.7604 149.8300 0.0000 23.4931 0.0000
# 4 0.0000 0.0000 0.0000 43.1774 0.0000 -0.3995
# 5 23.5055 8.9878 23.4931 0.0000 35.6640 0.0000
# 6 0.0000 0.0000 0.0000 -0.3995 0.0000 17.1391
#
#
#
# Elastic Compliance Matrix: (Units=1/GPa)
#
#
# Indices 1 2 3 4 5 6 
#
# 1 0.118071 -0.007038 0.008115 0.000000 -0.081391 0.000000
# 2 -0.007038 0.015223 -0.004543 0.000000 0.003795 0.000000
# 3 0.008115 -0.004543 0.009114 0.000000 -0.010207 0.000000
# 4 0.000000 0.000000 0.000000 0.023165 0.000000 0.000540
# 5 -0.081391 0.003795 -0.010207 0.000000 0.087450 0.000000
# 6 0.000000 0.000000 0.000000 0.000540 0.000000 0.058359
#
#
# Mechanical properties :
#
#
# Convention : Reuss Voigt Hill
#
# Bulk Modulus (GPa) = 7.38130 41.41869 24.40000
# Shear Modulus (GPa) = 13.75621 32.20218 22.97919
#
# Velocity S-wave (km/s) = 2.64182 4.04200 3.41445
# Velocity P-wave (km/s) = 3.61255 6.54197 5.28431
#
# Compressibility (1/GPa) = 0.13547752
#
# Stress axis : x y z
#
# Youngs Moduli (GPa) = 8.46947 65.68871 109.72354
#
# Poissons Ratio (x) = 0.46230 -0.89044
# Poissons Ratio (y) = 0.05961 0.49847
# Poissons Ratio (z) = -0.06873 0.29842
#
# Static dielectric constant tensor:
#      x y z
#    x 1.736000 0.000000 0.035370 
#    y 0.000000 1.663480 0.000000 
#    z 0.035370 0.000000 1.691480 
# 
# From -- ./inp_files/51680.got.cif
#   From: 2010.05.17/outbox.ucp.g08.bks.cvg/sg11_26_cif.got.tgz:51680.got - 2010.06.11 11:38:39.
