data_PCOD9168656
_publ_section_title
;
Structure prediction by ZEFSAII (Michael W. Deem and Ramdas Pophale) SiO2 
 PCOD9168656
Probable space group: C 2/M
;
_chemical_formula_sum "Si O2"
_cell_formula_units_Z 64
_cell_length_a 21.564979
_cell_length_b 17.005437
_cell_length_c 9.820290
_cell_angle_alpha 90.000000
_cell_angle_beta 65.207433
_cell_angle_gamma 90.000000
_cell_volume 3269.388887
_symmetry_space_group_name_H-M "C 2/M"
_symmetry_group_IT_number 12
_symmetry_cell_setting 'monoclinic'
loop_
_space_group_symop_operation_xyz
x,y,z
-x,y,-z
-x,-y,-z
x,-y,z
1/2+x,1/2+y,z
1/2-x,1/2+y,-z
1/2-x,1/2-y,-z
1/2+x,1/2-y,z
loop_
_atom_site_type_symbol
_atom_site_label
_atom_site_fract_x
_atom_site_fract_y
_atom_site_fract_z
Si Si1 0.692653 0.690919 0.993069
Si Si2 0.608970 0.086988 0.190774
Si Si3 0.235465 0.091310 0.684781
Si Si4 0.960758 0.591445 0.230294
Si Si5 0.740622 0.089841 0.871716
Si Si6 0.633358 0.803262 0.853803
Si Si7 0.323193 0.293303 0.437892
Si Si8 0.380628 0.167786 0.547156
O O1 0.715716 0.643564 0.835772
O O2 0.693334 0.626700 0.113747
O O3 0.633408 0.749157 0.990299
O O4 0.750000 0.750000 0.000000
O O5 0.542498 0.092653 0.158849
O O6 0.678874 0.089062 0.041262
O O7 0.604431 0.152091 0.310263
O O8 0.606071 0.000000 0.260449
O O9 0.191139 0.118107 0.594477
O O10 0.313013 0.115400 0.581540
O O11 0.228810 0.000000 0.721726
O O12 0.939403 0.500000 0.248384
O O13 0.924512 0.636565 0.140240
O O14 0.936139 0.633472 0.392489
O O15 0.750524 0.000000 0.817582
O O16 0.705276 0.147768 0.794824
O O17 0.635827 0.743648 0.726072
O O18 0.250000 0.250000 0.500000
O O19 0.361201 0.258266 0.533497
#
# Coordination Sequence:
#
# PCOD9168656 Si02
#       8
#     8   8   8   8   8   8   8   8
#     4   9  17  28  42  60  83 113 147 187 228 267
#     4  10  19  28  42  64  89 123 163 189 214 255
#     4  10  16  26  45  66  87 115 153 188 224 273
#     4  10  19  29  41  61  91 124 157 190 217 257
#     4  10  18  29  45  64  88 119 153 188 223 265
#     4   9  18  30  42  59  85 118 148 181 226 265
#     4   8  17  29  43  63  87 117 147 181 229 269
#     4  10  17  28  43  61  90 121 153 187 220 261
#
# _framework density 19.575524000000001
#
# number of rings (size 3 to 8) (size 9 to 14) (size 15 to 20)
#    0.000    2.500    1.250    2.250    0.000    1.500 
#    0.000    2.500    0.000    0.000    0.000    0.000 
#    0.000   19.000    0.000  209.500    4.250    0.000 
#
# Total GULP energy -178181.403715 kJ/mol
# GULP energy per Si atom -5568.168866 kJ/mol
# Density = 1.953097 g / cm^3
# Si number density = 19.575524 Si / 1000 Ang^3
#
#
#
# Elastic Constant Matrix: (Units=GPa)
#
#
# Indices 1 2 3 4 5 6 
#
# 1 58.6638 17.8353 2.0577 0.0000 11.6795 0.0000
# 2 17.8353 80.8390 3.5837 0.0000 4.8803 0.0000
# 3 2.0577 3.5837 43.7074 0.0000 5.2287 0.0000
# 4 0.0000 0.0000 0.0000 16.2070 0.0000 12.5273
# 5 11.6795 4.8803 5.2287 0.0000 12.1692 0.0000
# 6 0.0000 0.0000 0.0000 12.5273 0.0000 32.5371
#
#
#
# Elastic Compliance Matrix: (Units=1/GPa)
#
#
# Indices 1 2 3 4 5 6 
#
# 1 0.022216 -0.003736 0.001720 0.000000 -0.020562 0.000000
# 2 -0.003736 0.013314 -0.000744 0.000000 -0.001434 0.000000
# 3 0.001720 -0.000744 0.024269 0.000000 -0.011780 0.000000
# 4 0.000000 0.000000 0.000000 0.087844 0.000000 -0.033821
# 5 -0.020562 -0.001434 -0.011780 0.000000 0.107546 0.000000
# 6 0.000000 0.000000 0.000000 -0.033821 0.000000 0.043756
#
#
# Mechanical properties :
#
#
# Convention : Reuss Voigt Hill
#
# Bulk Modulus (GPa) = 18.42363 25.57373 21.99868
# Shear Modulus (GPa) = 15.50111 22.83157 19.16634
#
# Velocity S-wave (km/s) = 2.81706 3.41887 3.13245
# Velocity P-wave (km/s) = 4.47360 5.35512 4.93409
#
# Compressibility (1/GPa) = 0.05427813
#
# Stress axis : x y z
#
# Youngs Moduli (GPa) = 45.01328 75.10811 41.20536
#
# Poissons Ratio (x) = 0.28062 -0.07089
# Poissons Ratio (y) = 0.16818 0.03067
# Poissons Ratio (z) = -0.07744 0.05590
#
# Static dielectric constant tensor:
#      x y z
#    x 1.707160 0.000000 0.041110 
#    y 0.000000 1.745260 0.000000 
#    z 0.041110 0.000000 1.765230 
# 
# From -- ./inp_files/176091.got.cif
#   From: 2010.05.17/outbox.cif.g08.bks.cpg/sg12_89_cif.got.tgz:176091.got - 2010.06.03 13:09:07.
