data_PCOD9168244
_publ_section_title
;
Structure prediction by ZEFSAII (Michael W. Deem and Ramdas Pophale) SiO2 
 PCOD9168244
Probable space group: P 21/M
;
_chemical_formula_sum "Si O2"
_cell_formula_units_Z 32
_cell_length_a 30.000000
_cell_length_b 9.000000
_cell_length_c 12.000000
_cell_angle_alpha 90.000000
_cell_angle_beta 30.000000
_cell_angle_gamma 90.000000
_cell_volume 1620.000000
_symmetry_space_group_name_H-M "P 21/M"
_symmetry_group_IT_number 11
_symmetry_cell_setting 'monoclinic'
loop_
_space_group_symop_operation_xyz
x,y,z
-x,1/2+y,-z
-x,-y,-z
x,1/2-y,z
loop_
_atom_site_type_symbol
_atom_site_label
_atom_site_fract_x
_atom_site_fract_y
_atom_site_fract_z
Si Si1 0.180939 0.929296 0.847976
Si Si2 0.404635 0.575723 0.699730
Si Si3 0.995107 0.427176 0.630378
Si Si4 0.473392 0.571773 0.939108
Si Si5 0.142104 0.083400 0.492486
Si Si6 0.649121 0.582000 0.966278
Si Si7 0.350584 0.425812 0.592994
Si Si8 0.094870 0.923418 0.806550
O O1 0.192503 0.750000 0.824844
O O2 0.152790 0.978235 0.785098
O O3 0.269960 0.006098 0.697351
O O4 0.096242 0.967475 0.108775
O O5 0.500000 0.500000 0.500000
O O6 0.409888 0.750000 0.670399
O O7 0.353321 0.501816 0.707911
O O8 0.369411 0.535827 0.897170
O O9 0.995286 0.250000 0.616616
O O10 0.000000 0.500000 0.500000
O O11 0.079883 0.463484 0.524684
O O12 0.457812 0.750000 0.983796
O O13 0.556233 0.550037 0.674051
O O14 0.500000 0.500000 0.000000
O O15 0.390242 0.486063 0.062589
O O16 0.108730 0.250000 0.599395
O O17 0.245807 0.099501 0.248961
O O18 0.138621 0.962539 0.595973
O O19 0.610221 0.750000 0.066765
O O20 0.338959 0.250000 0.631670
O O21 0.082628 0.750000 0.850248
O O22 0.000000 0.000000 0.000000
#
# Coordination Sequence:
#
# PCOD9168244 Si02
#       8
#     4   4   4   4   4   4   4   4
#     4  10  23  42  63  91 126 164 206 259 314 368
#     4  12  24  42  68  95 127 165 211 263 316 373
#     4  10  22  42  62  88 126 165 205 254 309 367
#     4  11  25  44  65  91 128 170 212 262 317 379
#     4  10  23  43  64  91 128 165 206 258 313 371
#     4  11  24  42  67  96 128 168 211 260 319 376
#     4  11  25  43  65  94 126 166 213 260 316 375
#     4  11  22  40  66  93 124 164 210 259 315 372
#
# _framework density 19.753086
#
# number of rings (size 3 to 8) (size 9 to 14) (size 15 to 20)
#    0.000    1.250    2.500    2.625    3.500    4.500 
#    0.000    0.000    0.000    0.000    0.000    0.000 
#    0.000    0.000    0.000    0.000    0.000    0.000 
#
# Total GULP energy -178588.647091 kJ/mol
# GULP energy per Si atom -5580.895222 kJ/mol
# Density = 1.970813 g / cm^3
# Si number density = 19.753086 Si / 1000 Ang^3
#
#
#
# Elastic Constant Matrix: (Units=GPa)
#
#
# Indices 1 2 3 4 5 6 
#
# 1 87.4044 17.0219 5.8681 0.0000 -0.5679 0.0000
# 2 17.0219 60.7793 9.0605 0.0000 -3.7955 0.0000
# 3 5.8681 9.0605 35.0263 0.0000 -10.1666 0.0000
# 4 0.0000 0.0000 0.0000 30.4244 0.0000 7.1942
# 5 -0.5679 -3.7955 -10.1666 0.0000 31.3298 0.0000
# 6 0.0000 0.0000 0.0000 7.1942 0.0000 64.1716
#
#
#
# Elastic Compliance Matrix: (Units=1/GPa)
#
#
# Indices 1 2 3 4 5 6 
#
# 1 0.012160 -0.003239 -0.001379 0.000000 -0.000620 0.000000
# 2 -0.003239 0.017989 -0.003859 0.000000 0.000868 0.000000
# 3 -0.001379 -0.003859 0.032718 0.000000 0.010125 0.000000
# 4 0.000000 0.000000 0.000000 0.033763 0.000000 -0.003785
# 5 -0.000620 0.000868 0.010125 0.000000 0.035298 0.000000
# 6 0.000000 0.000000 0.000000 -0.003785 0.000000 0.016008
#
#
# Mechanical properties :
#
#
# Convention : Reuss Voigt Hill
#
# Bulk Modulus (GPa) = 21.77977 27.45677 24.61827
# Shear Modulus (GPa) = 27.74771 35.26913 31.50842
#
# Velocity S-wave (km/s) = 3.75204 4.23010 3.99822
# Velocity P-wave (km/s) = 5.46080 6.14724 5.81416
#
# Compressibility (1/GPa) = 0.04591417
#
# Stress axis : x y z
#
# Youngs Moduli (GPa) = 82.23424 55.58802 30.56426
#
# Poissons Ratio (x) = 0.18003 0.04216
# Poissons Ratio (y) = 0.26633 0.11794
# Poissons Ratio (z) = 0.11343 0.21450
#
# Static dielectric constant tensor:
#      x y z
#    x 1.684040 0.000000 0.006440 
#    y 0.000000 -0.876380 0.000000 
#    z 0.006440 0.000000 1.702340 
# 
# From -- ./inp_files/45165.got.cif
#   From: 2010.05.17/outbox.ucp.g08.bks.cvg/sg11_23_cif.got.tgz:45165.got - 2010.06.11 11:38:39.
