data_PCOD9168569
_publ_section_title
;
Structure prediction by ZEFSAII (Michael W. Deem and Ramdas Pophale) SiO2 
 PCOD9168569
Probable space group: C 2/M
;
_chemical_formula_sum "Si O2"
_cell_formula_units_Z 64
_cell_length_a 5.568200
_cell_length_b 18.652959
_cell_length_c 28.718680
_cell_angle_alpha 90.000000
_cell_angle_beta 83.865730
_cell_angle_gamma 90.000000
_cell_volume 2965.740920
_symmetry_space_group_name_H-M "C 2/M"
_symmetry_group_IT_number 12
_symmetry_cell_setting 'monoclinic'
loop_
_space_group_symop_operation_xyz
x,y,z
-x,y,-z
-x,-y,-z
x,-y,z
1/2+x,1/2+y,z
1/2-x,1/2+y,-z
1/2-x,1/2-y,-z
1/2+x,1/2-y,z
loop_
_atom_site_type_symbol
_atom_site_label
_atom_site_fract_x
_atom_site_fract_y
_atom_site_fract_z
Si Si1 0.321034 0.331776 0.332336
Si Si2 0.087806 0.085594 0.945504
Si Si3 0.300559 0.167532 0.369361
Si Si4 0.760332 0.667776 0.481230
Si Si5 0.893220 0.581685 0.091265
Si Si6 0.479926 0.744051 0.846465
Si Si7 0.557079 0.620792 0.771287
Si Si8 0.543788 0.103798 0.801398
O O1 0.303253 0.249447 0.350001
O O2 0.552425 0.364625 0.354170
O O3 0.376161 0.336761 0.276677
O O4 0.057609 0.364716 0.348326
O O5 0.868034 0.112635 0.917600
O O6 0.358153 0.115423 0.932846
O O7 0.113131 0.000000 0.934649
O O8 0.000000 0.093983 0.000000
O O9 0.289368 0.169374 0.425242
O O10 0.500000 0.635247 0.500000
O O11 0.750000 0.750000 0.500000
O O12 0.000000 0.635317 0.500000
O O13 0.883683 0.500000 0.072619
O O14 0.929476 0.578961 0.145920
O O15 0.715326 0.750001 0.873029
O O16 0.503870 0.672857 0.815864
O O17 0.509642 0.809701 0.808635
O O18 0.797722 0.579202 0.781934
O O19 0.293399 0.585616 0.770427
#
# Coordination Sequence:
#
# PCOD9168569 Si02
#       8
#     8   8   8   8   8   8   8   8
#     4  10  18  25  36  50  74  93 126 166 216 253
#     4   9  17  30  49  70  90 112 134 158 202 250
#     4  10  19  24  35  53  67  93 134 164 213 267
#     4  10  16  25  35  43  63  89 121 168 215 238
#     4  10  19  31  47  67  94 117 134 167 198 230
#     4   8  16  25  39  54  77 100 136 161 203 236
#     4  10  19  28  42  57  81 110 136 176 215 247
#     4  10  19  29  41  61  84 110 144 159 199 253
#
# _framework density 21.579768000000001
#
# number of rings (size 3 to 8) (size 9 to 14) (size 15 to 20)
#    0.000    2.375    0.000    5.625   10.500    1.500 
#    0.000    0.000    0.000    0.000    0.000    0.000 
#    0.000   90.000    0.000    0.000    0.000    0.000 
#
# Total GULP energy -178336.192278 kJ/mol
# GULP energy per Si atom -5573.006009 kJ/mol
# Density = 2.153065 g / cm^3
# Si number density = 21.579768 Si / 1000 Ang^3
#
#
#
# Elastic Constant Matrix: (Units=GPa)
#
#
# Indices 1 2 3 4 5 6 
#
# 1 238.3019 2.6956 28.3411 0.0000 -9.1963 0.0000
# 2 2.6956 35.0486 -1.1479 0.0000 2.5281 0.0000
# 3 28.3411 -1.1479 70.8225 0.0000 -2.1248 0.0000
# 4 0.0000 0.0000 0.0000 14.3423 0.0000 0.8157
# 5 -9.1963 2.5281 -2.1248 0.0000 41.2220 0.0000
# 6 0.0000 0.0000 0.0000 0.8157 0.0000 -10.3523
#
#
#
# Elastic Compliance Matrix: (Units=1/GPa)
#
#
# Indices 1 2 3 4 5 6 
#
# 1 0.004447 -0.000467 -0.001759 0.000000 0.000930 0.000000
# 2 -0.000467 0.028720 0.000597 0.000000 -0.001835 0.000000
# 3 -0.001759 0.000597 0.014844 0.000000 0.000336 0.000000
# 4 0.000000 0.000000 0.000000 0.069413 0.000000 0.005469
# 5 0.000930 -0.001835 0.000336 0.000000 0.024596 0.000000
# 6 0.000000 0.000000 0.000000 0.005469 0.000000 -0.096166
#
#
# Mechanical properties :
#
#
# Convention : Reuss Voigt Hill
#
# Bulk Modulus (GPa) = 22.34504 44.88339 33.61422
# Shear Modulus (GPa) = 78.09152 29.99469 54.04310
#
# Velocity S-wave (km/s) = 6.02212 3.73224 5.00977
# Velocity P-wave (km/s) = 7.66366 6.27828 7.00530
#
# Compressibility (1/GPa) = 0.04475266
#
# Stress axis : x y z
#
# Youngs Moduli (GPa) = 224.88411 34.81945 67.36945
#
# Poissons Ratio (x) = 0.01625 0.11851
# Poissons Ratio (y) = 0.10495 -0.04023
# Poissons Ratio (z) = 0.39560 -0.02079
#
# Static dielectric constant tensor:
#      x y z
#    x 1.946730 0.000000 0.000300 
#    y 0.000000 1.769190 0.000000 
#    z 0.000300 0.000000 1.722030 
# 
# From -- ./inp_files/331533.got.cif
#   From: 2010.05.17/outbox.cif.g08.bks.cpg/sg12_166_cif.got.tgz:331533.got - 2010.06.03 13:09:07.
