data_PCOD9168443
_publ_section_title
;
Structure prediction by ZEFSAII (Michael W. Deem and Ramdas Pophale) SiO2 
 PCOD9168443
Probable space group: C 2/M
;
_chemical_formula_sum "Si O2"
_cell_formula_units_Z 44
_cell_length_a 20.492072
_cell_length_b 8.006008
_cell_length_c 13.382654
_cell_angle_alpha 90.000000
_cell_angle_beta 77.953982
_cell_angle_gamma 90.000000
_cell_volume 2147.208651
_symmetry_space_group_name_H-M "C 2/M"
_symmetry_group_IT_number 12
_symmetry_cell_setting 'monoclinic'
loop_
_space_group_symop_operation_xyz
x,y,z
-x,y,-z
-x,-y,-z
x,-y,z
1/2+x,1/2+y,z
1/2-x,1/2+y,-z
1/2-x,1/2-y,-z
1/2+x,1/2-y,z
loop_
_atom_site_type_symbol
_atom_site_label
_atom_site_fract_x
_atom_site_fract_y
_atom_site_fract_z
Si Si1 0.059405 0.197290 0.285275
Si Si2 0.794813 0.201360 0.697246
Si Si3 0.148328 0.189178 0.525966
Si Si4 0.000000 0.751199 0.500000
Si Si5 0.849006 0.196832 0.251456
Si Si6 0.017142 0.695880 0.884743
O O1 0.138002 0.235233 0.262178
O O2 0.024355 0.308636 0.382473
O O3 0.024810 0.221138 0.190692
O O4 0.050790 0.000000 0.317766
O O5 0.809916 0.264887 0.579009
O O6 0.726642 0.276814 0.758930
O O7 0.788014 0.000000 0.694986
O O8 0.148839 0.267717 0.635375
O O9 0.072048 0.178347 0.511913
O O10 0.173382 0.000000 0.530678
O O11 0.905264 0.280325 0.166566
O O12 0.865322 0.000000 0.250635
O O13 0.000630 0.500000 0.888617
O O14 0.000000 0.763008 0.000000
#
# Coordination Sequence:
#
# PCOD9168443 Si02
#       6
#     8   8   8   4   8   8
#     4  10  19  35  62  89 117 153 193 235 284 349
#     4   9  19  34  55  85 122 157 185 224 286 350
#     4   9  16  27  50  82 117 154 187 223 275 340
#     4  10  15  28  55  88 121 150 183 230 287 342
#     4  11  21  35  58  85 114 152 197 240 282 341
#     4  11  25  43  61  82 113 152 196 249 299 340
#
# _framework density 20.491719
#
# number of rings (size 3 to 8) (size 9 to 14) (size 15 to 20)
#    0.000    2.000    1.818    4.364    0.000    2.182 
#    0.000    2.273    0.000    0.000    0.000    0.000 
#    0.000    0.000    0.000    0.000    0.000    0.000 
#
# Total GULP energy -122559.894653 kJ/mol
# GULP energy per Si atom -5570.904302 kJ/mol
# Density = 2.044508 g / cm^3
# Si number density = 20.491719 Si / 1000 Ang^3
#
#
#
# Elastic Constant Matrix: (Units=GPa)
#
#
# Indices 1 2 3 4 5 6 
#
# 1 123.3252 6.5567 69.5212 0.0000 -9.7173 0.0000
# 2 6.5567 35.0229 9.8849 0.0000 5.8113 0.0000
# 3 69.5212 9.8849 127.6097 0.0000 -1.5806 0.0000
# 4 0.0000 0.0000 0.0000 43.4472 0.0000 10.5506
# 5 -9.7173 5.8113 -1.5806 0.0000 22.0580 0.0000
# 6 0.0000 0.0000 0.0000 10.5506 0.0000 15.5219
#
#
#
# Elastic Compliance Matrix: (Units=1/GPa)
#
#
# Indices 1 2 3 4 5 6 
#
# 1 0.012269 -0.001336 -0.006515 0.000000 0.005290 0.000000
# 2 -0.001336 0.030764 -0.001765 0.000000 -0.008820 0.000000
# 3 -0.006515 -0.001765 0.011503 0.000000 -0.001581 0.000000
# 4 0.000000 0.000000 0.000000 0.027567 0.000000 -0.018738
# 5 0.005290 -0.008820 -0.001581 0.000000 0.049876 0.000000
# 6 0.000000 0.000000 0.000000 -0.018738 0.000000 0.077162
#
#
# Mechanical properties :
#
#
# Convention : Reuss Voigt Hill
#
# Bulk Modulus (GPa) = 28.32434 50.87592 39.60013
# Shear Modulus (GPa) = 20.82115 29.53843 25.17979
#
# Velocity S-wave (km/s) = 3.19105 3.80080 3.50920
# Velocity P-wave (km/s) = 5.23731 6.64401 5.98215
#
# Compressibility (1/GPa) = 0.03530533
#
# Stress axis : x y z
#
# Youngs Moduli (GPa) = 81.50426 32.50513 86.93398
#
# Poissons Ratio (x) = 0.04342 0.56640
# Poissons Ratio (y) = 0.10888 0.15340
# Poissons Ratio (z) = 0.53102 0.05736
#
# Static dielectric constant tensor:
#      x y z
#    x 1.726830 0.000000 0.002040 
#    y 0.000000 1.792360 0.000000 
#    z 0.002040 0.000000 1.733330 
# 
# From -- ./inp_files/163129.got.cif
#   From: 2010.05.17/outbox.cif.g08.bks.cpg/sg12_82_cif.got.tgz:163129.got - 2010.06.03 13:09:07.
