data_PCOD9168133
_publ_section_title
;
Structure prediction by ZEFSAII (Michael W. Deem and Ramdas Pophale) SiO2 
 PCOD9168133
Probable space group: P 21/M
;
_chemical_formula_sum "Si O2"
_cell_formula_units_Z 28
_cell_length_a 30.000000
_cell_length_b 9.000000
_cell_length_c 30.000000
_cell_angle_alpha 90.000000
_cell_angle_beta 10.000000
_cell_angle_gamma 90.000000
_cell_volume 1406.550239
_symmetry_space_group_name_H-M "P 21/M"
_symmetry_group_IT_number 11
_symmetry_cell_setting 'monoclinic'
loop_
_space_group_symop_operation_xyz
x,y,z
-x,1/2+y,-z
-x,-y,-z
x,1/2-y,z
loop_
_atom_site_type_symbol
_atom_site_label
_atom_site_fract_x
_atom_site_fract_y
_atom_site_fract_z
Si Si1 0.880703 0.425431 0.420398
Si Si2 0.683342 0.420065 0.158037
Si Si3 0.362342 0.917161 0.902405
Si Si4 0.799121 0.428681 0.320833
Si Si5 0.942841 0.927102 0.453268
Si Si6 0.238929 0.070513 0.738617
Si Si7 0.539986 0.075010 0.007510
O O1 0.872244 0.250000 0.423535
O O2 0.622445 0.499553 0.657282
O O3 0.907134 0.475325 0.445120
O O4 0.122299 0.493766 0.157214
O O5 0.697876 0.250000 0.162246
O O6 0.660510 0.406864 0.127845
O O7 0.438477 0.507690 0.417341
O O8 0.935096 0.514783 0.920469
O O9 0.365872 0.750000 0.918197
O O10 0.790040 0.250000 0.325803
O O11 0.782754 0.511126 0.289884
O O12 0.959477 0.750000 0.425718
O O13 0.201889 0.975058 0.222578
O O14 0.702809 0.948525 0.721911
O O15 0.239776 0.250000 0.740648
O O16 0.500000 0.000000 0.500000
O O17 0.000000 0.000000 0.000000
O O18 0.568194 0.250000 0.972274
O O19 0.500000 0.000000 0.000000
#
# Coordination Sequence:
#
# PCOD9168133 Si02
#       7
#     4   4   4   4   4   4   4
#     4  12  25  40  63  95 126 158 205 262 311 356
#     4  11  24  43  66  93 124 165 212 255 304 367
#     4  11  24  43  66  90 124 168 208 249 308 377
#     4  12  25  42  65  95 129 166 206 255 314 368
#     4  10  21  38  58  82 115 157 199 238 295 365
#     4  12  25  44  67  94 128 166 210 259 310 369
#     4  10  21  36  57  83 112 150 195 244 295 354
#
# _framework density 19.906860999999999
#
# number of rings (size 3 to 8) (size 9 to 14) (size 15 to 20)
#    0.000    0.857    0.000    7.714    0.000    8.000 
#    0.000    0.000    0.000    0.000    0.000    0.000 
#    0.000    0.000    0.000    0.000    0.000    0.000 
#
# Total GULP energy -156609.328474 kJ/mol
# GULP energy per Si atom -5593.190303 kJ/mol
# Density = 1.986155 g / cm^3
# Si number density = 19.906861 Si / 1000 Ang^3
#
#
#
# Elastic Constant Matrix: (Units=GPa)
#
#
# Indices 1 2 3 4 5 6 
#
# 1 90.2257 64.4130 18.7329 0.0000 -31.5198 0.0000
# 2 64.4130 200.0819 95.6675 0.0000 1.7753 0.0000
# 3 18.7329 95.6675 71.2598 0.0000 -68.1333 0.0000
# 4 0.0000 0.0000 0.0000 47.5843 0.0000 1.7464
# 5 -31.5198 1.7753 -68.1333 0.0000 9.0339 0.0000
# 6 0.0000 0.0000 0.0000 1.7464 0.0000 32.5387
#
#
#
# Elastic Compliance Matrix: (Units=1/GPa)
#
#
# Indices 1 2 3 4 5 6 
#
# 1 0.011444 -0.000841 -0.005870 0.000000 -0.004173 0.000000
# 2 -0.000841 0.004475 0.001519 0.000000 0.007640 0.000000
# 3 -0.005870 0.001519 0.001019 0.000000 -0.013093 0.000000
# 4 0.000000 0.000000 0.000000 0.021057 0.000000 -0.001130
# 5 -0.004173 0.007640 -0.013093 0.000000 -0.004113 0.000000
# 6 0.000000 0.000000 0.000000 -0.001130 0.000000 0.030793
#
#
# Mechanical properties :
#
#
# Convention : Reuss Voigt Hill
#
# Bulk Modulus (GPa) = 152.56793 79.91046 116.23919
# Shear Modulus (GPa) = 64.73044 30.01499 47.37271
#
# Velocity S-wave (km/s) = 5.70852 3.88722 4.88353
# Velocity P-wave (km/s) = 10.96617 7.77024 9.50351
#
# Compressibility (1/GPa) = 0.00655446
#
# Stress axis : x y z
#
# Youngs Moduli (GPa) = 87.37870 223.47634 981.38869
#
# Poissons Ratio (x) = 0.18790 5.76039
# Poissons Ratio (y) = 0.07347 -1.49033
# Poissons Ratio (z) = 0.51288 -0.33937
#
# Static dielectric constant tensor:
#      x y z
#    x 1.696360 0.000000 -0.010680 
#    y 0.000000 1.679750 0.000000 
#    z -0.010680 0.000000 1.663910 
# 
# From -- ./inp_files/73836.got.cif
#   From: 2010.05.17/outbox.ucp.g08.bks.cvg/sg11_37_cif.got.tgz:73836.got - 2010.06.11 11:38:39.
