data_PCOD9168132
_publ_section_title
;
Structure prediction by ZEFSAII (Michael W. Deem and Ramdas Pophale) SiO2 
 PCOD9168132
Probable space group: P 21/M
;
_chemical_formula_sum "Si O2"
_cell_formula_units_Z 32
_cell_length_a 12.000000
_cell_length_b 15.000000
_cell_length_c 18.000000
_cell_angle_alpha 90.000000
_cell_angle_beta 150.000000
_cell_angle_gamma 90.000000
_cell_volume 1620.000000
_symmetry_space_group_name_H-M "P 21/M"
_symmetry_group_IT_number 11
_symmetry_cell_setting 'monoclinic'
loop_
_space_group_symop_operation_xyz
x,y,z
-x,1/2+y,-z
-x,-y,-z
x,1/2-y,z
loop_
_atom_site_type_symbol
_atom_site_label
_atom_site_fract_x
_atom_site_fract_y
_atom_site_fract_z
Si Si1 0.860700 0.144657 0.796378
Si Si2 0.279880 0.489612 0.008930
Si Si3 0.168495 0.853887 0.482028
Si Si4 0.802489 0.065016 0.348988
Si Si5 0.035960 0.522898 0.713894
Si Si6 0.128633 0.643918 0.028544
Si Si7 0.349285 0.147703 0.275766
Si Si8 0.368504 0.145363 0.461744
O O1 0.911916 0.250000 0.811298
O O2 0.782853 0.137588 0.837132
O O3 0.632136 0.120164 0.620904
O O4 0.081083 0.083827 0.910695
O O5 0.535530 0.460808 0.181116
O O6 0.240673 0.579309 0.034329
O O7 0.214442 0.514464 0.884871
O O8 0.141281 0.750000 0.442413
O O9 0.173214 0.858793 0.574532
O O10 0.413667 0.892400 0.604608
O O11 0.009368 0.922891 0.345977
O O12 0.878430 0.077946 0.308164
O O13 0.000000 0.000000 0.500000
O O14 0.809054 0.574814 0.607670
O O15 0.128525 0.750000 0.007213
O O16 0.872826 0.610034 0.887402
O O17 0.365761 0.250000 0.258439
O O18 0.314825 0.147549 0.343562
O O19 0.347804 0.250000 0.476747
#
# Coordination Sequence:
#
# PCOD9168132 Si02
#       8
#     4   4   4   4   4   4   4   4
#     4  10  23  38  59  95 133 167 213 265 322 388
#     4  12  23  39  67  91 128 172 214 270 330 374
#     4  10  22  41  65  92 127 170 212 264 317 380
#     4  10  25  45  62  88 123 168 225 271 312 375
#     4  11  24  40  65  93 131 169 221 263 317 382
#     4  10  21  36  56  91 129 164 206 259 321 387
#     4   9  17  33  57  88 125 159 202 250 309 382
#     4  10  21  38  61  95 135 169 204 258 325 391
#
# _framework density 19.753086
#
# number of rings (size 3 to 8) (size 9 to 14) (size 15 to 20)
#    0.000    1.750    1.250    2.250    5.250    4.500 
#    0.000    2.500    0.000    4.500    0.000    0.000 
#    0.000    0.000    0.000    0.000    0.000    0.000 
#
# Total GULP energy -178147.103291 kJ/mol
# GULP energy per Si atom -5567.096978 kJ/mol
# Density = 1.970813 g / cm^3
# Si number density = 19.753086 Si / 1000 Ang^3
#
#
#
# Elastic Constant Matrix: (Units=GPa)
#
#
# Indices 1 2 3 4 5 6 
#
# 1 70.1141 18.6030 7.1717 0.0000 -10.5150 0.0000
# 2 18.6030 69.4476 11.0878 0.0000 2.9429 0.0000
# 3 7.1717 11.0878 105.2653 0.0000 -5.7488 0.0000
# 4 0.0000 0.0000 0.0000 20.9027 0.0000 -4.8034
# 5 -10.5150 2.9429 -5.7488 0.0000 35.8493 0.0000
# 6 0.0000 0.0000 0.0000 -4.8034 0.0000 25.1433
#
#
#
# Elastic Compliance Matrix: (Units=1/GPa)
#
#
# Indices 1 2 3 4 5 6 
#
# 1 0.016259 -0.004514 -0.000355 0.000000 0.005083 0.000000
# 2 -0.004514 0.015975 -0.001533 0.000000 -0.002881 0.000000
# 3 -0.000355 -0.001533 0.009772 0.000000 0.001589 0.000000
# 4 0.000000 0.000000 0.000000 0.050037 0.000000 0.009559
# 5 0.005083 -0.002881 0.001589 0.000000 0.029877 0.000000
# 6 0.000000 0.000000 0.000000 0.009559 0.000000 0.041598
#
#
# Mechanical properties :
#
#
# Convention : Reuss Voigt Hill
#
# Bulk Modulus (GPa) = 34.24214 35.39465 34.81840
# Shear Modulus (GPa) = 26.87377 30.24337 28.55857
#
# Velocity S-wave (km/s) = 3.69248 3.91713 3.80646
# Velocity P-wave (km/s) = 5.96254 6.19807 6.08144
#
# Compressibility (1/GPa) = 0.02920378
#
# Stress axis : x y z
#
# Youngs Moduli (GPa) = 61.50573 62.59674 102.33145
#
# Poissons Ratio (x) = 0.28256 0.03629
# Poissons Ratio (y) = 0.27764 0.15682
# Poissons Ratio (z) = 0.02181 0.09593
#
# Static dielectric constant tensor:
#      x y z
#    x 1.744080 0.000000 0.010750 
#    y 0.000000 1.728570 0.000000 
#    z 0.010750 0.000000 1.708800 
# 
# From -- ./inp_files/41630.got.cif
#   From: 2010.05.17/outbox.ucp.g08.bks.cvg/sg11_21_cif.got.tgz:41630.got - 2010.06.11 11:38:39.
