data_PCOD9168157
_publ_section_title
;
Structure prediction by ZEFSAII (Michael W. Deem and Ramdas Pophale) SiO2 
 PCOD9168157
Probable space group: P 21/M
;
_chemical_formula_sum "Si O2"
_cell_formula_units_Z 32
_cell_length_a 15.000000
_cell_length_b 9.000000
_cell_length_c 24.000000
_cell_angle_alpha 90.000000
_cell_angle_beta 30.000000
_cell_angle_gamma 90.000000
_cell_volume 1620.000000
_symmetry_space_group_name_H-M "P 21/M"
_symmetry_group_IT_number 11
_symmetry_cell_setting 'monoclinic'
loop_
_space_group_symop_operation_xyz
x,y,z
-x,1/2+y,-z
-x,-y,-z
x,1/2-y,z
loop_
_atom_site_type_symbol
_atom_site_label
_atom_site_fract_x
_atom_site_fract_y
_atom_site_fract_z
Si Si1 0.337334 0.570742 0.462185
Si Si2 0.927768 0.069914 0.982751
Si Si3 0.515631 0.425938 0.188169
Si Si4 0.822637 0.071978 0.568863
Si Si5 0.269487 0.429108 0.728693
Si Si6 0.164767 0.428629 0.664132
Si Si7 0.791514 0.922307 0.845690
Si Si8 0.447280 0.920379 0.112169
O O1 0.336823 0.750000 0.469988
O O2 0.209188 0.537848 0.479289
O O3 0.545896 0.523535 0.341568
O O4 0.262630 0.491507 0.557118
O O5 0.928245 0.250000 0.984132
O O6 0.078387 0.021160 0.856540
O O7 0.721201 0.024958 0.086587
O O8 0.000000 0.000000 0.000000
O O9 0.503348 0.250000 0.206012
O O10 0.360520 0.511497 0.304943
O O11 0.474975 0.464588 0.146479
O O12 0.833473 0.250000 0.569578
O O13 0.000000 0.000000 0.500000
O O14 0.266557 0.250000 0.734634
O O15 0.272177 0.467699 0.662115
O O16 0.146833 0.250000 0.671279
O O17 0.970144 0.503935 0.772199
O O18 0.824066 0.750000 0.811897
O O19 0.717177 0.022047 0.835544
O O20 0.628155 0.922151 0.977811
O O21 0.418775 0.750000 0.146576
#
# Coordination Sequence:
#
# PCOD9168157 Si02
#       8
#     4   4   4   4   4   4   4   4
#     4  10  22  41  63  86 118 161 207 258 313 365
#     4  10  21  38  62  91 124 162 203 250 306 368
#     4  11  23  39  62  91 124 159 199 248 307 371
#     4  11  25  44  66  89 120 162 210 263 315 371
#     4   9  19  38  62  89 123 162 203 248 305 367
#     4  11  22  36  60  89 121 160 203 251 304 367
#     4  10  21  37  57  84 120 158 199 247 300 361
#     4  10  21  37  59  86 117 156 201 250 302 359
#
# _framework density 19.753086
#
# number of rings (size 3 to 8) (size 9 to 14) (size 15 to 20)
#    0.000    1.750    0.000    3.750    1.750    5.500 
#    0.000    2.500    0.000    0.000    0.000    0.000 
#    0.000    0.000    0.000    0.000    0.000    0.000 
#
# Total GULP energy -178643.164086 kJ/mol
# GULP energy per Si atom -5582.598878 kJ/mol
# Density = 1.970813 g / cm^3
# Si number density = 19.753086 Si / 1000 Ang^3
#
#
#
# Elastic Constant Matrix: (Units=GPa)
#
#
# Indices 1 2 3 4 5 6 
#
# 1 116.4767 26.5777 53.6701 0.0000 -13.0402 0.0000
# 2 26.5777 45.1953 33.6723 0.0000 -6.4033 0.0000
# 3 53.6701 33.6723 79.5353 0.0000 -6.3714 0.0000
# 4 0.0000 0.0000 0.0000 33.6953 0.0000 0.8750
# 5 -13.0402 -6.4033 -6.3714 0.0000 27.4894 0.0000
# 6 0.0000 0.0000 0.0000 0.8750 0.0000 29.7902
#
#
#
# Elastic Compliance Matrix: (Units=1/GPa)
#
#
# Indices 1 2 3 4 5 6 
#
# 1 0.012954 -0.001130 -0.007939 0.000000 0.004042 0.000000
# 2 -0.001130 0.032960 -0.012858 0.000000 0.004161 0.000000
# 3 -0.007939 -0.012858 0.023264 0.000000 -0.001369 0.000000
# 4 0.000000 0.000000 0.000000 0.029700 0.000000 -0.000872
# 5 0.004042 0.004161 -0.001369 0.000000 0.038947 0.000000
# 6 0.000000 0.000000 0.000000 -0.000872 0.000000 0.033594
#
#
# Mechanical properties :
#
#
# Convention : Reuss Voigt Hill
#
# Bulk Modulus (GPa) = 39.48875 52.11639 45.80257
# Shear Modulus (GPa) = 22.34988 26.68081 24.51535
#
# Velocity S-wave (km/s) = 3.36737 3.67920 3.52673
# Velocity P-wave (km/s) = 5.92904 6.67007 6.31044
#
# Compressibility (1/GPa) = 0.02532367
#
# Stress axis : x y z
#
# Youngs Moduli (GPa) = 77.19680 30.33966 42.98461
#
# Poissons Ratio (x) = 0.03429 0.34125
# Poissons Ratio (y) = 0.08725 0.55270
# Poissons Ratio (z) = 0.61286 0.39011
#
# Static dielectric constant tensor:
#      x y z
#    x 1.696610 0.000000 0.018600 
#    y 0.000000 2.409010 0.000000 
#    z 0.018600 0.000000 1.725400 
# 
# From -- ./inp_files/55535.got.cif
#   From: 2010.05.17/outbox.ucp.g08.bks.cvg/sg11_28_cif.got.tgz:55535.got - 2010.06.11 11:38:39.
