data_PCOD9168546
_publ_section_title
;
Structure prediction by ZEFSAII (Michael W. Deem and Ramdas Pophale) SiO2 
 PCOD9168546
Probable space group: C 2/M
;
_chemical_formula_sum "Si O2"
_cell_formula_units_Z 64
_cell_length_a 28.228288
_cell_length_b 12.782709
_cell_length_c 12.481056
_cell_angle_alpha 90.000000
_cell_angle_beta 107.544183
_cell_angle_gamma 90.000000
_cell_volume 4294.103810
_symmetry_space_group_name_H-M "C 2/M"
_symmetry_group_IT_number 12
_symmetry_cell_setting 'monoclinic'
loop_
_space_group_symop_operation_xyz
x,y,z
-x,y,-z
-x,-y,-z
x,-y,z
1/2+x,1/2+y,z
1/2-x,1/2+y,-z
1/2-x,1/2-y,-z
1/2+x,1/2-y,z
loop_
_atom_site_type_symbol
_atom_site_label
_atom_site_fract_x
_atom_site_fract_y
_atom_site_fract_z
Si Si1 0.260415 0.746301 0.189455
Si Si2 0.123638 0.694820 0.950285
Si Si3 0.556895 0.873084 0.526946
Si Si4 0.303390 0.623315 0.019964
Si Si5 0.148005 0.621660 0.734674
Si Si6 0.985196 0.378689 0.114414
Si Si7 0.416553 0.872946 0.691958
Si Si8 0.330017 0.123925 0.793239
O O1 0.232223 0.833461 0.098333
O O2 0.307565 0.803486 0.273334
O O3 0.220434 0.690495 0.237649
O O4 0.279419 0.660811 0.115885
O O5 0.145083 0.635532 0.860934
O O6 0.064621 0.686372 0.905060
O O7 0.145877 0.811204 0.959079
O O8 0.143328 0.643231 0.073478
O O9 0.500000 0.835904 0.500000
O O10 0.595212 0.846022 0.647357
O O11 0.579966 0.839947 0.428846
O O12 0.554352 0.000000 0.524271
O O13 0.309063 0.500000 0.019521
O O14 0.156934 0.500000 0.714315
O O15 0.974098 0.500000 0.137788
O O16 0.032419 0.341830 0.214288
O O17 0.000000 0.378854 0.000000
O O18 0.368588 0.840908 0.727606
O O19 0.416204 0.000000 0.694412
O O20 0.320485 0.000000 0.775403
#
# Coordination Sequence:
#
# PCOD9168546 Si02
#       8
#     8   8   8   8   8   8   8   8
#     4   9  18  27  42  64  83 113 149 178 213 255
#     4  10  18  26  42  67  89 115 145 174 216 262
#     4   9  17  29  43  60  86 117 141 167 207 258
#     4   9  17  29  42  60  89 118 144 177 218 259
#     4  10  18  28  43  62  88 115 145 177 206 254
#     4  10  16  24  40  65  93 114 135 172 216 258
#     4   9  17  27  41  62  88 118 144 169 215 262
#     4  10  17  27  42  63  91 115 140 177 220 257
#
# _framework density 14.904158000000001
#
# number of rings (size 3 to 8) (size 9 to 14) (size 15 to 20)
#    0.000    2.500    1.250    3.375    0.000    2.000 
#    0.000    0.625    0.000    0.375    0.000    0.000 
#    0.000   50.500    0.000    0.000    0.000    0.000 
#
# Total GULP energy -178280.484080 kJ/mol
# GULP energy per Si atom -5571.265128 kJ/mol
# Density = 1.487024 g / cm^3
# Si number density = 14.904158 Si / 1000 Ang^3
#
#
#
# Elastic Constant Matrix: (Units=GPa)
#
#
# Indices 1 2 3 4 5 6 
#
# 1 126.3439 42.0105 26.1064 0.0000 2.4074 0.0000
# 2 42.0105 70.4242 10.5251 0.0000 7.4835 0.0000
# 3 26.1064 10.5251 50.2980 0.0000 -2.3205 0.0000
# 4 0.0000 0.0000 0.0000 5.4475 0.0000 5.0455
# 5 2.4074 7.4835 -2.3205 0.0000 20.8075 0.0000
# 6 0.0000 0.0000 0.0000 5.0455 0.0000 22.7541
#
#
#
# Elastic Compliance Matrix: (Units=1/GPa)
#
#
# Indices 1 2 3 4 5 6 
#
# 1 0.010730 -0.005790 -0.004341 0.000000 0.000357 0.000000
# 2 -0.005790 0.018473 -0.001142 0.000000 -0.006101 0.000000
# 3 -0.004341 -0.001142 0.022532 0.000000 0.003426 0.000000
# 4 0.000000 0.000000 0.000000 0.231016 0.000000 -0.051225
# 5 0.000357 -0.006101 0.003426 0.000000 0.050595 0.000000
# 6 0.000000 0.000000 0.000000 -0.051225 0.000000 0.055307
#
#
# Mechanical properties :
#
#
# Convention : Reuss Voigt Hill
#
# Bulk Modulus (GPa) = 34.26015 44.92779 39.59397
# Shear Modulus (GPa) = 11.87850 21.03009 16.45430
#
# Velocity S-wave (km/s) = 2.82617 3.76043 3.32627
# Velocity P-wave (km/s) = 5.80401 7.00460 6.43237
#
# Compressibility (1/GPa) = 0.02918843
#
# Stress axis : x y z
#
# Youngs Moduli (GPa) = 93.19271 54.13403 44.38170
#
# Poissons Ratio (x) = 0.31345 0.19268
# Poissons Ratio (y) = 0.53960 0.05067
# Poissons Ratio (z) = 0.40459 0.06180
#
# Static dielectric constant tensor:
#      x y z
#    x 1.517500 0.000000 -0.001380 
#    y 0.000000 1.465990 0.000000 
#    z -0.001380 0.000000 1.506880 
# 
# From -- ./inp_files/188383.got.cif
#   From: 2010.05.17/outbox.cif.g08.bks.cpg/sg12_95_cif.got.tgz:188383.got - 2010.06.03 13:09:07.
