data_PCOD9168478
_publ_section_title
;
Structure prediction by ZEFSAII (Michael W. Deem and Ramdas Pophale) SiO2 
 PCOD9168478
Probable space group: C 2/M
;
_chemical_formula_sum "Si O2"
_cell_formula_units_Z 56
_cell_length_a 13.823157
_cell_length_b 7.649008
_cell_length_c 19.772266
_cell_angle_alpha 90.000000
_cell_angle_beta 91.266201
_cell_angle_gamma 90.000000
_cell_volume 2090.079188
_symmetry_space_group_name_H-M "C 2/M"
_symmetry_group_IT_number 12
_symmetry_cell_setting 'monoclinic'
loop_
_space_group_symop_operation_xyz
x,y,z
-x,y,-z
-x,-y,-z
x,-y,z
1/2+x,1/2+y,z
1/2-x,1/2+y,-z
1/2-x,1/2-y,-z
1/2+x,1/2-y,z
loop_
_atom_site_type_symbol
_atom_site_label
_atom_site_fract_x
_atom_site_fract_y
_atom_site_fract_z
Si Si1 0.797966 0.714124 0.725224
Si Si2 0.496526 0.801119 0.570991
Si Si3 0.042950 0.801367 0.853003
Si Si4 0.175086 0.298812 0.127901
Si Si5 0.024641 0.289601 0.710676
Si Si6 0.232897 0.306093 0.420948
Si Si7 0.112020 0.290570 0.988923
O O1 0.789056 0.500000 0.725068
O O2 0.781320 0.778812 0.802189
O O3 0.912117 0.755626 0.719700
O O4 0.748808 0.779903 0.653980
O O5 0.500000 0.707575 0.500000
O O6 0.546778 0.720875 0.636463
O O7 0.383552 0.817622 0.583802
O O8 0.537889 0.000000 0.563100
O O9 0.943179 0.694195 0.861118
O O10 0.078200 0.779557 0.776815
O O11 0.122466 0.756655 0.910512
O O12 0.013736 0.000000 0.862332
O O13 0.208515 0.500000 0.124749
O O14 0.175954 0.218447 0.051984
O O15 0.032154 0.500000 0.709553
O O16 0.274697 0.500000 0.418827
O O17 0.250000 0.250000 0.500000
O O18 0.115066 0.500000 0.994199
O O19 0.000000 0.233908 0.000000
#
# Coordination Sequence:
#
# PCOD9168478 Si02
#       7
#     8   8   8   8   8   8   8
#     4   7  11  21  35  48  63  89 122 151 181 219
#     4   8  14  26  45  64  77  97 135 176 205 229
#     4  10  16  19  26  42  65  90 116 146 180 222
#     4   8  13  22  33  42  56  83 120 156 187 218
#     4   8  13  23  37  49  64  88 120 156 190 224
#     4   9  16  26  41  60  82 105 130 162 198 238
#     4   8  13  20  29  40  56  82 116 151 184 218
#
# _framework density 26.793244000000001
#
# number of rings (size 3 to 8) (size 9 to 14) (size 15 to 20)
#    0.000    3.714    0.000    4.714    0.000    2.571 
#    0.000    6.429    0.000    1.714    0.000    0.000 
#    0.000    0.000    0.000    1.286    0.000   13.429 
#
# Total GULP energy -156037.156971 kJ/mol
# GULP energy per Si atom -5572.755606 kJ/mol
# Density = 2.673226 g / cm^3
# Si number density = 26.793244 Si / 1000 Ang^3
#
#
#
# Elastic Constant Matrix: (Units=GPa)
#
#
# Indices 1 2 3 4 5 6 
#
# 1 97.9855 1.2501 27.2906 0.0000 30.7961 0.0000
# 2 1.2501 70.1818 30.1812 0.0000 1.0175 0.0000
# 3 27.2906 30.1812 380.4579 0.0000 27.8945 0.0000
# 4 0.0000 0.0000 0.0000 4.5400 0.0000 4.9235
# 5 30.7961 1.0175 27.8945 0.0000 32.2319 0.0000
# 6 0.0000 0.0000 0.0000 4.9235 0.0000 4.0804
#
#
#
# Elastic Compliance Matrix: (Units=1/GPa)
#
#
# Indices 1 2 3 4 5 6 
#
# 1 0.014586 -0.000049 -0.000022 0.000000 -0.013915 0.000000
# 2 -0.000049 0.014762 -0.001214 0.000000 0.000631 0.000000
# 3 -0.000022 -0.001214 0.002906 0.000000 -0.002456 0.000000
# 4 0.000000 0.000000 0.000000 -0.713838 0.000000 0.861346
# 5 -0.013915 0.000631 -0.002456 0.000000 0.046426 0.000000
# 6 0.000000 0.000000 0.000000 0.861346 0.000000 -0.794258
#
#
# Mechanical properties :
#
#
# Convention : Reuss Voigt Hill
#
# Bulk Modulus (GPa) = 33.68636 74.00766 53.84701
# Shear Modulus (GPa) = -3.52870 40.83068 18.65099
#
# Velocity S-wave (km/s) = -1.14886 3.90797 2.64125
# Velocity P-wave (km/s) = 3.29244 6.93143 5.42609
#
# Compressibility (1/GPa) = 0.02968561
#
# Stress axis : x y z
#
# Youngs Moduli (GPa) = 68.55933 67.73948 344.07474
#
# Poissons Ratio (x) = 0.00329 0.00762
# Poissons Ratio (y) = 0.00333 0.41766
# Poissons Ratio (z) = 0.00152 0.08223
#
# Static dielectric constant tensor:
#      x y z
#    x 2.344590 0.000000 -0.106130 
#    y 0.000000 2.020560 0.000000 
#    z -0.106130 0.000000 2.281730 
# 
# From -- ./inp_files/287090.got.cif
#   From: 2010.05.17/outbox.cif.g08.bks.cpg/sg12_144_cif.got.tgz:287090.got - 2010.06.03 13:09:07.
