data_PCOD9168908
_publ_section_title
;
Structure prediction by ZEFSAII (Michael W. Deem and Ramdas Pophale) SiO2 
 PCOD9168908
Probable space group: C 2/M
;
_chemical_formula_sum "Si O2"
_cell_formula_units_Z 52
_cell_length_a 10.034636
_cell_length_b 20.795968
_cell_length_c 16.201764
_cell_angle_alpha 90.000000
_cell_angle_beta 129.012429
_cell_angle_gamma 90.000000
_cell_volume 2627.056137
_symmetry_space_group_name_H-M "C 2/M"
_symmetry_group_IT_number 12
_symmetry_cell_setting 'monoclinic'
loop_
_space_group_symop_operation_xyz
x,y,z
-x,y,-z
-x,-y,-z
x,-y,z
1/2+x,1/2+y,z
1/2-x,1/2+y,-z
1/2-x,1/2-y,-z
1/2+x,1/2-y,z
loop_
_atom_site_type_symbol
_atom_site_label
_atom_site_fract_x
_atom_site_fract_y
_atom_site_fract_z
Si Si1 0.992447 0.358216 0.134421
Si Si2 0.521856 0.930311 0.606752
Si Si3 0.801668 0.000000 0.797133
Si Si4 0.177695 0.000000 0.894057
Si Si5 0.434450 0.000000 0.138856
Si Si6 0.575616 0.735683 0.266451
Si Si7 0.528857 0.215557 0.608585
Si Si8 0.722563 0.640127 0.888065
O O1 0.023932 0.430603 0.180399
O O2 0.002895 0.304294 0.207446
O O3 0.135920 0.339652 0.123263
O O4 0.813318 0.358656 0.013505
O O5 0.500000 0.932613 0.500000
O O6 0.470304 0.857780 0.607053
O O7 0.444617 0.000000 0.607897
O O8 0.718142 0.940327 0.714032
O O9 0.003718 0.000000 0.878704
O O10 0.716845 0.000000 0.853325
O O11 0.178717 0.066761 0.847579
O O12 0.349540 0.000000 0.015351
O O13 0.564021 0.738242 0.361850
O O14 0.765094 0.723428 0.305399
O O15 0.443935 0.683139 0.181505
O O16 0.500000 0.227999 0.500000
#
# Coordination Sequence:
#
# PCOD9168908 Si02
#       8
#     8   8   4   4   4   8   8   8
#     4  10  21  38  58  83 115 152 194 236 285 341
#     4   8  17  33  53  78 104 137 179 229 282 329
#     4  10  16  30  50  84 112 140 180 232 280 336
#     4  10  20  33  54  81 113 150 188 233 278 335
#     4  10  20  33  54  81 113 150 188 233 278 335
#     4  12  22  40  58  88 114 154 190 236 288 344
#     4  11  23  39  60  84 115 149 189 238 288 346
#     4  10  21  38  58  83 115 152 194 236 285 341
#
# _framework density 19.79402
#
# number of rings (size 3 to 8) (size 9 to 14) (size 15 to 20)
#    0.462    1.385    1.538    3.462    0.000    1.846 
#    0.000    1.538    0.000    0.000    0.000    1.077 
#    0.000    0.000    0.000    0.000    0.000    0.000 
#
# Total GULP energy -144750.130283 kJ/mol
# GULP energy per Si atom -5567.312703 kJ/mol
# Density = 1.974897 g / cm^3
# Si number density = 19.794020 Si / 1000 Ang^3
#
#
#
# Elastic Constant Matrix: (Units=GPa)
#
#
# Indices 1 2 3 4 5 6 
#
# 1 57.2132 -3.0846 2.4828 0.0000 -1.9701 0.0000
# 2 -3.0846 88.3016 28.4389 0.0000 -8.2227 0.0000
# 3 2.4828 28.4389 44.1911 0.0000 -7.0562 0.0000
# 4 0.0000 0.0000 0.0000 36.0211 0.0000 -17.7588
# 5 -1.9701 -8.2227 -7.0562 0.0000 24.7098 0.0000
# 6 0.0000 0.0000 0.0000 -17.7588 0.0000 36.7579
#
#
#
# Elastic Compliance Matrix: (Units=1/GPa)
#
#
# Indices 1 2 3 4 5 6 
#
# 1 0.017662 0.001254 -0.001580 0.000000 0.001374 0.000000
# 2 0.001254 0.014493 -0.009023 0.000000 0.002346 0.000000
# 3 -0.001580 -0.009023 0.029364 0.000000 0.005257 0.000000
# 4 0.000000 0.000000 0.000000 0.036442 0.000000 0.017606
# 5 0.001374 0.002346 0.005257 0.000000 0.042861 0.000000
# 6 0.000000 0.000000 0.000000 0.017606 0.000000 0.035711
#
#
# Mechanical properties :
#
#
# Convention : Reuss Voigt Hill
#
# Bulk Modulus (GPa) = 23.35290 27.26446 25.30868
# Shear Modulus (GPa) = 23.86597 30.28900 27.07748
#
# Velocity S-wave (km/s) = 3.47611 3.91603 3.70261
# Velocity P-wave (km/s) = 5.28533 5.85244 5.57610
#
# Compressibility (1/GPa) = 0.04282123
#
# Stress axis : x y z
#
# Youngs Moduli (GPa) = 56.61896 68.99878 34.05578
#
# Poissons Ratio (x) = -0.08650 0.05380
# Poissons Ratio (y) = -0.07098 0.30727
# Poissons Ratio (z) = 0.08944 0.62255
#
# Static dielectric constant tensor:
#      x y z
#    x 1.692460 0.000000 -0.021240 
#    y 0.000000 1.739690 0.000000 
#    z -0.021240 0.000000 1.718550 
# 
# From -- ./inp_files/258588.got.cif
#   From: 2010.05.17/outbox.cif.g08.bks.cpg/sg12_130_cif.got.tgz:258588.got - 2010.06.03 13:09:07.
