data_PCOD9168124
_publ_section_title
;
Structure prediction by ZEFSAII (Michael W. Deem and Ramdas Pophale) SiO2 
 PCOD9168124
Probable space group: P 21/M
;
_chemical_formula_sum "Si O2"
_cell_formula_units_Z 32
_cell_length_a 12.000000
_cell_length_b 18.000000
_cell_length_c 15.000000
_cell_angle_alpha 90.000000
_cell_angle_beta 30.000000
_cell_angle_gamma 90.000000
_cell_volume 1620.000000
_symmetry_space_group_name_H-M "P 21/M"
_symmetry_group_IT_number 11
_symmetry_cell_setting 'monoclinic'
loop_
_space_group_symop_operation_xyz
x,y,z
-x,1/2+y,-z
-x,-y,-z
x,1/2-y,z
loop_
_atom_site_type_symbol
_atom_site_label
_atom_site_fract_x
_atom_site_fract_y
_atom_site_fract_z
Si Si1 0.104500 0.164418 0.218409
Si Si2 0.728347 0.026975 0.015350
Si Si3 0.232339 0.664873 0.114752
Si Si4 0.814536 0.054826 0.330358
Si Si5 0.250333 0.335127 0.465925
Si Si6 0.446537 0.897797 0.144257
Si Si7 0.983475 0.587194 0.538016
Si Si8 0.564962 0.461425 0.318572
O O1 0.087370 0.250000 0.257517
O O2 0.897829 0.135277 0.303467
O O3 0.108326 0.109855 0.301865
O O4 0.330587 0.151475 0.005295
O O5 0.699768 0.011784 0.139311
O O6 0.534652 0.981213 0.099286
O O7 0.717553 0.114396 0.004588
O O8 0.964817 0.996459 0.817673
O O9 0.310646 0.750000 0.056354
O O10 0.346015 0.621078 0.117592
O O11 0.969592 0.665460 0.318820
O O12 0.717743 0.051549 0.298274
O O13 0.624917 0.021171 0.524954
O O14 0.318570 0.250000 0.404350
O O15 0.435811 0.386530 0.381284
O O16 0.165610 0.372306 0.432943
O O17 0.239024 0.883584 0.353427
O O18 0.000000 0.500000 0.500000
#
# Coordination Sequence:
#
# PCOD9168124 Si02
#       8
#     4   4   4   4   4   4   4   4
#     4  11  24  40  61  88 121 162 201 244 303 370
#     4  11  21  37  62  87 113 154 201 247 293 354
#     4  10  21  36  55  85 125 158 189 238 298 357
#     4  10  23  42  61  86 119 148 203 254 297 350
#     4  10  21  37  57  86 122 155 191 241 297 353
#     4  10  23  37  58  88 124 159 195 244 298 358
#     4  11  23  38  62  91 124 158 201 247 297 360
#     4  11  22  40  64  88 112 157 200 253 299 347
#
# _framework density 19.753086
#
# number of rings (size 3 to 8) (size 9 to 14) (size 15 to 20)
#    0.000    1.500    1.250    3.750    8.750    2.500 
#    0.000    0.000    0.000    0.000    0.000    0.000 
#    0.000    0.000    0.000    0.000    0.000    0.000 
#
# Total GULP energy -178790.025431 kJ/mol
# GULP energy per Si atom -5587.188295 kJ/mol
# Density = 1.970813 g / cm^3
# Si number density = 19.753086 Si / 1000 Ang^3
#
#
#
# Elastic Constant Matrix: (Units=GPa)
#
#
# Indices 1 2 3 4 5 6 
#
# 1 38.1320 21.3854 16.2560 0.0000 2.0904 0.0000
# 2 21.3854 95.0537 6.6113 0.0000 4.7320 0.0000
# 3 16.2560 6.6113 60.7288 0.0000 7.3370 0.0000
# 4 0.0000 0.0000 0.0000 21.0185 0.0000 -0.1667
# 5 2.0904 4.7320 7.3370 0.0000 31.3705 0.0000
# 6 0.0000 0.0000 0.0000 -0.1667 0.0000 12.9936
#
#
#
# Elastic Compliance Matrix: (Units=1/GPa)
#
#
# Indices 1 2 3 4 5 6 
#
# 1 0.033686 -0.007037 -0.008344 0.000000 0.000768 0.000000
# 2 -0.007037 0.012128 0.000749 0.000000 -0.001536 0.000000
# 3 -0.008344 0.000749 0.019105 0.000000 -0.004025 0.000000
# 4 0.000000 0.000000 0.000000 0.047582 0.000000 0.000610
# 5 0.000768 -0.001536 -0.004025 0.000000 0.032999 0.000000
# 6 0.000000 0.000000 0.000000 0.000610 0.000000 0.076969
#
#
# Mechanical properties :
#
#
# Convention : Reuss Voigt Hill
#
# Bulk Modulus (GPa) = 28.04630 31.37999 29.71315
# Shear Modulus (GPa) = 18.96692 23.05399 21.01045
#
# Velocity S-wave (km/s) = 3.10207 3.42000 3.26491
# Velocity P-wave (km/s) = 5.20190 5.61390 5.41182
#
# Compressibility (1/GPa) = 0.03565532
#
# Stress axis : x y z
#
# Youngs Moduli (GPa) = 29.68592 82.45473 52.34242
#
# Poissons Ratio (x) = 0.58021 0.43674
# Poissons Ratio (y) = 0.20889 -0.03919
# Poissons Ratio (z) = 0.24770 -0.06174
#
# Static dielectric constant tensor:
#      x y z
#    x 1.677910 0.000000 0.002790 
#    y 0.000000 1.688230 0.000000 
#    z 0.002790 0.000000 1.722830 
# 
# From -- ./inp_files/40002.got.cif
#   From: 2010.05.17/outbox.ucp.g08.bks.cvg/sg11_21_cif.got.tgz:40002.got - 2010.06.11 11:38:39.
