data_PCOD9168327
_publ_section_title
;
Structure prediction by ZEFSAII (Michael W. Deem and Ramdas Pophale) SiO2 
 PCOD9168327
Probable space group: C 2/M
;
_chemical_formula_sum "Si O2"
_cell_formula_units_Z 40
_cell_length_a 26.008351
_cell_length_b 10.691890
_cell_length_c 12.649035
_cell_angle_alpha 90.000000
_cell_angle_beta 33.572763
_cell_angle_gamma 90.000000
_cell_volume 1945.119644
_symmetry_space_group_name_H-M "C 2/M"
_symmetry_group_IT_number 12
_symmetry_cell_setting 'monoclinic'
loop_
_space_group_symop_operation_xyz
x,y,z
-x,y,-z
-x,-y,-z
x,-y,z
1/2+x,1/2+y,z
1/2-x,1/2+y,-z
1/2-x,1/2-y,-z
1/2+x,1/2-y,z
loop_
_atom_site_type_symbol
_atom_site_label
_atom_site_fract_x
_atom_site_fract_y
_atom_site_fract_z
Si Si1 0.273067 0.500000 0.689980
Si Si2 0.866572 0.000000 0.311465
Si Si3 0.863473 0.734333 0.816312
Si Si4 0.865937 0.274034 0.054610
Si Si5 0.779846 0.000000 0.248073
Si Si6 0.159288 0.500000 0.266826
Si Si7 0.000000 0.215417 0.000000
Si Si8 0.651328 0.500000 0.201322
O O1 0.343991 0.500000 0.472363
O O2 0.313420 0.500000 0.738898
O O3 0.213123 0.373624 0.781351
O O4 0.781372 0.000000 0.372968
O O5 0.925873 0.122270 0.180923
O O6 0.887427 0.700372 0.895204
O O7 0.888494 0.625864 0.691879
O O8 0.901513 0.871635 0.728511
O O9 0.750000 0.750000 0.000000
O O10 0.831875 0.128795 0.123735
O O11 0.949242 0.289813 0.994332
O O12 0.684165 0.000000 0.347256
O O13 0.259425 0.500000 0.031976
#
# Coordination Sequence:
#
# PCOD9168327 Si02
#       8
#     4   4   8   8   4   4   4   4
#     4  12  21  33  57  91 117 126 186 256 279 288
#     4   9  22  39  55  79 110 155 186 227 271 327
#     4  10  15  26  47  80 106 136 173 229 272 318
#     4  11  19  33  56  82 111 146 184 228 272 331
#     4  10  17  30  51  73 107 144 186 210 264 332
#     4  10  14  25  44  76 106 127 168 227 275 303
#     4   9  22  39  54  72 112 168 186 198 274 364
#     4  10  16  26  47  84 109 129 163 241 281 299
#
# _framework density 20.564288000000001
#
# number of rings (size 3 to 8) (size 9 to 14) (size 15 to 20)
#    0.000    1.800    8.000    0.600    0.000    3.600 
#    0.000    0.000    0.000    3.600    0.000    0.000 
#    0.000    8.000    0.000    0.000    0.000    0.000 
#
# Total GULP energy -111549.317412 kJ/mol
# GULP energy per Si atom -5577.465871 kJ/mol
# Density = 2.051748 g / cm^3
# Si number density = 20.564288 Si / 1000 Ang^3
#
#
#
# Elastic Constant Matrix: (Units=GPa)
#
#
# Indices 1 2 3 4 5 6 
#
# 1 107.4204 -22.1373 26.9361 0.0000 19.7721 0.0000
# 2 -22.1373 84.7387 -1.0263 0.0000 -8.3865 0.0000
# 3 26.9361 -1.0263 44.5339 0.0000 9.4610 0.0000
# 4 0.0000 0.0000 0.0000 -40.0366 0.0000 11.4264
# 5 19.7721 -8.3865 9.4610 0.0000 13.4254 0.0000
# 6 0.0000 0.0000 0.0000 11.4264 0.0000 21.3271
#
#
#
# Elastic Compliance Matrix: (Units=1/GPa)
#
#
# Indices 1 2 3 4 5 6 
#
# 1 0.013856 0.002014 -0.005018 0.000000 -0.015612 0.000000
# 2 0.002014 0.012972 -0.002365 0.000000 0.006804 0.000000
# 3 -0.005018 -0.002365 0.028436 0.000000 -0.014127 0.000000
# 4 0.000000 0.000000 0.000000 -0.021664 0.000000 0.011607
# 5 -0.015612 0.006804 -0.014127 0.000000 0.111684 0.000000
# 6 0.000000 0.000000 0.000000 0.011607 0.000000 0.040670
#
#
# Mechanical properties :
#
#
# Convention : Reuss Voigt Hill
#
# Bulk Modulus (GPa) = 22.45792 27.13757 24.79774
# Shear Modulus (GPa) = 23.63702 14.47123 19.05412
#
# Velocity S-wave (km/s) = 3.39399 2.65563 3.04725
# Velocity P-wave (km/s) = 5.12869 4.75691 4.94629
#
# Compressibility (1/GPa) = 0.04452772
#
# Stress axis : x y z
#
# Youngs Moduli (GPa) = 72.17040 77.09036 35.16632
#
# Poissons Ratio (x) = -0.15525 0.17645
# Poissons Ratio (y) = -0.14534 0.08315
# Poissons Ratio (z) = 0.36212 0.18228
#
# Static dielectric constant tensor:
#      x y z
#    x 1.760190 0.000000 -0.036450 
#    y 0.000000 1.823600 0.000000 
#    z -0.036450 0.000000 1.753240 
# 
# From -- ./inp_files/181865.got.cif
#   From: 2010.05.17/outbox.cif.g08.bks.cpg/sg12_91_cif.got.tgz:181865.got - 2010.06.03 13:09:07.
