data_PCOD9168717
_publ_section_title
;
Structure prediction by ZEFSAII (Michael W. Deem and Ramdas Pophale) SiO2 
 PCOD9168717
Probable space group: C 2/M
;
_chemical_formula_sum "Si O2"
_cell_formula_units_Z 64
_cell_length_a 17.335353
_cell_length_b 17.258245
_cell_length_c 22.450523
_cell_angle_alpha 90.000000
_cell_angle_beta 149.803960
_cell_angle_gamma 90.000000
_cell_volume 3378.231536
_symmetry_space_group_name_H-M "C 2/M"
_symmetry_group_IT_number 12
_symmetry_cell_setting 'monoclinic'
loop_
_space_group_symop_operation_xyz
x,y,z
-x,y,-z
-x,-y,-z
x,-y,z
1/2+x,1/2+y,z
1/2-x,1/2+y,-z
1/2-x,1/2-y,-z
1/2+x,1/2-y,z
loop_
_atom_site_type_symbol
_atom_site_label
_atom_site_fract_x
_atom_site_fract_y
_atom_site_fract_z
Si Si1 0.008205 0.776861 0.434848
Si Si2 0.170977 0.805964 0.365143
Si Si3 0.592773 0.198086 0.007143
Si Si4 0.344165 0.410529 0.530959
Si Si5 0.228052 0.676582 0.794427
Si Si6 0.269659 0.844241 0.012364
Si Si7 0.053758 0.165424 0.157487
Si Si8 0.010559 0.644103 0.273013
O O1 0.160473 0.730353 0.516766
O O2 0.034478 0.862017 0.426544
O O3 0.000000 0.777952 0.500000
O O4 0.864814 0.733009 0.311482
O O5 0.154728 0.872385 0.402893
O O6 0.144912 0.832376 0.280119
O O7 0.052305 0.736141 0.299760
O O8 0.688721 0.268000 0.101821
O O9 0.500000 0.161366 0.000000
O O10 0.694066 0.142785 0.033095
O O11 0.479593 0.245994 0.887452
O O12 0.379434 0.500000 0.556526
O O13 0.173537 0.397327 0.389365
O O14 0.350608 0.632677 0.834552
O O15 0.103032 0.628208 0.747635
O O16 0.411783 0.870337 0.147718
O O17 0.250000 0.750000 0.000000
O O18 0.109947 0.872039 0.934404
#
# Coordination Sequence:
#
# PCOD9168717 Si02
#       8
#     8   8   8   8   8   8   8   8
#     4  11  21  34  57  83 111 141 184 237 285 328
#     4  11  18  33  55  79 105 139 182 235 277 322
#     4   9  17  25  42  76 118 137 161 213 285 342
#     4  11  25  38  53  77 110 155 196 226 275 343
#     4  11  17  29  49  84 112 137 169 223 289 328
#     4  10  16  27  46  80 114 135 166 227 292 328
#     4  10  18  25  47  81 116 130 166 227 288 330
#     4  11  18  33  56  77 106 143 183 238 281 323
#
# _framework density 18.944824000000001
#
# number of rings (size 3 to 8) (size 9 to 14) (size 15 to 20)
#    0.000    1.500    8.750    0.750    0.000    0.250 
#    0.000    0.000    0.000    4.125    0.000    0.875 
#    0.000    4.500    0.000    0.000    0.000    0.000 
#
# Total GULP energy -178398.803429 kJ/mol
# GULP energy per Si atom -5574.962607 kJ/mol
# Density = 1.890170 g / cm^3
# Si number density = 18.944824 Si / 1000 Ang^3
#
#
#
# Elastic Constant Matrix: (Units=GPa)
#
#
# Indices 1 2 3 4 5 6 
#
# 1 122.6905 -6.5518 10.7571 0.0023 -6.2860 0.0013
# 2 -6.5518 25.2370 2.3428 0.0020 -10.2729 0.0010
# 3 10.7571 2.3428 81.1676 0.0027 -11.2879 0.0017
# 4 0.0023 0.0020 0.0027 4.1523 0.0011 1.1739
# 5 -6.2860 -10.2729 -11.2879 0.0011 36.5535 0.0006
# 6 0.0013 0.0010 0.0017 1.1739 0.0006 2.9761
#
#
#
# Elastic Compliance Matrix: (Units=1/GPa)
#
#
# Indices 1 2 3 4 5 6 
#
# 1 0.008505 0.003131 -0.000932 -0.000005 0.002055 -0.000003
# 2 0.003131 0.045913 0.000135 -0.000025 0.013483 -0.000010
# 3 -0.000932 0.000135 0.012980 -0.000008 0.003886 -0.000005
# 4 -0.000005 -0.000025 -0.000008 0.271061 -0.000017 -0.106919
# 5 0.002055 0.013483 0.003886 -0.000017 0.032700 -0.000008
# 6 -0.000003 -0.000010 -0.000005 -0.106919 -0.000008 0.378187
#
#
# Mechanical properties :
#
#
# Convention : Reuss Voigt Hill
#
# Bulk Modulus (GPa) = 13.87614 26.91013 20.39314
# Shear Modulus (GPa) = 6.50449 23.57283 15.03866
#
# Velocity S-wave (km/s) = 1.85495 3.53127 2.82053
# Velocity P-wave (km/s) = 3.45372 5.55534 4.62547
#
# Compressibility (1/GPa) = 0.07206615
#
# Stress axis : x y z
#
# Youngs Moduli (GPa) = 117.58152 21.78024 77.04037
#
# Poissons Ratio (x) = -0.06819 0.07178
# Poissons Ratio (y) = -0.36812 -0.01040
# Poissons Ratio (z) = 0.10956 -0.00294
#
# Static dielectric constant tensor:
#      x y z
#    x 1.752670 0.000000 0.024530 
#    y 0.000000 1.619140 0.000000 
#    z 0.024530 0.000000 1.692310 
# 
# From -- ./inp_files/317394.got.cif
#   From: 2010.05.17/outbox.cif.g08.bks.cpg/sg12_159_cif.got.tgz:317394.got - 2010.06.03 13:09:07.
