data_PCOD9168213
_publ_section_title
;
Structure prediction by ZEFSAII (Michael W. Deem and Ramdas Pophale) SiO2 
 PCOD9168213
Probable space group: P 21/M
;
_chemical_formula_sum "Si O2"
_cell_formula_units_Z 32
_cell_length_a 12.000000
_cell_length_b 9.000000
_cell_length_c 30.000000
_cell_angle_alpha 90.000000
_cell_angle_beta 150.000000
_cell_angle_gamma 90.000000
_cell_volume 1620.000000
_symmetry_space_group_name_H-M "P 21/M"
_symmetry_group_IT_number 11
_symmetry_cell_setting 'monoclinic'
loop_
_space_group_symop_operation_xyz
x,y,z
-x,1/2+y,-z
-x,-y,-z
x,1/2-y,z
loop_
_atom_site_type_symbol
_atom_site_label
_atom_site_fract_x
_atom_site_fract_y
_atom_site_fract_z
Si Si1 0.902543 0.426394 0.071418
Si Si2 0.489280 0.575343 0.128389
Si Si3 0.686649 0.074299 0.834379
Si Si4 0.123430 0.570978 0.431222
Si Si5 0.585683 0.571968 0.395941
Si Si6 0.035549 0.926823 0.712817
Si Si7 0.265290 0.571458 0.642539
Si Si8 0.887396 0.927028 0.762932
O O1 0.946867 0.250000 0.079272
O O2 0.079776 0.521297 0.104655
O O3 0.937502 0.453836 0.136224
O O4 0.661041 0.456377 0.966866
O O5 0.555450 0.750000 0.150792
O O6 0.344394 0.554050 0.123240
O O7 0.708919 0.476245 0.205576
O O8 0.649236 0.250000 0.811860
O O9 0.499960 0.974364 0.745865
O O10 0.121719 0.750000 0.432106
O O11 0.333747 0.502404 0.530062
O O12 0.101007 0.513091 0.372840
O O13 0.918226 0.503697 0.389060
O O14 0.611949 0.750000 0.405444
O O15 0.725937 0.500194 0.403766
O O16 0.330322 0.523000 0.301203
O O17 0.010831 0.750000 0.697460
O O18 0.968310 0.960903 0.740757
O O19 0.236470 0.750000 0.630376
O O20 0.831503 0.750000 0.744938
#
# Coordination Sequence:
#
# PCOD9168213 Si02
#       8
#     4   4   4   4   4   4   4   4
#     4  10  21  39  63  90 125 169 209 255 310 369
#     4  10  22  39  61  91 128 166 208 257 312 369
#     4  11  21  35  59  93 128 164 204 253 307 372
#     4  12  25  43  66  93 126 163 205 256 310 372
#     4  12  25  42  66  96 127 162 205 253 308 372
#     4  11  24  42  64  90 122 165 213 262 313 367
#     4  12  23  39  64  94 129 166 201 248 308 372
#     4  10  23  43  64  89 124 165 213 262 310 365
#
# _framework density 19.753086
#
# number of rings (size 3 to 8) (size 9 to 14) (size 15 to 20)
#    0.000    1.000    2.500    4.875    0.000    3.000 
#    0.000    0.000    0.000    0.000    0.000    0.000 
#    0.000    0.000    0.000    0.000    0.000    0.000 
#
# Total GULP energy -178961.172886 kJ/mol
# GULP energy per Si atom -5592.536653 kJ/mol
# Density = 1.970813 g / cm^3
# Si number density = 19.753086 Si / 1000 Ang^3
#
#
#
# Elastic Constant Matrix: (Units=GPa)
#
#
# Indices 1 2 3 4 5 6 
#
# 1 88.7650 36.2199 13.0153 0.0000 -31.9776 0.0000
# 2 36.2199 121.3703 30.5973 0.0000 -22.2701 0.0000
# 3 13.0153 30.5973 85.7525 0.0000 -34.7604 0.0000
# 4 0.0000 0.0000 0.0000 32.2329 0.0000 -2.1542
# 5 -31.9776 -22.2701 -34.7604 0.0000 32.8765 0.0000
# 6 0.0000 0.0000 0.0000 -2.1542 0.0000 29.4718
#
#
#
# Elastic Compliance Matrix: (Units=1/GPa)
#
#
# Indices 1 2 3 4 5 6 
#
# 1 0.021781 -0.003631 0.009766 0.000000 0.029052 0.000000
# 2 -0.003631 0.010105 -0.002995 0.000000 0.000146 0.000000
# 3 0.009766 -0.002995 0.024984 0.000000 0.033885 0.000000
# 4 0.000000 0.000000 0.000000 0.031176 0.000000 0.002279
# 5 0.029052 0.000146 0.033885 0.000000 0.094600 0.000000
# 6 0.000000 0.000000 0.000000 0.002279 0.000000 0.034097
#
#
# Mechanical properties :
#
#
# Convention : Reuss Voigt Hill
#
# Bulk Modulus (GPa) = 15.83561 50.61698 33.22629
# Shear Modulus (GPa) = 21.59691 33.31993 27.45842
#
# Velocity S-wave (km/s) = 3.31016 4.11155 3.73243
# Velocity P-wave (km/s) = 4.75854 6.94408 5.95248
#
# Compressibility (1/GPa) = 0.06314882
#
# Stress axis : x y z
#
# Youngs Moduli (GPa) = 45.91065 98.96276 40.02627
#
# Poissons Ratio (x) = 0.35938 -0.39090
# Poissons Ratio (y) = 0.16672 0.11989
# Poissons Ratio (z) = -0.44837 0.29641
#
# Static dielectric constant tensor:
#      x y z
#    x 1.680210 0.000000 -0.007220 
#    y 0.000000 1.663190 0.000000 
#    z -0.007220 0.000000 1.734330 
# 
# From -- ./inp_files/73209.got.cif
#   From: 2010.05.17/outbox.ucp.g08.bks.cvg/sg11_37_cif.got.tgz:73209.got - 2010.06.11 11:38:39.
