data_PCOD9168694
_publ_section_title
;
Structure prediction by ZEFSAII (Michael W. Deem and Ramdas Pophale) SiO2 
 PCOD9168694
Probable space group: C 2/M
;
_chemical_formula_sum "Si O2"
_cell_formula_units_Z 28
_cell_length_a 25.673552
_cell_length_b 8.165363
_cell_length_c 14.081680
_cell_angle_alpha 90.000000
_cell_angle_beta 26.802843
_cell_angle_gamma 90.000000
_cell_volume 1331.119933
_symmetry_space_group_name_H-M "C 2/M"
_symmetry_group_IT_number 12
_symmetry_cell_setting 'monoclinic'
loop_
_space_group_symop_operation_xyz
x,y,z
-x,y,-z
-x,-y,-z
x,-y,z
1/2+x,1/2+y,z
1/2-x,1/2+y,-z
1/2-x,1/2-y,-z
1/2+x,1/2-y,z
loop_
_atom_site_type_symbol
_atom_site_label
_atom_site_fract_x
_atom_site_fract_y
_atom_site_fract_z
Si Si1 0.347881 0.682674 0.503729
Si Si2 0.135194 0.500000 0.246533
Si Si3 0.270143 0.500000 0.226176
Si Si4 0.937306 0.178983 0.703925
Si Si5 0.531231 0.500000 0.839784
O O1 0.299136 0.500000 0.608552
O O2 0.461743 0.703729 0.383578
O O3 0.394972 0.653939 0.320096
O O4 0.267553 0.836244 0.655664
O O5 0.204008 0.500000 0.233334
O O6 0.143136 0.336856 0.170635
O O7 0.000000 0.500000 0.500000
O O8 0.407195 0.500000 0.990277
O O9 0.000000 0.169481 0.500000
O O10 0.882418 0.000000 0.807839
O O11 0.500000 0.500000 0.000000
#
# Coordination Sequence:
#
# PCOD9168694 Si02
#       5
#     8   4   4   8   4
#     4   9  20  39  63  90 123 160 204 249 304 365
#     4  10  16  26  56  90 117 158 191 228 292 368
#     4  12  20  40  70  86 123 173 192 246 326 350
#     4   9  14  26  54  82 121 160 181 236 293 347
#     4  10  26  46  60  92 124 148 222 274 284 364
#
# _framework density 21.034918000000001
#
# number of rings (size 3 to 8) (size 9 to 14) (size 15 to 20)
#    0.857    1.429    5.714    0.000    0.000    1.143 
#    2.571    2.143    0.000    0.000    0.000    0.000 
#    0.000    0.000    0.000    0.000    0.000    0.000 
#
# Total GULP energy -78005.615189 kJ/mol
# GULP energy per Si atom -5571.829656 kJ/mol
# Density = 2.098704 g / cm^3
# Si number density = 21.034918 Si / 1000 Ang^3
#
#
#
# Elastic Constant Matrix: (Units=GPa)
#
#
# Indices 1 2 3 4 5 6 
#
# 1 46.8147 -17.6706 -6.1810 0.0000 21.9541 0.0000
# 2 -17.6706 181.7285 31.4914 0.0000 0.7182 0.0000
# 3 -6.1810 31.4914 62.9901 0.0000 7.7688 0.0000
# 4 0.0000 0.0000 0.0000 23.5100 0.0000 -5.8255
# 5 21.9541 0.7182 7.7688 0.0000 33.5389 0.0000
# 6 0.0000 0.0000 0.0000 -5.8255 0.0000 102.9161
#
#
#
# Elastic Compliance Matrix: (Units=1/GPa)
#
#
# Indices 1 2 3 4 5 6 
#
# 1 0.033961 0.002536 0.004954 0.000000 -0.023432 0.000000
# 2 0.002536 0.006225 -0.002720 0.000000 -0.001164 0.000000
# 3 0.004954 -0.002720 0.018647 0.000000 -0.007504 0.000000
# 4 0.000000 0.000000 0.000000 0.043140 0.000000 0.002442
# 5 -0.023432 -0.001164 -0.007504 0.000000 0.046918 0.000000
# 6 0.000000 0.000000 0.000000 0.002442 0.000000 0.009855
#
#
# Mechanical properties :
#
#
# Convention : Reuss Voigt Hill
#
# Bulk Modulus (GPa) = 14.62522 34.09034 24.35778
# Shear Modulus (GPa) = 29.07042 50.91924 39.99483
#
# Velocity S-wave (km/s) = 3.72157 4.92540 4.36518
# Velocity P-wave (km/s) = 5.04328 6.97050 6.08369
#
# Compressibility (1/GPa) = 0.06837502
#
# Stress axis : x y z
#
# Youngs Moduli (GPa) = 29.44548 160.63588 53.62802
#
# Poissons Ratio (x) = -0.40742 -0.26570
# Poissons Ratio (y) = -0.07468 0.14586
# Poissons Ratio (z) = -0.14589 0.43691
#
# Static dielectric constant tensor:
#      x y z
#    x 1.771290 0.000000 0.003370 
#    y 0.000000 1.900880 0.000000 
#    z 0.003370 0.000000 1.775350 
# 
# From -- ./inp_files/210453.got.cif
#   From: 2010.05.17/outbox.cif.g08.bks.cpg/sg12_106_cif.got.tgz:210453.got - 2010.06.03 13:09:07.
