data_PCOD9168072
_publ_section_title
;
Structure prediction by ZEFSAII (Michael W. Deem and Ramdas Pophale) SiO2 
 PCOD9168072
Probable space group: P 21/M
;
_chemical_formula_sum "Si O2"
_cell_formula_units_Z 28
_cell_length_a 27.000000
_cell_length_b 9.000000
_cell_length_c 9.000000
_cell_angle_alpha 90.000000
_cell_angle_beta 140.000000
_cell_angle_gamma 90.000000
_cell_volume 1405.776502
_symmetry_space_group_name_H-M "P 21/M"
_symmetry_group_IT_number 11
_symmetry_cell_setting 'monoclinic'
loop_
_space_group_symop_operation_xyz
x,y,z
-x,1/2+y,-z
-x,-y,-z
x,1/2-y,z
loop_
_atom_site_type_symbol
_atom_site_label
_atom_site_fract_x
_atom_site_fract_y
_atom_site_fract_z
Si Si1 0.181451 0.578466 0.760756
Si Si2 0.246170 0.923881 0.245232
Si Si3 0.888440 0.572428 0.875324
Si Si4 0.393420 0.424726 0.447420
Si Si5 0.531645 0.571918 0.919473
Si Si6 0.952972 0.574255 0.693816
Si Si7 0.672592 0.574728 0.038042
O O1 0.164978 0.750000 0.686517
O O2 0.106450 0.478950 0.566229
O O3 0.207816 0.570277 0.992699
O O4 0.249773 0.518054 0.811086
O O5 0.261147 0.750000 0.314424
O O6 0.187144 0.994647 0.228823
O O7 0.325525 0.013401 0.398993
O O8 0.880985 0.750000 0.875231
O O9 0.908768 0.540564 0.748703
O O10 0.966196 0.511219 0.131296
O O11 0.405546 0.250000 0.505962
O O12 0.469241 0.518693 0.655367
O O13 0.370042 0.439011 0.220372
O O14 0.531639 0.750000 0.935181
O O15 0.615492 0.530081 0.042011
O O16 0.500000 0.500000 0.000000
O O17 0.967578 0.750000 0.723461
O O18 0.691771 0.750000 0.101821
#
# Coordination Sequence:
#
# PCOD9168072 Si02
#       7
#     4   4   4   4   4   4   4
#     4  10  21  36  57  84 111 141 181 226 271 322
#     4  10  21  37  57  83 112 143 181 224 271 323
#     4  10  21  37  57  81 109 144 185 226 271 324
#     4  10  20  37  60  83 108 142 182 225 274 325
#     4  11  23  38  56  82 114 146 182 225 271 322
#     4  10  21  37  57  80 109 145 183 224 272 325
#     4   9  20  38  59  81 108 143 182 224 272 325
#
# _framework density 19.917818
#
# number of rings (size 3 to 8) (size 9 to 14) (size 15 to 20)
#    0.000    2.000    0.000    3.000    0.000    6.857 
#    0.000    1.429    0.000    0.000    0.000    0.000 
#    0.000    0.000    0.000    0.000    0.000    0.000 
#
# Total GULP energy -156407.574423 kJ/mol
# GULP energy per Si atom -5585.984801 kJ/mol
# Density = 1.987248 g / cm^3
# Si number density = 19.917818 Si / 1000 Ang^3
#
#
#
# Elastic Constant Matrix: (Units=GPa)
#
#
# Indices 1 2 3 4 5 6 
#
# 1 82.2979 22.2715 -29.3259 0.0000 9.0081 0.0000
# 2 22.2715 59.6338 -5.5296 0.0000 -0.6496 0.0000
# 3 -29.3259 -5.5296 15.9625 0.0000 6.5219 0.0000
# 4 0.0000 0.0000 0.0000 30.4814 0.0000 4.1676
# 5 9.0081 -0.6496 6.5219 0.0000 18.8600 0.0000
# 6 0.0000 0.0000 0.0000 4.1676 0.0000 40.3027
#
#
#
# Elastic Compliance Matrix: (Units=1/GPa)
#
#
# Indices 1 2 3 4 5 6 
#
# 1 -1.887661 0.328827 -4.340295 0.000000 2.413823 0.000000
# 2 0.328827 -0.039907 0.762795 0.000000 -0.422210 0.000000
# 3 -4.340295 0.762795 -9.904074 0.000000 5.524203 0.000000
# 4 0.000000 0.000000 0.000000 0.033277 0.000000 -0.003441
# 5 2.413823 -0.422210 5.524203 0.000000 -3.024729 0.000000
# 6 0.000000 0.000000 0.000000 -0.003441 0.000000 0.025168
#
#
# Mechanical properties :
#
#
# Convention : Reuss Voigt Hill
#
# Bulk Modulus (GPa) = -0.05456 14.74736 7.34640
# Shear Modulus (GPa) = -0.34698 29.29402 14.47352
#
# Velocity S-wave (km/s) = -0.41783 3.83919 2.69859
# Velocity P-wave (km/s) = 0.51012 5.20314 3.66145
#
# Compressibility (1/GPa) = -18.32898887
#
# Stress axis : x y z
#
# Youngs Moduli (GPa) = -0.52976 -25.05809 -0.10097
#
# Poissons Ratio (x) = 8.23977 -0.43823
# Poissons Ratio (y) = 0.17420 0.07702
# Poissons Ratio (z) = -2.29930 19.11418
#
# Static dielectric constant tensor:
#      x y z
#    x 1.673050 0.000000 -0.018620 
#    y 0.000000 1.667070 0.000000 
#    z -0.018620 0.000000 1.736950 
# 
# From -- ./inp_files/28165.got.cif
#   From: 2010.05.17/outbox.ucp.g08.bks.cvg/sg11_15_cif.got.tgz:28165.got - 2010.06.11 11:38:39.
