data_PCOD9168062
_publ_section_title
;
Structure prediction by ZEFSAII (Michael W. Deem and Ramdas Pophale) SiO2 
 PCOD9168062
Probable space group: P 21/M
;
_chemical_formula_sum "Si O2"
_cell_formula_units_Z 28
_cell_length_a 21.000000
_cell_length_b 9.000000
_cell_length_c 15.000000
_cell_angle_alpha 90.000000
_cell_angle_beta 30.000000
_cell_angle_gamma 90.000000
_cell_volume 1417.500000
_symmetry_space_group_name_H-M "P 21/M"
_symmetry_group_IT_number 11
_symmetry_cell_setting 'monoclinic'
loop_
_space_group_symop_operation_xyz
x,y,z
-x,1/2+y,-z
-x,-y,-z
x,1/2-y,z
loop_
_atom_site_type_symbol
_atom_site_label
_atom_site_fract_x
_atom_site_fract_y
_atom_site_fract_z
Si Si1 0.341629 0.574695 0.103353
Si Si2 0.613304 0.425459 0.749333
Si Si3 0.550810 0.426685 0.346373
Si Si4 0.157920 0.928486 0.056963
Si Si5 0.334744 0.927593 0.507097
Si Si6 0.100599 0.073138 0.309909
Si Si7 0.884935 0.428336 0.089819
O O1 0.326561 0.750000 0.101592
O O2 0.321016 0.551812 0.234680
O O3 0.239647 0.478265 0.174571
O O4 0.484398 0.521613 0.907992
O O5 0.577848 0.250000 0.789321
O O6 0.694623 0.456476 0.561494
O O7 0.500000 0.500000 0.500000
O O8 0.545601 0.250000 0.365589
O O9 0.693061 0.463405 0.141535
O O10 0.461071 0.483884 0.377044
O O11 0.147348 0.750000 0.083008
O O12 0.103562 0.972297 0.026823
O O13 0.094530 0.010640 0.216670
O O14 0.353941 0.750000 0.492975
O O15 0.237275 0.972877 0.703118
O O16 0.086137 0.250000 0.328522
O O17 0.000000 0.000000 0.500000
O O18 0.886372 0.250000 0.089686
O O19 0.000000 0.500000 0.000000
#
# Coordination Sequence:
#
# PCOD9168062 Si02
#       7
#     4   4   4   4   4   4   4
#     4  10  20  37  59  88 124 158 196 245 301 356
#     4   9  19  35  60  89 119 156 197 243 298 359
#     4  11  21  35  59  89 122 156 195 242 296 352
#     4  10  22  42  63  88 123 158 195 250 307 355
#     4  10  20  37  57  84 119 153 194 243 294 348
#     4  12  26  43  64  89 118 157 205 254 305 363
#     4  10  22  40  59  83 118 157 197 245 296 351
#
# _framework density 19.753086
#
# number of rings (size 3 to 8) (size 9 to 14) (size 15 to 20)
#    0.000    1.714    1.429    3.000    0.000    6.857 
#    0.000    1.429    0.000    0.000    0.000    0.000 
#    0.000    0.000    0.000    0.000    0.000    0.000 
#
# Total GULP energy -156243.230123 kJ/mol
# GULP energy per Si atom -5580.115362 kJ/mol
# Density = 1.970813 g / cm^3
# Si number density = 19.753086 Si / 1000 Ang^3
#
#
#
# Elastic Constant Matrix: (Units=GPa)
#
#
# Indices 1 2 3 4 5 6 
#
# 1 115.8038 43.3824 57.6968 0.0000 29.0308 0.0000
# 2 43.3824 56.6780 42.7086 0.0000 17.3604 0.0000
# 3 57.6968 42.7086 77.5987 0.0000 34.3294 0.0000
# 4 0.0000 0.0000 0.0000 30.6751 0.0000 2.6682
# 5 29.0308 17.3604 34.3294 0.0000 41.2189 0.0000
# 6 0.0000 0.0000 0.0000 2.6682 0.0000 29.4257
#
#
#
# Elastic Compliance Matrix: (Units=1/GPa)
#
#
# Indices 1 2 3 4 5 6 
#
# 1 0.014663 -0.005245 -0.007005 0.000000 -0.002284 0.000000
# 2 -0.005245 0.032104 -0.014919 0.000000 0.002598 0.000000
# 3 -0.007005 -0.014919 0.033796 0.000000 -0.016930 0.000000
# 4 0.000000 0.000000 0.000000 0.032859 0.000000 -0.002980
# 5 -0.002284 0.002598 -0.016930 0.000000 0.038875 0.000000
# 6 0.000000 0.000000 0.000000 -0.002980 0.000000 0.034254
#
#
# Mechanical properties :
#
#
# Convention : Reuss Voigt Hill
#
# Bulk Modulus (GPa) = 38.13144 59.73956 48.93550
# Shear Modulus (GPa) = 20.02946 27.35011 23.68978
#
# Velocity S-wave (km/s) = 3.18778 3.72506 3.46684
# Velocity P-wave (km/s) = 5.73543 6.98643 6.39161
#
# Compressibility (1/GPa) = 0.02622508
#
# Stress axis : x y z
#
# Youngs Moduli (GPa) = 68.19925 31.14833 29.58907
#
# Poissons Ratio (x) = 0.16338 0.20727
# Poissons Ratio (y) = 0.35772 0.44144
# Poissons Ratio (z) = 0.47774 0.46470
#
# Static dielectric constant tensor:
#      x y z
#    x 1.765780 0.000000 0.004340 
#    y 0.000000 1.654570 0.000000 
#    z 0.004340 0.000000 1.701030 
# 
# From -- ./inp_files/51907.got.cif
#   From: 2010.05.17/outbox.ucp.g08.bks.cvg/sg11_26_cif.got.tgz:51907.got - 2010.06.11 11:38:39.
