data_PCOD9168289
_publ_section_title
;
Structure prediction by ZEFSAII (Michael W. Deem and Ramdas Pophale) SiO2 
 PCOD9168289
Probable space group: C 2/M
;
_chemical_formula_sum "Si O2"
_cell_formula_units_Z 48
_cell_length_a 19.104714
_cell_length_b 15.215066
_cell_length_c 7.195728
_cell_angle_alpha 90.000000
_cell_angle_beta 73.333268
_cell_angle_gamma 90.000000
_cell_volume 2003.778563
_symmetry_space_group_name_H-M "C 2/M"
_symmetry_group_IT_number 12
_symmetry_cell_setting 'monoclinic'
loop_
_space_group_symop_operation_xyz
x,y,z
-x,y,-z
-x,-y,-z
x,-y,z
1/2+x,1/2+y,z
1/2-x,1/2+y,-z
1/2-x,1/2-y,-z
1/2+x,1/2-y,z
loop_
_atom_site_type_symbol
_atom_site_label
_atom_site_fract_x
_atom_site_fract_y
_atom_site_fract_z
Si Si1 0.919036 0.222704 0.100246
Si Si2 0.126646 0.403534 0.801370
Si Si3 0.617054 0.901504 0.355890
Si Si4 0.287464 0.597170 0.171619
Si Si5 0.276444 0.658214 0.581016
Si Si6 0.922931 0.783301 0.540449
O O1 0.914745 0.326365 0.061486
O O2 0.849976 0.168312 0.075108
O O3 0.911003 0.224664 0.329079
O O4 0.000000 0.187060 0.000000
O O5 0.108520 0.500000 0.883284
O O6 0.118196 0.404249 0.582287
O O7 0.211781 0.379571 0.753228
O O8 0.699928 0.886730 0.216498
O O9 0.573027 0.811120 0.359957
O O10 0.592046 0.000000 0.319038
O O11 0.304068 0.500000 0.085190
O O12 0.292057 0.596249 0.394463
O O13 0.250000 0.750000 0.500000
O O14 0.347428 0.672137 0.651310
O O15 0.000000 0.830384 0.500000
#
# Coordination Sequence:
#
# PCOD9168289 Si02
#       6
#     8   8   8   8   8   8
#     4  10  19  31  45  67  98 126 152 188 227 278
#     4   9  15  26  47  69  86 116 162 197 222 262
#     4   8  13  24  43  67  90 113 149 196 232 264
#     4   9  15  26  47  70  87 115 161 199 223 260
#     4  10  13  27  47  68  90 118 152 196 223 265
#     4  10  18  28  45  71  96 119 148 190 239 275
#
# _framework density 23.954743000000001
#
# number of rings (size 3 to 8) (size 9 to 14) (size 15 to 20)
#    0.000    2.667    6.667    1.500    0.000    1.000 
#    0.000    0.000    0.000   16.500    0.000    2.333 
#    0.000    0.000    0.000    0.000    0.000    0.000 
#
# Total GULP energy -133781.120075 kJ/mol
# GULP energy per Si atom -5574.213336 kJ/mol
# Density = 2.390022 g / cm^3
# Si number density = 23.954743 Si / 1000 Ang^3
#
#
#
# Elastic Constant Matrix: (Units=GPa)
#
#
# Indices 1 2 3 4 5 6 
#
# 1 54.3984 -7.1174 21.2435 0.0000 -15.8991 0.0000
# 2 -7.1174 73.9562 1.0630 0.0000 -5.7169 0.0000
# 3 21.2435 1.0630 77.8800 0.0000 11.6696 0.0000
# 4 0.0000 0.0000 0.0000 -3.3707 0.0000 -10.2453
# 5 -15.8991 -5.7169 11.6696 0.0000 43.7656 0.0000
# 6 0.0000 0.0000 0.0000 -10.2453 0.0000 -7.3205
#
#
#
# Elastic Compliance Matrix: (Units=1/GPa)
#
#
# Indices 1 2 3 4 5 6 
#
# 1 0.025941 0.003575 -0.008965 0.000000 0.012281 0.000000
# 2 0.003575 0.014169 -0.001709 0.000000 0.003605 0.000000
# 3 -0.008965 -0.001709 0.016489 0.000000 -0.007877 0.000000
# 4 0.000000 0.000000 0.000000 0.091174 0.000000 -0.127602
# 5 0.012281 0.003605 -0.007877 0.000000 0.029882 0.000000
# 6 0.000000 0.000000 0.000000 -0.127602 0.000000 0.041980
#
#
# Mechanical properties :
#
#
# Convention : Reuss Voigt Hill
#
# Bulk Modulus (GPa) = 23.58427 26.29031 24.93729
# Shear Modulus (GPa) = 20.16400 19.35126 19.75763
#
# Velocity S-wave (km/s) = 2.90445 2.84531 2.87503
# Velocity P-wave (km/s) = 4.59505 4.66832 4.63183
#
# Compressibility (1/GPa) = 0.04240115
#
# Stress axis : x y z
#
# Youngs Moduli (GPa) = 38.54900 70.57779 60.64570
#
# Poissons Ratio (x) = -0.25229 0.54369
# Poissons Ratio (y) = -0.13780 0.10362
# Poissons Ratio (z) = 0.34559 0.12059
#
# Static dielectric constant tensor:
#      x y z
#    x 2.003240 0.000000 -0.003610 
#    y 0.000000 1.966300 0.000000 
#    z -0.003610 0.000000 1.950610 
# 
# From -- ./inp_files/167979.got.cif
#   From: 2010.05.17/outbox.cif.g08.bks.cpg/sg12_84_cif.got.tgz:167979.got - 2010.06.03 13:09:07.
