data_PCOD9168158
_publ_section_title
;
Structure prediction by ZEFSAII (Michael W. Deem and Ramdas Pophale) SiO2 
 PCOD9168158
Probable space group: P 21/M
;
_chemical_formula_sum "Si O2"
_cell_formula_units_Z 28
_cell_length_a 24.000000
_cell_length_b 9.000000
_cell_length_c 21.000000
_cell_angle_alpha 90.000000
_cell_angle_beta 20.000000
_cell_angle_gamma 90.000000
_cell_volume 1551.403370
_symmetry_space_group_name_H-M "P 21/M"
_symmetry_group_IT_number 11
_symmetry_cell_setting 'monoclinic'
loop_
_space_group_symop_operation_xyz
x,y,z
-x,1/2+y,-z
-x,-y,-z
x,1/2-y,z
loop_
_atom_site_type_symbol
_atom_site_label
_atom_site_fract_x
_atom_site_fract_y
_atom_site_fract_z
Si Si1 0.271923 0.069371 0.074589
Si Si2 0.336979 0.427305 0.858235
Si Si3 0.462198 0.068643 0.110717
Si Si4 0.987952 0.570651 0.211660
Si Si5 0.092338 0.418039 0.843957
Si Si6 0.526286 0.580650 0.539380
Si Si7 0.908076 0.929182 0.440299
O O1 0.263166 0.250000 0.092319
O O2 0.349489 0.038713 0.920742
O O3 0.081872 0.004912 0.277654
O O4 0.398279 0.997604 0.990551
O O5 0.346484 0.250000 0.841226
O O6 0.453078 0.501507 0.680737
O O7 0.159530 0.489276 0.032004
O O8 0.474946 0.250000 0.096305
O O9 0.270904 0.033408 0.336442
O O10 0.500000 0.000000 0.000000
O O11 0.006193 0.750000 0.192156
O O12 0.918375 0.525034 0.217443
O O13 0.896772 0.535908 0.376301
O O14 0.026453 0.250000 0.913439
O O15 0.280906 0.414405 0.658552
O O16 0.000000 0.500000 0.000000
O O17 0.500000 0.500000 0.500000
O O18 0.461878 0.750000 0.605479
O O19 0.928979 0.750000 0.425235
#
# Coordination Sequence:
#
# PCOD9168158 Si02
#       7
#     4   4   4   4   4   4   4
#     4  10  22  40  63  92 127 163 203 253 308 367
#     4  10  21  37  57  85 116 148 189 237 293 353
#     4  11  24  41  65  94 127 164 206 256 308 370
#     4   9  18  36  59  82 108 143 190 241 291 344
#     4  10  22  36  53  77 107 144 187 236 288 342
#     4  11  23  37  55  79 111 150 193 241 292 350
#     4   9  20  39  64  91 119 158 207 254 304 363
#
# _framework density 18.048175000000001
#
# number of rings (size 3 to 8) (size 9 to 14) (size 15 to 20)
#    0.000    2.000    0.000    2.571    2.000    7.429 
#    0.000    0.000    0.000    0.000    0.000    0.000 
#    0.000    0.000    0.000    0.000    0.000    0.000 
#
# Total GULP energy -155971.825248 kJ/mol
# GULP energy per Si atom -5570.422330 kJ/mol
# Density = 1.800710 g / cm^3
# Si number density = 18.048175 Si / 1000 Ang^3
#
#
#
# Elastic Constant Matrix: (Units=GPa)
#
#
# Indices 1 2 3 4 5 6 
#
# 1 172.0221 56.8062 71.5613 0.0000 6.2838 0.0000
# 2 56.8062 73.0211 53.5611 0.0000 9.5502 0.0000
# 3 71.5613 53.5611 147.5547 0.0000 23.6487 0.0000
# 4 0.0000 0.0000 0.0000 33.0420 0.0000 4.1747
# 5 6.2838 9.5502 23.6487 0.0000 33.4705 0.0000
# 6 0.0000 0.0000 0.0000 4.1747 0.0000 33.2997
#
#
#
# Elastic Compliance Matrix: (Units=1/GPa)
#
#
# Indices 1 2 3 4 5 6 
#
# 1 0.008441 -0.004887 -0.002582 0.000000 0.001634 0.000000
# 2 -0.004887 0.021504 -0.005187 0.000000 -0.001554 0.000000
# 3 -0.002582 -0.005187 0.010823 0.000000 -0.005682 0.000000
# 4 0.000000 0.000000 0.000000 0.030752 0.000000 -0.003855
# 5 0.001634 -0.001554 -0.005682 0.000000 0.034028 0.000000
# 6 0.000000 0.000000 0.000000 -0.003855 0.000000 0.030514
#
#
# Mechanical properties :
#
#
# Convention : Reuss Voigt Hill
#
# Bulk Modulus (GPa) = 64.69461 84.05058 74.37260
# Shear Modulus (GPa) = 30.02554 34.00705 32.01630
#
# Velocity S-wave (km/s) = 4.08319 4.34549 4.21638
# Velocity P-wave (km/s) = 7.62583 8.47638 8.06233
#
# Compressibility (1/GPa) = 0.01545724
#
# Stress axis : x y z
#
# Youngs Moduli (GPa) = 118.46489 46.50310 92.39779
#
# Poissons Ratio (x) = 0.22725 0.23856
# Poissons Ratio (y) = 0.57890 0.47925
# Poissons Ratio (z) = 0.30586 0.24120
#
# Static dielectric constant tensor:
#      x y z
#    x 1.646390 0.000000 0.007270 
#    y 0.000000 1.630490 0.000000 
#    z 0.007270 0.000000 1.617390 
# 
# From -- ./inp_files/29109.got.cif
#   From: 2010.05.17/outbox.ucp.g08.bks.cvg/sg11_15_cif.got.tgz:29109.got - 2010.06.11 11:38:39.
