data_PCOD9168946
_publ_section_title
;
Structure prediction by ZEFSAII (Michael W. Deem and Ramdas Pophale) SiO2 
 PCOD9168946
Probable space group: C 2/M
;
_chemical_formula_sum "Si O2"
_cell_formula_units_Z 58
_cell_length_a 24.652342
_cell_length_b 7.362664
_cell_length_c 14.882983
_cell_angle_alpha 90.000000
_cell_angle_beta 84.175207
_cell_angle_gamma 90.000000
_cell_volume 2687.416820
_symmetry_space_group_name_H-M "C 2/M"
_symmetry_group_IT_number 12
_symmetry_cell_setting 'monoclinic'
loop_
_space_group_symop_operation_xyz
x,y,z
-x,y,-z
-x,-y,-z
x,-y,z
1/2+x,1/2+y,z
1/2-x,1/2+y,-z
1/2-x,1/2-y,-z
1/2+x,1/2-y,z
loop_
_atom_site_type_symbol
_atom_site_label
_atom_site_fract_x
_atom_site_fract_y
_atom_site_fract_z
Si Si1 0.712009 0.216727 0.919208
Si Si2 0.984453 0.220682 0.648994
Si Si3 0.087820 0.705985 0.967616
Si Si4 0.912110 0.779191 0.824603
Si Si5 0.801580 0.783507 0.552472
Si Si6 0.000000 0.000000 0.000000
Si Si7 0.917902 0.220971 0.480740
Si Si8 0.795431 0.221108 0.757188
O O1 0.745817 0.285020 0.827710
O O2 0.707756 0.000000 0.912577
O O3 0.750000 0.250000 0.000000
O O4 0.649342 0.278179 0.937671
O O5 0.958170 0.280748 0.746500
O O6 0.946101 0.270363 0.570807
O O7 0.044355 0.281092 0.608172
O O8 0.984023 0.000000 0.652529
O O9 0.081553 0.500000 0.934300
O O10 0.084185 0.703407 0.076791
O O11 0.039915 0.841653 0.948990
O O12 0.853380 0.733830 0.792296
O O13 0.915919 0.000000 0.834374
O O14 0.750000 0.750000 0.500000
O O15 0.856318 0.714480 0.495908
O O16 0.794313 0.714405 0.654994
O O17 0.808861 0.000000 0.560362
O O18 0.918668 0.000000 0.477569
O O19 0.793270 0.000000 0.757005
#
# Coordination Sequence:
#
# PCOD9168946 Si02
#       8
#     8   8   8   8   8   2   8   8
#     4  10  20  34  59  93 127 155 199 265 321 369
#     4   8  13  22  46  79 108 135 181 244 293 339
#     4  11  24  41  64  95 124 165 213 258 308 378
#     4  10  16  30  57  89 116 151 200 248 309 369
#     4  10  19  33  52  74 108 156 197 235 292 367
#     4  12  26  48  68  82 124 178 210 242 314 394
#     4   8  13  24  43  74 106 138 186 242 287 335
#     4   9  17  31  55  84 116 157 199 246 310 373
#
# _framework density 21.582063000000002
#
# number of rings (size 3 to 8) (size 9 to 14) (size 15 to 20)
#    0.000    2.483    3.448    1.034    0.966    0.000 
#    0.000    2.759    3.034    2.483    0.000    1.931 
#    0.000    0.000    0.000    0.000    0.000    0.000 
#
# Total GULP energy -161654.034249 kJ/mol
# GULP energy per Si atom -5574.277043 kJ/mol
# Density = 2.153294 g / cm^3
# Si number density = 21.582063 Si / 1000 Ang^3
#
#
#
# Elastic Constant Matrix: (Units=GPa)
#
#
# Indices 1 2 3 4 5 6 
#
# 1 128.6353 19.4911 36.0736 0.0000 -48.2511 0.0000
# 2 19.4911 96.2390 0.0587 0.0000 -6.6813 0.0000
# 3 36.0736 0.0587 85.4757 0.0000 -40.9129 0.0000
# 4 0.0000 0.0000 0.0000 7.0576 0.0000 6.2856
# 5 -48.2511 -6.6813 -40.9129 0.0000 44.0837 0.0000
# 6 0.0000 0.0000 0.0000 6.2856 0.0000 16.7694
#
#
#
# Elastic Compliance Matrix: (Units=1/GPa)
#
#
# Indices 1 2 3 4 5 6 
#
# 1 0.013711 -0.001605 0.002306 0.000000 0.016904 0.000000
# 2 -0.001605 0.010777 0.001099 0.000000 0.000897 0.000000
# 3 0.002306 0.001099 0.021615 0.000000 0.022750 0.000000
# 4 0.000000 0.000000 0.000000 0.212692 0.000000 -0.079723
# 5 0.016904 0.000897 0.022750 0.000000 0.062436 0.000000
# 6 0.000000 0.000000 0.000000 -0.079723 0.000000 0.089515
#
#
# Mechanical properties :
#
#
# Convention : Reuss Voigt Hill
#
# Bulk Modulus (GPa) = 20.11928 46.84408 33.48168
# Shear Modulus (GPa) = 11.80042 30.56393 21.18217
#
# Velocity S-wave (km/s) = 2.34085 3.76729 3.13624
# Velocity P-wave (km/s) = 4.08026 6.37774 5.35369
#
# Compressibility (1/GPa) = 0.04970356
#
# Stress axis : x y z
#
# Youngs Moduli (GPa) = 72.93346 92.78657 46.26439
#
# Poissons Ratio (x) = 0.14890 -0.10666
# Poissons Ratio (y) = 0.11704 -0.05086
# Poissons Ratio (z) = -0.16815 -0.10200
#
# Static dielectric constant tensor:
#      x y z
#    x 1.812070 0.000000 -0.011500 
#    y 0.000000 1.861930 0.000000 
#    z -0.011500 0.000000 1.764760 
# 
# From -- ./inp_files/237523.got.cif
#   From: 2010.05.17/outbox.cif.g08.bks.cpg/sg12_119_cif.got.tgz:237523.got - 2010.06.03 13:09:07.
