data_PCOD9168853
_publ_section_title
;
Structure prediction by ZEFSAII (Michael W. Deem and Ramdas Pophale) SiO2 
 PCOD9168853
Probable space group: C 2/M
;
_chemical_formula_sum "Si O2"
_cell_formula_units_Z 56
_cell_length_a 10.450554
_cell_length_b 26.500903
_cell_length_c 27.365572
_cell_angle_alpha 90.000000
_cell_angle_beta 25.217033
_cell_angle_gamma 90.000000
_cell_volume 3228.964824
_symmetry_space_group_name_H-M "C 2/M"
_symmetry_group_IT_number 12
_symmetry_cell_setting 'monoclinic'
loop_
_space_group_symop_operation_xyz
x,y,z
-x,y,-z
-x,-y,-z
x,-y,z
1/2+x,1/2+y,z
1/2-x,1/2+y,-z
1/2-x,1/2-y,-z
1/2+x,1/2-y,z
loop_
_atom_site_type_symbol
_atom_site_label
_atom_site_fract_x
_atom_site_fract_y
_atom_site_fract_z
Si Si1 0.908560 0.761815 0.725092
Si Si2 0.477510 0.940903 0.337426
Si Si3 0.965603 0.900178 0.585524
Si Si4 0.674467 0.271102 0.132451
Si Si5 0.207959 0.699828 0.546335
Si Si6 0.860268 0.124428 0.369410
Si Si7 0.377924 0.369538 0.256158
O O1 0.591340 0.752370 0.808065
O O2 0.868927 0.755680 0.796299
O O3 0.138564 0.721078 0.623822
O O4 0.031846 0.817203 0.668859
O O5 0.335818 0.918035 0.336890
O O6 0.763816 0.909765 0.256655
O O7 0.228052 0.930904 0.466322
O O8 0.528146 0.000000 0.314836
O O9 0.038271 0.841810 0.548147
O O10 0.995053 0.903275 0.633782
O O11 0.629367 0.331878 0.149360
O O12 0.000000 0.257417 0.000000
O O13 0.250000 0.750000 0.500000
O O14 0.905968 0.668745 0.636120
O O15 0.500000 0.121778 0.500000
O O16 0.943861 0.106072 0.286052
#
# Coordination Sequence:
#
# PCOD9168853 Si02
#       7
#     8   8   8   8   8   8   8
#     4  10  21  32  49  73 101 146 176 204 248 298
#     4  10  20  36  49  68 100 134 175 217 250 301
#     4  10  19  29  47  70 104 141 171 200 239 295
#     4  10  21  37  51  69 100 132 179 225 257 298
#     4  10  16  30  43  73 107 141 169 195 233 297
#     4  11  17  32  45  70 110 132 171 203 232 294
#     4   9  20  34  48  73  94 135 168 213 258 304
#
# _framework density 17.343019999999999
#
# number of rings (size 3 to 8) (size 9 to 14) (size 15 to 20)
#    0.000    2.000    4.286    1.286    0.000    4.571 
#   23.143    2.143    0.000    0.429    0.000    0.000 
#    0.000    4.571    0.000    0.000    0.000    2.571 
#
# Total GULP energy -156176.223484 kJ/mol
# GULP energy per Si atom -5577.722267 kJ/mol
# Density = 1.730355 g / cm^3
# Si number density = 17.343020 Si / 1000 Ang^3
#
#
#
# Elastic Constant Matrix: (Units=GPa)
#
#
# Indices 1 2 3 4 5 6 
#
# 1 142.3605 41.4208 24.8447 -0.0254 1.2993 -0.1129
# 2 41.4208 78.2794 16.4371 -0.0850 -0.4857 0.0916
# 3 24.8447 16.4371 31.1627 0.1571 -3.0033 0.0210
# 4 -0.0254 -0.0850 0.1571 9.8176 0.0090 -1.4660
# 5 1.2993 -0.4857 -3.0033 0.0090 16.4605 -0.0296
# 6 -0.1129 0.0916 0.0210 -1.4660 -0.0296 16.7694
#
#
#
# Elastic Compliance Matrix: (Units=1/GPa)
#
#
# Indices 1 2 3 4 5 6 
#
# 1 0.009060 -0.003657 -0.005470 0.000095 -0.001821 0.000093
# 2 -0.003657 0.015858 -0.005473 0.000203 -0.000242 -0.000087
# 3 -0.005470 -0.005473 0.040072 -0.000726 0.007582 -0.000107
# 4 0.000095 0.000203 -0.000726 0.103219 -0.000174 0.009024
# 5 -0.001821 -0.000242 0.007582 -0.000174 0.062272 0.000074
# 6 0.000093 -0.000087 -0.000107 0.009024 0.000074 0.060423
#
#
# Mechanical properties :
#
#
# Convention : Reuss Voigt Hill
#
# Bulk Modulus (GPa) = 27.94138 46.35644 37.14891
# Shear Modulus (GPa) = 15.05872 19.88282 17.47077
#
# Velocity S-wave (km/s) = 2.94987 3.38959 3.17735
# Velocity P-wave (km/s) = 5.26766 6.48894 5.90993
#
# Compressibility (1/GPa) = 0.03578921
#
# Stress axis : x y z
#
# Youngs Moduli (GPa) = 110.37904 63.06091 24.95491
#
# Poissons Ratio (x) = 0.23058 0.13651
# Poissons Ratio (y) = 0.40360 0.13659
# Poissons Ratio (z) = 0.60380 0.34516
#
# Static dielectric constant tensor:
#      x y z
#    x 1.668440 -0.000040 -0.003000 
#    y -0.000040 1.582240 0.000080 
#    z -0.003000 0.000080 1.569670 
# 
# From -- ./inp_files/374662.got.cif
#   From: 2010.05.17/outbox.cif.g08.bks.cpg/sg12_188_cif.got.tgz:374662.got - 2010.06.03 13:09:07.
