data_PCOD9168120
_publ_section_title
;
Structure prediction by ZEFSAII (Michael W. Deem and Ramdas Pophale) SiO2 
 PCOD9168120
Probable space group: P 21/M
;
_chemical_formula_sum "Si O2"
_cell_formula_units_Z 32
_cell_length_a 24.000000
_cell_length_b 9.000000
_cell_length_c 24.000000
_cell_angle_alpha 90.000000
_cell_angle_beta 20.000000
_cell_angle_gamma 90.000000
_cell_volume 1773.032423
_symmetry_space_group_name_H-M "P 21/M"
_symmetry_group_IT_number 11
_symmetry_cell_setting 'monoclinic'
loop_
_space_group_symop_operation_xyz
x,y,z
-x,1/2+y,-z
-x,-y,-z
x,1/2-y,z
loop_
_atom_site_type_symbol
_atom_site_label
_atom_site_fract_x
_atom_site_fract_y
_atom_site_fract_z
Si Si1 0.145158 0.070525 0.113997
Si Si2 0.085836 0.081659 0.470226
Si Si3 0.513436 0.068623 0.167855
Si Si4 0.467842 0.084644 0.086681
Si Si5 0.350290 0.070463 0.711671
Si Si6 0.290565 0.570431 0.647098
Si Si7 0.062569 0.430153 0.065094
Si Si8 0.843584 0.428923 0.480590
O O1 0.169056 0.250000 0.095699
O O2 0.097438 0.030676 0.095830
O O3 0.986623 0.034521 0.301427
O O4 0.318374 0.991584 0.963979
O O5 0.022905 0.250000 0.537906
O O6 0.274679 0.093332 0.276368
O O7 0.085292 0.988230 0.527570
O O8 0.000000 0.000000 0.500000
O O9 0.503857 0.250000 0.179117
O O10 0.527736 0.021013 0.089223
O O11 0.338620 0.002916 0.354298
O O12 0.537464 0.250000 0.015825
O O13 0.500000 0.000000 0.000000
O O14 0.341525 0.250000 0.716117
O O15 0.541142 0.033128 0.543924
O O16 0.309220 0.999892 0.690591
O O17 0.212703 0.020454 0.884786
O O18 0.286263 0.750000 0.655674
O O19 0.118004 0.520184 0.783853
O O20 0.060538 0.250000 0.063882
O O21 0.822634 0.250000 0.500730
#
# Coordination Sequence:
#
# PCOD9168120 Si02
#       8
#     4   4   4   4   4   4   4   4
#     4  10  22  38  59  84 109 146 194 238 279 329
#     4  10  21  36  54  80 110 141 177 219 273 334
#     4  10  22  40  58  80 111 147 184 226 281 338
#     4   9  20  35  52  77 104 133 170 213 265 325
#     4   9  17  30  51  77 106 141 177 218 270 322
#     4   9  17  30  50  76 107 141 176 219 268 320
#     4   9  18  33  52  77 105 137 182 227 268 318
#     4  10  21  38  59  83 110 144 186 231 279 332
#
# _framework density 18.048175000000001
#
# number of rings (size 3 to 8) (size 9 to 14) (size 15 to 20)
#    0.000    2.500    0.000    2.250    1.750    5.000 
#    0.000    5.000    0.000    3.000    0.000    0.000 
#    0.000    0.000    0.000    0.000    0.000    0.000 
#
# Total GULP energy -178262.377774 kJ/mol
# GULP energy per Si atom -5570.699305 kJ/mol
# Density = 1.800710 g / cm^3
# Si number density = 18.048175 Si / 1000 Ang^3
#
#
#
# Elastic Constant Matrix: (Units=GPa)
#
#
# Indices 1 2 3 4 5 6 
#
# 1 122.8435 29.2770 102.7465 0.0000 -8.5026 0.0000
# 2 29.2770 45.2967 41.3477 0.0000 -1.9115 0.0000
# 3 102.7465 41.3477 165.0402 0.0000 -8.0382 0.0000
# 4 0.0000 0.0000 0.0000 25.0357 0.0000 -2.8570
# 5 -8.5026 -1.9115 -8.0382 0.0000 22.7786 0.0000
# 6 0.0000 0.0000 0.0000 -2.8570 0.0000 22.3942
#
#
#
# Elastic Compliance Matrix: (Units=1/GPa)
#
#
# Indices 1 2 3 4 5 6 
#
# 1 0.017250 -0.001754 -0.010168 0.000000 0.002704 0.000000
# 2 -0.001754 0.028801 -0.006144 0.000000 -0.000406 0.000000
# 3 -0.010168 -0.006144 0.013958 0.000000 0.000615 0.000000
# 4 0.000000 0.000000 0.000000 0.040533 0.000000 0.005171
# 5 0.002704 -0.000406 0.000615 0.000000 0.045093 0.000000
# 6 0.000000 0.000000 0.000000 0.005171 0.000000 0.045314
#
#
# Mechanical properties :
#
#
# Convention : Reuss Voigt Hill
#
# Bulk Modulus (GPa) = 41.87806 75.54698 58.71252
# Shear Modulus (GPa) = 21.27297 24.69564 22.98431
#
# Velocity S-wave (km/s) = 3.43691 3.70309 3.57248
# Velocity P-wave (km/s) = 6.24529 7.76101 7.04404
#
# Compressibility (1/GPa) = 0.02387885
#
# Stress axis : x y z
#
# Youngs Moduli (GPa) = 57.97038 34.72107 71.64129
#
# Poissons Ratio (x) = 0.06089 0.72846
# Poissons Ratio (y) = 0.10166 0.44013
# Poissons Ratio (z) = 0.58945 0.21331
#
# Static dielectric constant tensor:
#      x y z
#    x 1.621390 0.000000 -0.014510 
#    y 0.000000 1.642980 0.000000 
#    z -0.014510 0.000000 1.650500 
# 
# From -- ./inp_files/69966.got.cif
#   From: 2010.05.17/outbox.ucp.g08.bks.cvg/sg11_35_cif.got.tgz:69966.got - 2010.06.11 11:38:39.
