data_PCOD9168714
_publ_section_title
;
Structure prediction by ZEFSAII (Michael W. Deem and Ramdas Pophale) SiO2 
 PCOD9168714
Probable space group: C 2/M
;
_chemical_formula_sum "Si O2"
_cell_formula_units_Z 64
_cell_length_a 9.714835
_cell_length_b 28.452894
_cell_length_c 15.565593
_cell_angle_alpha 90.000000
_cell_angle_beta 82.407253
_cell_angle_gamma 90.000000
_cell_volume 4264.842325
_symmetry_space_group_name_H-M "C 2/M"
_symmetry_group_IT_number 12
_symmetry_cell_setting 'monoclinic'
loop_
_space_group_symop_operation_xyz
x,y,z
-x,y,-z
-x,-y,-z
x,-y,z
1/2+x,1/2+y,z
1/2-x,1/2+y,-z
1/2-x,1/2-y,-z
1/2+x,1/2-y,z
loop_
_atom_site_type_symbol
_atom_site_label
_atom_site_fract_x
_atom_site_fract_y
_atom_site_fract_z
Si Si1 0.831649 0.447175 0.523757
Si Si2 0.123616 0.617107 0.323928
Si Si3 0.869762 0.555902 0.841929
Si Si4 0.859541 0.811530 0.551880
Si Si5 0.199165 0.443935 0.825483
Si Si6 0.153956 0.943257 0.012780
Si Si7 0.629299 0.204958 0.427964
Si Si8 0.791000 0.603503 0.354868
O O1 0.787035 0.500000 0.548382
O O2 0.807419 0.410997 0.602613
O O3 0.767336 0.429542 0.439784
O O4 0.000000 0.448183 0.500000
O O5 0.166277 0.590973 0.233154
O O6 0.145424 0.671811 0.344100
O O7 0.956955 0.611081 0.341016
O O8 0.856261 0.500000 0.818995
O O9 0.767582 0.565572 0.929490
O O10 0.032676 0.563100 0.851568
O O11 0.759675 0.802095 0.479286
O O12 0.888522 0.760126 0.589875
O O13 0.786983 0.847883 0.621145
O O14 0.000000 0.831322 0.500000
O O15 0.218362 0.500000 0.815204
O O16 0.243670 0.419753 0.733071
O O17 0.285810 0.426822 0.900664
O O18 0.144426 0.000000 0.020396
O O19 0.000000 0.925993 0.000000
O O20 0.500000 0.189803 0.500000
#
# Coordination Sequence:
#
# PCOD9168714 Si02
#       8
#     8   8   8   8   8   8   8   8
#     4   9  15  23  39  63  90 119 151 182 215 256
#     4  10  16  27  46  67  90 119 152 190 226 262
#     4   9  17  28  46  71  93 115 152 192 224 265
#     4  10  20  30  46  66  91 122 158 194 229 269
#     4   9  17  29  48  69  90 118 154 192 224 263
#     4   9  17  31  47  64  90 123 151 183 228 271
#     4  10  17  32  49  65  88 122 158 195 230 262
#     4  10  17  29  44  66  92 120 151 187 230 268
#
# _framework density 15.006417000000001
#
# number of rings (size 3 to 8) (size 9 to 14) (size 15 to 20)
#    0.000    2.500    2.500    1.500    0.000    4.500 
#    2.250    0.000    0.000    1.500    0.000    0.875 
#    0.000    0.000    0.000    0.000    0.000    0.000 
#
# Total GULP energy -178141.284468 kJ/mol
# GULP energy per Si atom -5566.915140 kJ/mol
# Density = 1.497226 g / cm^3
# Si number density = 15.006417 Si / 1000 Ang^3
#
#
#
# Elastic Constant Matrix: (Units=GPa)
#
#
# Indices 1 2 3 4 5 6 
#
# 1 46.7376 12.7141 42.9519 0.0000 4.0586 0.0000
# 2 12.7141 66.0694 47.0982 0.0000 2.9875 0.0000
# 3 42.9519 47.0982 116.8733 0.0000 11.1153 0.0000
# 4 0.0000 0.0000 0.0000 25.4200 0.0000 8.8564
# 5 4.0586 2.9875 11.1153 0.0000 12.7642 0.0000
# 6 0.0000 0.0000 0.0000 8.8564 0.0000 25.8849
#
#
#
# Elastic Compliance Matrix: (Units=1/GPa)
#
#
# Indices 1 2 3 4 5 6 
#
# 1 0.032785 0.003214 -0.013390 0.000000 0.000484 0.000000
# 2 0.003214 0.021637 -0.010164 0.000000 0.002764 0.000000
# 3 -0.013390 -0.010164 0.018472 0.000000 -0.009449 0.000000
# 4 0.000000 0.000000 0.000000 0.044663 0.000000 -0.015281
# 5 0.000484 0.002764 -0.009449 0.000000 0.085772 0.000000
# 6 0.000000 0.000000 0.000000 -0.015281 0.000000 0.043861
#
#
# Mechanical properties :
#
#
# Convention : Reuss Voigt Hill
#
# Bulk Modulus (GPa) = 31.04112 48.35651 39.69882
# Shear Modulus (GPa) = 16.74437 21.27490 19.00964
#
# Velocity S-wave (km/s) = 3.34400 3.76935 3.56303
# Velocity P-wave (km/s) = 5.96992 7.15806 6.59082
#
# Compressibility (1/GPa) = 0.03221533
#
# Stress axis : x y z
#
# Youngs Moduli (GPa) = 30.50153 46.21629 54.13657
#
# Poissons Ratio (x) = -0.14856 0.72490
# Poissons Ratio (y) = -0.09805 0.55023
# Poissons Ratio (z) = 0.40842 0.46973
#
# Static dielectric constant tensor:
#      x y z
#    x 1.521480 0.000000 0.009700 
#    y 0.000000 1.509400 0.000000 
#    z 0.009700 0.000000 1.490440 
# 
# From -- ./inp_files/200605.got.cif
#   From: 2010.05.17/outbox.cif.g08.bks.cpg/sg12_101_cif.got.tgz:200605.got - 2010.06.03 13:09:07.
