data_PCOD9168155
_publ_section_title
;
Structure prediction by ZEFSAII (Michael W. Deem and Ramdas Pophale) SiO2 
 PCOD9168155
Probable space group: P 21/M
;
_chemical_formula_sum "Si O2"
_cell_formula_units_Z 32
_cell_length_a 15.000000
_cell_length_b 9.000000
_cell_length_c 24.000000
_cell_angle_alpha 90.000000
_cell_angle_beta 30.000000
_cell_angle_gamma 90.000000
_cell_volume 1620.000000
_symmetry_space_group_name_H-M "P 21/M"
_symmetry_group_IT_number 11
_symmetry_cell_setting 'monoclinic'
loop_
_space_group_symop_operation_xyz
x,y,z
-x,1/2+y,-z
-x,-y,-z
x,1/2-y,z
loop_
_atom_site_type_symbol
_atom_site_label
_atom_site_fract_x
_atom_site_fract_y
_atom_site_fract_z
Si Si1 0.652223 0.578646 0.570574
Si Si2 0.038189 0.927606 0.753620
Si Si3 0.467345 0.585347 0.265055
Si Si4 0.353850 0.425554 0.219659
Si Si5 0.233190 0.922208 0.031511
Si Si6 0.597172 0.069865 0.394779
Si Si7 0.993344 0.072193 0.353805
Si Si8 0.886847 0.918999 0.013405
O O1 0.686407 0.750000 0.540553
O O2 0.556784 0.548903 0.679799
O O3 0.514766 0.520248 0.598206
O O4 0.838698 0.494528 0.474914
O O5 0.040702 0.750000 0.752012
O O6 0.196872 0.976469 0.708943
O O7 0.062490 0.981566 0.677519
O O8 0.847168 0.983284 0.875524
O O9 0.409969 0.750000 0.315663
O O10 0.360736 0.536824 0.267902
O O11 0.678892 0.593777 0.141512
O O12 0.330942 0.250000 0.247803
O O13 0.192364 0.465393 0.265867
O O14 0.554232 0.437972 0.087463
O O15 0.191371 0.750000 0.061102
O O16 0.129970 0.984321 0.033263
O O17 0.592389 0.250000 0.399029
O O18 0.500000 0.000000 0.500000
O O19 0.982372 0.250000 0.359828
O O20 0.954810 0.750000 0.966455
O O21 0.000000 0.000000 0.000000
#
# Coordination Sequence:
#
# PCOD9168155 Si02
#       8
#     4   4   4   4   4   4   4   4
#     4  11  23  37  57  87 118 151 190 234 284 339
#     4  10  21  37  57  85 117 152 190 231 282 342
#     4  10  22  39  59  84 113 149 190 233 284 341
#     4   9  20  40  62  84 113 149 190 239 289 334
#     4  10  21  37  57  84 116 150 190 236 283 336
#     4  10  21  37  57  82 114 152 188 230 284 335
#     4  10  21  39  62  84 112 152 194 237 286 337
#     4  10  21  37  57  83 113 148 191 235 283 338
#
# _framework density 19.753086
#
# number of rings (size 3 to 8) (size 9 to 14) (size 15 to 20)
#    0.000    2.000    1.250    1.500    1.750    5.000 
#    0.000    0.000    0.000    0.000    0.000    0.000 
#    0.000    0.000    0.000    0.000    0.000    0.000 
#
# Total GULP energy -178243.506458 kJ/mol
# GULP energy per Si atom -5570.109577 kJ/mol
# Density = 1.970813 g / cm^3
# Si number density = 19.753086 Si / 1000 Ang^3
#
#
#
# Elastic Constant Matrix: (Units=GPa)
#
#
# Indices 1 2 3 4 5 6 
#
# 1 52.6634 16.0298 40.9048 0.0000 -39.6738 0.0000
# 2 16.0298 -18.6266 12.3071 0.0000 -26.5935 0.0000
# 3 40.9048 12.3071 17.8179 0.0000 -2.7823 0.0000
# 4 0.0000 0.0000 0.0000 30.0703 0.0000 -1.4608
# 5 -39.6738 -26.5935 -2.7823 0.0000 18.2853 0.0000
# 6 0.0000 0.0000 0.0000 -1.4608 0.0000 22.7000
#
#
#
# Elastic Compliance Matrix: (Units=1/GPa)
#
#
# Indices 1 2 3 4 5 6 
#
# 1 -0.020863 0.019841 0.032397 0.000000 -0.011480 0.000000
# 2 0.019841 -0.035203 -0.023055 0.000000 -0.011656 0.000000
# 3 0.032397 -0.023055 0.003497 0.000000 0.037294 0.000000
# 4 0.000000 0.000000 0.000000 0.033360 0.000000 0.002147
# 5 -0.011480 -0.011656 0.037294 0.000000 0.018504 0.000000
# 6 0.000000 0.000000 0.000000 0.002147 0.000000 0.044191
#
#
# Mechanical properties :
#
#
# Convention : Reuss Voigt Hill
#
# Bulk Modulus (GPa) = 172.46393 21.14870 96.80631
# Shear Modulus (GPa) = -386.12614 13.05198 -186.53708
#
# Velocity S-wave (km/s) = -13.99645 2.57331 -9.72828
# Velocity P-wave (km/s) = 13.17959 4.42255 8.77903
#
# Compressibility (1/GPa) = 0.00579831
#
# Stress axis : x y z
#
# Youngs Moduli (GPa) = -47.93263 -28.40665 285.99420
#
# Poissons Ratio (x) = 0.56363 -9.26540
# Poissons Ratio (y) = 0.95105 6.59356
# Poissons Ratio (z) = 1.55288 -0.65491
#
# Static dielectric constant tensor:
#      x y z
#    x 1.736220 0.000000 0.057610 
#    y 0.000000 1.642220 0.000000 
#    z 0.057610 0.000000 1.859740 
# 
# From -- ./inp_files/51724.got.cif
#   From: 2010.05.17/outbox.ucp.g08.bks.cvg/sg11_26_cif.got.tgz:51724.got - 2010.06.11 11:38:39.
