data_PCOD9168912
_publ_section_title
;
Structure prediction by ZEFSAII (Michael W. Deem and Ramdas Pophale) SiO2 
 PCOD9168912
Probable space group: C 2/M
;
_chemical_formula_sum "Si O2"
_cell_formula_units_Z 48
_cell_length_a 13.301834
_cell_length_b 15.781500
_cell_length_c 18.821259
_cell_angle_alpha 90.000000
_cell_angle_beta 29.502644
_cell_angle_gamma 90.000000
_cell_volume 1945.730644
_symmetry_space_group_name_H-M "C 2/M"
_symmetry_group_IT_number 12
_symmetry_cell_setting 'monoclinic'
loop_
_space_group_symop_operation_xyz
x,y,z
-x,y,-z
-x,-y,-z
x,-y,z
1/2+x,1/2+y,z
1/2-x,1/2+y,-z
1/2-x,1/2-y,-z
1/2+x,1/2-y,z
loop_
_atom_site_type_symbol
_atom_site_label
_atom_site_fract_x
_atom_site_fract_y
_atom_site_fract_z
Si Si1 0.035241 0.094534 0.180872
Si Si2 0.429840 0.730653 0.448410
Si Si3 0.226039 0.096199 0.920558
Si Si4 0.231533 0.715884 0.863605
Si Si5 0.821696 0.408728 0.346821
Si Si6 0.605841 0.089370 0.526643
O O1 0.163675 0.171812 0.133528
O O2 0.815655 0.095042 0.353383
O O3 0.122147 0.000000 0.143435
O O4 0.047956 0.102394 0.088192
O O5 0.250000 0.750000 0.500000
O O6 0.619836 0.688225 0.292013
O O7 0.316627 0.673663 0.576179
O O8 0.505984 0.823921 0.421242
O O9 0.228894 0.181526 0.872630
O O10 0.448105 0.100173 0.822269
O O11 0.218538 0.000000 0.893655
O O12 0.000000 0.687291 0.000000
O O13 0.739274 0.500000 0.373799
O O14 0.846955 0.413374 0.417746
O O15 0.500335 0.000000 0.575795
#
# Coordination Sequence:
#
# PCOD9168912 Si02
#       6
#     8   8   8   8   8   8
#     4  10  20  35  56  82 108 140 183 225 265 316
#     4  10  16  30  51  75  99 133 181 221 245 305
#     4  10  20  35  56  82 108 140 183 225 265 316
#     4  12  23  34  52  84 117 142 173 220 278 324
#     4   9  15  27  52  78  96 126 180 227 252 292
#     4   9  15  27  52  78  96 126 180 227 252 292
#
# _framework density 24.669395999999999
#
# number of rings (size 3 to 8) (size 9 to 14) (size 15 to 20)
#    0.000    2.000    6.667    0.500    0.000    0.667 
#    0.000    0.000    0.000    4.000    0.000    7.000 
#    0.000    0.000    0.000    0.000    0.000    0.000 
#
# Total GULP energy -133931.652475 kJ/mol
# GULP energy per Si atom -5580.485520 kJ/mol
# Density = 2.461325 g / cm^3
# Si number density = 24.669396 Si / 1000 Ang^3
#
#
#
# Elastic Constant Matrix: (Units=GPa)
#
#
# Indices 1 2 3 4 5 6 
#
# 1 42.5917 -8.6741 1.7821 -0.0009 0.0771 -0.0006
# 2 -8.6741 139.6333 -6.9797 -0.0022 -0.4271 0.0008
# 3 1.7821 -6.9797 128.6031 -0.0088 10.1720 0.0036
# 4 -0.0009 -0.0022 -0.0088 32.0893 0.0027 6.9746
# 5 0.0771 -0.4271 10.1720 0.0027 32.8889 0.0006
# 6 -0.0006 0.0008 0.0036 6.9746 0.0006 -6.7456
#
#
#
# Elastic Compliance Matrix: (Units=1/GPa)
#
#
# Indices 1 2 3 4 5 6 
#
# 1 0.023788 0.001465 -0.000253 0.000001 0.000042 -0.000001
# 2 0.001465 0.007271 0.000376 0.000000 -0.000025 0.000001
# 3 -0.000253 0.000376 0.007995 0.000001 -0.002467 0.000005
# 4 0.000001 0.000000 0.000001 0.025445 -0.000003 0.026309
# 5 0.000042 -0.000025 -0.002467 -0.000003 0.031168 -0.000001
# 6 -0.000001 0.000001 0.000005 0.026309 -0.000001 -0.121044
#
#
# Mechanical properties :
#
#
# Convention : Reuss Voigt Hill
#
# Bulk Modulus (GPa) = 23.67976 31.45387 27.56681
# Shear Modulus (GPa) = -345.39353 33.29318 -156.05018
#
# Velocity S-wave (km/s) = -11.84537 3.67764 -7.96203
# Velocity P-wave (km/s) = 13.32157 5.55079 8.56309
#
# Compressibility (1/GPa) = 0.04223016
#
# Stress axis : x y z
#
# Youngs Moduli (GPa) = 42.03860 137.52575 125.07900
#
# Poissons Ratio (x) = -0.20150 0.03170
# Poissons Ratio (y) = -0.06159 -0.04707
# Poissons Ratio (z) = 0.01065 -0.05176
#
# Static dielectric constant tensor:
#      x y z
#    x 2.022370 0.000000 0.004900 
#    y 0.000000 2.033100 0.000000 
#    z 0.004900 0.000000 1.922700 
# 
# From -- ./inp_files/344448.got.cif
#   From: 2010.05.17/outbox.cif.g08.bks.cpg/sg12_173_cif.got.tgz:344448.got - 2010.06.03 13:09:07.
