data_PCOD9168344
_publ_section_title
;
Structure prediction by ZEFSAII (Michael W. Deem and Ramdas Pophale) SiO2 
 PCOD9168344
Probable space group: C 2/M
;
_chemical_formula_sum "Si O2"
_cell_formula_units_Z 40
_cell_length_a 17.910394
_cell_length_b 22.855829
_cell_length_c 5.176509
_cell_angle_alpha 90.000000
_cell_angle_beta 58.262559
_cell_angle_gamma 90.000000
_cell_volume 1802.174491
_symmetry_space_group_name_H-M "C 2/M"
_symmetry_group_IT_number 12
_symmetry_cell_setting 'monoclinic'
loop_
_space_group_symop_operation_xyz
x,y,z
-x,y,-z
-x,-y,-z
x,-y,z
1/2+x,1/2+y,z
1/2-x,1/2+y,-z
1/2-x,1/2-y,-z
1/2+x,1/2-y,z
loop_
_atom_site_type_symbol
_atom_site_label
_atom_site_fract_x
_atom_site_fract_y
_atom_site_fract_z
Si Si1 0.060593 0.681260 0.638591
Si Si2 0.098387 0.000000 0.057459
Si Si3 0.600822 0.375587 0.112037
Si Si4 0.724908 0.116065 0.507465
Si Si5 0.781807 0.000000 0.654830
Si Si6 0.631760 0.308118 0.565128
O O1 0.131620 0.630918 0.560363
O O2 0.114176 0.742093 0.520317
O O3 0.000000 0.672714 0.500000
O O4 0.000000 0.685728 0.000000
O O5 0.052047 0.062805 0.166384
O O6 0.170443 0.000000 0.157824
O O7 0.140604 0.000000 0.698088
O O8 0.594871 0.349347 0.405988
O O9 0.702577 0.391390 0.851155
O O10 0.587820 0.326026 0.918127
O O11 0.766640 0.171757 0.585664
O O12 0.728842 0.059008 0.681500
#
# Coordination Sequence:
#
# PCOD9168344 Si02
#       6
#     8   4   8   8   4   8
#     4  12  27  40  56  82 123 161 195 233 285 342
#     4  10  14  30  48  97 115 132 170 250 289 335
#     4   9  18  30  61  86 113 138 188 234 293 324
#     4   9  22  37  63  86 116 148 196 240 287 339
#     4  10  18  32  60  89 115 140 188 244 289 331
#     4  10  20  37  59  85 111 152 193 243 283 336
#
# _framework density 22.195411
#
# number of rings (size 3 to 8) (size 9 to 14) (size 15 to 20)
#    1.200    0.800    2.000    1.800    2.800    0.800 
#    0.000    1.000    0.000    0.000    0.000   23.800 
#    0.000    0.000    0.000    0.000    0.000    0.000 
#
# Total GULP energy -111642.530120 kJ/mol
# GULP energy per Si atom -5582.126506 kJ/mol
# Density = 2.214489 g / cm^3
# Si number density = 22.195411 Si / 1000 Ang^3
#
#
#
# Elastic Constant Matrix: (Units=GPa)
#
#
# Indices 1 2 3 4 5 6 
#
# 1 161.8525 49.4845 21.0410 0.0000 21.9764 0.0000
# 2 49.4845 73.7642 1.6818 0.0000 0.0863 0.0000
# 3 21.0410 1.6818 46.3731 0.0000 26.4766 0.0000
# 4 0.0000 0.0000 0.0000 14.7482 0.0000 16.4206
# 5 21.9764 0.0863 26.4766 0.0000 35.1140 0.0000
# 6 0.0000 0.0000 0.0000 16.4206 0.0000 24.0776
#
#
#
# Elastic Compliance Matrix: (Units=1/GPa)
#
#
# Indices 1 2 3 4 5 6 
#
# 1 0.008731 -0.005826 -0.001121 0.000000 -0.004604 0.000000
# 2 -0.005826 0.017463 -0.000083 0.000000 0.003666 0.000000
# 3 -0.001121 -0.000083 0.038060 0.000000 -0.027996 0.000000
# 4 0.000000 0.000000 0.000000 0.281722 0.000000 -0.192130
# 5 -0.004604 0.003666 -0.027996 0.000000 0.052461 0.000000
# 6 0.000000 0.000000 0.000000 -0.192130 0.000000 0.172563
#
#
# Mechanical properties :
#
#
# Convention : Reuss Voigt Hill
#
# Bulk Modulus (GPa) = 19.92290 47.37826 33.65058
# Shear Modulus (GPa) = 8.30854 28.77347 18.54101
#
# Velocity S-wave (km/s) = 1.93688 3.60442 2.89338
# Velocity P-wave (km/s) = 3.74134 6.22212 5.13383
#
# Compressibility (1/GPa) = 0.05019349
#
# Stress axis : x y z
#
# Youngs Moduli (GPa) = 114.53921 57.26507 26.27409
#
# Poissons Ratio (x) = 0.33362 0.02946
# Poissons Ratio (y) = 0.66730 0.00218
# Poissons Ratio (z) = 0.12842 0.00475
#
# Static dielectric constant tensor:
#      x y z
#    x 1.838170 0.000000 -0.026850 
#    y 0.000000 1.844490 0.000000 
#    z -0.026850 0.000000 1.800590 
# 
# From -- ./inp_files/16539.got.cif
#   From: 2010.05.17/outbox.cif.g08.bks.cpg/sg12_9_cif.got.tgz:16539.got - 2010.06.03 13:09:07.
