data_PCOD9168390
_publ_section_title
;
Structure prediction by ZEFSAII (Michael W. Deem and Ramdas Pophale) SiO2 
 PCOD9168390
Probable space group: C 2/M
;
_chemical_formula_sum "Si O2"
_cell_formula_units_Z 56
_cell_length_a 15.095791
_cell_length_b 13.612377
_cell_length_c 29.695675
_cell_angle_alpha 90.000000
_cell_angle_beta 151.983595
_cell_angle_gamma 90.000000
_cell_volume 2866.329535
_symmetry_space_group_name_H-M "C 2/M"
_symmetry_group_IT_number 12
_symmetry_cell_setting 'monoclinic'
loop_
_space_group_symop_operation_xyz
x,y,z
-x,y,-z
-x,-y,-z
x,-y,z
1/2+x,1/2+y,z
1/2-x,1/2+y,-z
1/2-x,1/2-y,-z
1/2+x,1/2-y,z
loop_
_atom_site_type_symbol
_atom_site_label
_atom_site_fract_x
_atom_site_fract_y
_atom_site_fract_z
Si Si1 0.043022 0.609262 0.459132
Si Si2 0.725045 0.117638 0.245258
Si Si3 0.450192 0.116243 0.050068
Si Si4 0.558415 0.311958 0.328805
Si Si5 0.195329 0.116112 0.859930
Si Si6 0.172706 0.611096 0.417121
Si Si7 0.431860 0.322183 0.420280
O O1 0.976182 0.500000 0.441077
O O2 0.253703 0.628446 0.573014
O O3 0.056930 0.613827 0.411331
O O4 0.924822 0.704391 0.420144
O O5 0.531248 0.152386 0.134177
O O6 0.894428 0.162778 0.291262
O O7 0.758632 0.141191 0.312813
O O8 0.736341 0.000000 0.244845
O O9 0.628150 0.124529 0.095668
O O10 0.412300 0.000000 0.038365
O O11 0.271610 0.156355 0.941960
O O12 0.478908 0.336497 0.244019
O O13 0.604576 0.196568 0.353694
O O14 0.156370 0.000000 0.846987
O O15 0.170169 0.500000 0.398353
O O16 0.384397 0.643222 0.525360
O O17 0.500000 0.359719 0.500000
#
# Coordination Sequence:
#
# PCOD9168390 Si02
#       7
#     8   8   8   8   8   8   8
#     4  10  18  31  47  63  84 112 148 182 210 249
#     4  10  16  25  41  61  87 117 142 169 213 258
#     4   7  12  20  32  55  86 111 133 165 211 259
#     4  10  15  25  43  65  83 109 142 174 216 256
#     4   8  12  19  34  60  87 107 130 170 218 254
#     4  10  19  31  45  62  85 115 150 180 208 249
#     4  11  21  31  43  64  91 116 145 175 209 256
#
# _framework density 19.537182000000001
#
# number of rings (size 3 to 8) (size 9 to 14) (size 15 to 20)
#    0.000    2.571    2.857    4.286    0.000    1.429 
#    0.000    0.000    0.000    0.000    0.000   13.000 
#    0.000    2.286    0.000    0.000    0.000    0.000 
#
# Total GULP energy -155936.464335 kJ/mol
# GULP energy per Si atom -5569.159441 kJ/mol
# Density = 1.949271 g / cm^3
# Si number density = 19.537182 Si / 1000 Ang^3
#
#
#
# Elastic Constant Matrix: (Units=GPa)
#
#
# Indices 1 2 3 4 5 6 
#
# 1 25.5347 -1.3897 8.5677 0.0002 -15.1032 0.0000
# 2 -1.3897 102.9749 45.4620 0.0000 -6.7689 0.0000
# 3 8.5677 45.4620 184.9772 0.0008 -39.8321 0.0005
# 4 0.0002 0.0000 0.0008 21.0926 0.0003 -6.5067
# 5 -15.1032 -6.7689 -39.8321 0.0003 25.9068 0.0001
# 6 0.0000 0.0000 0.0005 -6.5067 0.0001 5.6031
#
#
#
# Elastic Compliance Matrix: (Units=1/GPa)
#
#
# Indices 1 2 3 4 5 6 
#
# 1 0.066760 0.000866 0.007661 -0.000004 0.050925 -0.000006
# 2 0.000866 0.010967 -0.003004 0.000000 -0.001249 0.000001
# 3 0.007661 -0.003004 0.009840 -0.000002 0.018811 -0.000003
# 4 -0.000004 0.000000 -0.000002 0.073874 -0.000006 0.085788
# 5 0.050925 -0.001249 0.018811 -0.000006 0.096884 -0.000011
# 6 -0.000006 0.000001 -0.000003 0.085788 -0.000011 0.278094
#
#
# Mechanical properties :
#
#
# Convention : Reuss Voigt Hill
#
# Bulk Modulus (GPa) = 10.14065 46.52962 28.33513
# Shear Modulus (GPa) = 8.95664 27.91029 18.43346
#
# Velocity S-wave (km/s) = 2.14345 3.78375 3.07499
# Velocity P-wave (km/s) = 3.36564 6.55413 5.20980
#
# Compressibility (1/GPa) = 0.09861305
#
# Stress axis : x y z
#
# Youngs Moduli (GPa) = 14.97900 91.18156 101.62316
#
# Poissons Ratio (x) = -0.07899 -0.77853
# Poissons Ratio (y) = -0.01298 0.30532
# Poissons Ratio (z) = -0.11475 0.27395
#
# Static dielectric constant tensor:
#      x y z
#    x 1.784490 0.000000 -0.031970 
#    y 0.000000 1.680040 0.000000 
#    z -0.031970 0.000000 1.732950 
# 
# From -- ./inp_files/246183.got.cif
#   From: 2010.05.17/outbox.cif.g08.bks.cpg/sg12_124_cif.got.tgz:246183.got - 2010.06.03 13:09:07.
