data_PCOD9168978
_publ_section_title
;
Structure prediction by ZEFSAII (Michael W. Deem and Ramdas Pophale) SiO2 
 PCOD9168978
Probable space group: C 2/M
;
_chemical_formula_sum "Si O2"
_cell_formula_units_Z 40
_cell_length_a 18.004278
_cell_length_b 19.463625
_cell_length_c 8.162164
_cell_angle_alpha 90.000000
_cell_angle_beta 136.716088
_cell_angle_gamma 90.000000
_cell_volume 1961.030811
_symmetry_space_group_name_H-M "C 2/M"
_symmetry_group_IT_number 12
_symmetry_cell_setting 'monoclinic'
loop_
_space_group_symop_operation_xyz
x,y,z
-x,y,-z
-x,-y,-z
x,-y,z
1/2+x,1/2+y,z
1/2-x,1/2+y,-z
1/2-x,1/2-y,-z
1/2+x,1/2-y,z
loop_
_atom_site_type_symbol
_atom_site_label
_atom_site_fract_x
_atom_site_fract_y
_atom_site_fract_z
Si Si1 0.404070 0.862889 0.158034
Si Si2 0.458748 0.702582 0.200734
Si Si3 0.623062 0.920432 0.515084
Si Si4 0.823599 0.820149 0.297679
Si Si5 0.729798 0.301303 0.318696
O O1 0.452711 0.784838 0.228915
O O2 0.502738 0.908464 0.250130
O O3 0.382447 0.891650 0.306312
O O4 0.288874 0.861479 0.879789
O O5 0.579776 0.673913 0.415038
O O6 0.384940 0.669266 0.225115
O O7 0.394459 0.691261 0.930678
O O8 0.708934 0.872304 0.562380
O O9 0.651045 0.000000 0.561173
O O10 0.783871 0.741297 0.254244
O O11 0.750000 0.250000 0.500000
#
# Coordination Sequence:
#
# PCOD9168978 Si02
#       5
#     8   8   8   8   8
#     4  10  16  31  54  84 116 141 189 235 294 332
#     4  10  17  32  58  80 118 141 189 263 283 316
#     4  11  20  34  55  85 120 154 190 233 298 362
#     4  10  17  32  56  81 114 141 187 254 284 324
#     4  11  21  34  53  85 116 152 197 241 287 343
#
# _framework density 20.397435000000002
#
# number of rings (size 3 to 8) (size 9 to 14) (size 15 to 20)
#    0.000    1.600    6.000    3.600    0.000    0.800 
#    0.000    0.000    0.000   18.000    0.000    1.400 
#    0.000    0.000    0.000    0.000    0.000    0.000 
#
# Total GULP energy -111520.850747 kJ/mol
# GULP energy per Si atom -5576.042537 kJ/mol
# Density = 2.035101 g / cm^3
# Si number density = 20.397435 Si / 1000 Ang^3
#
#
#
# Elastic Constant Matrix: (Units=GPa)
#
#
# Indices 1 2 3 4 5 6 
#
# 1 51.1371 35.6856 54.9036 0.0000 17.0554 0.0000
# 2 35.6856 117.6398 46.3454 0.0000 10.9158 0.0000
# 3 54.9036 46.3454 203.8359 0.0000 39.9290 0.0000
# 4 0.0000 0.0000 0.0000 12.1529 0.0000 4.7153
# 5 17.0554 10.9158 39.9290 0.0000 35.7339 0.0000
# 6 0.0000 0.0000 0.0000 4.7153 0.0000 17.6424
#
#
#
# Elastic Compliance Matrix: (Units=1/GPa)
#
#
# Indices 1 2 3 4 5 6 
#
# 1 0.033253 -0.007083 -0.005967 0.000000 -0.007040 0.000000
# 2 -0.007083 0.010856 -0.000734 0.000000 0.000884 0.000000
# 3 -0.005967 -0.000734 0.007781 0.000000 -0.005623 0.000000
# 4 0.000000 0.000000 0.000000 0.091805 0.000000 -0.024537
# 5 -0.007040 0.000884 -0.005623 0.000000 0.037357 0.000000
# 6 0.000000 0.000000 0.000000 -0.024537 0.000000 0.063240
#
#
# Mechanical properties :
#
#
# Convention : Reuss Voigt Hill
#
# Bulk Modulus (GPa) = 41.11442 71.83134 56.47288
# Shear Modulus (GPa) = 17.85919 28.81771 23.33845
#
# Velocity S-wave (km/s) = 2.96220 3.76281 3.38625
# Velocity P-wave (km/s) = 5.64800 7.36007 6.56013
#
# Compressibility (1/GPa) = 0.02432237
#
# Stress axis : x y z
#
# Youngs Moduli (GPa) = 30.07269 92.11384 128.51074
#
# Poissons Ratio (x) = 0.65244 0.76686
# Poissons Ratio (y) = 0.21301 0.09429
# Poissons Ratio (z) = 0.17945 0.06758
#
# Static dielectric constant tensor:
#      x y z
#    x 1.819040 0.000000 -0.012370 
#    y 0.000000 1.677160 0.000000 
#    z -0.012370 0.000000 1.819830 
# 
# From -- ./inp_files/88227.got.cif
#   From: 2010.05.17/outbox.cif.g08.bks.cpg/sg12_45_cif.got.tgz:88227.got - 2010.06.03 13:09:07.
