data_PCOD9168368
_publ_section_title
;
Structure prediction by ZEFSAII (Michael W. Deem and Ramdas Pophale) SiO2 
 PCOD9168368
Probable space group: C 2/M
;
_chemical_formula_sum "Si O2"
_cell_formula_units_Z 24
_cell_length_a 10.463623
_cell_length_b 14.516043
_cell_length_c 6.740128
_cell_angle_alpha 90.000000
_cell_angle_beta 115.410131
_cell_angle_gamma 90.000000
_cell_volume 924.721554
_symmetry_space_group_name_H-M "C 2/M"
_symmetry_group_IT_number 12
_symmetry_cell_setting 'monoclinic'
loop_
_space_group_symop_operation_xyz
x,y,z
-x,y,-z
-x,-y,-z
x,-y,z
1/2+x,1/2+y,z
1/2-x,1/2+y,-z
1/2-x,1/2-y,-z
1/2+x,1/2-y,z
loop_
_atom_site_type_symbol
_atom_site_label
_atom_site_fract_x
_atom_site_fract_y
_atom_site_fract_z
Si Si1 0.702183 0.000000 0.457858
Si Si2 0.366169 0.325923 0.631712
Si Si3 0.354475 0.390438 0.080540
Si Si4 0.111347 0.500000 0.865846
O O1 0.801793 0.085352 0.482392
O O2 0.657048 0.000000 0.661206
O O3 0.555284 0.000000 0.244683
O O4 0.250000 0.250000 0.500000
O O5 0.537773 0.326019 0.725318
O O6 0.355753 0.348662 0.859968
O O7 0.405558 0.500000 0.116819
O O8 0.188119 0.409232 0.004757
#
# Coordination Sequence:
#
# PCOD9168368 Si02
#       4
#     4   8   8   4
#     4   9  13  25  37  66  76 101 134 165 197 232
#     4  10  15  22  42  63  82 102 131 167 197 234
#     4   8  14  29  42  56  78 108 132 163 201 222
#     4   7  13  23  47  51  76 105 132 168 201 219
#
# _framework density 25.953758000000001
#
# number of rings (size 3 to 8) (size 9 to 14) (size 15 to 20)
#    1.000    2.333    3.333    1.000    0.000    0.000 
#    0.000    1.667    0.000    4.000    0.000    0.000 
#    0.000   32.000    0.000    0.000    0.000    0.000 
#
# Total GULP energy -66856.459331 kJ/mol
# GULP energy per Si atom -5571.371611 kJ/mol
# Density = 2.589469 g / cm^3
# Si number density = 25.953758 Si / 1000 Ang^3
#
#
#
# Elastic Constant Matrix: (Units=GPa)
#
#
# Indices 1 2 3 4 5 6 
#
# 1 107.8459 6.9944 38.7905 0.0000 31.4778 0.0000
# 2 6.9944 127.2985 53.6060 0.0000 32.1374 0.0000
# 3 38.7905 53.6060 243.8728 0.0000 47.6372 0.0000
# 4 0.0000 0.0000 0.0000 36.0575 0.0000 21.4971
# 5 31.4778 32.1374 47.6372 0.0000 72.2533 0.0000
# 6 0.0000 0.0000 0.0000 21.4971 0.0000 27.1400
#
#
#
# Elastic Compliance Matrix: (Units=1/GPa)
#
#
# Indices 1 2 3 4 5 6 
#
# 1 0.010903 0.000985 -0.001076 0.000000 -0.004479 0.000000
# 2 0.000985 0.009343 -0.001509 0.000000 -0.003590 0.000000
# 3 -0.001076 -0.001509 0.005028 0.000000 -0.002175 0.000000
# 4 0.000000 0.000000 0.000000 0.052548 0.000000 -0.041623
# 5 -0.004479 -0.003590 -0.002175 0.000000 0.018822 0.000000
# 6 0.000000 0.000000 0.000000 -0.041623 0.000000 0.069814
#
#
# Mechanical properties :
#
#
# Convention : Reuss Voigt Hill
#
# Bulk Modulus (GPa) = 45.30309 75.31097 60.30703
# Shear Modulus (GPa) = 28.24574 52.39859 40.32217
#
# Velocity S-wave (km/s) = 3.30253 4.49812 3.94587
# Velocity P-wave (km/s) = 5.65999 7.48717 6.63676
#
# Compressibility (1/GPa) = 0.02207355
#
# Stress axis : x y z
#
# Youngs Moduli (GPa) = 91.71979 107.02956 198.87646
#
# Poissons Ratio (x) = -0.10538 0.21395
# Poissons Ratio (y) = -0.09031 0.30014
# Poissons Ratio (z) = 0.09867 0.16152
#
# Static dielectric constant tensor:
#      x y z
#    x 2.429550 0.000000 -0.214570 
#    y 0.000000 2.048120 0.000000 
#    z -0.214570 0.000000 2.162770 
# 
# From -- ./inp_files/139199.got.cif
#   From: 2010.05.17/outbox.cif.g08.bks.cpg/sg12_70_cif.got.tgz:139199.got - 2010.06.03 13:09:07.
