data_PCOD9168724
_publ_section_title
;
Structure prediction by ZEFSAII (Michael W. Deem and Ramdas Pophale) SiO2 
 PCOD9168724
Probable space group: C 2/M
;
_chemical_formula_sum "Si O2"
_cell_formula_units_Z 56
_cell_length_a 20.946489
_cell_length_b 24.979893
_cell_length_c 9.581336
_cell_angle_alpha 90.000000
_cell_angle_beta 25.508402
_cell_angle_gamma 90.000000
_cell_volume 2158.965626
_symmetry_space_group_name_H-M "C 2/M"
_symmetry_group_IT_number 12
_symmetry_cell_setting 'monoclinic'
loop_
_space_group_symop_operation_xyz
x,y,z
-x,y,-z
-x,-y,-z
x,-y,z
1/2+x,1/2+y,z
1/2-x,1/2+y,-z
1/2-x,1/2-y,-z
1/2+x,1/2-y,z
loop_
_atom_site_type_symbol
_atom_site_label
_atom_site_fract_x
_atom_site_fract_y
_atom_site_fract_z
Si Si1 0.421195 0.060541 0.370216
Si Si2 0.267864 0.630574 0.061932
Si Si3 0.711251 0.869707 0.860510
Si Si4 0.696135 0.438697 0.573638
Si Si5 0.139419 0.713614 0.636522
Si Si6 0.992057 0.280737 0.372521
Si Si7 0.084947 0.143248 0.968367
O O1 0.301490 0.079673 0.721646
O O2 0.562130 0.097327 0.122069
O O3 0.352211 0.061916 0.350542
O O4 0.466393 0.000000 0.308042
O O5 0.283345 0.618597 0.867970
O O6 0.134392 0.675354 0.334070
O O7 0.411917 0.648467 0.869392
O O8 0.641284 0.809769 0.020499
O O9 0.808773 0.892092 0.537834
O O10 0.672665 0.500000 0.573458
O O11 0.595204 0.418996 0.903226
O O12 0.250000 0.750000 0.500000
O O13 0.074496 0.745725 0.632892
O O14 0.244981 0.665296 0.385588
O O15 0.000000 0.694573 0.000000
O O16 0.000000 0.248211 0.500000
O O17 0.000000 0.168768 0.000000
#
# Coordination Sequence:
#
# PCOD9168724 Si02
#       7
#     8   8   8   8   8   8   8
#     4   9  16  25  39  66 105 144 182 228 282 337
#     4   8  17  29  47  73 101 141 188 231 278 332
#     4  10  16  27  47  75 108 144 184 232 284 327
#     4  10  20  31  48  77 110 148 194 240 286 339
#     4  11  22  38  63  94 120 145 186 234 283 338
#     4   8  16  32  53  78 114 152 183 222 277 335
#     4  10  21  40  61  79 109 154 197 236 282 340
#
# _framework density 25.938345000000002
#
# number of rings (size 3 to 8) (size 9 to 14) (size 15 to 20)
#    0.000    2.571    0.000    4.286    0.000    3.143 
#    0.000    1.429    0.000    2.571    0.000    0.000 
#    0.000    0.000    0.000    0.000    0.000    0.000 
#
# Total GULP energy -155998.297620 kJ/mol
# GULP energy per Si atom -5571.367772 kJ/mol
# Density = 2.587931 g / cm^3
# Si number density = 25.938345 Si / 1000 Ang^3
#
#
#
# Elastic Constant Matrix: (Units=GPa)
#
#
# Indices 1 2 3 4 5 6 
#
# 1 226.9294 12.0598 37.0210 -0.0038 38.8712 0.0029
# 2 12.0598 39.8567 -5.1401 -0.0007 19.5790 0.0017
# 3 37.0210 -5.1401 84.3421 0.0014 27.2974 0.0043
# 4 -0.0038 -0.0007 0.0014 23.4381 -0.0015 -1.5905
# 5 38.8712 19.5790 27.2974 -0.0015 35.8936 -0.0014
# 6 0.0029 0.0017 0.0043 -1.5905 -0.0014 33.1815
#
#
#
# Elastic Compliance Matrix: (Units=1/GPa)
#
#
# Indices 1 2 3 4 5 6 
#
# 1 0.005496 0.001633 -0.000130 0.000000 -0.006744 -0.000001
# 2 0.001633 0.044217 0.013738 -0.000002 -0.036335 -0.000006
# 3 -0.000130 0.013738 0.020071 -0.000003 -0.022616 -0.000004
# 4 0.000000 -0.000002 -0.000003 0.042805 0.000004 0.002052
# 5 -0.006744 -0.036335 -0.022616 0.000004 0.072183 0.000009
# 6 -0.000001 -0.000006 -0.000004 0.002052 0.000009 0.030236
#
#
# Mechanical properties :
#
#
# Convention : Reuss Voigt Hill
#
# Bulk Modulus (GPa) = 9.97364 48.77884 29.37624
# Shear Modulus (GPa) = 22.94126 38.98181 30.96153
#
# Velocity S-wave (km/s) = 2.97720 3.88088 3.45868
# Velocity P-wave (km/s) = 3.95876 6.23925 5.22494
#
# Compressibility (1/GPa) = 0.10026433
#
# Stress axis : x y z
#
# Youngs Moduli (GPa) = 181.94037 22.61594 49.82377
#
# Poissons Ratio (x) = -0.03693 0.00650
# Poissons Ratio (y) = -0.29709 -0.68447
# Poissons Ratio (z) = 0.02372 -0.31069
#
# Static dielectric constant tensor:
#      x y z
#    x 2.189500 0.000000 -0.082280 
#    y 0.000000 2.075710 0.000010 
#    z -0.082280 0.000010 2.282440 
# 
# From -- ./inp_files/91565.got.cif
#   From: 2010.05.17/outbox.cif.g08.bks.cpg/sg12_46_cif.got.tgz:91565.got - 2010.06.03 13:09:07.
