data_PCOD9168524
_publ_section_title
;
Structure prediction by ZEFSAII (Michael W. Deem and Ramdas Pophale) SiO2 
 PCOD9168524
Probable space group: C 2/M
;
_chemical_formula_sum "Si O2"
_cell_formula_units_Z 56
_cell_length_a 30.508032
_cell_length_b 7.410417
_cell_length_c 14.071000
_cell_angle_alpha 90.000000
_cell_angle_beta 76.975479
_cell_angle_gamma 90.000000
_cell_volume 3099.294061
_symmetry_space_group_name_H-M "C 2/M"
_symmetry_group_IT_number 12
_symmetry_cell_setting 'monoclinic'
loop_
_space_group_symop_operation_xyz
x,y,z
-x,y,-z
-x,-y,-z
x,-y,z
1/2+x,1/2+y,z
1/2-x,1/2+y,-z
1/2-x,1/2-y,-z
1/2+x,1/2-y,z
loop_
_atom_site_type_symbol
_atom_site_label
_atom_site_fract_x
_atom_site_fract_y
_atom_site_fract_z
Si Si1 0.198255 0.281669 0.923913
Si Si2 0.359106 0.214443 0.872000
Si Si3 0.854779 0.281735 0.243918
Si Si4 0.450906 0.219763 0.911344
Si Si5 0.232890 0.284276 0.613710
Si Si6 0.715780 0.283707 0.225680
Si Si7 0.551273 0.780014 0.866040
O O1 0.200808 0.500000 0.930062
O O2 0.166899 0.242384 0.848471
O O3 0.247854 0.216346 0.870441
O O4 0.174319 0.212013 0.029909
O O5 0.409473 0.282188 0.866807
O O6 0.334201 0.241587 0.784524
O O7 0.361644 0.000000 0.885632
O O8 0.856850 0.500000 0.250957
O O9 0.817593 0.217170 0.337593
O O10 0.906112 0.217109 0.215918
O O11 0.501341 0.279352 0.860680
O O12 0.451808 0.000000 0.909033
O O13 0.442463 0.269604 0.025852
O O14 0.230991 0.500000 0.625594
O O15 0.250000 0.250000 0.500000
O O16 0.266648 0.218466 0.680415
O O17 0.719173 0.500000 0.225277
O O18 0.551459 0.000000 0.864210
#
# Coordination Sequence:
#
# PCOD9168524 Si02
#       7
#     8   8   8   8   8   8   8
#     4   8  13  22  35  53  80 109 135 160 184 221
#     4  10  16  23  37  59  84 109 135 162 188 217
#     4   8  12  21  38  58  80 107 133 159 197 242
#     4   8  13  18  30  56  86 110 133 163 192 218
#     4   9  18  31  46  62  79 100 130 169 209 244
#     4   9  18  29  39  54  78 108 136 159 192 240
#     4   8  11  18  32  54  84 111 133 159 193 232
#
# _framework density 18.068631
#
# number of rings (size 3 to 8) (size 9 to 14) (size 15 to 20)
#    0.000    3.429    1.429    3.000    0.000    0.571 
#    0.000    0.000    0.000    0.857    0.000    4.000 
#    0.000    8.000    0.000    0.000    0.000    0.000 
#
# Total GULP energy -155959.489710 kJ/mol
# GULP energy per Si atom -5569.981775 kJ/mol
# Density = 1.802751 g / cm^3
# Si number density = 18.068631 Si / 1000 Ang^3
#
#
#
# Elastic Constant Matrix: (Units=GPa)
#
#
# Indices 1 2 3 4 5 6 
#
# 1 195.7044 5.9381 77.6580 0.0000 -6.0736 0.0000
# 2 5.9381 57.3321 0.9474 0.0000 -0.5581 0.0000
# 3 77.6580 0.9474 87.1041 0.0000 -13.3234 0.0000
# 4 0.0000 0.0000 0.0000 -3.1779 0.0000 7.1613
# 5 -6.0736 -0.5581 -13.3234 0.0000 17.0999 0.0000
# 6 0.0000 0.0000 0.0000 7.1613 0.0000 4.7737
#
#
#
# Elastic Compliance Matrix: (Units=1/GPa)
#
#
# Indices 1 2 3 4 5 6 
#
# 1 0.008081 -0.000741 -0.007676 0.000000 -0.003135 0.000000
# 2 -0.000741 0.017517 0.000587 0.000000 0.000766 0.000000
# 3 -0.007676 0.000587 0.020326 0.000000 0.013130 0.000000
# 4 0.000000 0.000000 0.000000 -0.071834 0.000000 0.107763
# 5 -0.003135 0.000766 0.013130 0.000000 0.067621 0.000000
# 6 0.000000 0.000000 0.000000 0.107763 0.000000 0.047820
#
#
# Mechanical properties :
#
#
# Convention : Reuss Voigt Hill
#
# Bulk Modulus (GPa) = 33.04224 56.58083 44.81153
# Shear Modulus (GPa) = 43.37326 20.77896 32.07611
#
# Velocity S-wave (km/s) = 4.90478 3.39485 4.21793
# Velocity P-wave (km/s) = 7.09948 6.83733 6.96963
#
# Compressibility (1/GPa) = 0.03026430
#
# Stress axis : x y z
#
# Youngs Moduli (GPa) = 123.74954 57.08841 49.19819
#
# Poissons Ratio (x) = 0.04228 0.37764
# Poissons Ratio (y) = 0.09165 -0.02888
# Poissons Ratio (z) = 0.94989 -0.03351
#
# Static dielectric constant tensor:
#      x y z
#    x 1.671800 0.000000 -0.011740 
#    y 0.000000 1.707020 0.000000 
#    z -0.011740 0.000000 1.593650 
# 
# From -- ./inp_files/181607.got.cif
#   From: 2010.05.17/outbox.cif.g08.bks.cpg/sg12_91_cif.got.tgz:181607.got - 2010.06.03 13:09:07.
