data_PCOD9168116
_publ_section_title
;
Structure prediction by ZEFSAII (Michael W. Deem and Ramdas Pophale) SiO2 
 PCOD9168116
Probable space group: P 21/M
;
_chemical_formula_sum "Si O2"
_cell_formula_units_Z 28
_cell_length_a 9.000000
_cell_length_b 9.000000
_cell_length_c 27.000000
_cell_angle_alpha 90.000000
_cell_angle_beta 140.000000
_cell_angle_gamma 90.000000
_cell_volume 1405.776502
_symmetry_space_group_name_H-M "P 21/M"
_symmetry_group_IT_number 11
_symmetry_cell_setting 'monoclinic'
loop_
_space_group_symop_operation_xyz
x,y,z
-x,1/2+y,-z
-x,-y,-z
x,1/2-y,z
loop_
_atom_site_type_symbol
_atom_site_label
_atom_site_fract_x
_atom_site_fract_y
_atom_site_fract_z
Si Si1 0.339972 0.923748 0.918507
Si Si2 0.794974 0.569209 0.216045
Si Si3 0.901636 0.580294 0.426994
Si Si4 0.599823 0.416497 0.478873
Si Si5 0.306897 0.582019 0.330497
Si Si6 0.424117 0.430351 0.738551
Si Si7 0.890012 0.417850 0.828336
O O1 0.385513 0.750000 0.926097
O O2 0.340840 0.002356 0.865155
O O3 0.082689 0.960679 0.871699
O O4 0.500000 0.000000 0.000000
O O5 0.794741 0.750000 0.210905
O O6 0.698355 0.521108 0.243355
O O7 0.060917 0.519695 0.284509
O O8 0.836297 0.750000 0.424299
O O9 0.124616 0.586487 0.448366
O O10 0.000000 0.500000 0.500000
O O11 0.702158 0.509054 0.342622
O O12 0.500000 0.500000 0.500000
O O13 0.511847 0.250000 0.456534
O O14 0.513700 0.490743 0.406079
O O15 0.332225 0.750000 0.355808
O O16 0.262773 0.589644 0.260826
O O17 0.399955 0.250000 0.728865
O O18 0.693553 0.458563 0.816313
O O19 0.985114 0.250000 0.859881
#
# Coordination Sequence:
#
# PCOD9168116 Si02
#       7
#     4   4   4   4   4   4   4
#     4  11  22  38  60  85 112 140 172 212 256 311
#     4   9  18  35  58  82 108 142 179 218 265 317
#     4  10  21  36  52  74 104 143 186 228 272 317
#     4  11  22  33  48  71 101 136 180 229 275 319
#     4   9  17  31  51  73 103 140 179 220 264 315
#     4   9  17  33  57  79 105 141 181 221 266 320
#     4   9  18  34  57  82 105 136 174 212 258 315
#
# _framework density 19.917818
#
# number of rings (size 3 to 8) (size 9 to 14) (size 15 to 20)
#    0.000    2.286    0.000    4.286    0.000    6.857 
#    0.000    2.857    0.000    0.000    0.000    0.000 
#    0.000    0.000    0.000    0.000    0.000    0.000 
#
# Total GULP energy -155875.647747 kJ/mol
# GULP energy per Si atom -5566.987420 kJ/mol
# Density = 1.987248 g / cm^3
# Si number density = 19.917818 Si / 1000 Ang^3
#
#
#
# Elastic Constant Matrix: (Units=GPa)
#
#
# Indices 1 2 3 4 5 6 
#
# 1 73.6280 2.7783 21.9098 0.0000 2.7369 0.0000
# 2 2.7783 49.4975 29.2052 0.0000 0.2763 0.0000
# 3 21.9098 29.2052 89.5332 0.0000 -5.4971 0.0000
# 4 0.0000 0.0000 0.0000 25.9878 0.0000 -2.7966
# 5 2.7369 0.2763 -5.4971 0.0000 1.4942 0.0000
# 6 0.0000 0.0000 0.0000 -2.7966 0.0000 14.5942
#
#
#
# Elastic Compliance Matrix: (Units=1/GPa)
#
#
# Indices 1 2 3 4 5 6 
#
# 1 0.019959 0.006423 -0.012009 0.000000 -0.081930 0.000000
# 2 0.006423 0.029639 -0.015887 0.000000 -0.075696 0.000000
# 3 -0.012009 -0.015887 0.026897 0.000000 0.123891 0.000000
# 4 0.000000 0.000000 0.000000 0.039290 0.000000 0.007529
# 5 -0.081930 -0.075696 0.123891 0.000000 1.289146 0.000000
# 6 0.000000 0.000000 0.000000 0.007529 0.000000 0.069963
#
#
# Mechanical properties :
#
#
# Convention : Reuss Voigt Hill
#
# Bulk Modulus (GPa) = 29.80921 35.60504 32.70712
# Shear Modulus (GPa) = 3.27006 18.99959 11.13482
#
# Velocity S-wave (km/s) = 1.28271 3.09188 2.36696
# Velocity P-wave (km/s) = 4.14637 5.53724 4.89149
#
# Compressibility (1/GPa) = 0.03354668
#
# Stress axis : x y z
#
# Youngs Moduli (GPa) = 50.10378 33.73920 37.17906
#
# Poissons Ratio (x) = -0.21671 0.44650
# Poissons Ratio (y) = -0.32182 0.59068
# Poissons Ratio (z) = 0.60172 0.53603
#
# Static dielectric constant tensor:
#      x y z
#    x 1.824290 0.000000 0.017640 
#    y 0.000000 1.687460 0.000000 
#    z 0.017640 0.000000 1.682400 
# 
# From -- ./inp_files/70905.got.cif
#   From: 2010.05.17/outbox.ucp.g08.bks.cvg/sg11_36_cif.got.tgz:70905.got - 2010.06.11 11:38:39.
