data_PCOD9168247
_publ_section_title
;
Structure prediction by ZEFSAII (Michael W. Deem and Ramdas Pophale) SiO2 
 PCOD9168247
Probable space group: P 21/M
;
_chemical_formula_sum "Si O2"
_cell_formula_units_Z 32
_cell_length_a 15.000000
_cell_length_b 24.000000
_cell_length_c 9.000000
_cell_angle_alpha 90.000000
_cell_angle_beta 150.000000
_cell_angle_gamma 90.000000
_cell_volume 1620.000000
_symmetry_space_group_name_H-M "P 21/M"
_symmetry_group_IT_number 11
_symmetry_cell_setting 'monoclinic'
loop_
_space_group_symop_operation_xyz
x,y,z
-x,1/2+y,-z
-x,-y,-z
x,1/2-y,z
loop_
_atom_site_type_symbol
_atom_site_label
_atom_site_fract_x
_atom_site_fract_y
_atom_site_fract_z
Si Si1 0.324414 0.603015 0.638400
Si Si2 0.272377 0.406036 0.307832
Si Si3 0.977539 0.184920 0.413969
Si Si4 0.832992 0.515642 0.594034
Si Si5 0.198189 0.014485 0.953171
Si Si6 0.005074 0.684973 0.200696
Si Si7 0.728510 0.596685 0.196480
Si Si8 0.336692 0.600821 0.014564
O O1 0.258342 0.542141 0.489779
O O2 0.182393 0.652035 0.401572
O O3 0.524665 0.613553 0.869070
O O4 0.324739 0.598433 0.818745
O O5 0.151090 0.441821 0.246763
O O6 0.459112 0.388070 0.647623
O O7 0.313544 0.451087 0.238488
O O8 0.160025 0.353374 0.089096
O O9 0.970298 0.250000 0.356438
O O10 0.995566 0.184886 0.619999
O O11 0.145188 0.149782 0.591387
O O12 0.799556 0.148622 0.126024
O O13 0.715422 0.551844 0.310104
O O14 0.014217 0.501155 0.769162
O O15 0.173581 0.060900 0.790158
O O16 0.279944 0.958880 0.000946
O O17 0.998837 0.750000 0.144472
#
# Coordination Sequence:
#
# PCOD9168247 Si02
#       8
#     4   4   4   4   4   4   4   4
#     4  11  22  39  65  94 124 163 209 253 305 367
#     4  12  24  40  61  97 130 162 197 255 318 369
#     4  10  22  42  66  89 115 163 219 258 297 362
#     4  12  22  39  63  95 132 161 199 255 312 373
#     4  12  22  38  63  93 130 166 198 247 316 377
#     4  10  23  44  65  86 121 167 211 253 308 368
#     4  12  21  39  66  92 126 162 206 255 303 369
#     4  11  22  39  63  93 126 162 206 254 309 365
#
# _framework density 19.753086
#
# number of rings (size 3 to 8) (size 9 to 14) (size 15 to 20)
#    0.000    0.750    6.250    3.000    0.000    1.000 
#    0.000    0.625    0.000    0.000    0.000    0.000 
#    0.000    0.000    0.000    0.000    0.000    0.000 
#
# Total GULP energy -178802.594129 kJ/mol
# GULP energy per Si atom -5587.581067 kJ/mol
# Density = 1.970813 g / cm^3
# Si number density = 19.753086 Si / 1000 Ang^3
#
#
#
# Elastic Constant Matrix: (Units=GPa)
#
#
# Indices 1 2 3 4 5 6 
#
# 1 44.2778 28.8315 14.4867 0.0000 15.4292 0.0000
# 2 28.8315 178.1911 59.5266 0.0000 18.5910 0.0000
# 3 14.4867 59.5266 103.4570 0.0000 25.0400 0.0000
# 4 0.0000 0.0000 0.0000 23.9332 0.0000 -1.6280
# 5 15.4292 18.5910 25.0400 0.0000 38.4421 0.0000
# 6 0.0000 0.0000 0.0000 -1.6280 0.0000 19.4124
#
#
#
# Elastic Compliance Matrix: (Units=1/GPa)
#
#
# Indices 1 2 3 4 5 6 
#
# 1 0.028286 -0.003739 0.000594 0.000000 -0.009932 0.000000
# 2 -0.003739 0.007468 -0.003873 0.000000 0.000412 0.000000
# 3 0.000594 -0.003873 0.013552 0.000000 -0.007193 0.000000
# 4 0.000000 0.000000 0.000000 0.042023 0.000000 0.003524
# 5 -0.009932 0.000412 -0.007193 0.000000 0.034485 0.000000
# 6 0.000000 0.000000 0.000000 0.003524 0.000000 0.051809
#
#
# Mechanical properties :
#
#
# Convention : Reuss Voigt Hill
#
# Bulk Modulus (GPa) = 28.35241 59.06838 43.71039
# Shear Modulus (GPa) = 24.58036 31.22960 27.90498
#
# Velocity S-wave (km/s) = 3.53141 3.98049 3.76265
# Velocity P-wave (km/s) = 5.56887 7.14801 6.40728
#
# Compressibility (1/GPa) = 0.03527037
#
# Stress axis : x y z
#
# Youngs Moduli (GPa) = 35.35349 133.90947 73.79045
#
# Poissons Ratio (x) = 0.50069 -0.04386
# Poissons Ratio (y) = 0.13219 0.28578
# Poissons Ratio (z) = -0.02101 0.51862
#
# Static dielectric constant tensor:
#      x y z
#    x 1.726270 0.000000 -0.050330 
#    y 0.000000 1.658540 0.000000 
#    z -0.050330 0.000000 1.750020 
# 
# From -- ./inp_files/23382.got.cif
#   From: 2010.05.17/outbox.ucp.g08.bks.cvg/sg11_12_cif.got.tgz:23382.got - 2010.06.11 11:38:39.
