data_PCOD9168998
_publ_section_title
;
Structure prediction by ZEFSAII (Michael W. Deem and Ramdas Pophale) SiO2 
 PCOD9168998
Probable space group: C 2/M
;
_chemical_formula_sum "Si O2"
_cell_formula_units_Z 44
_cell_length_a 17.022442
_cell_length_b 29.629236
_cell_length_c 4.993945
_cell_angle_alpha 90.000000
_cell_angle_beta 77.644711
_cell_angle_gamma 90.000000
_cell_volume 2460.420328
_symmetry_space_group_name_H-M "C 2/M"
_symmetry_group_IT_number 12
_symmetry_cell_setting 'monoclinic'
loop_
_space_group_symop_operation_xyz
x,y,z
-x,y,-z
-x,-y,-z
x,-y,z
1/2+x,1/2+y,z
1/2-x,1/2+y,-z
1/2-x,1/2-y,-z
1/2+x,1/2-y,z
loop_
_atom_site_type_symbol
_atom_site_label
_atom_site_fract_x
_atom_site_fract_y
_atom_site_fract_z
Si Si1 0.500000 0.326567 0.000000
Si Si2 0.293878 0.402674 0.922616
Si Si3 0.703250 0.500000 0.177158
Si Si4 0.255107 0.190761 0.196427
Si Si5 0.094334 0.000000 0.758175
Si Si6 0.339872 0.275945 0.233067
Si Si7 0.090371 0.901954 0.654394
O O1 0.422686 0.294222 0.051393
O O2 0.472235 0.362343 0.245528
O O3 0.256235 0.452435 0.922475
O O4 0.237585 0.362502 0.857495
O O5 0.368616 0.401334 0.662581
O O6 0.336380 0.396320 0.180739
O O7 0.672719 0.500000 0.504698
O O8 0.624971 0.500000 0.039857
O O9 0.328841 0.221775 0.242140
O O10 0.184221 0.202961 0.462098
O O11 0.227792 0.207196 0.923827
O O12 0.054688 0.952040 0.725653
#
# Coordination Sequence:
#
# PCOD9168998 Si02
#       7
#     4   8   4   8   4   8   8
#     4  12  20  33  44  72  84 117 152 190 216 256
#     4  10  16  32  44  64  83 116 144 180 216 256
#     4   8  16  24  46  61  82 105 148 180 206 248
#     4  10  18  36  46  64  84 119 144 181 224 263
#     4   8  16  31  36  60  84 116 144 175 210 243
#     4  10  22  30  49  64  87 111 153 183 217 262
#     4  10  20  27  46  60  88 115 148 180 212 250
#
# _framework density 17.883122
#
# number of rings (size 3 to 8) (size 9 to 14) (size 15 to 20)
#    0.000    2.182    3.636    0.000    0.000    3.273 
#    0.000    0.000    0.000    6.545    0.000    0.000 
#    0.000    0.727    0.000    0.000    0.000   61.091 
#
# Total GULP energy -122528.068843 kJ/mol
# GULP energy per Si atom -5569.457675 kJ/mol
# Density = 1.784242 g / cm^3
# Si number density = 17.883122 Si / 1000 Ang^3
#
#
#
# Elastic Constant Matrix: (Units=GPa)
#
#
# Indices 1 2 3 4 5 6 
#
# 1 26.2562 41.3055 -0.0871 0.0000 -1.9192 0.0000
# 2 41.3055 171.6739 -4.4593 0.0000 -2.6955 0.0000
# 3 -0.0871 -4.4593 58.0484 0.0000 17.5741 0.0000
# 4 0.0000 0.0000 0.0000 16.0502 0.0000 -14.8608
# 5 -1.9192 -2.6955 17.5741 0.0000 19.1499 0.0000
# 6 0.0000 0.0000 0.0000 -14.8608 0.0000 3.3179
#
#
#
# Elastic Compliance Matrix: (Units=1/GPa)
#
#
# Indices 1 2 3 4 5 6 
#
# 1 0.062023 -0.014895 -0.003183 0.000000 0.007040 0.000000
# 2 -0.014895 0.009418 0.001041 0.000000 -0.001122 0.000000
# 3 -0.003183 0.001041 0.024031 0.000000 -0.022226 0.000000
# 4 0.000000 0.000000 0.000000 -0.019798 0.000000 -0.088673
# 5 0.007040 -0.001122 -0.022226 0.000000 0.073164 0.000000
# 6 0.000000 0.000000 0.000000 -0.088673 0.000000 -0.095771
#
#
# Mechanical properties :
#
#
# Convention : Reuss Voigt Hill
#
# Bulk Modulus (GPa) = 16.28693 36.61074 26.44884
# Shear Modulus (GPa) = 46.46510 22.31824 34.39167
#
# Velocity S-wave (km/s) = 5.10285 3.53654 4.39011
# Velocity P-wave (km/s) = 6.62163 6.09860 6.36549
#
# Compressibility (1/GPa) = 0.06139892
#
# Stress axis : x y z
#
# Youngs Moduli (GPa) = 16.12309 106.17686 41.61268
#
# Poissons Ratio (x) = 1.58152 0.13243
# Poissons Ratio (y) = 0.24016 -0.04332
# Poissons Ratio (z) = 0.05131 -0.11053
#
# Static dielectric constant tensor:
#      x y z
#    x 1.609360 0.000000 0.015910 
#    y 0.000000 1.757610 0.000000 
#    z 0.015910 0.000000 1.647850 
# 
# From -- ./inp_files/22072.got.cif
#   From: 2010.05.17/outbox.cif.g08.bks.cpg/sg12_12_cif.got.tgz:22072.got - 2010.06.03 13:09:07.
