data_PCOD9168777
_publ_section_title
;
Structure prediction by ZEFSAII (Michael W. Deem and Ramdas Pophale) SiO2 
 PCOD9168777
Probable space group: C 2/M
;
_chemical_formula_sum "Si O2"
_cell_formula_units_Z 40
_cell_length_a 15.441549
_cell_length_b 15.380390
_cell_length_c 8.431109
_cell_angle_alpha 90.000000
_cell_angle_beta 48.107070
_cell_angle_gamma 90.000000
_cell_volume 1490.547256
_symmetry_space_group_name_H-M "C 2/M"
_symmetry_group_IT_number 12
_symmetry_cell_setting 'monoclinic'
loop_
_space_group_symop_operation_xyz
x,y,z
-x,y,-z
-x,-y,-z
x,-y,z
1/2+x,1/2+y,z
1/2-x,1/2+y,-z
1/2-x,1/2-y,-z
1/2+x,1/2-y,z
loop_
_atom_site_type_symbol
_atom_site_label
_atom_site_fract_x
_atom_site_fract_y
_atom_site_fract_z
Si Si1 0.641066 0.894328 0.420090
Si Si2 0.556551 0.600720 0.272332
Si Si3 0.126909 0.898884 0.726433
Si Si4 0.810677 0.659721 0.963122
Si Si5 0.345479 0.101577 0.254281
O O1 0.777836 0.863394 0.266937
O O2 0.791651 0.895628 0.531851
O O3 0.635606 0.000000 0.428625
O O4 0.607823 0.865210 0.285190
O O5 0.500000 0.642065 0.500000
O O6 0.519030 0.500000 0.315193
O O7 0.495527 0.637267 0.186019
O O8 0.695204 0.599653 0.109167
O O9 0.099678 0.632975 0.646272
O O10 0.114695 0.000000 0.789979
O O11 0.865785 0.652389 0.069082
O O12 0.750000 0.750000 0.000000
O O13 0.374321 0.000000 0.194359
#
# Coordination Sequence:
#
# PCOD9168777 Si02
#       5
#     8   8   8   8   8
#     4   8  16  31  48  66  87 118 160 198 224 262
#     4  10  16  28  50  69  88 121 161 194 222 262
#     4   7  13  26  46  68  81 104 152 197 223 244
#     4  12  22  27  39  67 103 134 148 173 232 292
#     4   8  15  31  47  63  86 116 155 193 223 259
#
# _framework density 26.835781999999998
#
# number of rings (size 3 to 8) (size 9 to 14) (size 15 to 20)
#    1.200    1.800    2.000    1.800    0.000    1.600 
#    0.000    3.000    0.000    0.000    0.000    0.000 
#    0.000    7.200    0.000   37.400    0.000    0.000 
#
# Total GULP energy -111475.409563 kJ/mol
# GULP energy per Si atom -5573.770478 kJ/mol
# Density = 2.677470 g / cm^3
# Si number density = 26.835782 Si / 1000 Ang^3
#
#
#
# Elastic Constant Matrix: (Units=GPa)
#
#
# Indices 1 2 3 4 5 6 
#
# 1 153.1582 3.3170 53.1996 0.0000 48.3776 0.0000
# 2 3.3170 49.8461 34.1115 0.0000 27.2559 0.0000
# 3 53.1996 34.1115 171.7558 0.0000 41.5336 0.0000
# 4 0.0000 0.0000 0.0000 28.9891 0.0000 32.9277
# 5 48.3776 27.2559 41.5336 0.0000 80.6973 0.0000
# 6 0.0000 0.0000 0.0000 32.9277 0.0000 -4.8216
#
#
#
# Elastic Compliance Matrix: (Units=1/GPa)
#
#
# Indices 1 2 3 4 5 6 
#
# 1 0.008977 0.003974 -0.002220 0.000000 -0.005581 0.000000
# 2 0.003974 0.028104 -0.004501 0.000000 -0.009558 0.000000
# 3 -0.002220 -0.004501 0.007669 0.000000 -0.001096 0.000000
# 4 0.000000 0.000000 0.000000 0.003939 0.000000 0.026902
# 5 -0.005581 -0.009558 -0.001096 0.000000 0.019530 0.000000
# 6 0.000000 0.000000 0.000000 0.026902 0.000000 -0.023684
#
#
# Mechanical properties :
#
#
# Convention : Reuss Voigt Hill
#
# Bulk Modulus (GPa) = 25.47451 61.77959 43.62705
# Shear Modulus (GPa) = 79.21987 39.91509 59.56748
#
# Velocity S-wave (km/s) = 5.43915 3.86084 4.71648
# Velocity P-wave (km/s) = 6.99708 6.55333 6.77884
#
# Compressibility (1/GPa) = 0.03925492
#
# Stress axis : x y z
#
# Youngs Moduli (GPa) = 111.39242 35.58231 130.39816
#
# Poissons Ratio (x) = -0.14140 0.28951
# Poissons Ratio (y) = -0.44266 0.58694
# Poissons Ratio (z) = 0.24731 0.16016
#
# Static dielectric constant tensor:
#      x y z
#    x 2.208950 0.000000 -0.029090 
#    y 0.000000 1.788140 0.000000 
#    z -0.029090 0.000000 2.235100 
# 
# From -- ./inp_files/85515.got.cif
#   From: 2010.05.17/outbox.cif.g08.bks.cpg/sg12_43_cif.got.tgz:85515.got - 2010.06.03 13:09:07.
