data_PCOD9168029
_publ_section_title
;
Structure prediction by ZEFSAII (Michael W. Deem and Ramdas Pophale) SiO2 
 PCOD9168029
Probable space group: P 21/M
;
_chemical_formula_sum "Si O2"
_cell_formula_units_Z 32
_cell_length_a 27.000000
_cell_length_b 9.000000
_cell_length_c 21.000000
_cell_angle_alpha 90.000000
_cell_angle_beta 20.000000
_cell_angle_gamma 90.000000
_cell_volume 1745.328791
_symmetry_space_group_name_H-M "P 21/M"
_symmetry_group_IT_number 11
_symmetry_cell_setting 'monoclinic'
loop_
_space_group_symop_operation_xyz
x,y,z
-x,1/2+y,-z
-x,-y,-z
x,1/2-y,z
loop_
_atom_site_type_symbol
_atom_site_label
_atom_site_fract_x
_atom_site_fract_y
_atom_site_fract_z
Si Si1 0.287417 0.079265 0.236080
Si Si2 0.219019 0.926100 0.075121
Si Si3 0.438946 0.926651 0.166941
Si Si4 0.083779 0.927563 0.098138
Si Si5 0.403022 0.929360 0.672191
Si Si6 0.764315 0.427477 0.463528
Si Si7 0.998980 0.576785 0.568646
Si Si8 0.466038 0.428685 0.347302
O O1 0.237575 0.250000 0.296194
O O2 0.383854 0.043439 0.181113
O O3 0.386191 0.056352 0.053276
O O4 0.154466 0.969844 0.407358
O O5 0.213138 0.750000 0.094787
O O6 0.138463 0.950124 0.104710
O O7 0.130021 0.014467 0.233876
O O8 0.387712 0.969007 0.868136
O O9 0.414914 0.750000 0.179857
O O10 0.345480 0.955156 0.343672
O O11 0.064924 0.750000 0.111189
O O12 0.231497 0.974827 0.881326
O O13 0.927004 0.004049 0.275417
O O14 0.401801 0.750000 0.668726
O O15 0.484643 0.965472 0.640185
O O16 0.500000 0.000000 0.500000
O O17 0.779428 0.250000 0.439276
O O18 0.675386 0.493828 0.510855
O O19 0.985858 0.750000 0.578277
O O20 0.000000 0.500000 0.500000
O O21 0.447481 0.250000 0.366041
#
# Coordination Sequence:
#
# PCOD9168029 Si02
#       8
#     4   4   4   4   4   4   4   4
#     4  10  20  36  54  74 101 137 184 231 283 342
#     4   9  19  38  60  81 105 142 190 236 283 342
#     4   9  20  36  53  75 106 140 178 230 282 332
#     4   9  19  37  60  85 115 150 186 225 275 334
#     4   9  19  38  64  91 118 149 186 226 270 330
#     4  11  22  34  53  84 117 147 189 237 279 324
#     4  12  25  37  51  73 104 140 183 235 288 336
#     4   9  20  38  59  85 117 150 186 227 280 341
#
# _framework density 18.334654
#
# number of rings (size 3 to 8) (size 9 to 14) (size 15 to 20)
#    0.000    2.250    0.000    4.125    1.750    5.500 
#    0.000    3.125    0.000    0.000    0.000    0.000 
#    0.000    0.000    0.000    0.000    0.000    0.000 
#
# Total GULP energy -178305.398082 kJ/mol
# GULP energy per Si atom -5572.043690 kJ/mol
# Density = 1.829292 g / cm^3
# Si number density = 18.334654 Si / 1000 Ang^3
#
#
#
# Elastic Constant Matrix: (Units=GPa)
#
#
# Indices 1 2 3 4 5 6 
#
# 1 52.2184 44.1654 52.0900 0.0000 -4.9668 0.0000
# 2 44.1654 51.4463 70.0570 0.0000 2.6622 0.0000
# 3 52.0900 70.0570 123.8580 0.0000 4.6374 0.0000
# 4 0.0000 0.0000 0.0000 33.9215 0.0000 1.9542
# 5 -4.9668 2.6622 4.6374 0.0000 37.0632 0.0000
# 6 0.0000 0.0000 0.0000 1.9542 0.0000 21.7774
#
#
#
# Elastic Compliance Matrix: (Units=1/GPa)
#
#
# Indices 1 2 3 4 5 6 
#
# 1 0.093373 -0.116194 0.025793 0.000000 0.017631 0.000000
# 2 -0.116194 0.229193 -0.079945 0.000000 -0.022031 0.000000
# 3 0.025793 -0.079945 0.042299 0.000000 0.003906 0.000000
# 4 0.000000 0.000000 0.000000 0.029633 0.000000 -0.002659
# 5 0.017631 -0.022031 0.003906 0.000000 0.030437 0.000000
# 6 0.000000 0.000000 0.000000 -0.002659 0.000000 0.046158
#
#
# Mechanical properties :
#
#
# Convention : Reuss Voigt Hill
#
# Bulk Modulus (GPa) = 41.37055 62.23860 51.80457
# Shear Modulus (GPa) = 6.09874 22.63312 14.36593
#
# Velocity S-wave (km/s) = 1.82581 3.51728 2.80221
# Velocity P-wave (km/s) = 5.20172 7.10736 6.22786
#
# Compressibility (1/GPa) = 0.02417178
#
# Stress axis : x y z
#
# Youngs Moduli (GPa) = 10.70976 4.36314 23.64136
#
# Poissons Ratio (x) = 0.50697 -0.60978
# Poissons Ratio (y) = 1.24441 1.89001
# Poissons Ratio (z) = -0.27623 0.34881
#
# Static dielectric constant tensor:
#      x y z
#    x 1.367210 0.000000 0.245960 
#    y 0.000000 1.609090 0.000000 
#    z 0.245960 0.000000 1.425660 
# 
# From -- ./inp_files/67000.got.cif
#   From: 2010.05.17/outbox.ucp.g08.bks.cvg/sg11_34_cif.got.tgz:67000.got - 2010.06.11 11:38:39.
