data_PCOD9168394
_publ_section_title
;
Structure prediction by ZEFSAII (Michael W. Deem and Ramdas Pophale) SiO2 
 PCOD9168394
Probable space group: C 2/M
;
_chemical_formula_sum "Si O2"
_cell_formula_units_Z 64
_cell_length_a 26.951079
_cell_length_b 18.351579
_cell_length_c 24.834474
_cell_angle_alpha 90.000000
_cell_angle_beta 162.166735
_cell_angle_gamma 90.000000
_cell_volume 3761.645670
_symmetry_space_group_name_H-M "C 2/M"
_symmetry_group_IT_number 12
_symmetry_cell_setting 'monoclinic'
loop_
_space_group_symop_operation_xyz
x,y,z
-x,y,-z
-x,-y,-z
x,-y,z
1/2+x,1/2+y,z
1/2-x,1/2+y,-z
1/2-x,1/2-y,-z
1/2+x,1/2-y,z
loop_
_atom_site_type_symbol
_atom_site_label
_atom_site_fract_x
_atom_site_fract_y
_atom_site_fract_z
Si Si1 0.088978 0.223680 0.305316
Si Si2 0.952841 0.081736 0.695810
Si Si3 0.418510 0.230840 0.235873
Si Si4 0.815552 0.085643 0.242518
Si Si5 0.171158 0.585199 0.205884
Si Si6 0.344283 0.083442 0.106132
Si Si7 0.388903 0.172487 0.046559
Si Si8 0.380556 0.654304 0.506955
O O1 0.250000 0.250000 0.500000
O O2 0.096824 0.137395 0.308462
O O3 0.953570 0.239087 0.211776
O O4 0.040996 0.273327 0.205865
O O5 0.885552 0.112814 0.569695
O O6 0.896043 0.000000 0.645247
O O7 0.148943 0.081995 0.897127
O O8 0.391989 0.144699 0.199871
O O9 0.567319 0.262573 0.425162
O O10 0.262857 0.273328 0.097761
O O11 0.801124 0.092994 0.291615
O O12 0.972355 0.119347 0.376016
O O13 0.808920 0.000000 0.222694
O O14 0.662365 0.126604 0.057769
O O15 0.171121 0.500000 0.223195
O O16 0.224497 0.635599 0.310305
O O17 0.000000 0.599432 0.000000
O O18 0.409482 0.115219 0.116878
O O19 0.396034 0.000000 0.169916
#
# Coordination Sequence:
#
# PCOD9168394 Si02
#       8
#     8   8   8   8   8   8   8   8
#     4  10  18  28  40  59  88 120 145 177 217 255
#     4  10  17  27  46  67  86 114 153 181 214 262
#     4   9  17  30  44  63  87 112 149 182 215 260
#     4  10  18  28  45  65  82 109 149 185 217 252
#     4  10  21  33  42  59  90 119 145 182 221 256
#     4  10  15  25  46  68  89 113 143 180 220 254
#     4  10  16  29  43  62  87 113 151 183 212 254
#     4  10  18  29  49  63  85 114 149 187 219 257
#
# _framework density 17.013831
#
# number of rings (size 3 to 8) (size 9 to 14) (size 15 to 20)
#    0.000    2.125    5.000    2.625    0.000    3.000 
#    0.000    4.375    0.000    0.000    0.000    0.000 
#    0.000    9.500    0.000    0.000    0.000    4.500 
#
# Total GULP energy -178317.666594 kJ/mol
# GULP energy per Si atom -5572.427081 kJ/mol
# Density = 1.697511 g / cm^3
# Si number density = 17.013831 Si / 1000 Ang^3
#
#
#
# Elastic Constant Matrix: (Units=GPa)
#
#
# Indices 1 2 3 4 5 6 
#
# 1 37.8175 27.2405 12.4978 -0.0036 -11.1082 -0.0023
# 2 27.2405 143.3845 35.4193 -0.0023 -20.2709 -0.0001
# 3 12.4978 35.4193 78.1957 -0.0044 -21.8977 -0.0016
# 4 -0.0036 -0.0023 -0.0044 23.3336 -0.0025 -7.1477
# 5 -11.1082 -20.2709 -21.8977 -0.0025 22.8726 -0.0011
# 6 -0.0023 -0.0001 -0.0016 -7.1477 -0.0011 16.9508
#
#
#
# Elastic Compliance Matrix: (Units=1/GPa)
#
#
# Indices 1 2 3 4 5 6 
#
# 1 0.033325 -0.004650 0.000216 0.000009 0.012270 0.000009
# 2 -0.004650 0.008917 -0.002344 0.000000 0.003401 -0.000001
# 3 0.000216 -0.002344 0.018122 0.000007 0.015377 0.000005
# 4 0.000009 0.000000 0.000007 0.049214 0.000017 0.020752
# 5 0.012270 0.003401 0.015377 0.000017 0.067416 0.000014
# 6 0.000009 -0.000001 0.000005 0.020752 0.000014 0.067745
#
#
# Mechanical properties :
#
#
# Convention : Reuss Voigt Hill
#
# Bulk Modulus (GPa) = 21.36324 45.52364 33.44344
# Shear Modulus (GPa) = 18.25510 24.91406 21.58458
#
# Velocity S-wave (km/s) = 3.27916 3.83082 3.56567
# Velocity P-wave (km/s) = 5.18853 6.81042 6.05403
#
# Compressibility (1/GPa) = 0.04680938
#
# Stress axis : x y z
#
# Youngs Moduli (GPa) = 30.00757 112.14048 55.18274
#
# Poissons Ratio (x) = 0.52143 -0.01192
# Poissons Ratio (y) = 0.13953 0.12932
# Poissons Ratio (z) = -0.00648 0.26281
#
# Static dielectric constant tensor:
#      x y z
#    x 1.591960 0.000000 0.045710 
#    y 0.000000 1.609150 0.000000 
#    z 0.045710 0.000000 1.662120 
# 
# From -- ./inp_files/97699.got.cif
#   From: 2010.05.17/outbox.cif.g08.bks.cpg/sg12_49_cif.got.tgz:97699.got - 2010.06.03 13:09:07.
