data_PCOD9168530
_publ_section_title
;
Structure prediction by ZEFSAII (Michael W. Deem and Ramdas Pophale) SiO2 
 PCOD9168530
Probable space group: C 2/M
;
_chemical_formula_sum "Si O2"
_cell_formula_units_Z 64
_cell_length_a 5.544306
_cell_length_b 18.951486
_cell_length_c 29.990889
_cell_angle_alpha 90.000000
_cell_angle_beta 90.357321
_cell_angle_gamma 90.000000
_cell_volume 3151.166527
_symmetry_space_group_name_H-M "C 2/M"
_symmetry_group_IT_number 12
_symmetry_cell_setting 'monoclinic'
loop_
_space_group_symop_operation_xyz
x,y,z
-x,y,-z
-x,-y,-z
x,-y,z
1/2+x,1/2+y,z
1/2-x,1/2+y,-z
1/2-x,1/2-y,-z
1/2+x,1/2-y,z
loop_
_atom_site_type_symbol
_atom_site_label
_atom_site_fract_x
_atom_site_fract_y
_atom_site_fract_z
Si Si1 0.941913 0.884098 0.220595
Si Si2 0.555984 0.102437 0.810204
Si Si3 0.566119 0.415377 0.051576
Si Si4 0.497357 0.829841 0.446711
Si Si5 0.091008 0.754936 0.847859
Si Si6 0.566805 0.918837 0.087399
Si Si7 0.503576 0.705564 0.691266
Si Si8 0.003858 0.167672 0.589395
O O1 0.676967 0.918120 0.218754
O O2 0.913731 0.824359 0.182092
O O3 0.986418 0.848423 0.267988
O O4 0.185951 0.923263 0.206664
O O5 0.582952 0.188226 0.813623
O O6 0.500205 0.080776 0.860740
O O7 0.586062 0.500000 0.060777
O O8 0.831674 0.386324 0.063334
O O9 0.334677 0.388748 0.079328
O O10 0.500000 0.405963 0.000000
O O11 0.500000 0.826436 0.500000
O O12 0.746129 0.863084 0.429139
O O13 0.496414 0.749557 0.427563
O O14 0.246963 0.863081 0.429358
O O15 0.341718 0.749595 0.873620
O O16 0.586432 0.000000 0.071014
O O17 0.251015 0.748561 0.694309
O O18 0.504686 0.669863 0.642677
#
# Coordination Sequence:
#
# PCOD9168530 Si02
#       8
#     8   8   8   8   8   8   8   8
#     4  10  19  28  42  57  77 109 131 174 212 245
#     4  10  18  30  41  60  85 105 140 162 195 242
#     4   9  17  30  47  68  92 114 134 156 193 239
#     4  10  16  25  33  43  63  89 121 163 211 245
#     4   8  14  25  37  54  74  97 129 159 196 232
#     4  10  19  30  47  68  91 117 135 161 194 227
#     4  12  18  27  38  52  76  95 129 167 218 259
#     4  10  16  24  31  49  60  86 119 159 203 259
#
# _framework density 20.309937999999999
#
# number of rings (size 3 to 8) (size 9 to 14) (size 15 to 20)
#    0.000    2.125    2.500    6.000    0.000    1.500 
#    0.000    0.000    0.000    0.000    0.000    0.000 
#    0.000   90.000    0.000    0.000    0.000    0.000 
#
# Total GULP energy -178339.035738 kJ/mol
# GULP energy per Si atom -5573.094867 kJ/mol
# Density = 2.026371 g / cm^3
# Si number density = 20.309938 Si / 1000 Ang^3
#
#
#
# Elastic Constant Matrix: (Units=GPa)
#
#
# Indices 1 2 3 4 5 6 
#
# 1 210.3165 4.8241 21.9786 0.0000 6.1887 0.0000
# 2 4.8241 35.5608 -5.5226 0.0000 -3.0155 0.0000
# 3 21.9786 -5.5226 59.4269 0.0000 1.0810 0.0000
# 4 0.0000 0.0000 0.0000 9.9183 0.0000 -1.5533
# 5 6.1887 -3.0155 1.0810 0.0000 36.7054 0.0000
# 6 0.0000 0.0000 0.0000 -1.5533 0.0000 -14.2385
#
#
#
# Elastic Compliance Matrix: (Units=1/GPa)
#
#
# Indices 1 2 3 4 5 6 
#
# 1 0.005007 -0.001054 -0.001934 0.000000 -0.000874 0.000000
# 2 -0.001054 0.028944 0.003035 0.000000 0.002466 0.000000
# 3 -0.001934 0.003035 0.017824 0.000000 0.000050 0.000000
# 4 0.000000 0.000000 0.000000 0.099131 0.000000 -0.010814
# 5 -0.000874 0.002466 0.000050 0.000000 0.027592 0.000000
# 6 0.000000 0.000000 0.000000 -0.010814 0.000000 -0.069052
#
#
# Mechanical properties :
#
#
# Convention : Reuss Voigt Hill
#
# Bulk Modulus (GPa) = 19.27928 38.65160 28.96544
# Shear Modulus (GPa) = 39.48186 25.41196 32.44691
#
# Velocity S-wave (km/s) = 4.41383 3.54108 4.00132
# Velocity P-wave (km/s) = 5.95726 5.98257 5.96993
#
# Compressibility (1/GPa) = 0.05186916
#
# Stress axis : x y z
#
# Youngs Moduli (GPa) = 199.73264 34.54923 56.10520
#
# Poissons Ratio (x) = 0.03640 0.10849
# Poissons Ratio (y) = 0.21044 -0.17026
# Poissons Ratio (z) = 0.38622 -0.10484
#
# Static dielectric constant tensor:
#      x y z
#    x 1.862050 0.000000 -0.001850 
#    y 0.000000 1.746130 0.000000 
#    z -0.001850 0.000000 1.664680 
# 
# From -- ./inp_files/331540.got.cif
#   From: 2010.05.17/outbox.cif.g08.bks.cpg/sg12_166_cif.got.tgz:331540.got - 2010.06.03 13:09:07.
