data_PCOD9168972
_publ_section_title
;
Structure prediction by ZEFSAII (Michael W. Deem and Ramdas Pophale) SiO2 
 PCOD9168972
Probable space group: C 2/M
;
_chemical_formula_sum "Si O2"
_cell_formula_units_Z 26
_cell_length_a 27.963732
_cell_length_b 5.308245
_cell_length_c 15.991077
_cell_angle_alpha 90.000000
_cell_angle_beta 152.501716
_cell_angle_gamma 90.000000
_cell_volume 1095.984514
_symmetry_space_group_name_H-M "C 2/M"
_symmetry_group_IT_number 12
_symmetry_cell_setting 'monoclinic'
loop_
_space_group_symop_operation_xyz
x,y,z
-x,y,-z
-x,-y,-z
x,-y,z
1/2+x,1/2+y,z
1/2-x,1/2+y,-z
1/2-x,1/2-y,-z
1/2+x,1/2-y,z
loop_
_atom_site_type_symbol
_atom_site_label
_atom_site_fract_x
_atom_site_fract_y
_atom_site_fract_z
Si Si1 0.768759 0.500000 0.976006
Si Si2 0.876982 0.000000 0.777414
Si Si3 0.899887 0.000000 0.429665
Si Si4 0.462877 0.000000 0.168304
Si Si5 0.400194 0.500000 0.619511
Si Si6 0.883461 0.500000 0.860829
Si Si7 0.000000 0.500000 0.500000
O O1 0.692595 0.500000 0.780159
O O2 0.884439 0.500000 0.122789
O O3 0.750000 0.250000 0.000000
O O4 0.830632 0.249741 0.745333
O O5 0.858024 0.000000 0.649350
O O6 0.000000 0.000000 0.000000
O O7 0.856922 0.000000 0.457691
O O8 0.959920 0.265245 0.502044
O O9 0.398902 0.000000 0.982720
O O10 0.530197 0.249256 0.271819
O O11 0.000000 0.500000 0.000000
#
# Coordination Sequence:
#
# PCOD9168972 Si02
#       7
#     4   4   4   4   4   4   2
#     4  12  29  46  63  87 133 171 212 256 328 382
#     4  10  16  31  52  91 123 150 190 263 302 346
#     4  11  26  43  62  93 123 161 210 276 313 377
#     4  12  23  37  63  97 119 170 207 259 313 373
#     4  12  22  35  65  95 121 155 214 261 307 365
#     4  10  16  32  54  89 127 145 206 255 300 356
#     4  10  24  42  70  82 120 158 222 262 330 348
#
# _framework density 23.722961000000002
#
# number of rings (size 3 to 8) (size 9 to 14) (size 15 to 20)
#    0.000    0.923    6.154    2.769   12.923    0.000 
#    0.000    0.000    0.000    1.846    0.000    0.000 
#    0.000    0.000    0.000    0.000    0.000    0.000 
#
# Total GULP energy -72415.273325 kJ/mol
# GULP energy per Si atom -5570.405640 kJ/mol
# Density = 2.366897 g / cm^3
# Si number density = 23.722961 Si / 1000 Ang^3
#
#
#
# Elastic Constant Matrix: (Units=GPa)
#
#
# Indices 1 2 3 4 5 6 
#
# 1 90.0661 47.1252 43.7593 0.0000 -32.5346 0.0000
# 2 47.1252 271.2998 43.1117 0.0000 -23.2394 0.0000
# 3 43.7593 43.1117 138.0391 0.0000 -59.4930 0.0000
# 4 0.0000 0.0000 0.0000 18.1761 0.0000 -14.9714
# 5 -32.5346 -23.2394 -59.4930 0.0000 40.8623 0.0000
# 6 0.0000 0.0000 0.0000 -14.9714 0.0000 41.5910
#
#
#
# Elastic Compliance Matrix: (Units=1/GPa)
#
#
# Indices 1 2 3 4 5 6 
#
# 1 0.016511 -0.001885 0.001499 0.000000 0.014256 0.000000
# 2 -0.001885 0.004115 -0.000875 0.000000 -0.000434 0.000000
# 3 0.001499 -0.000875 0.019710 0.000000 0.029393 0.000000
# 4 0.000000 0.000000 0.000000 0.078205 0.000000 0.028151
# 5 0.014256 -0.000434 0.029393 0.000000 0.078371 0.000000
# 6 0.000000 0.000000 0.000000 0.028151 0.000000 0.034177
#
#
# Mechanical properties :
#
#
# Convention : Reuss Voigt Hill
#
# Bulk Modulus (GPa) = 26.44468 85.26639 55.85554
# Shear Modulus (GPa) = 20.30734 44.48646 32.39690
#
# Velocity S-wave (km/s) = 2.92896 4.33511 3.69946
# Velocity P-wave (km/s) = 4.75498 7.81525 6.46870
#
# Compressibility (1/GPa) = 0.03781478
#
# Stress axis : x y z
#
# Youngs Moduli (GPa) = 60.56675 243.00112 50.73469
#
# Poissons Ratio (x) = 0.45805 -0.07605
# Poissons Ratio (y) = 0.11417 0.04438
# Poissons Ratio (z) = -0.09078 0.21255
#
# Static dielectric constant tensor:
#      x y z
#    x 1.901470 0.000000 0.018940 
#    y 0.000000 4.134030 0.000000 
#    z 0.018940 0.000000 1.868170 
# 
# From -- ./inp_files/247585.got.cif
#   From: 2010.05.17/outbox.cif.g08.bks.cpg/sg12_124_cif.got.tgz:247585.got - 2010.06.03 13:09:07.
