data_PCOD9168169
_publ_section_title
;
Structure prediction by ZEFSAII (Michael W. Deem and Ramdas Pophale) SiO2 
 PCOD9168169
Probable space group: P 21/M
;
_chemical_formula_sum "Si O2"
_cell_formula_units_Z 32
_cell_length_a 21.000000
_cell_length_b 9.000000
_cell_length_c 27.000000
_cell_angle_alpha 90.000000
_cell_angle_beta 20.000000
_cell_angle_gamma 90.000000
_cell_volume 1745.328791
_symmetry_space_group_name_H-M "P 21/M"
_symmetry_group_IT_number 11
_symmetry_cell_setting 'monoclinic'
loop_
_space_group_symop_operation_xyz
x,y,z
-x,1/2+y,-z
-x,-y,-z
x,1/2-y,z
loop_
_atom_site_type_symbol
_atom_site_label
_atom_site_fract_x
_atom_site_fract_y
_atom_site_fract_z
Si Si1 0.642397 0.426916 0.933692
Si Si2 0.978331 0.073296 0.940080
Si Si3 0.730022 0.071714 0.460775
Si Si4 0.696752 0.571860 0.218375
Si Si5 0.031588 0.070806 0.157670
Si Si6 0.564746 0.571747 0.095491
Si Si7 0.833635 0.573253 0.589687
Si Si8 0.072362 0.076839 0.593664
O O1 0.610515 0.250000 0.961766
O O2 0.853949 0.449864 0.761771
O O3 0.500000 0.500000 0.000000
O O4 0.610987 0.510981 0.007630
O O5 0.957565 0.250000 0.951159
O O6 0.156480 0.042282 0.844881
O O7 0.014404 0.000206 0.861058
O O8 0.792992 0.005769 0.100910
O O9 0.728148 0.250000 0.459063
O O10 0.513772 0.022528 0.614927
O O11 0.881287 0.020194 0.309056
O O12 0.808107 0.021641 0.456597
O O13 0.692822 0.750000 0.212790
O O14 0.021837 0.250000 0.162611
O O15 0.247428 0.032386 0.011568
O O16 0.544714 0.750000 0.110648
O O17 0.368909 0.498608 0.253557
O O18 0.826770 0.750000 0.605258
O O19 0.881147 0.551615 0.497354
O O20 0.000000 0.500000 0.500000
O O21 0.109481 0.250000 0.578171
#
# Coordination Sequence:
#
# PCOD9168169 Si02
#       8
#     4   4   4   4   4   4   4   4
#     4  11  22  38  62  88 117 154 194 243 297 354
#     4  10  21  37  60  89 121 157 195 239 292 349
#     4  10  21  39  62  86 115 155 199 240 289 348
#     4   9  20  39  61  88 120 154 197 243 289 346
#     4  10  22  39  59  86 120 157 197 243 291 348
#     4  11  23  40  60  86 119 157 201 245 293 352
#     4  11  24  42  62  88 120 155 196 248 303 359
#     4  10  23  40  58  86 120 149 190 245 296 347
#
# _framework density 18.334654
#
# number of rings (size 3 to 8) (size 9 to 14) (size 15 to 20)
#    0.000    1.750    1.250    2.250    1.750    5.500 
#    0.000    0.000    0.000    0.000    0.000    0.000 
#    0.000    0.000    0.000    0.000    0.000    0.000 
#
# Total GULP energy -178631.892949 kJ/mol
# GULP energy per Si atom -5582.246655 kJ/mol
# Density = 1.829292 g / cm^3
# Si number density = 18.334654 Si / 1000 Ang^3
#
#
#
# Elastic Constant Matrix: (Units=GPa)
#
#
# Indices 1 2 3 4 5 6 
#
# 1 68.2377 33.4459 42.3231 0.0000 -3.1691 0.0000
# 2 33.4459 28.4751 45.3994 0.0000 -0.2823 0.0000
# 3 42.3231 45.3994 150.3784 0.0000 -2.1305 0.0000
# 4 0.0000 0.0000 0.0000 -2.4493 0.0000 -0.8127
# 5 -3.1691 -0.2823 -2.1305 0.0000 24.6669 0.0000
# 6 0.0000 0.0000 0.0000 -0.8127 0.0000 34.0172
#
#
#
# Elastic Compliance Matrix: (Units=1/GPa)
#
#
# Indices 1 2 3 4 5 6 
#
# 1 0.037013 -0.051911 0.005320 0.000000 0.004621 0.000000
# 2 -0.051911 0.140539 -0.027925 0.000000 -0.007473 0.000000
# 3 0.005320 -0.027925 0.013605 0.000000 0.001539 0.000000
# 4 0.000000 0.000000 0.000000 -0.405065 0.000000 -0.009677
# 5 0.004621 -0.007473 0.001539 0.000000 0.041181 0.000000
# 6 0.000000 0.000000 0.000000 -0.009677 0.000000 0.029166
#
#
# Mechanical properties :
#
#
# Convention : Reuss Voigt Hill
#
# Bulk Modulus (GPa) = 23.73819 54.38090 39.05955
# Shear Modulus (GPa) = 256.25996 19.64181 137.95088
#
# Velocity S-wave (km/s) = 11.83518 3.27661 8.68354
# Velocity P-wave (km/s) = 14.13284 6.63623 11.04031
#
# Compressibility (1/GPa) = 0.04212621
#
# Stress axis : x y z
#
# Youngs Moduli (GPa) = 27.01758 7.11546 73.50330
#
# Poissons Ratio (x) = 0.36937 -0.39106
# Poissons Ratio (y) = 1.40251 2.05256
# Poissons Ratio (z) = -0.14374 0.19870
#
# Static dielectric constant tensor:
#      x y z
#    x 1.596250 0.000000 0.005100 
#    y 0.000000 1.615040 0.000000 
#    z 0.005100 0.000000 1.619590 
# 
# From -- ./inp_files/72008.got.cif
#   From: 2010.05.17/outbox.ucp.g08.bks.cvg/sg11_37_cif.got.tgz:72008.got - 2010.06.11 11:38:39.
