data_PCOD9168477
_publ_section_title
;
Structure prediction by ZEFSAII (Michael W. Deem and Ramdas Pophale) SiO2 
 PCOD9168477
Probable space group: C 2/M
;
_chemical_formula_sum "Si O2"
_cell_formula_units_Z 48
_cell_length_a 26.531226
_cell_length_b 14.772121
_cell_length_c 12.365726
_cell_angle_alpha 90.000000
_cell_angle_beta 153.818521
_cell_angle_gamma 90.000000
_cell_volume 2138.310851
_symmetry_space_group_name_H-M "C 2/M"
_symmetry_group_IT_number 12
_symmetry_cell_setting 'monoclinic'
loop_
_space_group_symop_operation_xyz
x,y,z
-x,y,-z
-x,-y,-z
x,-y,z
1/2+x,1/2+y,z
1/2-x,1/2+y,-z
1/2-x,1/2-y,-z
1/2+x,1/2-y,z
loop_
_atom_site_type_symbol
_atom_site_label
_atom_site_fract_x
_atom_site_fract_y
_atom_site_fract_z
Si Si1 0.163188 0.688723 0.979825
Si Si2 0.646025 0.825457 0.703452
Si Si3 0.892976 0.607096 0.593520
Si Si4 0.131462 0.829401 0.105284
Si Si5 0.690892 0.500000 0.951209
Si Si6 0.504010 0.500000 0.776931
Si Si7 0.500000 0.791974 0.000000
Si Si8 0.737278 0.500000 0.789604
O O1 0.289621 0.731613 0.197637
O O2 0.117997 0.761422 0.977913
O O3 0.185584 0.589549 0.070796
O O4 0.107725 0.682571 0.753980
O O5 0.572739 0.851223 0.456935
O O6 0.736225 0.910022 0.880325
O O7 0.904787 0.500000 0.611571
O O8 0.759947 0.633391 0.353285
O O9 0.960695 0.648206 0.823781
O O10 0.100799 0.772960 0.152292
O O11 0.045125 0.911722 0.920309
O O12 0.577423 0.500000 0.805523
O O13 0.683197 0.500000 0.806870
O O14 0.369771 0.500000 0.496273
#
# Coordination Sequence:
#
# PCOD9168477 Si02
#       8
#     8   8   8   8   4   4   4   4
#     4   9  19  37  61  94 132 169 200 248 321 385
#     4   9  16  33  67  91 124 172 203 243 317 394
#     4  11  21  46  70  92 126 170 215 263 318 381
#     4  11  24  46  67  91 131 170 213 263 325 381
#     4  10  15  36  59  96 132 167 207 245 322 390
#     4  12  21  39  62  99 129 163 214 264 322 381
#     4  12  29  43  66  94 120 168 228 276 314 368
#     4  10  23  32  61 102 135 161 205 264 307 386
#
# _framework density 22.447624999999999
#
# number of rings (size 3 to 8) (size 9 to 14) (size 15 to 20)
#    0.000    1.667    5.000    1.000    4.667    0.333 
#    3.000    0.833    0.000    1.000    0.000    0.000 
#    0.000    0.000    0.000    0.000    0.000    0.000 
#
# Total GULP energy -134223.698810 kJ/mol
# GULP energy per Si atom -5592.654117 kJ/mol
# Density = 2.239653 g / cm^3
# Si number density = 22.447625 Si / 1000 Ang^3
#
#
#
# Elastic Constant Matrix: (Units=GPa)
#
#
# Indices 1 2 3 4 5 6 
#
# 1 100.6632 34.3335 19.4666 0.0000 -21.1186 0.0000
# 2 34.3335 166.2523 48.2892 0.0000 -19.1862 0.0000
# 3 19.4666 48.2892 108.7665 0.0000 -26.8770 0.0000
# 4 0.0000 0.0000 0.0000 27.0177 0.0000 -19.9111
# 5 -21.1186 -19.1862 -26.8770 0.0000 25.9839 0.0000
# 6 0.0000 0.0000 0.0000 -19.9111 0.0000 -17.6301
#
#
#
# Elastic Compliance Matrix: (Units=1/GPa)
#
#
# Indices 1 2 3 4 5 6 
#
# 1 0.012387 -0.001706 0.000963 0.000000 0.009804 0.000000
# 2 -0.001706 0.007273 -0.002605 0.000000 0.001289 0.000000
# 3 0.000963 -0.002605 0.013294 0.000000 0.012611 0.000000
# 4 0.000000 0.000000 0.000000 0.020200 0.000000 -0.022813
# 5 0.009804 0.001289 0.012611 0.000000 0.060449 0.000000
# 6 0.000000 0.000000 0.000000 -0.022813 0.000000 -0.030956
#
#
# Mechanical properties :
#
#
# Convention : Reuss Voigt Hill
#
# Bulk Modulus (GPa) = 38.08476 64.42897 51.25687
# Shear Modulus (GPa) = 50.97080 25.31382 38.14231
#
# Velocity S-wave (km/s) = 4.77031 3.36174 4.12657
# Velocity P-wave (km/s) = 6.88070 6.62062 6.75191
#
# Compressibility (1/GPa) = 0.02625722
#
# Stress axis : x y z
#
# Youngs Moduli (GPa) = 80.73242 137.50014 75.21991
#
# Poissons Ratio (x) = 0.23463 -0.07246
# Poissons Ratio (y) = 0.13776 0.19595
# Poissons Ratio (z) = -0.07777 0.35820
#
# Static dielectric constant tensor:
#      x y z
#    x 1.851450 0.000000 0.040580 
#    y 0.000000 1.770530 0.000000 
#    z 0.040580 0.000000 1.849960 
# 
# From -- ./inp_files/183933.got.cif
#   From: 2010.05.17/outbox.cif.g08.bks.cpg/sg12_92_cif.got.tgz:183933.got - 2010.06.03 13:09:07.
