data_PCOD9168010
_publ_section_title
;
Structure prediction by ZEFSAII (Michael W. Deem and Ramdas Pophale) SiO2 
 PCOD9168010
Probable space group: P 21/M
;
_chemical_formula_sum "Si O2"
_cell_formula_units_Z 32
_cell_length_a 30.000000
_cell_length_b 9.000000
_cell_length_c 12.000000
_cell_angle_alpha 90.000000
_cell_angle_beta 30.000000
_cell_angle_gamma 90.000000
_cell_volume 1620.000000
_symmetry_space_group_name_H-M "P 21/M"
_symmetry_group_IT_number 11
_symmetry_cell_setting 'monoclinic'
loop_
_space_group_symop_operation_xyz
x,y,z
-x,1/2+y,-z
-x,-y,-z
x,1/2-y,z
loop_
_atom_site_type_symbol
_atom_site_label
_atom_site_fract_x
_atom_site_fract_y
_atom_site_fract_z
Si Si1 0.220901 0.424986 0.182421
Si Si2 0.678199 0.924094 0.262043
Si Si3 0.062533 0.580095 0.776425
Si Si4 0.968063 0.573457 0.387505
Si Si5 0.241837 0.581553 0.528514
Si Si6 0.831392 0.068240 0.073735
Si Si7 0.502060 0.572670 0.372174
Si Si8 0.662779 0.429353 0.887116
O O1 0.215553 0.250000 0.226717
O O2 0.122233 0.472211 0.352120
O O3 0.256017 0.523254 0.207714
O O4 0.293847 0.434732 0.927775
O O5 0.663271 0.750000 0.319893
O O6 0.760753 0.992964 0.147473
O O7 0.592560 0.022942 0.472583
O O8 0.034497 0.750000 0.810803
O O9 0.059628 0.476005 0.675941
O O10 0.157939 0.589167 0.627602
O O11 0.000000 0.500000 0.000000
O O12 0.975162 0.750000 0.384929
O O13 0.069188 0.517063 0.177477
O O14 0.271069 0.750000 0.492629
O O15 0.200721 0.520519 0.732263
O O16 0.317506 0.516694 0.282510
O O17 0.830176 0.250000 0.072807
O O18 0.500000 0.500000 0.500000
O O19 0.511716 0.750000 0.360456
O O20 0.578214 0.504089 0.129072
O O21 0.655131 0.250000 0.902812
#
# Coordination Sequence:
#
# PCOD9168010 Si02
#       8
#     4   4   4   4   4   4   4   4
#     4  10  21  36  57  87 124 158 194 248 303 352
#     4  11  24  42  61  87 121 156 202 251 298 358
#     4  11  19  31  51  81 115 154 198 248 295 345
#     4  10  20  35  56  85 120 161 203 248 298 349
#     4   9  19  35  56  85 121 158 198 246 296 348
#     4  10  21  40  60  81 119 168 210 245 292 350
#     4  12  24  41  66  95 121 151 192 242 304 363
#     4  11  21  36  61  94 125 153 192 246 305 358
#
# _framework density 19.753086
#
# number of rings (size 3 to 8) (size 9 to 14) (size 15 to 20)
#    0.000    1.500    3.750    2.250    0.000    1.500 
#    0.000    1.875    0.000    0.000    0.000    0.000 
#    0.000    0.000    0.000    0.000    0.000    0.000 
#
# Total GULP energy -178279.215773 kJ/mol
# GULP energy per Si atom -5571.225493 kJ/mol
# Density = 1.970813 g / cm^3
# Si number density = 19.753086 Si / 1000 Ang^3
#
#
#
# Elastic Constant Matrix: (Units=GPa)
#
#
# Indices 1 2 3 4 5 6 
#
# 1 30.2734 4.2637 9.9225 0.0000 -11.1316 0.0000
# 2 4.2637 32.8192 37.4942 0.0000 -4.0849 0.0000
# 3 9.9225 37.4942 137.5732 0.0000 -16.2873 0.0000
# 4 0.0000 0.0000 0.0000 16.9936 0.0000 -7.7494
# 5 -11.1316 -4.0849 -16.2873 0.0000 19.1958 0.0000
# 6 0.0000 0.0000 0.0000 -7.7494 0.0000 21.6455
#
#
#
# Elastic Compliance Matrix: (Units=1/GPa)
#
#
# Indices 1 2 3 4 5 6 
#
# 1 0.042232 -0.003296 0.000743 0.000000 0.024420 0.000000
# 2 -0.003296 0.044518 -0.012228 0.000000 -0.002814 0.000000
# 3 0.000743 -0.012228 0.011440 0.000000 0.007536 0.000000
# 4 0.000000 0.000000 0.000000 0.070328 0.000000 0.025178
# 5 0.024420 -0.002814 0.007536 0.000000 0.072051 0.000000
# 6 0.000000 0.000000 0.000000 0.025178 0.000000 0.055213
#
#
# Mechanical properties :
#
#
# Convention : Reuss Voigt Hill
#
# Bulk Modulus (GPa) = 14.57139 33.78073 24.17606
# Shear Modulus (GPa) = 14.35873 21.49934 17.92903
#
# Velocity S-wave (km/s) = 2.69905 3.30268 3.01600
# Velocity P-wave (km/s) = 4.13594 5.62869 4.93904
#
# Compressibility (1/GPa) = 0.06862764
#
# Stress axis : x y z
#
# Youngs Moduli (GPa) = 23.67873 22.46271 87.41192
#
# Poissons Ratio (x) = 0.07405 -0.06499
# Poissons Ratio (y) = 0.07806 1.06890
# Poissons Ratio (z) = -0.01760 0.27468
#
# Static dielectric constant tensor:
#      x y z
#    x 1.707970 0.000000 -0.013170 
#    y 0.000000 1.673670 0.000000 
#    z -0.013170 0.000000 1.781080 
# 
# From -- ./inp_files/45137.got.cif
#   From: 2010.05.17/outbox.ucp.g08.bks.cvg/sg11_23_cif.got.tgz:45137.got - 2010.06.11 11:38:39.
