data_PCOD9168638
_publ_section_title
;
Structure prediction by ZEFSAII (Michael W. Deem and Ramdas Pophale) SiO2 
 PCOD9168638
Probable space group: C 2/M
;
_chemical_formula_sum "Si O2"
_cell_formula_units_Z 64
_cell_length_a 24.572553
_cell_length_b 14.347070
_cell_length_c 15.499248
_cell_angle_alpha 90.000000
_cell_angle_beta 136.345251
_cell_angle_gamma 90.000000
_cell_volume 3771.977139
_symmetry_space_group_name_H-M "C 2/M"
_symmetry_group_IT_number 12
_symmetry_cell_setting 'monoclinic'
loop_
_space_group_symop_operation_xyz
x,y,z
-x,y,-z
-x,-y,-z
x,-y,z
1/2+x,1/2+y,z
1/2-x,1/2+y,-z
1/2-x,1/2-y,-z
1/2+x,1/2-y,z
loop_
_atom_site_type_symbol
_atom_site_label
_atom_site_fract_x
_atom_site_fract_y
_atom_site_fract_z
Si Si1 0.595082 0.607144 0.094286
Si Si2 0.635361 0.389276 0.473053
Si Si3 0.577690 0.716965 0.903449
Si Si4 0.551908 0.609176 0.706159
Si Si5 0.166813 0.112701 0.695855
Si Si6 0.916407 0.393479 0.862810
Si Si7 0.610140 0.722602 0.277908
Si Si8 0.167815 0.394006 0.051542
O O1 0.619911 0.500000 0.116027
O O2 0.611795 0.663384 0.026043
O O3 0.628863 0.658063 0.216943
O O4 0.500000 0.607245 0.000000
O O5 0.652054 0.500000 0.473596
O O6 0.542232 0.384272 0.391167
O O7 0.676138 0.355613 0.608025
O O8 0.650013 0.322166 0.408218
O O9 0.612938 0.820036 0.941803
O O10 0.591034 0.663696 0.829872
O O11 0.483611 0.717029 0.810034
O O12 0.571208 0.500000 0.737085
O O13 0.588015 0.640808 0.656378
O O14 0.241414 0.136019 0.840597
O O15 0.165007 0.000000 0.685527
O O16 0.930187 0.500000 0.849316
O O17 0.882173 0.327849 0.748926
O O18 0.859533 0.395096 0.879782
O O19 0.000000 0.357721 0.000000
O O20 0.160582 0.500000 0.010917
#
# Coordination Sequence:
#
# PCOD9168638 Si02
#       8
#     8   8   8   8   8   8   8   8
#     4   9  15  23  37  60  91 117 137 168 215 265
#     4   9  17  29  47  68  91 117 147 181 217 264
#     4  10  17  26  42  66  92 114 144 179 220 267
#     4   9  17  29  47  69  91 115 145 181 222 268
#     4   9  18  32  46  63  89 120 151 185 221 256
#     4  10  17  28  45  64  88 119 151 185 222 255
#     4  10  16  26  42  68  89 113 146 181 219 260
#     4  10  19  30  45  64  90 119 151 187 221 259
#
# _framework density 16.967229
#
# number of rings (size 3 to 8) (size 9 to 14) (size 15 to 20)
#    0.000    2.500    2.500    1.500    0.000    5.000 
#    0.000    0.625    0.000    0.000    0.000    1.750 
#    0.000    4.000    0.000    0.000    0.000    0.000 
#
# Total GULP energy -178186.303274 kJ/mol
# GULP energy per Si atom -5568.321977 kJ/mol
# Density = 1.692861 g / cm^3
# Si number density = 16.967229 Si / 1000 Ang^3
#
#
#
# Elastic Constant Matrix: (Units=GPa)
#
#
# Indices 1 2 3 4 5 6 
#
# 1 16.6508 -0.7043 2.3596 0.0000 -5.5223 0.0000
# 2 -0.7043 69.3852 18.4139 0.0000 -7.6245 0.0000
# 3 2.3596 18.4139 37.7998 0.0000 -16.4130 0.0000
# 4 0.0000 0.0000 0.0000 4.7971 0.0000 -2.2099
# 5 -5.5223 -7.6245 -16.4130 0.0000 21.3249 0.0000
# 6 0.0000 0.0000 0.0000 -2.2099 0.0000 11.4720
#
#
#
# Elastic Compliance Matrix: (Units=1/GPa)
#
#
# Indices 1 2 3 4 5 6 
#
# 1 0.066539 0.001913 0.004045 0.000000 0.021028 0.000000
# 2 0.001913 0.016610 -0.008136 0.000000 0.000172 0.000000
# 3 0.004045 -0.008136 0.044094 0.000000 0.032076 0.000000
# 4 0.000000 0.000000 0.000000 0.228757 0.000000 0.044066
# 5 0.021028 0.000172 0.032076 0.000000 0.077088 0.000000
# 6 0.000000 0.000000 0.000000 0.044066 0.000000 0.095657
#
#
# Mechanical properties :
#
#
# Convention : Reuss Voigt Hill
#
# Bulk Modulus (GPa) = 8.13762 18.21938 13.17850
# Shear Modulus (GPa) = 8.70984 14.43659 11.57322
#
# Velocity S-wave (km/s) = 2.26814 2.92010 2.61452
# Velocity P-wave (km/s) = 3.41552 4.70432 4.11074
#
# Compressibility (1/GPa) = 0.12288613
#
# Stress axis : x y z
#
# Youngs Moduli (GPa) = 15.02878 60.20534 22.67897
#
# Poissons Ratio (x) = -0.11515 -0.09174
# Poissons Ratio (y) = -0.02874 0.18452
# Poissons Ratio (z) = -0.06080 0.48984
#
# Static dielectric constant tensor:
#      x y z
#    x 1.594840 0.000000 0.021230 
#    y 0.000000 1.580350 0.000000 
#    z 0.021230 0.000000 1.610760 
# 
# From -- ./inp_files/246367.got.cif
#   From: 2010.05.17/outbox.cif.g08.bks.cpg/sg12_124_cif.got.tgz:246367.got - 2010.06.03 13:09:07.
