data_PCOD9168357
_publ_section_title
;
Structure prediction by ZEFSAII (Michael W. Deem and Ramdas Pophale) SiO2 
 PCOD9168357
Probable space group: C 2/M
;
_chemical_formula_sum "Si O2"
_cell_formula_units_Z 42
_cell_length_a 18.393709
_cell_length_b 16.163126
_cell_length_c 7.797481
_cell_angle_alpha 90.000000
_cell_angle_beta 112.975837
_cell_angle_gamma 90.000000
_cell_volume 2134.286787
_symmetry_space_group_name_H-M "C 2/M"
_symmetry_group_IT_number 12
_symmetry_cell_setting 'monoclinic'
loop_
_space_group_symop_operation_xyz
x,y,z
-x,y,-z
-x,-y,-z
x,-y,z
1/2+x,1/2+y,z
1/2-x,1/2+y,-z
1/2-x,1/2-y,-z
1/2+x,1/2-y,z
loop_
_atom_site_type_symbol
_atom_site_label
_atom_site_fract_x
_atom_site_fract_y
_atom_site_fract_z
Si Si1 0.130891 0.000000 0.128966
Si Si2 0.000000 0.500000 0.000000
Si Si3 0.616554 0.864905 0.264185
Si Si4 0.182899 0.682729 0.983701
Si Si5 0.481096 0.758136 0.297129
Si Si6 0.763811 0.500000 0.538290
Si Si7 0.243779 0.000000 0.922382
Si Si8 0.500000 0.636029 0.000000
O O1 0.199244 0.000000 0.332558
O O2 0.075442 0.921036 0.101187
O O3 0.167240 0.000000 0.971776
O O4 0.934348 0.428828 0.895349
O O5 0.552841 0.820877 0.324357
O O6 0.681001 0.918818 0.423491
O O7 0.658156 0.806859 0.161553
O O8 0.104333 0.698537 0.798941
O O9 0.250000 0.750000 0.000000
O O10 0.211864 0.587041 0.994856
O O11 0.500000 0.721785 0.500000
O O12 0.484000 0.691710 0.149771
O O13 0.731326 0.500000 0.704836
#
# Coordination Sequence:
#
# PCOD9168357 Si02
#       8
#     4   2   8   8   8   4   4   4
#     4  11  25  45  72  91 133 177 233 280 340 421
#     4  10  14  36  70  86 130 184 208 270 340 400
#     4  10  20  39  67  93 140 171 217 276 345 402
#     4  11  22  41  67  96 137 179 221 281 344 403
#     4  12  25  42  67  99 134 181 230 278 338 418
#     4   9  23  41  66 105 127 174 216 289 344 407
#     4  10  24  39  66 101 138 170 225 281 348 405
#     4  11  25  48  67  93 132 186 226 286 340 406
#
# _framework density 19.678705000000001
#
# number of rings (size 3 to 8) (size 9 to 14) (size 15 to 20)
#    0.000    1.333    3.810    1.714    2.667    4.571 
#    0.000    6.190    0.000    0.000    0.000    0.000 
#    0.000    0.000    0.000    0.000    0.000    0.000 
#
# Total GULP energy -117012.110236 kJ/mol
# GULP energy per Si atom -5572.005249 kJ/mol
# Density = 1.963392 g / cm^3
# Si number density = 19.678705 Si / 1000 Ang^3
#
#
#
# Elastic Constant Matrix: (Units=GPa)
#
#
# Indices 1 2 3 4 5 6 
#
# 1 104.2155 47.1662 43.0992 0.0000 16.8238 0.0000
# 2 47.1662 95.7280 45.7276 0.0000 3.6164 0.0000
# 3 43.0992 45.7276 101.7487 0.0000 18.3434 0.0000
# 4 0.0000 0.0000 0.0000 -23.8354 0.0000 6.9526
# 5 16.8238 3.6164 18.3434 0.0000 28.4452 0.0000
# 6 0.0000 0.0000 0.0000 6.9526 0.0000 60.0088
#
#
#
# Elastic Compliance Matrix: (Units=1/GPa)
#
#
# Indices 1 2 3 4 5 6 
#
# 1 0.014081 -0.005582 -0.002356 0.000000 -0.006099 0.000000
# 2 -0.005582 0.015667 -0.005559 0.000000 0.004894 0.000000
# 3 -0.002356 -0.005559 0.014649 0.000000 -0.007346 0.000000
# 4 0.000000 0.000000 0.000000 -0.040583 0.000000 0.004702
# 5 -0.006099 0.004894 -0.007346 0.000000 0.042878 0.000000
# 6 0.000000 0.000000 0.000000 0.004702 0.000000 0.016119
#
#
# Mechanical properties :
#
#
# Convention : Reuss Voigt Hill
#
# Bulk Modulus (GPa) = 57.46312 63.74202 60.60257
# Shear Modulus (GPa) = 52.29808 23.97034 38.13421
#
# Velocity S-wave (km/s) = 5.16078 3.49389 4.40687
# Velocity P-wave (km/s) = 8.04833 6.98127 7.53371
#
# Compressibility (1/GPa) = 0.01740247
#
# Stress axis : x y z
#
# Youngs Moduli (GPa) = 71.01897 63.82846 68.26420
#
# Poissons Ratio (x) = 0.35627 0.16085
# Poissons Ratio (y) = 0.39641 0.37948
# Poissons Ratio (z) = 0.16735 0.35482
#
# Static dielectric constant tensor:
#      x y z
#    x 1.734360 0.000000 -0.014790 
#    y 0.000000 1.704470 0.000000 
#    z -0.014790 0.000000 1.678120 
# 
# From -- ./inp_files/73783.got.cif
#   From: 2010.05.17/outbox.cif.g08.bks.cpg/sg12_37_cif.got.tgz:73783.got - 2010.06.03 13:09:07.
