data_PCOD9168281
_publ_section_title
;
Structure prediction by ZEFSAII (Michael W. Deem and Ramdas Pophale) SiO2 
 PCOD9168281
Probable space group: C 2/M
;
_chemical_formula_sum "Si O2"
_cell_formula_units_Z 48
_cell_length_a 8.579739
_cell_length_b 24.577421
_cell_length_c 15.167773
_cell_angle_alpha 90.000000
_cell_angle_beta 55.287080
_cell_angle_gamma 90.000000
_cell_volume 2629.131397
_symmetry_space_group_name_H-M "C 2/M"
_symmetry_group_IT_number 12
_symmetry_cell_setting 'monoclinic'
loop_
_space_group_symop_operation_xyz
x,y,z
-x,y,-z
-x,-y,-z
x,-y,z
1/2+x,1/2+y,z
1/2-x,1/2+y,-z
1/2-x,1/2-y,-z
1/2+x,1/2-y,z
loop_
_atom_site_type_symbol
_atom_site_label
_atom_site_fract_x
_atom_site_fract_y
_atom_site_fract_z
Si Si1 0.809765 0.810626 0.006518
Si Si2 0.788489 0.615622 0.114418
Si Si3 0.525127 0.906256 0.587087
Si Si4 0.190636 0.500000 0.145250
Si Si5 0.840586 0.000000 0.476928
Si Si6 0.767953 0.500000 0.066668
Si Si7 0.209337 0.000000 0.699655
Si Si8 0.501850 0.119496 0.212913
O O1 0.661328 0.842925 0.116513
O O2 0.750000 0.750000 0.000000
O O3 0.826836 0.843383 0.909146
O O4 0.000000 0.808757 0.000000
O O5 0.704675 0.555671 0.130802
O O6 0.823332 0.627395 0.205418
O O7 0.000000 0.615800 0.000000
O O8 0.500000 0.878284 0.500000
O O9 0.527606 0.870409 0.674341
O O10 0.705818 0.946964 0.531455
O O11 0.345787 0.947278 0.648416
O O12 0.334039 0.500000 0.181849
O O13 0.065709 0.555551 0.187448
O O14 0.279650 0.500000 0.020571
O O15 0.909318 0.000000 0.352627
O O16 0.000000 0.000000 0.500000
O O17 0.000000 0.500000 0.000000
#
# Coordination Sequence:
#
# PCOD9168281 Si02
#       8
#     8   8   8   4   4   4   4   8
#     4  11  22  36  52  72  96 128 170 220 267 312
#     4   9  16  28  46  70  96 128 167 201 244 301
#     4   8  15  28  46  69  96 136 174 203 245 301
#     4  10  13  24  46  70  97 135 166 193 237 298
#     4   9  15  27  43  67 102 140 177 218 248 288
#     4  10  12  22  42  68  94 128 160 190 236 289
#     4   7  14  23  40  63  91 131 173 199 234 288
#     4  10  17  30  52  74 101 138 174 208 250 309
#
# _framework density 18.256979000000001
#
# number of rings (size 3 to 8) (size 9 to 14) (size 15 to 20)
#    0.000    2.667    5.000    3.000    0.000    0.000 
#    0.000    6.667    0.000    0.000    0.000    4.667 
#    0.000    0.000    0.000    0.000    0.000    0.000 
#
# Total GULP energy -133655.419346 kJ/mol
# GULP energy per Si atom -5568.975806 kJ/mol
# Density = 1.821543 g / cm^3
# Si number density = 18.256979 Si / 1000 Ang^3
#
#
#
# Elastic Constant Matrix: (Units=GPa)
#
#
# Indices 1 2 3 4 5 6 
#
# 1 126.0438 42.0616 62.1928 0.0000 54.8103 0.0000
# 2 42.0616 95.0579 25.0083 0.0000 16.8204 0.0000
# 3 62.1928 25.0083 125.2503 0.0000 51.8968 0.0000
# 4 0.0000 0.0000 0.0000 8.4107 0.0000 9.8992
# 5 54.8103 16.8204 51.8968 0.0000 45.4498 0.0000
# 6 0.0000 0.0000 0.0000 9.8992 0.0000 15.3113
#
#
#
# Elastic Compliance Matrix: (Units=1/GPa)
#
#
# Indices 1 2 3 4 5 6 
#
# 1 0.018330 -0.004527 0.000507 0.000000 -0.021008 0.000000
# 2 -0.004527 0.012440 -0.001121 0.000000 0.002134 0.000000
# 3 0.000507 -0.001121 0.015255 0.000000 -0.017615 0.000000
# 4 0.000000 0.000000 0.000000 0.497362 0.000000 -0.321558
# 5 -0.021008 0.002134 -0.017615 0.000000 0.066661 0.000000
# 6 0.000000 0.000000 0.000000 -0.321558 0.000000 0.273207
#
#
# Mechanical properties :
#
#
# Convention : Reuss Voigt Hill
#
# Bulk Modulus (GPa) = 27.97668 67.20860 47.59264
# Shear Modulus (GPa) = 5.52212 28.30697 16.91455
#
# Velocity S-wave (km/s) = 1.74104 3.94188 3.04710
# Velocity P-wave (km/s) = 4.40440 7.59015 6.20520
#
# Compressibility (1/GPa) = 0.03574405
#
# Stress axis : x y z
#
# Youngs Moduli (GPa) = 54.55647 80.38621 65.55273
#
# Poissons Ratio (x) = 0.36387 -0.03323
# Poissons Ratio (y) = 0.24695 0.07346
# Poissons Ratio (z) = -0.02766 0.09008
#
# Static dielectric constant tensor:
#      x y z
#    x 1.685900 0.000000 -0.015970 
#    y 0.000000 2.252840 0.000000 
#    z -0.015970 0.000000 1.705390 
# 
# From -- ./inp_files/197946.got.cif
#   From: 2010.05.17/outbox.cif.g08.bks.cpg/sg12_99_cif.got.tgz:197946.got - 2010.06.03 13:09:07.
