data_PCOD9168217
_publ_section_title
;
Structure prediction by ZEFSAII (Michael W. Deem and Ramdas Pophale) SiO2 
 PCOD9168217
Probable space group: P 21/M
;
_chemical_formula_sum "Si O2"
_cell_formula_units_Z 32
_cell_length_a 12.000000
_cell_length_b 18.000000
_cell_length_c 15.000000
_cell_angle_alpha 90.000000
_cell_angle_beta 30.000000
_cell_angle_gamma 90.000000
_cell_volume 1620.000000
_symmetry_space_group_name_H-M "P 21/M"
_symmetry_group_IT_number 11
_symmetry_cell_setting 'monoclinic'
loop_
_space_group_symop_operation_xyz
x,y,z
-x,1/2+y,-z
-x,-y,-z
x,1/2-y,z
loop_
_atom_site_type_symbol
_atom_site_label
_atom_site_fract_x
_atom_site_fract_y
_atom_site_fract_z
Si Si1 0.845292 0.160848 0.634153
Si Si2 0.550394 0.426246 0.359290
Si Si3 0.218040 0.162769 0.236153
Si Si4 0.251765 0.835501 0.103132
Si Si5 0.346619 0.392954 0.959589
Si Si6 0.991164 0.662398 0.955699
Si Si7 0.273995 0.548318 0.944931
Si Si8 0.797598 0.931779 0.247683
O O1 0.867827 0.250000 0.622486
O O2 0.850536 0.134843 0.733462
O O3 0.591077 0.143451 0.783113
O O4 0.039089 0.134576 0.432778
O O5 0.557331 0.422363 0.246936
O O6 0.330041 0.410124 0.571200
O O7 0.616271 0.512541 0.329985
O O8 0.767642 0.375715 0.231017
O O9 0.167265 0.250000 0.254369
O O10 0.477869 0.160140 0.084141
O O11 0.225506 0.120592 0.137586
O O12 0.188480 0.750000 0.136672
O O13 0.188583 0.885040 0.064756
O O14 0.185543 0.358211 0.997822
O O15 0.381072 0.480537 0.922475
O O16 0.026004 0.750000 0.936733
O O17 0.873735 0.633224 0.128208
O O18 0.027917 0.519829 0.086556
#
# Coordination Sequence:
#
# PCOD9168217 Si02
#       8
#     4   4   4   4   4   4   4   4
#     4   9  19  36  55  77 111 150 184 225 277 329
#     4  10  21  40  59  78 111 153 188 224 277 335
#     4   9  19  36  55  77 111 150 184 225 277 329
#     4   9  20  38  57  77 105 143 185 231 277 326
#     4  11  20  34  54  84 114 145 183 224 280 337
#     4  11  21  36  58  85 115 146 184 232 281 330
#     4  11  21  36  59  84 110 146 185 232 283 334
#     4  10  21  40  59  78 111 153 188 224 277 335
#
# _framework density 19.753086
#
# number of rings (size 3 to 8) (size 9 to 14) (size 15 to 20)
#    0.000    2.000    2.500    2.625    0.000    7.500 
#    0.000    1.250    0.000    0.000    0.000    0.000 
#    0.000    0.000    0.000    0.000    0.000    0.000 
#
# Total GULP energy -178139.180698 kJ/mol
# GULP energy per Si atom -5566.849397 kJ/mol
# Density = 1.970813 g / cm^3
# Si number density = 19.753086 Si / 1000 Ang^3
#
#
#
# Elastic Constant Matrix: (Units=GPa)
#
#
# Indices 1 2 3 4 5 6 
#
# 1 31.9542 8.6029 -2.9077 0.0000 16.1932 0.0000
# 2 8.6029 43.8501 1.2680 0.0000 7.3492 0.0000
# 3 -2.9077 1.2680 106.0315 0.0000 23.2954 0.0000
# 4 0.0000 0.0000 0.0000 19.5153 0.0000 4.1898
# 5 16.1932 7.3492 23.2954 0.0000 15.4797 0.0000
# 6 0.0000 0.0000 0.0000 4.1898 0.0000 23.8264
#
#
#
# Elastic Compliance Matrix: (Units=1/GPa)
#
#
# Indices 1 2 3 4 5 6 
#
# 1 0.231292 0.016887 0.091220 0.000000 -0.387249 0.000000
# 2 0.016887 0.026867 0.010197 0.000000 -0.045767 0.000000
# 3 0.091220 0.010197 0.050554 0.000000 -0.176346 0.000000
# 4 0.000000 0.000000 0.000000 0.053252 0.000000 -0.009364
# 5 -0.387249 -0.045767 -0.176346 0.000000 0.756812 0.000000
# 6 0.000000 0.000000 0.000000 -0.009364 0.000000 0.043617
#
#
# Mechanical properties :
#
#
# Convention : Reuss Voigt Hill
#
# Bulk Modulus (GPa) = 1.83377 21.75136 11.79256
# Shear Modulus (GPa) = 4.51443 23.42244 13.96843
#
# Velocity S-wave (km/s) = 1.51340 3.44722 2.66212
# Velocity P-wave (km/s) = 1.99605 5.18459 3.92837
#
# Compressibility (1/GPa) = 0.54532390
#
# Stress axis : x y z
#
# Youngs Moduli (GPa) = 4.32353 37.21973 19.78070
#
# Poissons Ratio (x) = -0.62855 -1.80440
# Poissons Ratio (y) = -0.07301 -0.20170
# Poissons Ratio (z) = -0.39439 -0.37953
#
# Static dielectric constant tensor:
#      x y z
#    x 1.865410 0.000000 -0.022610 
#    y 0.000000 1.719690 0.000000 
#    z -0.022610 0.000000 1.681910 
# 
# From -- ./inp_files/50645.got.cif
#   From: 2010.05.17/outbox.ucp.g08.bks.cvg/sg11_26_cif.got.tgz:50645.got - 2010.06.11 11:38:39.
