data_PCOD9168671
_publ_section_title
;
Structure prediction by ZEFSAII (Michael W. Deem and Ramdas Pophale) SiO2 
 PCOD9168671
Probable space group: C 2/M
;
_chemical_formula_sum "Si O2"
_cell_formula_units_Z 48
_cell_length_a 22.477805
_cell_length_b 13.069648
_cell_length_c 8.346725
_cell_angle_alpha 90.000000
_cell_angle_beta 127.866219
_cell_angle_gamma 90.000000
_cell_volume 1935.781754
_symmetry_space_group_name_H-M "C 2/M"
_symmetry_group_IT_number 12
_symmetry_cell_setting 'monoclinic'
loop_
_space_group_symop_operation_xyz
x,y,z
-x,y,-z
-x,-y,-z
x,-y,z
1/2+x,1/2+y,z
1/2-x,1/2+y,-z
1/2-x,1/2-y,-z
1/2+x,1/2-y,z
loop_
_atom_site_type_symbol
_atom_site_label
_atom_site_fract_x
_atom_site_fract_y
_atom_site_fract_z
Si Si1 0.884953 0.179803 0.430423
Si Si2 0.684377 0.392110 0.208025
Si Si3 0.435795 0.111747 0.023788
Si Si4 0.683974 0.883350 0.820831
Si Si5 0.221900 0.668543 0.251940
Si Si6 0.952599 0.172146 0.198179
O O1 0.863852 0.299728 0.359030
O O2 0.809205 0.136925 0.387357
O O3 0.958251 0.157246 0.657119
O O4 0.913820 0.142319 0.303228
O O5 0.700156 0.500000 0.317971
O O6 0.597111 0.381299 0.018920
O O7 0.735499 0.393827 0.132379
O O8 0.710262 0.281241 0.307179
O O9 0.442896 0.205835 0.156623
O O10 0.448778 0.000000 0.116955
O O11 0.500000 0.128968 0.000000
O O12 0.352272 0.111531 0.806040
O O13 0.653507 0.000000 0.776795
O O14 0.702519 0.839870 0.027838
#
# Coordination Sequence:
#
# PCOD9168671 Si02
#       6
#     8   8   8   8   8   8
#     4  10  18  30  48  76 105 129 157 200 257 304
#     4   9  16  28  46  67  96 128 161 196 237 294
#     4  10  21  36  54  74  96 131 173 205 240 291
#     4  10  16  26  47  71  97 127 160 196 240 295
#     4  10  17  32  50  70 100 128 167 203 241 292
#     4  10  19  32  49  71 109 129 157 205 251 294
#
# _framework density 24.796185000000001
#
# number of rings (size 3 to 8) (size 9 to 14) (size 15 to 20)
#    0.000    2.167    5.000    1.500    0.000    0.667 
#    0.000    5.833    0.000    8.000    0.000    0.000 
#    0.000    0.000    0.000    0.000    0.000    0.000 
#
# Total GULP energy -133724.668204 kJ/mol
# GULP energy per Si atom -5571.861175 kJ/mol
# Density = 2.473975 g / cm^3
# Si number density = 24.796185 Si / 1000 Ang^3
#
#
#
# Elastic Constant Matrix: (Units=GPa)
#
#
# Indices 1 2 3 4 5 6 
#
# 1 134.5951 7.2377 65.5008 0.0000 42.6515 0.0000
# 2 7.2377 86.1774 8.4651 0.0000 -20.9444 0.0000
# 3 65.5008 8.4651 97.1383 0.0000 42.2313 0.0000
# 4 0.0000 0.0000 0.0000 -4.5484 0.0000 6.5110
# 5 42.6515 -20.9444 42.2313 0.0000 47.8084 0.0000
# 6 0.0000 0.0000 0.0000 6.5110 0.0000 3.3483
#
#
#
# Elastic Compliance Matrix: (Units=1/GPa)
#
#
# Indices 1 2 3 4 5 6 
#
# 1 0.012370 -0.002553 -0.004602 0.000000 -0.008089 0.000000
# 2 -0.002553 0.015947 -0.006000 0.000000 0.014564 0.000000
# 3 -0.004602 -0.006000 0.021557 0.000000 -0.017566 0.000000
# 4 0.000000 0.000000 0.000000 -0.058107 0.000000 0.112995
# 5 -0.008089 0.014564 -0.017566 0.000000 0.050030 0.000000
# 6 0.000000 0.000000 0.000000 0.112995 0.000000 0.078934
#
#
# Mechanical properties :
#
#
# Convention : Reuss Voigt Hill
#
# Bulk Modulus (GPa) = 42.43620 53.36867 47.90243
# Shear Modulus (GPa) = 32.27978 25.10214 28.69096
#
# Velocity S-wave (km/s) = 3.61197 3.18518 3.40527
# Velocity P-wave (km/s) = 5.87760 5.92426 5.90098
#
# Compressibility (1/GPa) = 0.02356479
#
# Stress axis : x y z
#
# Youngs Moduli (GPa) = 80.84292 62.70635 46.38801
#
# Poissons Ratio (x) = 0.16007 0.21347
# Poissons Ratio (y) = 0.20637 0.27834
# Poissons Ratio (z) = 0.37203 0.37625
#
# Static dielectric constant tensor:
#      x y z
#    x 1.984900 0.000000 -0.012130 
#    y 0.000000 1.984920 0.000000 
#    z -0.012130 0.000000 2.033620 
# 
# From -- ./inp_files/175850.got.cif
#   From: 2010.05.17/outbox.cif.g08.bks.cpg/sg12_88_cif.got.tgz:175850.got - 2010.06.03 13:09:07.
