data_PCOD9168926
_publ_section_title
;
Structure prediction by ZEFSAII (Michael W. Deem and Ramdas Pophale) SiO2 
 PCOD9168926
Probable space group: C 2/M
;
_chemical_formula_sum "Si O2"
_cell_formula_units_Z 48
_cell_length_a 18.849240
_cell_length_b 19.735388
_cell_length_c 5.450203
_cell_angle_alpha 90.000000
_cell_angle_beta 100.397454
_cell_angle_gamma 90.000000
_cell_volume 1994.167603
_symmetry_space_group_name_H-M "C 2/M"
_symmetry_group_IT_number 12
_symmetry_cell_setting 'monoclinic'
loop_
_space_group_symop_operation_xyz
x,y,z
-x,y,-z
-x,-y,-z
x,-y,z
1/2+x,1/2+y,z
1/2-x,1/2+y,-z
1/2-x,1/2-y,-z
1/2+x,1/2-y,z
loop_
_atom_site_type_symbol
_atom_site_label
_atom_site_fract_x
_atom_site_fract_y
_atom_site_fract_z
Si Si1 0.312506 0.798851 0.141422
Si Si2 0.023241 0.249049 0.761892
Si Si3 0.963300 0.402253 0.724818
Si Si4 0.143246 0.077684 0.566325
Si Si5 0.585453 0.421682 0.035664
Si Si6 0.696090 0.118459 0.358980
O O1 0.392534 0.767000 0.194019
O O2 0.297859 0.828830 0.405577
O O3 0.250000 0.750000 0.000000
O O4 0.314377 0.853164 0.923074
O O5 0.000000 0.212308 0.500000
O O6 0.976541 0.319871 0.733653
O O7 0.000000 0.214631 0.000000
O O8 0.879488 0.418323 0.647551
O O9 0.000000 0.426033 0.500000
O O10 0.000000 0.425085 0.000000
O O11 0.115778 0.111641 0.300316
O O12 0.229174 0.078887 0.605039
O O13 0.114957 0.000000 0.548220
O O14 0.114580 0.109169 0.801087
O O15 0.614310 0.500000 0.051849
O O16 0.500000 0.426821 0.000000
#
# Coordination Sequence:
#
# PCOD9168926 Si02
#       6
#     8   8   8   8   8   8
#     4  12  23  35  55  85 111 141 186 238 281 331
#     4  10  16  32  54  76  98 134 190 233 250 308
#     4  10  16  30  54  79  97 135 196 225 250 311
#     4  10  21  35  56  87 117 145 185 233 288 333
#     4   9  17  33  57  84 106 142 194 234 261 327
#     4  12  21  36  57  82 115 149 178 235 282 331
#
# _framework density 24.070194000000001
#
# number of rings (size 3 to 8) (size 9 to 14) (size 15 to 20)
#    0.000    1.500    6.667    2.000    0.000    2.000 
#    0.000    0.000    0.000   11.000    0.000    0.000 
#    0.000    0.000    0.000    0.000    0.000    0.000 
#
# Total GULP energy -134153.726955 kJ/mol
# GULP energy per Si atom -5589.738623 kJ/mol
# Density = 2.401541 g / cm^3
# Si number density = 24.070194 Si / 1000 Ang^3
#
#
#
# Elastic Constant Matrix: (Units=GPa)
#
#
# Indices 1 2 3 4 5 6 
#
# 1 152.5879 -7.9659 66.4564 0.0000 7.1657 0.0000
# 2 -7.9659 59.3126 6.2055 0.0000 -2.5223 0.0000
# 3 66.4564 6.2055 233.5183 0.0000 -10.1442 0.0000
# 4 0.0000 0.0000 0.0000 11.8105 0.0000 -0.8804
# 5 7.1657 -2.5223 -10.1442 0.0000 52.0318 0.0000
# 6 0.0000 0.0000 0.0000 -0.8804 0.0000 15.2397
#
#
#
# Elastic Compliance Matrix: (Units=1/GPa)
#
#
# Indices 1 2 3 4 5 6 
#
# 1 0.007677 0.001208 -0.002280 0.000000 -0.001443 0.000000
# 2 0.001208 0.017125 -0.000777 0.000000 0.000512 0.000000
# 3 -0.002280 -0.000777 0.005006 0.000000 0.001252 0.000000
# 4 0.000000 0.000000 0.000000 0.085037 0.000000 0.004912
# 5 -0.001443 0.000512 0.001252 0.000000 0.019687 0.000000
# 6 0.000000 0.000000 0.000000 0.004912 0.000000 0.065902
#
#
# Mechanical properties :
#
#
# Convention : Reuss Voigt Hill
#
# Bulk Modulus (GPa) = 38.29608 63.86787 51.08198
# Shear Modulus (GPa) = 23.49247 41.19792 32.34519
#
# Velocity S-wave (km/s) = 3.12749 4.14161 3.66975
# Velocity P-wave (km/s) = 5.38389 7.03293 6.26292
#
# Compressibility (1/GPa) = 0.02611233
#
# Stress axis : x y z
#
# Youngs Moduli (GPa) = 130.25394 58.39373 199.75532
#
# Poissons Ratio (x) = -0.07055 0.45538
# Poissons Ratio (y) = -0.15738 0.15514
# Poissons Ratio (z) = 0.29694 0.04535
#
# Static dielectric constant tensor:
#      x y z
#    x 2.034060 0.000000 -0.053260 
#    y 0.000000 1.981800 0.000000 
#    z -0.053260 0.000000 1.992980 
# 
# From -- ./inp_files/16946.got.cif
#   From: 2010.05.17/outbox.cif.g08.bks.cpg/sg12_9_cif.got.tgz:16946.got - 2010.06.03 13:09:07.
