data_PCOD9168739
_publ_section_title
;
Structure prediction by ZEFSAII (Michael W. Deem and Ramdas Pophale) SiO2 
 PCOD9168739
Probable space group: C 2/M
;
_chemical_formula_sum "Si O2"
_cell_formula_units_Z 64
_cell_length_a 23.758747
_cell_length_b 16.394876
_cell_length_c 17.149128
_cell_angle_alpha 90.000000
_cell_angle_beta 30.713633
_cell_angle_gamma 90.000000
_cell_volume 3411.771668
_symmetry_space_group_name_H-M "C 2/M"
_symmetry_group_IT_number 12
_symmetry_cell_setting 'monoclinic'
loop_
_space_group_symop_operation_xyz
x,y,z
-x,y,-z
-x,-y,-z
x,-y,z
1/2+x,1/2+y,z
1/2-x,1/2+y,-z
1/2-x,1/2-y,-z
1/2+x,1/2-y,z
loop_
_atom_site_type_symbol
_atom_site_label
_atom_site_fract_x
_atom_site_fract_y
_atom_site_fract_z
Si Si1 0.300671 0.774059 0.630903
Si Si2 0.339399 0.905169 0.954865
Si Si3 0.911489 0.241798 0.213462
Si Si4 0.344235 0.912074 0.343659
Si Si5 0.447297 0.907578 0.393364
Si Si6 0.154828 0.243177 0.948919
Si Si7 0.364810 0.592647 0.910358
Si Si8 0.608895 0.350051 0.599694
O O1 0.189048 0.796245 0.715097
O O2 0.388189 0.846445 0.521699
O O3 0.256072 0.754208 0.769135
O O4 0.358180 0.699728 0.516539
O O5 0.426939 0.890147 0.780676
O O6 0.359287 0.000000 0.957912
O O7 0.355528 0.830616 0.995410
O O8 0.217654 0.901346 0.064181
O O9 0.890510 0.338333 0.238057
O O10 0.898471 0.212714 0.318750
O O11 0.038771 0.227021 0.042398
O O12 0.384081 0.901962 0.385206
O O13 0.212526 0.906426 0.496185
O O14 0.382834 0.000000 0.270056
O O15 0.439700 0.000000 0.430540
O O16 0.164667 0.166892 0.996325
O O17 0.352823 0.500000 0.957062
O O18 0.491697 0.606397 0.735076
#
# Coordination Sequence:
#
# PCOD9168739 Si02
#       8
#     8   8   8   8   8   8   8   8
#     4  11  20  34  52  85 118 147 173 223 288 333
#     4  10  21  41  63  81 102 144 197 235 269 319
#     4  10  18  34  51  76 111 151 186 213 259 330
#     4  10  16  27  53  80 102 132 182 232 265 306
#     4  10  18  32  57  82 105 138 186 231 269 321
#     4  11  22  35  57  83 117 146 180 227 282 335
#     4  10  22  40  61  80 107 147 192 231 267 327
#     4  10  18  34  55  77 109 146 189 220 261 321
#
# _framework density 18.758582000000001
#
# number of rings (size 3 to 8) (size 9 to 14) (size 15 to 20)
#    0.000    1.750    3.750    2.625    0.000    0.500 
#    0.000    5.625    0.000    9.750    0.000    0.000 
#    0.000    0.000    0.000    0.000    0.000    0.000 
#
# Total GULP energy -178409.638166 kJ/mol
# GULP energy per Si atom -5575.301193 kJ/mol
# Density = 1.871589 g / cm^3
# Si number density = 18.758582 Si / 1000 Ang^3
#
#
#
# Elastic Constant Matrix: (Units=GPa)
#
#
# Indices 1 2 3 4 5 6 
#
# 1 30.8380 11.0463 15.3224 0.0000 -17.0193 0.0000
# 2 11.0463 86.3284 20.0434 0.0000 5.7162 0.0000
# 3 15.3224 20.0434 74.7378 0.0000 -1.2923 0.0000
# 4 0.0000 0.0000 0.0000 18.9613 0.0000 -4.6262
# 5 -17.0193 5.7162 -1.2923 0.0000 32.9562 0.0000
# 6 0.0000 0.0000 0.0000 -4.6262 0.0000 11.0807
#
#
#
# Elastic Compliance Matrix: (Units=1/GPa)
#
#
# Indices 1 2 3 4 5 6 
#
# 1 0.055818 -0.007007 -0.009051 0.000000 0.029686 0.000000
# 2 -0.007007 0.013405 -0.002263 0.000000 -0.006032 0.000000
# 3 -0.009051 -0.002263 0.015779 0.000000 -0.003663 0.000000
# 4 0.000000 0.000000 0.000000 0.058720 0.000000 0.024516
# 5 0.029686 -0.006032 -0.003663 0.000000 0.046577 0.000000
# 6 0.000000 0.000000 0.000000 0.024516 0.000000 0.100482
#
#
# Mechanical properties :
#
#
# Convention : Reuss Voigt Hill
#
# Bulk Modulus (GPa) = 20.67768 31.63648 26.15708
# Shear Modulus (GPa) = 14.55421 22.29911 18.42666
#
# Velocity S-wave (km/s) = 2.78847 3.45155 3.13758
# Velocity P-wave (km/s) = 4.62757 5.72590 5.20578
#
# Compressibility (1/GPa) = 0.04836133
#
# Stress axis : x y z
#
# Youngs Moduli (GPa) = 17.91528 74.59899 63.37434
#
# Poissons Ratio (x) = 0.52268 0.57362
# Poissons Ratio (y) = 0.12552 0.14341
# Poissons Ratio (z) = 0.16216 0.16881
#
# Static dielectric constant tensor:
#      x y z
#    x 1.653190 0.000000 -0.017050 
#    y 0.000000 1.668800 0.000000 
#    z -0.017050 0.000000 1.650650 
# 
# From -- ./inp_files/290087.got.cif
#   From: 2010.05.17/outbox.cif.g08.bks.cpg/sg12_146_cif.got.tgz:290087.got - 2010.06.03 13:09:07.
