data_PCOD9168801
_publ_section_title
;
Structure prediction by ZEFSAII (Michael W. Deem and Ramdas Pophale) SiO2 
 PCOD9168801
Probable space group: C 2/M
;
_chemical_formula_sum "Si O2"
_cell_formula_units_Z 44
_cell_length_a 16.786016
_cell_length_b 16.074467
_cell_length_c 8.467107
_cell_angle_alpha 90.000000
_cell_angle_beta 124.405187
_cell_angle_gamma 90.000000
_cell_volume 1884.976893
_symmetry_space_group_name_H-M "C 2/M"
_symmetry_group_IT_number 12
_symmetry_cell_setting 'monoclinic'
loop_
_space_group_symop_operation_xyz
x,y,z
-x,y,-z
-x,-y,-z
x,-y,z
1/2+x,1/2+y,z
1/2-x,1/2+y,-z
1/2-x,1/2-y,-z
1/2+x,1/2-y,z
loop_
_atom_site_type_symbol
_atom_site_label
_atom_site_fract_x
_atom_site_fract_y
_atom_site_fract_z
Si Si1 0.865061 0.654656 0.082205
Si Si2 0.180706 0.848310 0.029265
Si Si3 0.802421 0.590123 0.677799
Si Si4 0.392882 0.368722 0.400453
Si Si5 0.500000 0.342164 0.000000
Si Si6 0.429701 0.783196 0.645628
O O1 0.832845 0.747661 0.984865
O O2 0.975533 0.659502 0.259161
O O3 0.794022 0.631637 0.147842
O O4 0.849493 0.601414 0.905643
O O5 0.150224 0.874516 0.820381
O O6 0.099098 0.885157 0.052961
O O7 0.829339 0.500000 0.644521
O O8 0.687005 0.594910 0.572593
O O9 0.841395 0.663868 0.612928
O O10 0.500000 0.403647 0.500000
O O11 0.404094 0.272772 0.467101
O O12 0.536700 0.284794 0.185493
#
# Coordination Sequence:
#
# PCOD9168801 Si02
#       6
#     8   8   8   8   4   8
#     4   9  17  31  54  78 109 145 184 232 284 322
#     4   9  17  31  51  85 116 132 184 241 293 328
#     4  11  23  37  54  85 124 156 189 228 284 357
#     4  11  21  35  59  86 116 150 190 248 287 331
#     4  10  16  28  55  86 109 132 182 242 290 314
#     4  11  19  34  56  90 110 143 199 239 291 322
#
# _framework density 23.342461
#
# number of rings (size 3 to 8) (size 9 to 14) (size 15 to 20)
#    0.000    1.818    7.273    0.545    0.000    1.818 
#    0.000    0.000    0.000    1.636    0.000   10.818 
#    0.000    0.000    0.000    0.000    0.000    0.000 
#
# Total GULP energy -122775.310454 kJ/mol
# GULP energy per Si atom -5580.695930 kJ/mol
# Density = 2.328933 g / cm^3
# Si number density = 23.342461 Si / 1000 Ang^3
#
#
#
# Elastic Constant Matrix: (Units=GPa)
#
#
# Indices 1 2 3 4 5 6 
#
# 1 186.4265 13.9746 15.6432 0.0000 19.4541 0.0000
# 2 13.9746 46.0169 -7.1125 0.0000 8.0886 0.0000
# 3 15.6432 -7.1125 26.9430 0.0000 14.6232 0.0000
# 4 0.0000 0.0000 0.0000 -1.0710 0.0000 -3.5682
# 5 19.4541 8.0886 14.6232 0.0000 29.9984 0.0000
# 6 0.0000 0.0000 0.0000 -3.5682 0.0000 -4.1497
#
#
#
# Elastic Compliance Matrix: (Units=1/GPa)
#
#
# Indices 1 2 3 4 5 6 
#
# 1 0.005954 -0.001923 -0.002924 0.000000 -0.001917 0.000000
# 2 -0.001923 0.027169 0.015756 0.000000 -0.013759 0.000000
# 3 -0.002924 0.015756 0.060168 0.000000 -0.031682 0.000000
# 4 0.000000 0.000000 0.000000 0.500710 0.000000 -0.430544
# 5 -0.001917 -0.013759 -0.031682 0.000000 0.053732 0.000000
# 6 0.000000 0.000000 0.000000 -0.430544 0.000000 0.129231
#
#
# Mechanical properties :
#
#
# Convention : Reuss Voigt Hill
#
# Bulk Modulus (GPa) = 8.68737 33.82189 21.25463
# Shear Modulus (GPa) = 6.30109 20.74761 13.52435
#
# Velocity S-wave (km/s) = 1.64477 2.98457 2.40966
# Velocity P-wave (km/s) = 2.70865 5.13787 4.10698
#
# Compressibility (1/GPa) = 0.11510962
#
# Stress axis : x y z
#
# Youngs Moduli (GPa) = 167.96595 36.80671 16.62025
#
# Poissons Ratio (x) = 0.07078 0.04859
# Poissons Ratio (y) = 0.32298 -0.26187
# Poissons Ratio (z) = 0.49108 -0.57994
#
# Static dielectric constant tensor:
#      x y z
#    x 2.001770 0.000000 0.050120 
#    y 0.000000 1.873800 0.000000 
#    z 0.050120 0.000000 1.914780 
# 
# From -- ./inp_files/76117.got.cif
#   From: 2010.05.17/outbox.cif.g08.bks.cpg/sg12_39_cif.got.tgz:76117.got - 2010.06.03 13:09:07.
