data_PCOD9168980
_publ_section_title
;
Structure prediction by ZEFSAII (Michael W. Deem and Ramdas Pophale) SiO2 
 PCOD9168980
Probable space group: C 2/M
;
_chemical_formula_sum "Si O2"
_cell_formula_units_Z 56
_cell_length_a 13.235089
_cell_length_b 20.005187
_cell_length_c 18.549156
_cell_angle_alpha 90.000000
_cell_angle_beta 140.235071
_cell_angle_gamma 90.000000
_cell_volume 3141.440085
_symmetry_space_group_name_H-M "C 2/M"
_symmetry_group_IT_number 12
_symmetry_cell_setting 'monoclinic'
loop_
_space_group_symop_operation_xyz
x,y,z
-x,y,-z
-x,-y,-z
x,-y,z
1/2+x,1/2+y,z
1/2-x,1/2+y,-z
1/2-x,1/2-y,-z
1/2+x,1/2-y,z
loop_
_atom_site_type_symbol
_atom_site_label
_atom_site_fract_x
_atom_site_fract_y
_atom_site_fract_z
Si Si1 0.269849 0.177430 0.546544
Si Si2 0.397374 0.225446 0.268055
Si Si3 0.207599 0.162697 0.678901
Si Si4 0.055407 0.831262 0.102581
Si Si5 0.962974 0.678293 0.061120
Si Si6 0.110276 0.845591 0.848119
Si Si7 0.990756 0.077733 0.646755
O O1 0.250000 0.250000 0.500000
O O2 0.459294 0.173818 0.650668
O O3 0.212363 0.176831 0.597400
O O4 0.167583 0.122302 0.448863
O O5 0.381880 0.278442 0.325668
O O6 0.235262 0.186297 0.185991
O O7 0.408894 0.273242 0.203249
O O8 0.388002 0.159262 0.807557
O O9 0.108571 0.097513 0.646124
O O10 0.965605 0.759122 0.058720
O O11 0.015723 0.860102 0.158573
O O12 0.000000 0.868064 0.000000
O O13 0.785748 0.654085 0.978737
O O14 0.000000 0.655032 0.000000
O O15 0.082957 0.897833 0.768862
O O16 0.955782 0.000000 0.628912
#
# Coordination Sequence:
#
# PCOD9168980 Si02
#       7
#     8   8   8   8   8   8   8
#     4  12  23  36  58  89 121 160 202 257 301 350
#     4  10  19  32  51  87 118 151 190 248 296 351
#     4  10  21  35  57  89 125 154 198 244 302 353
#     4  10  19  28  52  88 123 155 181 239 312 356
#     4  10  16  31  54  89 126 150 182 241 305 365
#     4  11  19  35  56  84 126 156 194 241 301 368
#     4  11  25  43  61  83 119 167 207 245 302 365
#
# _framework density 17.826218999999998
#
# number of rings (size 3 to 8) (size 9 to 14) (size 15 to 20)
#    0.000    1.429    8.571    2.571    2.000    1.143 
#    0.000    1.429    0.000    2.143    0.000    0.000 
#    0.000    0.000    0.000    0.000    0.000    0.000 
#
# Total GULP energy -156055.435844 kJ/mol
# GULP energy per Si atom -5573.408423 kJ/mol
# Density = 1.778565 g / cm^3
# Si number density = 17.826219 Si / 1000 Ang^3
#
#
#
# Elastic Constant Matrix: (Units=GPa)
#
#
# Indices 1 2 3 4 5 6 
#
# 1 96.7273 22.4303 40.6543 0.0003 -4.5701 0.0001
# 2 22.4303 69.6366 36.8851 0.0002 9.6017 0.0001
# 3 40.6543 36.8851 89.6905 0.0005 7.6056 0.0003
# 4 0.0003 0.0002 0.0005 9.9717 0.0002 3.4847
# 5 -4.5701 9.6017 7.6056 0.0002 33.1784 0.0001
# 6 0.0001 0.0001 0.0003 3.4847 0.0001 12.7454
#
#
#
# Elastic Compliance Matrix: (Units=1/GPa)
#
#
# Indices 1 2 3 4 5 6 
#
# 1 0.013277 -0.001824 -0.005576 0.000000 0.003635 0.000000
# 2 -0.001824 0.019055 -0.006650 0.000000 -0.004241 0.000000
# 3 -0.005576 -0.006650 0.016637 -0.000001 -0.002657 0.000000
# 4 0.000000 0.000000 -0.000001 0.110877 -0.000001 -0.030315
# 5 0.003635 -0.004241 -0.002657 -0.000001 0.032477 0.000000
# 6 0.000000 0.000000 0.000000 -0.030315 0.000000 0.086748
#
#
# Mechanical properties :
#
#
# Convention : Reuss Voigt Hill
#
# Bulk Modulus (GPa) = 47.91886 50.66597 49.29242
# Shear Modulus (GPa) = 15.91711 21.58475 18.75093
#
# Velocity S-wave (km/s) = 2.99139 3.48349 3.24678
# Velocity P-wave (km/s) = 6.23464 6.68307 6.46275
#
# Compressibility (1/GPa) = 0.02086861
#
# Stress axis : x y z
#
# Youngs Moduli (GPa) = 75.32007 52.47990 60.10712
#
# Poissons Ratio (x) = 0.09573 0.33516
# Poissons Ratio (y) = 0.13740 0.39970
# Poissons Ratio (z) = 0.41998 0.34898
#
# Static dielectric constant tensor:
#      x y z
#    x 1.650280 0.000000 0.010900 
#    y 0.000000 1.593660 0.000000 
#    z 0.010900 0.000000 1.706600 
# 
# From -- ./inp_files/264319.got.cif
#   From: 2010.05.17/outbox.cif.g08.bks.cpg/sg12_133_cif.got.tgz:264319.got - 2010.06.03 13:09:07.
