data_PCOD9168404
_publ_section_title
;
Structure prediction by ZEFSAII (Michael W. Deem and Ramdas Pophale) SiO2 
 PCOD9168404
Probable space group: C 2/M
;
_chemical_formula_sum "Si O2"
_cell_formula_units_Z 64
_cell_length_a 15.442370
_cell_length_b 32.034995
_cell_length_c 11.616317
_cell_angle_alpha 90.000000
_cell_angle_beta 27.158915
_cell_angle_gamma 90.000000
_cell_volume 2623.069700
_symmetry_space_group_name_H-M "C 2/M"
_symmetry_group_IT_number 12
_symmetry_cell_setting 'monoclinic'
loop_
_space_group_symop_operation_xyz
x,y,z
-x,y,-z
-x,-y,-z
x,-y,z
1/2+x,1/2+y,z
1/2-x,1/2+y,-z
1/2-x,1/2-y,-z
1/2+x,1/2-y,z
loop_
_atom_site_type_symbol
_atom_site_label
_atom_site_fract_x
_atom_site_fract_y
_atom_site_fract_z
Si Si1 0.834429 0.839710 0.600596
Si Si2 0.651715 0.566116 0.472263
Si Si3 0.715569 0.627891 0.845868
Si Si4 0.066873 0.794350 0.139398
Si Si5 0.989428 0.044286 0.875928
Si Si6 0.039686 0.620907 0.651968
Si Si7 0.586062 0.799250 0.085968
Si Si8 0.295992 0.952672 0.060678
O O1 0.800362 0.885028 0.587613
O O2 0.676502 0.817524 0.863204
O O3 0.000000 0.847381 0.500000
O O4 0.906814 0.809730 0.415735
O O5 0.670617 0.547373 0.577512
O O6 0.426320 0.557468 0.710920
O O7 0.777881 0.548252 0.220615
O O8 0.892731 0.630436 0.722431
O O9 0.770782 0.616061 0.649323
O O10 0.606981 0.671231 0.994114
O O11 0.609674 0.588285 0.023946
O O12 0.252286 0.795162 0.004818
O O13 0.022050 0.748266 0.147302
O O14 0.892714 0.000000 0.958494
O O15 0.000000 0.041835 0.000000
O O16 0.050534 0.663832 0.710061
O O17 0.936632 0.583271 0.844482
O O18 0.346848 0.000000 0.965957
#
# Coordination Sequence:
#
# PCOD9168404 Si02
#       8
#     8   8   8   8   8   8   8   8
#     4  10  15  26  46  68 102 134 164 207 253 300
#     4  11  17  32  50  76 102 128 171 215 260 304
#     4  10  20  33  49  72 106 141 172 209 260 315
#     4   9  17  27  43  68 104 141 171 202 241 311
#     4  11  23  38  55  74 101 139 183 224 258 304
#     4  10  19  31  47  75 112 138 161 207 265 329
#     4   9  17  27  41  71 105 138 166 196 255 316
#     4  11  19  28  49  77 104 133 161 210 267 317
#
# _framework density 24.398893999999999
#
# number of rings (size 3 to 8) (size 9 to 14) (size 15 to 20)
#    0.000    1.875    5.000    2.250    1.750    0.500 
#    0.000    1.250    0.000    0.750    0.000    6.125 
#    0.000    0.000    0.000    0.000    0.000    0.000 
#
# Total GULP energy -178639.643065 kJ/mol
# GULP energy per Si atom -5582.488846 kJ/mol
# Density = 2.434336 g / cm^3
# Si number density = 24.398894 Si / 1000 Ang^3
#
#
#
# Elastic Constant Matrix: (Units=GPa)
#
#
# Indices 1 2 3 4 5 6 
#
# 1 72.2264 24.6771 40.9773 0.0018 10.4030 0.0006
# 2 24.6771 244.1773 82.9160 0.0001 29.9452 0.0000
# 3 40.9773 82.9160 134.5938 0.0005 59.9726 0.0002
# 4 0.0018 0.0001 0.0005 -473.0365 -0.0019 -138.7661
# 5 10.4030 29.9452 59.9726 -0.0019 49.8899 -0.0006
# 6 0.0006 0.0000 0.0002 -138.7661 -0.0006 -26.1865
#
#
#
# Elastic Compliance Matrix: (Units=1/GPa)
#
#
# Indices 1 2 3 4 5 6 
#
# 1 0.017531 0.000270 -0.008189 0.000000 0.006026 0.000000
# 2 0.000270 0.005240 -0.004057 0.000000 0.001675 0.000000
# 3 -0.008189 -0.004057 0.022775 0.000000 -0.023236 0.000000
# 4 0.000000 0.000000 0.000000 0.003812 0.000000 -0.020202
# 5 0.006026 0.001675 -0.023236 0.000000 0.045714 0.000000
# 6 0.000000 0.000000 0.000000 -0.020202 0.000000 0.068867
#
#
# Mechanical properties :
#
#
# Convention : Reuss Voigt Hill
#
# Bulk Modulus (GPa) = 46.30589 83.12648 64.71619
# Shear Modulus (GPa) = 25.62925 -69.70481 -22.03778
#
# Velocity S-wave (km/s) = 3.24454 -5.35078 -3.00864
# Velocity P-wave (km/s) = 5.74943 2.00767 3.80954
#
# Compressibility (1/GPa) = 0.02159552
#
# Stress axis : x y z
#
# Youngs Moduli (GPa) = 57.04177 190.83028 43.90688
#
# Poissons Ratio (x) = -0.05151 0.35954
# Poissons Ratio (y) = -0.01540 0.17812
# Poissons Ratio (z) = 0.46710 0.77416
#
# Static dielectric constant tensor:
#      x y z
#    x 2.067540 0.000000 -0.031240 
#    y 0.000000 1.892650 0.000000 
#    z -0.031240 0.000000 1.933240 
# 
# From -- ./inp_files/161194.got.cif
#   From: 2010.05.17/outbox.cif.g08.bks.cpg/sg12_81_cif.got.tgz:161194.got - 2010.06.03 13:09:07.
