data_PCOD9168605
_publ_section_title
;
Structure prediction by ZEFSAII (Michael W. Deem and Ramdas Pophale) SiO2 
 PCOD9168605
Probable space group: C 2/M
;
_chemical_formula_sum "Si O2"
_cell_formula_units_Z 48
_cell_length_a 14.617350
_cell_length_b 22.707892
_cell_length_c 7.131709
_cell_angle_alpha 90.000000
_cell_angle_beta 60.601966
_cell_angle_gamma 90.000000
_cell_volume 2062.396809
_symmetry_space_group_name_H-M "C 2/M"
_symmetry_group_IT_number 12
_symmetry_cell_setting 'monoclinic'
loop_
_space_group_symop_operation_xyz
x,y,z
-x,y,-z
-x,-y,-z
x,-y,z
1/2+x,1/2+y,z
1/2-x,1/2+y,-z
1/2-x,1/2-y,-z
1/2+x,1/2-y,z
loop_
_atom_site_type_symbol
_atom_site_label
_atom_site_fract_x
_atom_site_fract_y
_atom_site_fract_z
Si Si1 0.190212 0.123639 0.986866
Si Si2 0.364597 0.500000 0.462418
Si Si3 0.171542 0.870328 0.457157
Si Si4 0.984330 0.204470 0.779266
Si Si5 0.883107 0.316028 0.274691
Si Si6 0.909280 0.325712 0.800249
Si Si7 0.599736 0.500000 0.119679
O O1 0.180827 0.128787 0.223003
O O2 0.100963 0.169357 0.012282
O O3 0.308533 0.142050 0.818221
O O4 0.153801 0.057839 0.981961
O O5 0.311906 0.436657 0.484996
O O6 0.473984 0.500000 0.239461
O O7 0.382951 0.500000 0.670716
O O8 0.264262 0.829609 0.442458
O O9 0.056214 0.846088 0.617255
O O10 0.072517 0.250269 0.760079
O O11 0.913424 0.255480 0.743418
O O12 0.892709 0.330482 0.043792
O O13 0.968929 0.347075 0.326869
#
# Coordination Sequence:
#
# PCOD9168605 Si02
#       7
#     8   4   8   8   8   8   4
#     4  10  17  27  42  63  87 109 136 166 199 244
#     4   9  16  26  39  59  85 111 133 162 200 241
#     4  10  17  27  42  63  87 109 136 166 199 244
#     4  10  16  25  43  61  82 110 137 168 204 240
#     4   8  17  29  40  58  85 112 137 166 203 241
#     4   8  17  29  40  58  85 112 137 166 203 241
#     4   9  16  26  39  59  85 111 133 162 200 241
#
# _framework density 23.273893000000001
#
# number of rings (size 3 to 8) (size 9 to 14) (size 15 to 20)
#    1.000    1.833    1.667    1.500    0.000    0.000 
#    0.000    0.833    0.000    5.000    0.000    9.333 
#    0.000    0.000    0.000   16.000    0.000    0.667 
#
# Total GULP energy -133663.981887 kJ/mol
# GULP energy per Si atom -5569.332579 kJ/mol
# Density = 2.322092 g / cm^3
# Si number density = 23.273893 Si / 1000 Ang^3
#
#
#
# Elastic Constant Matrix: (Units=GPa)
#
#
# Indices 1 2 3 4 5 6 
#
# 1 122.9641 67.1828 46.3874 0.0000 -32.2461 0.0000
# 2 67.1828 144.3293 16.4193 0.0000 -37.6137 0.0000
# 3 46.3874 16.4193 81.9113 0.0000 -15.5966 0.0000
# 4 0.0000 0.0000 0.0000 19.3173 0.0000 -9.0439
# 5 -32.2461 -37.6137 -15.5966 0.0000 56.3706 0.0000
# 6 0.0000 0.0000 0.0000 -9.0439 0.0000 14.8862
#
#
#
# Elastic Compliance Matrix: (Units=1/GPa)
#
#
# Indices 1 2 3 4 5 6 
#
# 1 0.014078 -0.005069 -0.006405 0.000000 0.002899 0.000000
# 2 -0.005069 0.010245 0.001654 0.000000 0.004394 0.000000
# 3 -0.006405 0.001654 0.015851 0.000000 0.001826 0.000000
# 4 0.000000 0.000000 0.000000 0.072344 0.000000 0.043951
# 5 0.002899 0.004394 0.001826 0.000000 0.022835 0.000000
# 6 0.000000 0.000000 0.000000 0.043951 0.000000 0.093878
#
#
# Mechanical properties :
#
#
# Convention : Reuss Voigt Hill
#
# Bulk Modulus (GPa) = 48.69777 67.68707 58.19242
# Shear Modulus (GPa) = 19.55283 32.72916 26.14100
#
# Velocity S-wave (km/s) = 2.90162 3.75408 3.35504
# Velocity P-wave (km/s) = 5.67407 6.92364 6.32977
#
# Compressibility (1/GPa) = 0.02053482
#
# Stress axis : x y z
#
# Youngs Moduli (GPa) = 71.03108 97.60681 63.08564
#
# Poissons Ratio (x) = 0.49478 0.40404
# Poissons Ratio (y) = 0.36007 -0.10432
# Poissons Ratio (z) = 0.45493 -0.16141
#
# Static dielectric constant tensor:
#      x y z
#    x 2.028420 0.000000 0.126050 
#    y 0.000000 1.848760 0.000000 
#    z 0.126050 0.000000 1.974080 
# 
# From -- ./inp_files/158599.got.cif
#   From: 2010.05.17/outbox.cif.g08.bks.cpg/sg12_80_cif.got.tgz:158599.got - 2010.06.03 13:09:07.
