data_PCOD9168044
_publ_section_title
;
Structure prediction by ZEFSAII (Michael W. Deem and Ramdas Pophale) SiO2 
 PCOD9168044
Probable space group: P 21/M
;
_chemical_formula_sum "Si O2"
_cell_formula_units_Z 32
_cell_length_a 15.000000
_cell_length_b 18.000000
_cell_length_c 12.000000
_cell_angle_alpha 90.000000
_cell_angle_beta 150.000000
_cell_angle_gamma 90.000000
_cell_volume 1620.000000
_symmetry_space_group_name_H-M "P 21/M"
_symmetry_group_IT_number 11
_symmetry_cell_setting 'monoclinic'
loop_
_space_group_symop_operation_xyz
x,y,z
-x,1/2+y,-z
-x,-y,-z
x,1/2-y,z
loop_
_atom_site_type_symbol
_atom_site_label
_atom_site_fract_x
_atom_site_fract_y
_atom_site_fract_z
Si Si1 0.375756 0.404640 0.772860
Si Si2 0.579301 0.422904 0.222690
Si Si3 0.335604 0.337450 0.122613
Si Si4 0.928209 0.084964 0.928857
Si Si5 0.440717 0.662782 0.430758
Si Si6 0.645620 0.333620 0.909106
Si Si7 0.032338 0.907362 0.283784
Si Si8 0.993024 0.913850 0.738676
O O1 0.409975 0.487719 0.761012
O O2 0.507322 0.348171 0.855851
O O3 0.171255 0.388908 0.517274
O O4 0.447404 0.406232 0.976658
O O5 0.488040 0.384879 0.228565
O O6 0.785273 0.394271 0.449438
O O7 0.352175 0.250000 0.117804
O O8 0.382837 0.349255 0.304734
O O9 0.146977 0.366541 0.873935
O O10 0.717805 0.104148 0.715880
O O11 0.957386 0.115741 0.835825
O O12 0.015468 0.113013 0.140293
O O13 0.000000 0.000000 0.000000
O O14 0.384105 0.750000 0.391027
O O15 0.462972 0.655442 0.323128
O O16 0.715514 0.250000 0.984840
O O17 0.816078 0.386737 0.098516
O O18 0.005699 0.996417 0.258632
#
# Coordination Sequence:
#
# PCOD9168044 Si02
#       8
#     4   4   4   4   4   4   4   4
#     4  10  22  39  64  83 109 157 197 233 286 340
#     4  10  22  42  59  83 117 150 195 244 279 334
#     4  11  23  37  58  87 118 156 193 233 291 349
#     4   9  17  33  56  86 114 144 190 238 285 335
#     4   9  19  36  55  82 123 156 183 233 293 345
#     4  10  21  38  58  85 117 149 188 235 288 344
#     4  10  20  36  58  84 115 149 193 235 286 342
#     4   9  20  37  56  86 115 146 188 239 289 334
#
# _framework density 19.753086
#
# number of rings (size 3 to 8) (size 9 to 14) (size 15 to 20)
#    0.000    2.250    1.250    0.750    1.750    3.000 
#    0.000    7.500    0.000    0.000    0.000    0.000 
#    0.000    0.000    0.000    0.000    0.000    0.000 
#
# Total GULP energy -178157.780257 kJ/mol
# GULP energy per Si atom -5567.430633 kJ/mol
# Density = 1.970813 g / cm^3
# Si number density = 19.753086 Si / 1000 Ang^3
#
#
#
# Elastic Constant Matrix: (Units=GPa)
#
#
# Indices 1 2 3 4 5 6 
#
# 1 -2.1308 3.0376 -11.3098 0.0000 -4.2342 0.0000
# 2 3.0376 -14.4049 9.3072 0.0000 -18.1559 0.0000
# 3 -11.3098 9.3072 129.4375 0.0000 -12.9717 0.0000
# 4 0.0000 0.0000 0.0000 -17.4518 0.0000 -12.0128
# 5 -4.2342 -18.1559 -12.9717 0.0000 14.7048 0.0000
# 6 0.0000 0.0000 0.0000 -12.0128 0.0000 14.7792
#
#
#
# Elastic Compliance Matrix: (Units=1/GPa)
#
#
# Indices 1 2 3 4 5 6 
#
# 1 -0.199243 0.016312 -0.024477 0.000000 -0.058824 0.000000
# 2 0.016312 -0.028215 0.000476 0.000000 -0.029720 0.000000
# 3 -0.024477 0.000476 0.005381 0.000000 -0.001714 0.000000
# 4 0.000000 0.000000 0.000000 -0.036743 0.000000 -0.029865
# 5 -0.058824 -0.029720 -0.001714 0.000000 0.012860 0.000000
# 6 0.000000 0.000000 0.000000 -0.029865 0.000000 0.043387
#
#
# Mechanical properties :
#
#
# Convention : Reuss Voigt Hill
#
# Bulk Modulus (GPa) = -4.21129 12.77465 4.28168
# Shear Modulus (GPa) = -18.77261 9.86422 -4.45420
#
# Velocity S-wave (km/s) = -3.08614 2.23710 -1.50327
# Velocity P-wave (km/s) = 3.85170 3.62685 0.91696
#
# Compressibility (1/GPa) = -0.23745674
#
# Stress axis : x y z
#
# Youngs Moduli (GPa) = -5.01899 -35.44243 185.83784
#
# Poissons Ratio (x) = 0.57813 4.54878
# Poissons Ratio (y) = 0.08187 -0.08839
# Poissons Ratio (z) = -0.12285 0.01686
#
# Static dielectric constant tensor:
#      x y z
#    x 1.737750 0.000000 -0.019470 
#    y 0.000000 1.683590 0.000000 
#    z -0.019470 0.000000 1.682790 
# 
# From -- ./inp_files/40007.got.cif
#   From: 2010.05.17/outbox.ucp.g08.bks.cvg/sg11_21_cif.got.tgz:40007.got - 2010.06.11 11:38:39.
