data_PCOD9168575
_publ_section_title
;
Structure prediction by ZEFSAII (Michael W. Deem and Ramdas Pophale) SiO2 
 PCOD9168575
Probable space group: C 2/M
;
_chemical_formula_sum "Si O2"
_cell_formula_units_Z 58
_cell_length_a 5.303138
_cell_length_b 22.464598
_cell_length_c 28.776052
_cell_angle_alpha 90.000000
_cell_angle_beta 112.220171
_cell_angle_gamma 90.000000
_cell_volume 3173.588766
_symmetry_space_group_name_H-M "C 2/M"
_symmetry_group_IT_number 12
_symmetry_cell_setting 'monoclinic'
loop_
_space_group_symop_operation_xyz
x,y,z
-x,y,-z
-x,-y,-z
x,-y,z
1/2+x,1/2+y,z
1/2-x,1/2+y,-z
1/2-x,1/2-y,-z
1/2+x,1/2-y,z
loop_
_atom_site_type_symbol
_atom_site_label
_atom_site_fract_x
_atom_site_fract_y
_atom_site_fract_z
Si Si1 0.299625 0.213291 0.408013
Si Si2 0.140505 0.682080 0.100749
Si Si3 0.595409 0.633364 0.312602
Si Si4 0.045179 0.789669 0.783784
Si Si5 0.946343 0.182525 0.941582
Si Si6 0.100897 0.112093 0.457852
Si Si7 0.819519 0.428680 0.648407
Si Si8 0.500000 0.000000 0.500000
O O1 0.595512 0.238240 0.416151
O O2 0.162246 0.189227 0.350968
O O3 0.286236 0.157963 0.442084
O O4 0.321052 0.686744 0.159247
O O5 0.310271 0.654015 0.070645
O O6 0.067993 0.749665 0.079030
O O7 0.846387 0.654089 0.088854
O O8 0.514535 0.658709 0.257111
O O9 0.354613 0.596336 0.320351
O O10 0.872852 0.595268 0.329917
O O11 0.268061 0.744949 0.777187
O O12 0.000000 0.184336 0.000000
O O13 0.267234 0.052030 0.477408
O O14 0.000000 0.136362 0.500000
O O15 0.839530 0.096646 0.407629
O O16 0.815829 0.500000 0.646817
#
# Coordination Sequence:
#
# PCOD9168575 Si02
#       8
#     8   8   8   8   8   8   8   2
#     4  11  24  44  62  87 124 154 190 221 275 349
#     4  10  16  26  38  64  90 137 186 238 264 308
#     4  11  24  39  63  87 109 153 190 229 289 327
#     4  12  20  34  53  75 111 145 195 241 270 316
#     4  10  16  25  38  60  95 139 197 236 266 319
#     4  11  27  41  69  94 119 151 186 236 290 341
#     4  11  24  44  65  89 115 139 181 234 287 350
#     4  12  26  44  68  98 116 148 194 242 290 332
#
# _framework density 18.275841
#
# number of rings (size 3 to 8) (size 9 to 14) (size 15 to 20)
#    0.000    1.103    3.448    6.000    5.793    0.552 
#    0.000    0.000    0.000    0.000    0.000    0.000 
#    0.000    0.000    0.000    0.000    0.000   80.000 
#
# Total GULP energy -161792.928616 kJ/mol
# GULP energy per Si atom -5579.066504 kJ/mol
# Density = 1.823424 g / cm^3
# Si number density = 18.275841 Si / 1000 Ang^3
#
#
#
# Elastic Constant Matrix: (Units=GPa)
#
#
# Indices 1 2 3 4 5 6 
#
# 1 96.0170 15.4079 1.3891 0.0000 -7.2560 0.0000
# 2 15.4079 52.6559 18.9324 0.0000 -5.4419 0.0000
# 3 1.3891 18.9324 78.5323 0.0000 -13.1991 0.0000
# 4 0.0000 0.0000 0.0000 11.2302 0.0000 6.1746
# 5 -7.2560 -5.4419 -13.1991 0.0000 23.4916 0.0000
# 6 0.0000 0.0000 0.0000 6.1746 0.0000 22.6670
#
#
#
# Elastic Compliance Matrix: (Units=1/GPa)
#
#
# Indices 1 2 3 4 5 6 
#
# 1 0.011188 -0.003350 0.001171 0.000000 0.003337 0.000000
# 2 -0.003350 0.021901 -0.005015 0.000000 0.001221 0.000000
# 3 0.001171 -0.005015 0.015225 0.000000 0.007754 0.000000
# 4 0.000000 0.000000 0.000000 0.104732 0.000000 -0.028529
# 5 0.003337 0.001221 0.007754 0.000000 0.048239 0.000000
# 6 0.000000 0.000000 0.000000 -0.028529 0.000000 0.051889
#
#
# Mechanical properties :
#
#
# Convention : Reuss Voigt Hill
#
# Bulk Modulus (GPa) = 29.47693 33.18488 31.33091
# Shear Modulus (GPa) = 17.92950 24.24281 21.08616
#
# Velocity S-wave (km/s) = 3.13557 3.64606 3.40041
# Velocity P-wave (km/s) = 5.41045 5.99351 5.70943
#
# Compressibility (1/GPa) = 0.03392484
#
# Stress axis : x y z
#
# Youngs Moduli (GPa) = 89.38459 45.66040 65.68023
#
# Poissons Ratio (x) = 0.15295 -0.07688
# Poissons Ratio (y) = 0.29940 0.32941
# Poissons Ratio (z) = -0.10463 0.22900
#
# Static dielectric constant tensor:
#      x y z
#    x 1.705370 0.000000 -0.000080 
#    y 0.000000 1.630100 0.000000 
#    z -0.000080 0.000000 1.628170 
# 
# From -- ./inp_files/355116.got.cif
#   From: 2010.05.17/outbox.cif.g08.bks.cpg/sg12_178_cif.got.tgz:355116.got - 2010.06.03 13:09:07.
