data_PCOD9168508
_publ_section_title
;
Structure prediction by ZEFSAII (Michael W. Deem and Ramdas Pophale) SiO2 
 PCOD9168508
Probable space group: C 2/M
;
_chemical_formula_sum "Si O2"
_cell_formula_units_Z 64
_cell_length_a 8.939977
_cell_length_b 15.129036
_cell_length_c 28.303111
_cell_angle_alpha 90.000000
_cell_angle_beta 129.179999
_cell_angle_gamma 90.000000
_cell_volume 2967.399562
_symmetry_space_group_name_H-M "C 2/M"
_symmetry_group_IT_number 12
_symmetry_cell_setting 'monoclinic'
loop_
_space_group_symop_operation_xyz
x,y,z
-x,y,-z
-x,-y,-z
x,-y,z
1/2+x,1/2+y,z
1/2-x,1/2+y,-z
1/2-x,1/2-y,-z
1/2+x,1/2-y,z
loop_
_atom_site_type_symbol
_atom_site_label
_atom_site_fract_x
_atom_site_fract_y
_atom_site_fract_z
Si Si1 0.907989 0.104014 0.121221
Si Si2 0.576801 0.104041 0.121222
Si Si3 0.167098 0.346825 0.244456
Si Si4 0.810543 0.653077 0.244476
Si Si5 0.064007 0.150989 0.622078
Si Si6 0.170819 0.108758 0.999979
Si Si7 0.075709 0.349043 0.377941
Si Si8 0.820022 0.650165 0.499991
O O1 0.757118 0.143577 0.128577
O O2 0.123316 0.111035 0.183845
O O3 0.868415 0.000000 0.109345
O O4 0.871536 0.139600 0.061601
O O5 0.611850 0.111186 0.183820
O O6 0.374822 0.139583 0.061552
O O7 0.568925 0.000000 0.109434
O O8 0.979519 0.341648 0.239817
O O9 0.241027 0.249931 0.245610
O O10 0.333149 0.388950 0.310962
O O11 0.910689 0.610978 0.310997
O O12 0.000449 0.250018 0.625215
O O13 0.227650 0.155592 0.613820
O O14 0.868470 0.109299 0.562604
O O15 0.170096 0.000000 0.999977
O O16 0.000000 0.137579 0.000000
O O17 0.118136 0.390718 0.437426
O O18 0.500000 0.846516 0.500000
O O19 0.750000 0.750000 0.500000
#
# Coordination Sequence:
#
# PCOD9168508 Si02
#       8
#     8   8   8   8   8   8   8   8
#     4  10  20  34  53  76 101 129 162 200 241 287
#     4  10  20  34  53  76 101 129 162 200 241 287
#     4  10  20  33  50  72 100 133 165 200 244 292
#     4  10  20  33  50  72 100 133 165 200 244 292
#     4   9  16  26  40  60  88 121 156 194 236 281
#     4   9  17  31  52  75  98 125 160 201 241 283
#     4   9  16  26  40  60  88 121 156 194 236 281
#     4  10  16  22  36  58  85 118 155 194 235 279
#
# _framework density 21.567705
#
# number of rings (size 3 to 8) (size 9 to 14) (size 15 to 20)
#    0.000    2.375    0.000    5.250    0.000    6.000 
#    0.000    0.625    0.000    0.000    0.000    0.875 
#    0.000    7.000    0.000    0.000    0.000    0.000 
#
# Total GULP energy -178475.059668 kJ/mol
# GULP energy per Si atom -5577.345615 kJ/mol
# Density = 2.151862 g / cm^3
# Si number density = 21.567705 Si / 1000 Ang^3
#
#
#
# Elastic Constant Matrix: (Units=GPa)
#
#
# Indices 1 2 3 4 5 6 
#
# 1 171.8661 7.1284 121.3261 0.0000 0.8665 0.0000
# 2 7.1284 32.9761 11.6433 0.0000 0.0503 0.0000
# 3 121.3261 11.6433 251.7005 0.0000 0.6824 0.0000
# 4 0.0000 0.0000 0.0000 61.0864 0.0000 0.7063
# 5 0.8665 0.0503 0.6824 0.0000 48.8134 0.0000
# 6 0.0000 0.0000 0.0000 0.7063 0.0000 10.0657
#
#
#
# Elastic Compliance Matrix: (Units=1/GPa)
#
#
# Indices 1 2 3 4 5 6 
#
# 1 0.008826 -0.000412 -0.004235 0.000000 -0.000097 0.000000
# 2 -0.000412 0.030848 -0.001228 0.000000 -0.000007 0.000000
# 3 -0.004235 -0.001228 0.006071 0.000000 -0.000008 0.000000
# 4 0.000000 0.000000 0.000000 0.016384 0.000000 -0.001150
# 5 -0.000097 -0.000007 -0.000008 0.000000 0.020488 0.000000
# 6 0.000000 0.000000 0.000000 -0.001150 0.000000 0.099428
#
#
# Mechanical properties :
#
#
# Convention : Reuss Voigt Hill
#
# Bulk Modulus (GPa) = 29.41723 81.85982 55.63852
# Shear Modulus (GPa) = 24.37529 45.08942 34.73236
#
# Velocity S-wave (km/s) = 3.36546 4.57727 4.01732
# Velocity P-wave (km/s) = 5.36384 8.12234 6.88270
#
# Compressibility (1/GPa) = 0.03399369
#
# Stress axis : x y z
#
# Youngs Moduli (GPa) = 113.30708 32.41721 164.71478
#
# Poissons Ratio (x) = 0.01337 0.69754
# Poissons Ratio (y) = 0.04673 0.20230
# Poissons Ratio (z) = 0.47983 0.03981
#
# Static dielectric constant tensor:
#      x y z
#    x 1.745230 0.000000 0.001490 
#    y 0.000000 1.807560 0.000000 
#    z 0.001490 0.000000 1.844420 
# 
# From -- ./inp_files/314153.got.cif
#   From: 2010.05.17/outbox.cif.g08.bks.cpg/sg12_158_cif.got.tgz:314153.got - 2010.06.03 13:09:07.
