data_PCOD9168434
_publ_section_title
;
Structure prediction by ZEFSAII (Michael W. Deem and Ramdas Pophale) SiO2 
 PCOD9168434
Probable space group: C 2/M
;
_chemical_formula_sum "Si O2"
_cell_formula_units_Z 44
_cell_length_a 11.415236
_cell_length_b 23.634258
_cell_length_c 7.927756
_cell_angle_alpha 90.000000
_cell_angle_beta 117.847113
_cell_angle_gamma 90.000000
_cell_volume 1891.151257
_symmetry_space_group_name_H-M "C 2/M"
_symmetry_group_IT_number 12
_symmetry_cell_setting 'monoclinic'
loop_
_space_group_symop_operation_xyz
x,y,z
-x,y,-z
-x,-y,-z
x,-y,z
1/2+x,1/2+y,z
1/2-x,1/2+y,-z
1/2-x,1/2-y,-z
1/2+x,1/2-y,z
loop_
_atom_site_type_symbol
_atom_site_label
_atom_site_fract_x
_atom_site_fract_y
_atom_site_fract_z
Si Si1 0.803717 0.267654 0.759631
Si Si2 0.435258 0.276787 0.180726
Si Si3 0.971820 0.500000 0.771991
Si Si4 0.860470 0.907148 0.083993
Si Si5 0.132567 0.610066 0.197593
Si Si6 0.755940 0.500000 0.235242
Si Si7 0.949349 0.000000 0.654442
O O1 0.649330 0.260562 0.708794
O O2 0.820599 0.330511 0.698342
O O3 0.904909 0.229832 0.716447
O O4 0.873668 0.262786 0.992022
O O5 0.397356 0.341052 0.100295
O O6 0.095850 0.500000 0.731570
O O7 0.901633 0.559875 0.700489
O O8 0.000000 0.500000 0.000000
O O9 0.747276 0.910998 0.150101
O O10 0.984773 0.943860 0.224686
O O11 0.803721 0.942558 0.889315
O O12 0.000000 0.620945 0.000000
O O13 0.701115 0.500000 0.387355
O O14 0.000000 0.000000 0.500000
#
# Coordination Sequence:
#
# PCOD9168434 Si02
#       7
#     8   8   4   8   8   4   4
#     4   9  17  25  38  68 119 138 159 195 265 312
#     4   9  17  26  42  69 108 137 162 203 257 315
#     4  10  16  26  48  75 110 131 158 207 268 307
#     4  10  19  33  55  78 101 133 175 216 262 311
#     4  10  15  28  47  79 114 137 156 206 275 316
#     4  11  20  31  52  81  98 127 173 219 259 315
#     4  11  26  41  48  69 108 142 178 220 262 312
#
# _framework density 23.266251
#
# number of rings (size 3 to 8) (size 9 to 14) (size 15 to 20)
#    0.000    2.182    5.455    1.636    5.091    0.000 
#    0.000    0.000    0.000    2.182    0.000    5.091 
#    0.000    0.000    0.000    0.000    0.000    0.000 
#
# Total GULP energy -122617.081810 kJ/mol
# GULP energy per Si atom -5573.503719 kJ/mol
# Density = 2.321330 g / cm^3
# Si number density = 23.266251 Si / 1000 Ang^3
#
#
#
# Elastic Constant Matrix: (Units=GPa)
#
#
# Indices 1 2 3 4 5 6 
#
# 1 261.3253 71.2720 30.1487 0.0000 -28.9102 0.0000
# 2 71.2720 134.5534 13.9419 0.0000 -2.7171 0.0000
# 3 30.1487 13.9419 39.3781 0.0000 -5.2108 0.0000
# 4 0.0000 0.0000 0.0000 0.4918 0.0000 -7.5464
# 5 -28.9102 -2.7171 -5.2108 0.0000 17.8888 0.0000
# 6 0.0000 0.0000 0.0000 -7.5464 0.0000 34.8867
#
#
#
# Elastic Compliance Matrix: (Units=1/GPa)
#
#
# Indices 1 2 3 4 5 6 
#
# 1 0.005715 -0.002617 -0.002371 0.000000 0.008149 0.000000
# 2 -0.002617 0.008916 -0.001595 0.000000 -0.003340 0.000000
# 3 -0.002371 -0.001595 0.028328 0.000000 0.004178 0.000000
# 4 0.000000 0.000000 0.000000 -0.876796 0.000000 -0.189660
# 5 0.008149 -0.003340 0.004178 0.000000 0.069779 0.000000
# 6 0.000000 0.000000 0.000000 -0.189660 0.000000 -0.012361
#
#
# Mechanical properties :
#
#
# Convention : Reuss Voigt Hill
#
# Bulk Modulus (GPa) = 33.56501 73.99799 53.78150
# Shear Modulus (GPa) = -6.63727 31.97975 12.67124
#
# Velocity S-wave (km/s) = -1.69084 3.71146 2.33624
# Velocity P-wave (km/s) = 3.26280 7.08806 5.51754
#
# Compressibility (1/GPa) = 0.02979293
#
# Stress axis : x y z
#
# Youngs Moduli (GPa) = 174.96405 112.15617 35.30124
#
# Poissons Ratio (x) = 0.29354 0.08370
# Poissons Ratio (y) = 0.45792 0.05630
# Poissons Ratio (z) = 0.41483 0.17888
#
# Static dielectric constant tensor:
#      x y z
#    x 1.949710 0.000000 0.017090 
#    y 0.000000 1.895400 0.000000 
#    z 0.017090 0.000000 1.947330 
# 
# From -- ./inp_files/50903.got.cif
#   From: 2010.05.17/outbox.cif.g08.bks.cpg/sg12_26_cif.got.tgz:50903.got - 2010.06.03 13:09:07.
