data_PCOD9168735
_publ_section_title
;
Structure prediction by ZEFSAII (Michael W. Deem and Ramdas Pophale) SiO2 
 PCOD9168735
Probable space group: C 2/M
;
_chemical_formula_sum "Si O2"
_cell_formula_units_Z 64
_cell_length_a 26.696334
_cell_length_b 13.903936
_cell_length_c 17.563149
_cell_angle_alpha 90.000000
_cell_angle_beta 157.396939
_cell_angle_gamma 90.000000
_cell_volume 2505.604997
_symmetry_space_group_name_H-M "C 2/M"
_symmetry_group_IT_number 12
_symmetry_cell_setting 'monoclinic'
loop_
_space_group_symop_operation_xyz
x,y,z
-x,y,-z
-x,-y,-z
x,-y,z
1/2+x,1/2+y,z
1/2-x,1/2+y,-z
1/2-x,1/2-y,-z
1/2+x,1/2-y,z
loop_
_atom_site_type_symbol
_atom_site_label
_atom_site_fract_x
_atom_site_fract_y
_atom_site_fract_z
Si Si1 0.779808 0.887084 0.394403
Si Si2 0.140965 0.106780 0.009808
Si Si3 0.134212 0.850593 0.709345
Si Si4 0.412043 0.153074 0.444942
Si Si5 0.115671 0.390775 0.024747
Si Si6 0.049127 0.774945 0.749229
Si Si7 0.083540 0.114217 0.183654
Si Si8 0.659383 0.887801 0.393457
O O1 0.678464 0.848694 0.189105
O O2 0.715351 0.885830 0.386626
O O3 0.915046 0.831615 0.578197
O O4 0.805786 0.000000 0.412214
O O5 0.267884 0.108700 0.243065
O O6 0.140497 0.000000 0.972081
O O7 0.139812 0.193722 0.947597
O O8 0.009039 0.115324 0.872994
O O9 0.119479 0.758607 0.633028
O O10 0.270433 0.895448 0.877251
O O11 0.124732 0.820370 0.783242
O O12 0.000000 0.904056 0.500000
O O13 0.500000 0.108828 0.500000
O O14 0.495834 0.172482 0.639416
O O15 0.077022 0.500000 0.992221
O O16 0.983858 0.343640 0.808657
O O17 0.225978 0.157876 0.395769
O O18 0.102874 0.000000 0.193861
O O19 0.000000 0.159681 0.000000
O O20 0.647913 0.000000 0.401245
#
# Coordination Sequence:
#
# PCOD9168735 Si02
#       8
#     8   8   8   8   8   8   8   8
#     4  10  16  27  51  84 119 155 202 258 304 362
#     4  11  22  39  69  98 119 158 220 272 304 364
#     4   9  18  34  52  80 121 171 205 239 308 386
#     4   9  21  40  61  88 127 170 206 251 323 388
#     4  10  18  27  47  82 124 165 201 252 314 373
#     4  10  19  36  62  90 121 164 209 255 313 372
#     4   9  18  35  59  84 114 155 203 254 310 371
#     4   9  17  29  47  80 119 156 204 256 315 371
#
# _framework density 25.542732999999998
#
# number of rings (size 3 to 8) (size 9 to 14) (size 15 to 20)
#    0.000    2.625    3.750    0.750    0.000    5.000 
#    0.000    2.500    2.750    3.000    0.000    0.875 
#    0.000    0.000    0.000    0.000    0.000    0.250 
#
# Total GULP energy -178768.981029 kJ/mol
# GULP energy per Si atom -5586.530657 kJ/mol
# Density = 2.548460 g / cm^3
# Si number density = 25.542733 Si / 1000 Ang^3
#
#
#
# Elastic Constant Matrix: (Units=GPa)
#
#
# Indices 1 2 3 4 5 6 
#
# 1 55.5827 -1.0517 36.6408 0.0000 -9.8367 0.0000
# 2 -1.0517 89.2577 6.4403 0.0000 1.0072 0.0000
# 3 36.6408 6.4403 194.8929 0.0000 -4.3440 0.0000
# 4 0.0000 0.0000 0.0000 64.5338 0.0000 32.3555
# 5 -9.8367 1.0072 -4.3440 0.0000 43.6567 0.0000
# 6 0.0000 0.0000 0.0000 32.3555 0.0000 26.2304
#
#
#
# Elastic Compliance Matrix: (Units=1/GPa)
#
#
# Indices 1 2 3 4 5 6 
#
# 1 0.021377 0.000486 -0.003937 0.000000 0.004414 0.000000
# 2 0.000486 0.011245 -0.000467 0.000000 -0.000196 0.000000
# 3 -0.003937 -0.000467 0.005880 0.000000 -0.000291 0.000000
# 4 0.000000 0.000000 0.000000 0.040613 0.000000 -0.050096
# 5 0.004414 -0.000196 -0.000291 0.000000 0.023876 0.000000
# 6 0.000000 0.000000 0.000000 -0.050096 0.000000 0.099918
#
#
# Mechanical properties :
#
#
# Convention : Reuss Voigt Hill
#
# Bulk Modulus (GPa) = 32.60925 47.08798 39.84862
# Shear Modulus (GPa) = 22.62790 46.73111 34.67951
#
# Velocity S-wave (km/s) = 2.97961 4.28194 3.68870
# Velocity P-wave (km/s) = 4.96303 6.55146 5.81177
#
# Compressibility (1/GPa) = 0.03066614
#
# Stress axis : x y z
#
# Youngs Moduli (GPa) = 46.78027 88.92694 170.06589
#
# Poissons Ratio (x) = -0.04323 0.66948
# Poissons Ratio (y) = -0.02274 0.07948
# Poissons Ratio (z) = 0.18415 0.04156
#
# Static dielectric constant tensor:
#      x y z
#    x 1.991500 0.000000 -0.029430 
#    y 0.000000 2.037670 0.000000 
#    z -0.029430 0.000000 2.098580 
# 
# From -- ./inp_files/294185.got.cif
#   From: 2010.05.17/outbox.cif.g08.bks.cpg/sg12_148_cif.got.tgz:294185.got - 2010.06.03 13:09:07.
