data_PCOD9168792
_publ_section_title
;
Structure prediction by ZEFSAII (Michael W. Deem and Ramdas Pophale) SiO2 
 PCOD9168792
Probable space group: C 2/M
;
_chemical_formula_sum "Si O2"
_cell_formula_units_Z 38
_cell_length_a 13.703398
_cell_length_b 13.540649
_cell_length_c 8.552834
_cell_angle_alpha 90.000000
_cell_angle_beta 78.481944
_cell_angle_gamma 90.000000
_cell_volume 1555.043830
_symmetry_space_group_name_H-M "C 2/M"
_symmetry_group_IT_number 12
_symmetry_cell_setting 'monoclinic'
loop_
_space_group_symop_operation_xyz
x,y,z
-x,y,-z
-x,-y,-z
x,-y,z
1/2+x,1/2+y,z
1/2-x,1/2+y,-z
1/2-x,1/2-y,-z
1/2+x,1/2-y,z
loop_
_atom_site_type_symbol
_atom_site_label
_atom_site_fract_x
_atom_site_fract_y
_atom_site_fract_z
Si Si1 0.889438 0.714153 0.021036
Si Si2 0.647440 0.500000 0.231659
Si Si3 0.500000 0.500000 0.000000
Si Si4 0.614977 0.288441 0.308749
Si Si5 0.689927 0.500000 0.727102
Si Si6 0.338972 0.000000 0.947887
Si Si7 0.627125 0.715153 0.636499
O O1 0.844902 0.763425 0.878441
O O2 0.896126 0.600527 0.967748
O O3 0.847050 0.728822 0.208838
O O4 0.000000 0.761586 0.000000
O O5 0.642264 0.401051 0.329470
O O6 0.746878 0.500000 0.097467
O O7 0.547723 0.500000 0.160599
O O8 0.611519 0.500000 0.893731
O O9 0.494797 0.281678 0.332901
O O10 0.652176 0.238038 0.457632
O O11 0.667210 0.603817 0.650196
O O12 0.796276 0.500000 0.784446
#
# Coordination Sequence:
#
# PCOD9168792 Si02
#       7
#     8   4   2   8   4   4   8
#     4  10  22  42  63  79 112 157 203 251 285 328
#     4  11  20  32  59  88 127 148 179 229 293 358
#     4  10  16  28  52  84 110 160 174 200 278 350
#     4  10  20  36  62  92 117 152 194 233 289 355
#     4  11  20  32  59  88 127 148 179 229 293 358
#     4  11  25  39  57  86 114 158 207 241 287 339
#     4  10  20  36  62  92 117 152 194 233 289 355
#
# _framework density 24.436612
#
# number of rings (size 3 to 8) (size 9 to 14) (size 15 to 20)
#    0.000    1.684    2.105    3.474    2.947    5.053 
#    0.000    7.368    0.000    5.053    0.000    0.000 
#    0.000    0.000    0.000    0.000    0.000    0.000 
#
# Total GULP energy -105803.144198 kJ/mol
# GULP energy per Si atom -5568.586537 kJ/mol
# Density = 2.438099 g / cm^3
# Si number density = 24.436612 Si / 1000 Ang^3
#
#
#
# Elastic Constant Matrix: (Units=GPa)
#
#
# Indices 1 2 3 4 5 6 
#
# 1 73.0640 -9.9130 34.9153 0.0000 26.4149 0.0000
# 2 -9.9130 86.0967 53.9626 0.0000 14.9259 0.0000
# 3 34.9153 53.9626 255.2372 0.0000 31.5126 0.0000
# 4 0.0000 0.0000 0.0000 -25.2777 0.0000 -12.7427
# 5 26.4149 14.9259 31.5126 0.0000 41.4513 0.0000
# 6 0.0000 0.0000 0.0000 -12.7427 0.0000 26.1028
#
#
#
# Elastic Compliance Matrix: (Units=1/GPa)
#
#
# Indices 1 2 3 4 5 6 
#
# 1 0.020601 0.006264 -0.002476 0.000000 -0.013502 0.000000
# 2 0.006264 0.015628 -0.003281 0.000000 -0.007125 0.000000
# 3 -0.002476 -0.003281 0.005087 0.000000 -0.001108 0.000000
# 4 0.000000 0.000000 0.000000 -0.031748 0.000000 -0.015498
# 5 -0.013502 -0.007125 -0.001108 0.000000 0.036137 0.000000
# 6 0.000000 0.000000 0.000000 -0.015498 0.000000 0.030744
#
#
# Mechanical properties :
#
#
# Convention : Reuss Voigt Hill
#
# Bulk Modulus (GPa) = 23.62374 63.59199 43.60786
# Shear Modulus (GPa) = 55.83826 30.81748 43.32787
#
# Velocity S-wave (km/s) = 4.78538 3.55508 4.21535
# Velocity P-wave (km/s) = 6.34204 6.55219 6.44797
#
# Compressibility (1/GPa) = 0.04233031
#
# Stress axis : x y z
#
# Youngs Moduli (GPa) = 48.54199 63.98830 196.57377
#
# Poissons Ratio (x) = -0.40083 0.48662
# Poissons Ratio (y) = -0.30407 0.64503
# Poissons Ratio (z) = 0.12017 0.20997
#
# Static dielectric constant tensor:
#      x y z
#    x 1.962480 0.000000 -0.005090 
#    y 0.000000 2.002090 0.000000 
#    z -0.005090 0.000000 2.006180 
# 
# From -- ./inp_files/71454.got.cif
#   From: 2010.05.17/outbox.cif.g08.bks.cpg/sg12_36_cif.got.tgz:71454.got - 2010.06.03 13:09:07.
