data_PCOD9168242
_publ_section_title
;
Structure prediction by ZEFSAII (Michael W. Deem and Ramdas Pophale) SiO2 
 PCOD9168242
Probable space group: P 21/M
;
_chemical_formula_sum "Si O2"
_cell_formula_units_Z 32
_cell_length_a 12.000000
_cell_length_b 9.000000
_cell_length_c 30.000000
_cell_angle_alpha 90.000000
_cell_angle_beta 30.000000
_cell_angle_gamma 90.000000
_cell_volume 1620.000000
_symmetry_space_group_name_H-M "P 21/M"
_symmetry_group_IT_number 11
_symmetry_cell_setting 'monoclinic'
loop_
_space_group_symop_operation_xyz
x,y,z
-x,1/2+y,-z
-x,-y,-z
x,1/2-y,z
loop_
_atom_site_type_symbol
_atom_site_label
_atom_site_fract_x
_atom_site_fract_y
_atom_site_fract_z
Si Si1 0.029791 0.920971 0.894315
Si Si2 0.476447 0.422248 0.236761
Si Si3 0.205335 0.927244 0.560229
Si Si4 0.371579 0.074637 0.085893
Si Si5 0.348182 0.923557 0.920204
Si Si6 0.933639 0.573437 0.215081
Si Si7 0.683824 0.428592 0.380935
Si Si8 0.930628 0.070285 0.572943
O O1 0.963692 0.750000 0.907940
O O2 0.280199 0.922570 0.825698
O O3 0.031209 0.013170 0.847525
O O4 0.869643 0.987014 0.988230
O O5 0.394114 0.250000 0.263531
O O6 0.520122 0.473163 0.170175
O O7 0.312821 0.516563 0.325131
O O8 0.181415 0.750000 0.561986
O O9 0.157961 0.956947 0.629891
O O10 0.458952 0.980665 0.467579
O O11 0.077881 0.011197 0.564196
O O12 0.322719 0.250000 0.093763
O O13 0.501833 0.070317 0.087283
O O14 0.157009 0.971889 0.163550
O O15 0.500000 0.000000 0.000000
O O16 0.288039 0.750000 0.932802
O O17 0.893502 0.750000 0.228314
O O18 0.758690 0.484691 0.306223
O O19 0.648915 0.250000 0.392233
O O20 0.943143 0.250000 0.565149
O O21 0.000000 0.000000 0.500000
#
# Coordination Sequence:
#
# PCOD9168242 Si02
#       8
#     4   4   4   4   4   4   4   4
#     4  11  23  40  65  93 128 168 216 270 320 380
#     4  10  24  45  67  95 127 166 214 267 324 382
#     4  10  22  43  69  96 129 165 206 260 322 384
#     4  11  22  38  60  90 126 165 207 253 313 376
#     4  10  22  41  66  93 128 168 208 262 324 383
#     4  12  25  39  60  90 129 170 213 262 313 377
#     4  10  22  41  67  97 129 166 209 260 316 381
#     4  12  27  46  69  96 129 170 216 269 323 384
#
# _framework density 19.753086
#
# number of rings (size 3 to 8) (size 9 to 14) (size 15 to 20)
#    0.000    1.250    1.250    4.125    3.500    3.500 
#    0.000    0.000    0.000    0.000    0.000    0.000 
#    0.000    0.000    0.000    0.000    0.000    0.000 
#
# Total GULP energy -178524.997101 kJ/mol
# GULP energy per Si atom -5578.906159 kJ/mol
# Density = 1.970813 g / cm^3
# Si number density = 19.753086 Si / 1000 Ang^3
#
#
#
# Elastic Constant Matrix: (Units=GPa)
#
#
# Indices 1 2 3 4 5 6 
#
# 1 90.6715 43.9358 30.8043 0.0000 15.3280 0.0000
# 2 43.9358 119.6254 31.5857 0.0000 20.2638 0.0000
# 3 30.8043 31.5857 97.4978 0.0000 29.1132 0.0000
# 4 0.0000 0.0000 0.0000 37.4252 0.0000 4.4262
# 5 15.3280 20.2638 29.1132 0.0000 39.9240 0.0000
# 6 0.0000 0.0000 0.0000 4.4262 0.0000 31.4628
#
#
#
# Elastic Compliance Matrix: (Units=1/GPa)
#
#
# Indices 1 2 3 4 5 6 
#
# 1 0.014256 -0.004296 -0.002722 0.000000 -0.001308 0.000000
# 2 -0.004296 0.010761 -0.001266 0.000000 -0.002889 0.000000
# 3 -0.002722 -0.001266 0.014091 0.000000 -0.008588 0.000000
# 4 0.000000 0.000000 0.000000 0.027172 0.000000 -0.003823
# 5 -0.001308 -0.002889 -0.008588 0.000000 0.033279 0.000000
# 6 0.000000 0.000000 0.000000 -0.003823 0.000000 0.032321
#
#
# Mechanical properties :
#
#
# Convention : Reuss Voigt Hill
#
# Bulk Modulus (GPa) = 44.36434 57.82737 51.09586
# Shear Modulus (GPa) = 32.05918 35.19366 33.62642
#
# Velocity S-wave (km/s) = 4.03301 4.22557 4.13042
# Velocity P-wave (km/s) = 6.64794 7.29013 6.97643
#
# Compressibility (1/GPa) = 0.02254062
#
# Stress axis : x y z
#
# Youngs Moduli (GPa) = 70.14474 92.92913 70.96628
#
# Poissons Ratio (x) = 0.39920 0.19317
# Poissons Ratio (y) = 0.30132 0.08986
# Poissons Ratio (z) = 0.19093 0.11767
#
# Static dielectric constant tensor:
#      x y z
#    x 1.715680 0.000000 -0.007220 
#    y 0.000000 1.653570 0.000000 
#    z -0.007220 0.000000 2.039380 
# 
# From -- ./inp_files/73083.got.cif
#   From: 2010.05.17/outbox.ucp.g08.bks.cvg/sg11_37_cif.got.tgz:73083.got - 2010.06.11 11:38:39.
