data_PCOD9168776
_publ_section_title
;
Structure prediction by ZEFSAII (Michael W. Deem and Ramdas Pophale) SiO2 
 PCOD9168776
Probable space group: C 2/M
;
_chemical_formula_sum "Si O2"
_cell_formula_units_Z 52
_cell_length_a 14.325378
_cell_length_b 18.383442
_cell_length_c 16.589951
_cell_angle_alpha 90.000000
_cell_angle_beta 44.568289
_cell_angle_gamma 90.000000
_cell_volume 3065.956096
_symmetry_space_group_name_H-M "C 2/M"
_symmetry_group_IT_number 12
_symmetry_cell_setting 'monoclinic'
loop_
_space_group_symop_operation_xyz
x,y,z
-x,y,-z
-x,-y,-z
x,-y,z
1/2+x,1/2+y,z
1/2-x,1/2+y,-z
1/2-x,1/2-y,-z
1/2+x,1/2-y,z
loop_
_atom_site_type_symbol
_atom_site_label
_atom_site_fract_x
_atom_site_fract_y
_atom_site_fract_z
Si Si1 0.575071 0.224143 0.327710
Si Si2 0.052924 0.121846 0.551057
Si Si3 0.481886 0.417006 0.774213
Si Si4 0.000000 0.734979 0.000000
Si Si5 0.656601 0.300034 0.754720
Si Si6 0.176560 0.689231 0.599720
Si Si7 0.236925 0.198789 0.085235
O O1 0.506453 0.295605 0.408237
O O2 0.688835 0.192637 0.315520
O O3 0.458442 0.172513 0.365781
O O4 0.652325 0.256239 0.202955
O O5 0.212951 0.128099 0.454071
O O6 0.000000 0.089779 0.500000
O O7 0.003523 0.086313 0.664277
O O8 0.482060 0.500000 0.801144
O O9 0.597539 0.368649 0.743835
O O10 0.345871 0.374283 0.878583
O O11 0.068896 0.783494 0.888000
O O12 0.117291 0.688181 0.967471
O O13 0.644169 0.230421 0.703102
O O14 0.250000 0.750000 0.500000
O O15 0.250000 0.250000 0.000000
#
# Coordination Sequence:
#
# PCOD9168776 Si02
#       7
#     8   8   8   4   8   8   8
#     4   9  18  26  49  82 106 127 170 233 267 302
#     4  10  18  31  53  81 105 134 180 223 272 316
#     4  11  23  37  51  77 115 147 172 214 282 338
#     4  10  20  30  58  86 102 130 184 242 264 300
#     4  11  18  32  52  81 110 135 179 226 275 313
#     4  10  16  28  49  82 106 130 177 237 274 298
#     4  10  17  34  54  78 105 134 180 225 262 306
#
# _framework density 16.960450999999999
#
# number of rings (size 3 to 8) (size 9 to 14) (size 15 to 20)
#    0.000    1.846    7.692    0.000    0.000    0.308 
#    0.000    0.769    0.000    1.846    0.000    0.000 
#    0.000    0.000    0.000    0.000    0.000    0.000 
#
# Total GULP energy -144873.179130 kJ/mol
# GULP energy per Si atom -5572.045351 kJ/mol
# Density = 1.692185 g / cm^3
# Si number density = 16.960451 Si / 1000 Ang^3
#
#
#
# Elastic Constant Matrix: (Units=GPa)
#
#
# Indices 1 2 3 4 5 6 
#
# 1 131.3714 25.8936 33.2268 0.0000 -28.8795 0.0000
# 2 25.8936 59.2126 14.7856 0.0000 -8.5858 0.0000
# 3 33.2268 14.7856 68.8393 -0.0001 1.9728 0.0001
# 4 0.0000 0.0000 -0.0001 7.1689 0.0000 0.7058
# 5 -28.8795 -8.5858 1.9728 0.0000 46.3790 0.0000
# 6 0.0000 0.0000 0.0001 0.7058 0.0000 1.6197
#
#
#
# Elastic Compliance Matrix: (Units=1/GPa)
#
#
# Indices 1 2 3 4 5 6 
#
# 1 0.010749 -0.002565 -0.004821 0.000000 0.006424 0.000000
# 2 -0.002565 0.019034 -0.002909 0.000000 0.002050 0.000000
# 3 -0.004821 -0.002909 0.017601 0.000000 -0.004289 -0.000001
# 4 0.000000 0.000000 0.000000 0.145745 0.000000 -0.063514
# 5 0.006424 0.002050 -0.004289 0.000000 0.026123 0.000001
# 6 0.000000 0.000000 -0.000001 -0.063514 0.000001 0.645085
#
#
# Mechanical properties :
#
#
# Convention : Reuss Voigt Hill
#
# Bulk Modulus (GPa) = 37.32253 45.24836 41.28544
# Shear Modulus (GPa) = 5.59372 23.40134 14.49753
#
# Velocity S-wave (km/s) = 1.81804 3.71854 2.92684
# Velocity P-wave (km/s) = 5.14397 6.72112 5.98472
#
# Compressibility (1/GPa) = 0.02679347
#
# Stress axis : x y z
#
# Youngs Moduli (GPa) = 93.03051 52.53858 56.81361
#
# Poissons Ratio (x) = 0.13478 0.27392
# Poissons Ratio (y) = 0.23865 0.16525
# Poissons Ratio (z) = 0.44854 0.15282
#
# Static dielectric constant tensor:
#      x y z
#    x 1.632100 0.000000 -0.006090 
#    y 0.000000 1.535380 0.000000 
#    z -0.006090 0.000000 1.606000 
# 
# From -- ./inp_files/270578.got.cif
#   From: 2010.05.17/outbox.cif.g08.bks.cpg/sg12_136_cif.got.tgz:270578.got - 2010.06.03 13:09:07.
