data_PCOD9168522
_publ_section_title
;
Structure prediction by ZEFSAII (Michael W. Deem and Ramdas Pophale) SiO2 
 PCOD9168522
Probable space group: C 2/M
;
_chemical_formula_sum "Si O2"
_cell_formula_units_Z 64
_cell_length_a 26.900431
_cell_length_b 21.088399
_cell_length_c 5.510558
_cell_angle_alpha 90.000000
_cell_angle_beta 111.711317
_cell_angle_gamma 90.000000
_cell_volume 2904.303276
_symmetry_space_group_name_H-M "C 2/M"
_symmetry_group_IT_number 12
_symmetry_cell_setting 'monoclinic'
loop_
_space_group_symop_operation_xyz
x,y,z
-x,y,-z
-x,-y,-z
x,-y,z
1/2+x,1/2+y,z
1/2-x,1/2+y,-z
1/2-x,1/2-y,-z
1/2+x,1/2-y,z
loop_
_atom_site_type_symbol
_atom_site_label
_atom_site_fract_x
_atom_site_fract_y
_atom_site_fract_z
Si Si1 0.677840 0.426099 0.656983
Si Si2 0.059979 0.072036 0.958010
Si Si3 0.316431 0.388017 0.833048
Si Si4 0.939379 0.132656 0.541371
Si Si5 0.482151 0.102514 0.218242
Si Si6 0.061821 0.276080 0.362451
Si Si7 0.885892 0.317504 0.042566
Si Si8 0.716786 0.247847 0.189991
O O1 0.660954 0.500000 0.615801
O O2 0.708935 0.407419 0.469363
O O3 0.625640 0.379767 0.575909
O O4 0.708303 0.414607 0.964053
O O5 0.124752 0.080912 0.078454
O O6 0.043836 0.087540 0.204992
O O7 0.048475 0.000000 0.871398
O O8 0.044787 0.116358 0.704719
O O9 0.318247 0.312415 0.861293
O O10 0.954756 0.203516 0.641860
O O11 0.500000 0.071558 0.500000
O O12 0.514901 0.170915 0.280636
O O13 0.419206 0.117237 0.102024
O O14 0.500000 0.072168 0.000000
O O15 0.098272 0.288327 0.666571
O O16 0.091048 0.283117 0.157105
O O17 0.822825 0.311820 0.897736
O O18 0.750000 0.250000 0.500000
O O19 0.750000 0.250000 0.000000
#
# Coordination Sequence:
#
# PCOD9168522 Si02
#       8
#     8   8   8   8   8   8   8   8
#     4  10  17  27  44  66  86 109 144 184 236 287
#     4  10  18  28  42  62  84 108 141 178 227 280
#     4  10  18  30  43  58  84 111 140 188 231 262
#     4  10  16  23  37  58  86 104 122 164 214 271
#     4   8  16  27  44  65  85 102 132 179 228 269
#     4  10  17  28  46  69  87 107 136 172 231 282
#     4  10  18  32  46  60  87 112 140 188 228 259
#     4  12  24  35  46  64  90 125 163 189 225 282
#
# _framework density 22.036268
#
# number of rings (size 3 to 8) (size 9 to 14) (size 15 to 20)
#    0.000    2.000    0.000    9.000    0.000    0.000 
#    0.000    0.000    0.000    0.000    0.000    0.000 
#    0.000  268.000    0.000    0.000    0.000    0.000 
#
# Total GULP energy -178613.055305 kJ/mol
# GULP energy per Si atom -5581.657978 kJ/mol
# Density = 2.198611 g / cm^3
# Si number density = 22.036268 Si / 1000 Ang^3
#
#
#
# Elastic Constant Matrix: (Units=GPa)
#
#
# Indices 1 2 3 4 5 6 
#
# 1 66.3217 2.6126 45.0947 0.0000 -10.0204 0.0000
# 2 2.6126 76.9413 4.9096 0.0000 -6.4938 0.0000
# 3 45.0947 4.9096 193.7995 0.0000 -37.2737 0.0000
# 4 0.0000 0.0000 0.0000 -2.8957 0.0000 3.8771
# 5 -10.0204 -6.4938 -37.2737 0.0000 45.3351 0.0000
# 6 0.0000 0.0000 0.0000 3.8771 0.0000 4.7984
#
#
#
# Elastic Compliance Matrix: (Units=1/GPa)
#
#
# Indices 1 2 3 4 5 6 
#
# 1 0.017934 -0.000301 -0.004052 0.000000 0.000589 0.000000
# 2 -0.000301 0.013161 0.000103 0.000000 0.001903 0.000000
# 3 -0.004052 0.000103 0.007045 0.000000 0.004911 0.000000
# 4 0.000000 0.000000 0.000000 -0.165882 0.000000 0.134033
# 5 0.000589 0.001903 0.004911 0.000000 0.026499 0.000000
# 6 0.000000 0.000000 0.000000 0.134033 0.000000 0.100105
#
#
# Mechanical properties :
#
#
# Convention : Reuss Voigt Hill
#
# Bulk Modulus (GPa) = 33.73845 49.14402 41.44124
# Shear Modulus (GPa) = 289.99546 28.41058 159.20302
#
# Velocity S-wave (km/s) = 11.48411 3.59453 8.50898
# Velocity P-wave (km/s) = 13.82715 6.29105 10.74168
#
# Compressibility (1/GPa) = 0.02963977
#
# Stress axis : x y z
#
# Youngs Moduli (GPa) = 55.75975 75.98086 141.94838
#
# Poissons Ratio (x) = 0.02284 0.57518
# Poissons Ratio (y) = 0.01676 -0.01456
# Poissons Ratio (z) = 0.22594 -0.00779
#
# Static dielectric constant tensor:
#      x y z
#    x 1.951030 0.000000 -0.007470 
#    y 0.000000 1.791590 0.000000 
#    z -0.007470 0.000000 1.909860 
# 
# From -- ./inp_files/32490.got.cif
#   From: 2010.05.17/outbox.cif.g08.bks.cpg/sg12_17_cif.got.tgz:32490.got - 2010.06.03 13:09:07.
