data_PCOD9168737
_publ_section_title
;
Structure prediction by ZEFSAII (Michael W. Deem and Ramdas Pophale) SiO2 
 PCOD9168737
Probable space group: C 2/M
;
_chemical_formula_sum "Si O2"
_cell_formula_units_Z 56
_cell_length_a 23.446113
_cell_length_b 15.492123
_cell_length_c 14.021633
_cell_angle_alpha 90.000000
_cell_angle_beta 36.056172
_cell_angle_gamma 90.000000
_cell_volume 2997.674673
_symmetry_space_group_name_H-M "C 2/M"
_symmetry_group_IT_number 12
_symmetry_cell_setting 'monoclinic'
loop_
_space_group_symop_operation_xyz
x,y,z
-x,y,-z
-x,-y,-z
x,-y,z
1/2+x,1/2+y,z
1/2-x,1/2+y,-z
1/2-x,1/2-y,-z
1/2+x,1/2-y,z
loop_
_atom_site_type_symbol
_atom_site_label
_atom_site_fract_x
_atom_site_fract_y
_atom_site_fract_z
Si Si1 0.407046 0.221561 0.254435
Si Si2 0.580433 0.098866 0.039387
Si Si3 0.702936 0.907846 0.461781
Si Si4 0.562629 0.102890 0.288674
Si Si5 0.614194 0.404910 0.651534
Si Si6 0.750088 0.172607 0.691183
Si Si7 0.646800 0.166928 0.358950
O O1 0.500043 0.163765 0.107522
O O2 0.354658 0.170889 0.412472
O O3 0.439026 0.316566 0.246049
O O4 0.326041 0.218812 0.280114
O O5 0.585719 0.114121 0.146264
O O6 0.551525 0.000000 0.061736
O O7 0.681873 0.116456 0.851064
O O8 0.804919 0.910893 0.375465
O O9 0.710803 0.895417 0.338798
O O10 0.652162 0.000000 0.549943
O O11 0.640258 0.142159 0.257485
O O12 0.461185 0.148787 0.453160
O O13 0.552967 0.000000 0.320040
O O14 0.567027 0.500000 0.707606
O O15 0.675934 0.382663 0.473165
O O16 0.811160 0.239865 0.671761
#
# Coordination Sequence:
#
# PCOD9168737 Si02
#       7
#     8   8   8   8   8   8   8
#     4  11  19  35  52  81 111 146 188 226 270 331
#     4  11  23  37  55  82 119 149 177 229 286 333
#     4  10  16  27  52  79 106 134 173 227 277 313
#     4  10  21  35  56  86 110 141 191 234 275 328
#     4  10  19  32  53  79 107 143 184 226 270 324
#     4  11  21  34  52  82 115 146 184 221 278 344
#     4  11  18  33  55  79 112 142 183 231 274 313
#
# _framework density 18.681146999999999
#
# number of rings (size 3 to 8) (size 9 to 14) (size 15 to 20)
#    0.000    1.429    4.286    3.857    0.000    2.857 
#    0.000    0.000    0.000    4.286    0.000   23.000 
#    0.000    0.000    0.000    0.000    0.000    0.000 
#
# Total GULP energy -156081.748360 kJ/mol
# GULP energy per Si atom -5574.348156 kJ/mol
# Density = 1.863863 g / cm^3
# Si number density = 18.681147 Si / 1000 Ang^3
#
#
#
# Elastic Constant Matrix: (Units=GPa)
#
#
# Indices 1 2 3 4 5 6 
#
# 1 95.3078 36.5950 20.5805 0.0000 12.5797 0.0000
# 2 36.5950 145.2148 28.3491 0.0000 1.7638 0.0000
# 3 20.5805 28.3491 45.9502 0.0000 11.6796 0.0000
# 4 0.0000 0.0000 0.0000 19.1379 0.0000 9.8656
# 5 12.5797 1.7638 11.6796 0.0000 19.8741 0.0000
# 6 0.0000 0.0000 0.0000 9.8656 0.0000 -26.3658
#
#
#
# Elastic Compliance Matrix: (Units=1/GPa)
#
#
# Indices 1 2 3 4 5 6 
#
# 1 0.012917 -0.002693 -0.002476 0.000000 -0.006482 0.000000
# 2 -0.002693 0.008500 -0.005031 0.000000 0.003907 0.000000
# 3 -0.002476 -0.005031 0.029935 0.000000 -0.015578 0.000000
# 4 0.000000 0.000000 0.000000 0.043803 0.000000 0.016390
# 5 -0.006482 0.003907 -0.015578 0.000000 0.063228 0.000000
# 6 0.000000 0.000000 0.000000 0.016390 0.000000 -0.031795
#
#
# Mechanical properties :
#
#
# Convention : Reuss Voigt Hill
#
# Bulk Modulus (GPa) = 32.30859 50.83577 41.57218
# Shear Modulus (GPa) = 31.78556 15.92580 23.85568
#
# Velocity S-wave (km/s) = 4.12937 2.92294 3.57738
# Velocity P-wave (km/s) = 6.32992 6.21795 6.27418
#
# Compressibility (1/GPa) = 0.03095152
#
# Stress axis : x y z
#
# Youngs Moduli (GPa) = 77.42025 117.65211 33.40549
#
# Poissons Ratio (x) = 0.31682 0.08272
# Poissons Ratio (y) = 0.20848 0.16805
# Poissons Ratio (z) = 0.19171 0.59188
#
# Static dielectric constant tensor:
#      x y z
#    x 1.678110 0.000000 0.007660 
#    y 0.000000 1.715840 0.000000 
#    z 0.007660 0.000000 1.655720 
# 
# From -- ./inp_files/240401.got.cif
#   From: 2010.05.17/outbox.cif.g08.bks.cpg/sg12_121_cif.got.tgz:240401.got - 2010.06.03 13:09:07.
