data_PCOD9168551
_publ_section_title
;
Structure prediction by ZEFSAII (Michael W. Deem and Ramdas Pophale) SiO2 
 PCOD9168551
Probable space group: C 2/M
;
_chemical_formula_sum "Si O2"
_cell_formula_units_Z 64
_cell_length_a 27.927605
_cell_length_b 8.906594
_cell_length_c 29.803781
_cell_angle_alpha 90.000000
_cell_angle_beta 144.562130
_cell_angle_gamma 90.000000
_cell_volume 4298.429039
_symmetry_space_group_name_H-M "C 2/M"
_symmetry_group_IT_number 12
_symmetry_cell_setting 'monoclinic'
loop_
_space_group_symop_operation_xyz
x,y,z
-x,y,-z
-x,-y,-z
x,-y,z
1/2+x,1/2+y,z
1/2-x,1/2+y,-z
1/2-x,1/2-y,-z
1/2+x,1/2-y,z
loop_
_atom_site_type_symbol
_atom_site_label
_atom_site_fract_x
_atom_site_fract_y
_atom_site_fract_z
Si Si1 0.276233 0.181810 0.472968
Si Si2 0.945305 0.827364 0.003860
Si Si3 0.301507 0.820494 0.842355
Si Si4 0.371328 0.817964 0.307624
Si Si5 0.193288 0.824271 0.318421
Si Si6 0.907706 0.678913 0.835278
Si Si7 0.126117 0.676312 0.588359
Si Si8 0.447434 0.182944 0.559095
O O1 0.250000 0.250000 0.500000
O O2 0.214259 0.225298 0.385066
O O3 0.369008 0.229071 0.528974
O O4 0.275637 0.000000 0.474472
O O5 0.862322 0.740580 0.927271
O O6 0.928058 0.000000 0.001949
O O7 0.000000 0.824809 0.000000
O O8 0.004243 0.750958 0.085388
O O9 0.210487 0.751857 0.775765
O O10 0.343705 0.776087 0.826571
O O11 0.298419 0.000000 0.841340
O O12 0.375619 0.763491 0.362801
O O13 0.460583 0.776974 0.355331
O O14 0.363284 0.000000 0.301032
O O15 0.128320 0.733495 0.239431
O O16 0.281165 0.814044 0.359852
O O17 0.169891 0.000000 0.301207
O O18 0.914409 0.500000 0.841737
O O19 0.104576 0.500000 0.576397
O O20 0.069049 0.736899 0.504700
O O21 0.444431 0.000000 0.554975
#
# Coordination Sequence:
#
# PCOD9168551 Si02
#       8
#     8   8   8   8   8   8   8   8
#     4   9  18  32  48  65  86 111 141 181 225 262
#     4   9  17  28  42  57  76 109 152 186 210 242
#     4  10  19  28  37  55  87 119 145 175 214 253
#     4  10  16  24  42  61  80 110 148 180 207 247
#     4   9  16  27  43  63  84 109 145 182 212 251
#     4  10  18  27  40  59  85 114 143 177 217 255
#     4   8  13  22  38  59  81 105 138 178 212 240
#     4   8  15  26  41  63  83 104 141 184 216 247
#
# _framework density 14.889161
#
# number of rings (size 3 to 8) (size 9 to 14) (size 15 to 20)
#    0.000    2.875    1.250    3.000    0.000    4.500 
#    0.000    0.625    0.000    2.250    0.000    0.000 
#    0.000    1.000    0.000    3.000    0.000    4.625 
#
# Total GULP energy -178160.429215 kJ/mol
# GULP energy per Si atom -5567.513413 kJ/mol
# Density = 1.485527 g / cm^3
# Si number density = 14.889161 Si / 1000 Ang^3
#
#
#
# Elastic Constant Matrix: (Units=GPa)
#
#
# Indices 1 2 3 4 5 6 
#
# 1 46.2557 18.0963 47.0633 -0.0001 -2.5416 -0.0002
# 2 18.0963 31.3598 44.7478 -0.0003 1.7565 -0.0003
# 3 47.0633 44.7478 144.6826 0.0000 10.9541 -0.0001
# 4 -0.0001 -0.0003 0.0000 9.1231 0.0000 -5.9219
# 5 -2.5416 1.7565 10.9541 0.0000 17.6596 0.0000
# 6 -0.0002 -0.0003 -0.0001 -5.9219 0.0000 13.6860
#
#
#
# Elastic Compliance Matrix: (Units=1/GPa)
#
#
# Indices 1 2 3 4 5 6 
#
# 1 0.035421 -0.006016 -0.010590 0.000001 0.012265 0.000001
# 2 -0.006016 0.058619 -0.016438 0.000003 0.003500 0.000002
# 3 -0.010590 -0.016438 0.016193 -0.000001 -0.009933 -0.000001
# 4 0.000001 0.000003 -0.000001 0.152422 0.000001 0.065952
# 5 0.012265 0.003500 -0.009933 0.000001 0.064205 0.000001
# 6 0.000001 0.000002 -0.000001 0.065952 0.000001 0.101604
#
#
# Mechanical properties :
#
#
# Convention : Reuss Voigt Hill
#
# Bulk Modulus (GPa) = 22.65254 49.12364 35.88809
# Shear Modulus (GPa) = 9.81803 15.58645 12.70224
#
# Velocity S-wave (km/s) = 2.57068 3.23899 2.92399
# Velocity P-wave (km/s) = 4.90493 6.85949 5.96284
#
# Compressibility (1/GPa) = 0.04414515
#
# Stress axis : x y z
#
# Youngs Moduli (GPa) = 28.23150 17.05933 61.75685
#
# Poissons Ratio (x) = 0.10263 0.65401
# Poissons Ratio (y) = 0.16983 1.01516
# Poissons Ratio (z) = 0.29898 0.28042
#
# Static dielectric constant tensor:
#      x y z
#    x 1.478440 0.000000 0.008020 
#    y 0.000000 1.501710 0.000000 
#    z 0.008020 0.000000 1.505860 
# 
# From -- ./inp_files/248472.got.cif
#   From: 2010.05.17/outbox.cif.g08.bks.cpg/sg12_125_cif.got.tgz:248472.got - 2010.06.03 13:09:07.
