data_PCOD9168871
_publ_section_title
;
Structure prediction by ZEFSAII (Michael W. Deem and Ramdas Pophale) SiO2 
 PCOD9168871
Probable space group: C 2/M
;
_chemical_formula_sum "Si O2"
_cell_formula_units_Z 52
_cell_length_a 11.388271
_cell_length_b 17.536507
_cell_length_c 20.159634
_cell_angle_alpha 90.000000
_cell_angle_beta 41.774949
_cell_angle_gamma 90.000000
_cell_volume 2682.207509
_symmetry_space_group_name_H-M "C 2/M"
_symmetry_group_IT_number 12
_symmetry_cell_setting 'monoclinic'
loop_
_space_group_symop_operation_xyz
x,y,z
-x,y,-z
-x,-y,-z
x,-y,z
1/2+x,1/2+y,z
1/2-x,1/2+y,-z
1/2-x,1/2-y,-z
1/2+x,1/2-y,z
loop_
_atom_site_type_symbol
_atom_site_label
_atom_site_fract_x
_atom_site_fract_y
_atom_site_fract_z
Si Si1 0.000000 0.863030 0.000000
Si Si2 0.499397 0.821014 0.124983
Si Si3 0.886960 0.850482 0.764455
Si Si4 0.264807 0.409038 0.419855
Si Si5 0.618166 0.356655 0.085309
Si Si6 0.079745 0.408082 0.361690
Si Si7 0.870197 0.322349 0.794359
O O1 0.177139 0.816010 0.910036
O O2 0.955907 0.901626 0.947808
O O3 0.316548 0.848478 0.171319
O O4 0.529057 0.728527 0.117645
O O5 0.511951 0.852204 0.194892
O O6 0.671906 0.848134 0.012745
O O7 0.910146 0.885451 0.828497
O O8 0.933361 0.761212 0.749170
O O9 0.033151 0.886806 0.655793
O O10 0.251670 0.500000 0.423889
O O11 0.197459 0.382855 0.375205
O O12 0.119918 0.384098 0.534703
O O13 0.088450 0.500000 0.353706
O O14 0.136578 0.372520 0.268311
#
# Coordination Sequence:
#
# PCOD9168871 Si02
#       7
#     4   8   8   8   8   8   8
#     4  10  16  30  47  82 109 136 182 212 258 320
#     4   9  18  28  43  77 110 142 174 206 259 324
#     4  11  19  30  53  79 112 139 176 227 260 316
#     4   9  20  37  59  79  98 140 186 224 270 322
#     4   9  17  27  46  72 110 148 172 208 258 315
#     4   9  19  40  60  75 102 138 184 228 270 319
#     4  10  20  30  53  81 109 138 176 219 271 306
#
# _framework density 19.387017
#
# number of rings (size 3 to 8) (size 9 to 14) (size 15 to 20)
#    0.000    2.462    1.538    3.231    2.154    0.615 
#    0.000    1.923    0.000    7.385    0.000    0.000 
#    0.000    0.000    0.000    0.000    0.000    0.000 
#
# Total GULP energy -144774.967106 kJ/mol
# GULP energy per Si atom -5568.267966 kJ/mol
# Density = 1.934289 g / cm^3
# Si number density = 19.387017 Si / 1000 Ang^3
#
#
#
# Elastic Constant Matrix: (Units=GPa)
#
#
# Indices 1 2 3 4 5 6 
#
# 1 88.8973 2.1094 40.2610 0.0000 -8.5544 0.0000
# 2 2.1094 14.1400 15.3498 -0.0003 6.3058 0.0003
# 3 40.2610 15.3498 110.7705 -0.0010 -7.4750 0.0010
# 4 0.0000 -0.0003 -0.0010 31.2503 0.0005 -6.4288
# 5 -8.5544 6.3058 -7.4750 0.0005 34.2932 -0.0004
# 6 0.0000 0.0003 0.0010 -6.4288 -0.0004 17.0345
#
#
#
# Elastic Compliance Matrix: (Units=1/GPa)
#
#
# Indices 1 2 3 4 5 6 
#
# 1 0.013738 0.002903 -0.005278 0.000000 0.001743 0.000000
# 2 0.002903 0.096603 -0.015824 0.000001 -0.020488 -0.000001
# 3 -0.005278 -0.015824 0.013444 0.000000 0.004524 0.000000
# 4 0.000000 0.000001 0.000000 0.034693 0.000000 0.013093
# 5 0.001743 -0.020488 0.004524 0.000000 0.034348 0.000001
# 6 0.000000 -0.000001 0.000000 0.013093 0.000001 0.063646
#
#
# Mechanical properties :
#
#
# Convention : Reuss Voigt Hill
#
# Bulk Modulus (GPa) = 11.44336 36.58312 24.01324
# Shear Modulus (GPa) = 15.52791 26.92145 21.22468
#
# Velocity S-wave (km/s) = 2.83317 3.73048 3.31235
# Velocity P-wave (km/s) = 4.07650 6.12096 5.20019
#
# Compressibility (1/GPa) = 0.08738695
#
# Stress axis : x y z
#
# Youngs Moduli (GPa) = 72.79022 10.35160 74.38200
#
# Poissons Ratio (x) = -0.03005 0.39259
# Poissons Ratio (y) = -0.21131 1.17705
# Poissons Ratio (z) = 0.38418 0.16381
#
# Static dielectric constant tensor:
#      x y z
#    x 1.748330 0.000000 0.012650 
#    y 0.000000 1.670980 0.000000 
#    z 0.012650 0.000000 1.679750 
# 
# From -- ./inp_files/133084.got.cif
#   From: 2010.05.17/outbox.cif.g08.bks.cpg/sg12_67_cif.got.tgz:133084.got - 2010.06.03 13:09:07.
