data_PCOD9168574
_publ_section_title
;
Structure prediction by ZEFSAII (Michael W. Deem and Ramdas Pophale) SiO2 
 PCOD9168574
Probable space group: C 2/M
;
_chemical_formula_sum "Si O2"
_cell_formula_units_Z 44
_cell_length_a 5.549919
_cell_length_b 19.312970
_cell_length_c 20.357180
_cell_angle_alpha 90.000000
_cell_angle_beta 82.886420
_cell_angle_gamma 90.000000
_cell_volume 2165.197231
_symmetry_space_group_name_H-M "C 2/M"
_symmetry_group_IT_number 12
_symmetry_cell_setting 'monoclinic'
loop_
_space_group_symop_operation_xyz
x,y,z
-x,y,-z
-x,-y,-z
x,-y,z
1/2+x,1/2+y,z
1/2-x,1/2+y,-z
1/2-x,1/2-y,-z
1/2+x,1/2-y,z
loop_
_atom_site_type_symbol
_atom_site_label
_atom_site_fract_x
_atom_site_fract_y
_atom_site_fract_z
Si Si1 0.500000 0.293859 0.500000
Si Si2 0.930710 0.205605 0.646051
Si Si3 0.922539 0.117742 0.776699
Si Si4 0.399559 0.103437 0.821716
Si Si5 0.906889 0.246066 0.877524
Si Si6 0.737720 0.079718 0.024947
O O1 0.250000 0.250000 0.500000
O O2 0.533487 0.328368 0.427481
O O3 0.676149 0.248842 0.651431
O O4 0.911362 0.152563 0.706181
O O5 0.670104 0.078395 0.796856
O O6 0.922127 0.177110 0.833528
O O7 0.185584 0.084042 0.779122
O O8 0.423385 0.187746 0.827453
O O9 0.312327 0.080116 0.896276
O O10 0.639695 0.250334 0.915384
O O11 0.749736 0.000000 0.999535
O O12 0.500000 0.112016 0.000000
O O13 0.000000 0.110771 0.000000
#
# Coordination Sequence:
#
# PCOD9168574 Si02
#       6
#     4   8   8   8   8   8
#     4   8  16  24  34  52  82 120 159 190 207 234
#     4  10  16  25  38  58  86 122 159 185 210 240
#     4  10  17  26  43  64  88 116 144 175 208 248
#     4  10  18  29  46  66  84 106 139 177 211 251
#     4   8  14  23  37  57  80 105 130 160 192 231
#     4  10  21  37  54  68  83 107 137 170 216 272
#
# _framework density 20.321473000000001
#
# number of rings (size 3 to 8) (size 9 to 14) (size 15 to 20)
#    0.000    2.545    0.000    5.455    0.000    0.000 
#    0.000    0.000    0.000   29.455    0.000    0.000 
#    0.000    0.000    0.000    4.909    0.000    1.636 
#
# Total GULP energy -122538.179023 kJ/mol
# GULP energy per Si atom -5569.917228 kJ/mol
# Density = 2.027522 g / cm^3
# Si number density = 20.321473 Si / 1000 Ang^3
#
#
#
# Elastic Constant Matrix: (Units=GPa)
#
#
# Indices 1 2 3 4 5 6 
#
# 1 222.2384 8.3721 16.3965 0.0000 -2.3167 0.0000
# 2 8.3721 51.3528 -2.6594 0.0000 -4.0397 0.0000
# 3 16.3965 -2.6594 72.3506 0.0000 -5.0358 0.0000
# 4 0.0000 0.0000 0.0000 30.1488 0.0000 -0.6172
# 5 -2.3167 -4.0397 -5.0358 0.0000 30.9821 0.0000
# 6 0.0000 0.0000 0.0000 -0.6172 0.0000 -24.4428
#
#
#
# Elastic Compliance Matrix: (Units=1/GPa)
#
#
# Indices 1 2 3 4 5 6 
#
# 1 0.004609 -0.000802 -0.001069 0.000000 0.000066 0.000000
# 2 -0.000802 0.019874 0.001101 0.000000 0.002710 0.000000
# 3 -0.001069 0.001101 0.014270 0.000000 0.002383 0.000000
# 4 0.000000 0.000000 0.000000 0.033152 0.000000 -0.000837
# 5 0.000066 0.002710 0.002383 0.000000 0.033022 0.000000
# 6 0.000000 0.000000 0.000000 -0.000837 0.000000 -0.040891
#
#
# Mechanical properties :
#
#
# Convention : Reuss Voigt Hill
#
# Bulk Modulus (GPa) = 26.87218 43.35114 35.11166
# Shear Modulus (GPa) = 64.11711 28.92644 46.52177
#
# Velocity S-wave (km/s) = 5.62316 3.77695 4.78984
# Velocity P-wave (km/s) = 7.44393 6.35605 6.92140
#
# Compressibility (1/GPa) = 0.03721321
#
# Stress axis : x y z
#
# Youngs Moduli (GPa) = 216.94480 50.31688 70.07565
#
# Poissons Ratio (x) = 0.04034 0.07494
# Poissons Ratio (y) = 0.17392 -0.07714
# Poissons Ratio (z) = 0.23202 -0.05539
#
# Static dielectric constant tensor:
#      x y z
#    x 1.837990 0.000000 -0.002460 
#    y 0.000000 1.760720 0.000000 
#    z -0.002460 0.000000 1.681190 
# 
# From -- ./inp_files/252902.got.cif
#   From: 2010.05.17/outbox.cif.g08.bks.cpg/sg12_127_cif.got.tgz:252902.got - 2010.06.03 13:09:07.
