data_PCOD9168606
_publ_section_title
;
Structure prediction by ZEFSAII (Michael W. Deem and Ramdas Pophale) SiO2 
 PCOD9168606
Probable space group: C 2/M
;
_chemical_formula_sum "Si O2"
_cell_formula_units_Z 44
_cell_length_a 5.459300
_cell_length_b 23.039851
_cell_length_c 22.167753
_cell_angle_alpha 90.000000
_cell_angle_beta 111.681507
_cell_angle_gamma 90.000000
_cell_volume 2591.025822
_symmetry_space_group_name_H-M "C 2/M"
_symmetry_group_IT_number 12
_symmetry_cell_setting 'monoclinic'
loop_
_space_group_symop_operation_xyz
x,y,z
-x,y,-z
-x,-y,-z
x,-y,z
1/2+x,1/2+y,z
1/2-x,1/2+y,-z
1/2-x,1/2-y,-z
1/2+x,1/2-y,z
loop_
_atom_site_type_symbol
_atom_site_label
_atom_site_fract_x
_atom_site_fract_y
_atom_site_fract_z
Si Si1 0.394349 0.680341 0.264091
Si Si2 0.500000 0.785719 0.000000
Si Si3 0.818191 0.629448 0.878844
Si Si4 0.025055 0.313361 0.682188
Si Si5 0.790890 0.684337 0.527256
Si Si6 0.384283 0.430400 0.922896
O O1 0.282896 0.664301 0.188750
O O2 0.188969 0.657001 0.294507
O O3 0.423752 0.749060 0.284060
O O4 0.690967 0.657072 0.295141
O O5 0.595321 0.824628 0.063527
O O6 0.750000 0.750000 0.000000
O O7 0.582468 0.593202 0.889319
O O8 0.085246 0.593144 0.889366
O O9 0.907203 0.309476 0.604688
O O10 0.500000 0.656859 0.500000
O O11 0.750000 0.750000 0.500000
O O12 0.000000 0.656854 0.500000
O O13 0.381261 0.500000 0.920782
O O14 0.500000 0.413149 0.000000
#
# Coordination Sequence:
#
# PCOD9168606 Si02
#       6
#     8   4   8   8   8   8
#     4  10  20  30  47  61  99 130 169 202 233 300
#     4  12  26  36  53  74 111 138 172 216 248 300
#     4  12  23  39  54  80 100 134 178 207 274 318
#     4  10  19  32  42  68  96 143 180 198 237 289
#     4  10  16  25  43  62  87 123 181 224 237 260
#     4  11  22  41  62  79  96 119 162 236 290 324
#
# _framework density 16.981691999999999
#
# number of rings (size 3 to 8) (size 9 to 14) (size 15 to 20)
#    0.000    1.273    1.818    8.182    5.091    1.455 
#    0.000    0.000    0.000    0.000    0.000    0.000 
#    0.000    0.000    0.000    0.000    0.000  774.545 
#
# Total GULP energy -122636.909982 kJ/mol
# GULP energy per Si atom -5574.404999 kJ/mol
# Density = 1.694304 g / cm^3
# Si number density = 16.981692 Si / 1000 Ang^3
#
#
#
# Elastic Constant Matrix: (Units=GPa)
#
#
# Indices 1 2 3 4 5 6 
#
# 1 217.7594 36.7439 81.1408 0.0000 6.7672 0.0000
# 2 36.7439 42.3833 38.1823 0.0000 0.6893 0.0000
# 3 81.1408 38.1823 202.6741 0.0000 2.9878 0.0000
# 4 0.0000 0.0000 0.0000 -23.9376 0.0000 1.8692
# 5 6.7672 0.6893 2.9878 0.0000 32.0018 0.0000
# 6 0.0000 0.0000 0.0000 1.8692 0.0000 18.9496
#
#
#
# Elastic Compliance Matrix: (Units=1/GPa)
#
#
# Indices 1 2 3 4 5 6 
#
# 1 0.005840 -0.003557 -0.001653 0.000000 -0.001004 0.000000
# 2 -0.003557 0.030584 -0.004345 0.000000 0.000499 0.000000
# 3 -0.001653 -0.004345 0.006417 0.000000 -0.000156 0.000000
# 4 0.000000 0.000000 0.000000 -0.041456 0.000000 0.004089
# 5 -0.001004 0.000499 -0.000156 0.000000 0.031464 0.000000
# 6 0.000000 0.000000 0.000000 0.004089 0.000000 0.052368
#
#
# Mechanical properties :
#
#
# Convention : Reuss Voigt Hill
#
# Bulk Modulus (GPa) = 42.14042 86.10565 64.12303
# Shear Modulus (GPa) = 44.54841 25.85276 35.20059
#
# Velocity S-wave (km/s) = 5.12739 3.90601 4.55780
# Velocity P-wave (km/s) = 7.74097 8.43550 8.09569
#
# Compressibility (1/GPa) = 0.02373019
#
# Stress axis : x y z
#
# Youngs Moduli (GPa) = 171.24603 32.69645 155.84404
#
# Poissons Ratio (x) = 0.11631 0.25760
# Poissons Ratio (y) = 0.60915 0.67716
# Poissons Ratio (z) = 0.28306 0.14207
#
# Static dielectric constant tensor:
#      x y z
#    x 1.695820 0.000000 0.005750 
#    y 0.000000 1.537350 0.000000 
#    z 0.005750 0.000000 1.536220 
# 
# From -- ./inp_files/297797.got.cif
#   From: 2010.05.17/outbox.cif.g08.bks.cpg/sg12_149_cif.got.tgz:297797.got - 2010.06.03 13:09:07.
