data_PCOD9168254
_publ_section_title
;
Structure prediction by ZEFSAII (Michael W. Deem and Ramdas Pophale) SiO2 
 PCOD9168254
Probable space group: P 21/M
;
_chemical_formula_sum "Si O2"
_cell_formula_units_Z 32
_cell_length_a 21.000000
_cell_length_b 15.000000
_cell_length_c 15.000000
_cell_angle_alpha 90.000000
_cell_angle_beta 160.000000
_cell_angle_gamma 90.000000
_cell_volume 1616.045177
_symmetry_space_group_name_H-M "P 21/M"
_symmetry_group_IT_number 11
_symmetry_cell_setting 'monoclinic'
loop_
_space_group_symop_operation_xyz
x,y,z
-x,1/2+y,-z
-x,-y,-z
x,1/2-y,z
loop_
_atom_site_type_symbol
_atom_site_label
_atom_site_fract_x
_atom_site_fract_y
_atom_site_fract_z
Si Si1 0.651857 0.965893 0.131864
Si Si2 0.695241 0.649377 0.715823
Si Si3 0.045478 0.903203 0.710388
Si Si4 0.844427 0.151812 0.341079
Si Si5 0.250674 0.654920 0.157584
Si Si6 0.169117 0.104856 0.906783
Si Si7 0.469393 0.855392 0.728368
Si Si8 0.213775 0.979388 0.268445
O O1 0.731978 0.059025 0.198328
O O2 0.823305 0.920663 0.411290
O O3 0.500000 0.000000 0.000000
O O4 0.556549 0.901523 0.932392
O O5 0.759705 0.750000 0.777813
O O6 0.473440 0.654457 0.439128
O O7 0.705824 0.576362 0.651258
O O8 0.806105 0.620639 0.953481
O O9 0.080906 0.855306 0.662231
O O10 0.143820 0.000459 0.849409
O O11 0.133582 0.854811 0.912143
O O12 0.752714 0.250000 0.230064
O O13 0.999668 0.146541 0.624917
O O14 0.198427 0.750000 0.130446
O O15 0.219319 0.576995 0.185270
O O16 0.359829 0.141858 0.116636
O O17 0.415421 0.750000 0.670400
O O18 0.313652 0.920776 0.477809
O O19 0.000000 0.000000 0.000000
#
# Coordination Sequence:
#
# PCOD9168254 Si02
#       8
#     4   4   4   4   4   4   4   4
#     4  11  26  43  65  95 137 172 214 261 326 386
#     4  11  23  41  68  96 127 169 220 272 322 379
#     4  11  21  40  65  95 131 171 209 274 332 376
#     4  11  22  39  65  97 131 170 217 272 327 385
#     4  11  23  40  65  96 126 165 215 270 329 382
#     4  11  19  39  68  99 126 164 223 281 321 368
#     4  12  24  43  72  98 124 170 223 267 317 384
#     4  12  27  43  64  93 138 171 209 263 323 388
#
# _framework density 19.801427
#
# number of rings (size 3 to 8) (size 9 to 14) (size 15 to 20)
#    0.000    0.750    5.000    3.750    1.750    2.000 
#    0.000    0.000    0.000    0.000    0.000    0.000 
#    0.000    0.000    0.000    0.000    0.000    0.000 
#
# Total GULP energy -178357.884554 kJ/mol
# GULP energy per Si atom -5573.683892 kJ/mol
# Density = 1.975636 g / cm^3
# Si number density = 19.801427 Si / 1000 Ang^3
#
#
#
# Elastic Constant Matrix: (Units=GPa)
#
#
# Indices 1 2 3 4 5 6 
#
# 1 15.9522 14.3448 37.8878 0.0000 -5.3296 0.0000
# 2 14.3448 154.1520 45.7345 0.0000 -6.9707 0.0000
# 3 37.8878 45.7345 124.4856 0.0000 -29.0431 0.0000
# 4 0.0000 0.0000 0.0000 23.6415 0.0000 -22.7481
# 5 -5.3296 -6.9707 -29.0431 0.0000 39.3414 0.0000
# 6 0.0000 0.0000 0.0000 -22.7481 0.0000 -47.1719
#
#
#
# Elastic Compliance Matrix: (Units=1/GPa)
#
#
# Indices 1 2 3 4 5 6 
#
# 1 0.247365 -0.000048 -0.081488 0.000000 -0.026655 0.000000
# 2 -0.000048 0.007303 -0.002861 0.000000 -0.000824 0.000000
# 3 -0.081488 -0.002861 0.037682 0.000000 0.016272 0.000000
# 4 0.000000 0.000000 0.000000 0.028892 0.000000 -0.013933
# 5 -0.026655 -0.000824 0.016272 0.000000 0.033674 0.000000
# 6 0.000000 0.000000 0.000000 -0.013933 0.000000 -0.014480
#
#
# Mechanical properties :
#
#
# Convention : Reuss Voigt Hill
#
# Bulk Modulus (GPa) = 8.09346 54.50267 31.29806
# Shear Modulus (GPa) = 9.08406 16.27038 12.67722
#
# Velocity S-wave (km/s) = 2.14419 2.86960 2.53300
# Velocity P-wave (km/s) = 3.19785 6.20998 4.93913
#
# Compressibility (1/GPa) = 0.12355650
#
# Stress axis : x y z
#
# Youngs Moduli (GPa) = 4.04260 136.92930 26.53813
#
# Poissons Ratio (x) = 0.00657 2.16254
# Poissons Ratio (y) = 0.00019 0.07592
# Poissons Ratio (z) = 0.32942 0.39173
#
# Static dielectric constant tensor:
#      x y z
#    x 1.910290 0.000000 0.159350 
#    y 0.000000 1.759030 0.000000 
#    z 0.159350 0.000000 1.786020 
# 
# From -- ./inp_files/55046.got.cif
#   From: 2010.05.17/outbox.ucp.g08.bks.cvg/sg11_28_cif.got.tgz:55046.got - 2010.06.11 11:38:39.
