data_PCOD9168761
_publ_section_title
;
Structure prediction by ZEFSAII (Michael W. Deem and Ramdas Pophale) SiO2 
 PCOD9168761
Probable space group: C 2/M
;
_chemical_formula_sum "Si O2"
_cell_formula_units_Z 40
_cell_length_a 33.246976
_cell_length_b 12.851030
_cell_length_c 25.883387
_cell_angle_alpha 90.000000
_cell_angle_beta 13.933243
_cell_angle_gamma 90.000000
_cell_volume 2662.881405
_symmetry_space_group_name_H-M "C 2/M"
_symmetry_group_IT_number 12
_symmetry_cell_setting 'monoclinic'
loop_
_space_group_symop_operation_xyz
x,y,z
-x,y,-z
-x,-y,-z
x,-y,z
1/2+x,1/2+y,z
1/2-x,1/2+y,-z
1/2-x,1/2-y,-z
1/2+x,1/2-y,z
loop_
_atom_site_type_symbol
_atom_site_label
_atom_site_fract_x
_atom_site_fract_y
_atom_site_fract_z
Si Si1 0.510139 0.162885 0.815792
Si Si2 0.097906 0.884792 0.683543
Si Si3 0.509638 0.662323 0.299661
Si Si4 0.554697 0.000000 0.016985
Si Si5 0.606478 0.117118 0.152554
Si Si6 0.724189 0.500000 0.357866
O O1 0.701688 0.128038 0.566366
O O2 0.518608 0.287223 0.812123
O O3 0.410967 0.135666 0.887223
O O4 0.444302 0.099520 0.946584
O O5 0.041101 0.872303 0.694852
O O6 0.053991 0.000000 0.756920
O O7 0.506248 0.788048 0.304107
O O8 0.388038 0.600939 0.489549
O O9 0.700216 0.629665 0.072814
O O10 0.380509 0.000000 0.202551
O O11 0.700850 0.000000 0.792786
O O12 0.549732 0.000000 0.235406
#
# Coordination Sequence:
#
# PCOD9168761 Si02
#       6
#     8   8   8   4   8   4
#     4  10  18  28  44  71  93 117 160 194 240 273
#     4  10  16  28  48  65  95 121 149 205 235 276
#     4  10  18  30  46  71  95 127 160 180 241 290
#     4  11  20  33  49  69  97 131 166 194 225 282
#     4  10  18  28  48  71 101 119 144 208 243 275
#     4  11  20  33  51  65  99 135 162 191 222 296
#
# _framework density 15.021322
#
# number of rings (size 3 to 8) (size 9 to 14) (size 15 to 20)
#    0.000    1.800    6.000    0.000    0.000    0.000 
#    0.000    2.000    0.000    1.200    0.000    2.800 
#    0.000    9.600    0.000    0.000    0.000    0.000 
#
# Total GULP energy -111447.608408 kJ/mol
# GULP energy per Si atom -5572.380420 kJ/mol
# Density = 1.498713 g / cm^3
# Si number density = 15.021322 Si / 1000 Ang^3
#
#
#
# Elastic Constant Matrix: (Units=GPa)
#
#
# Indices 1 2 3 4 5 6 
#
# 1 34.1285 10.1691 8.1998 0.0029 4.3843 0.0006
# 2 10.1691 175.9380 29.8533 0.0010 27.0810 -0.0008
# 3 8.1998 29.8533 43.4191 0.0010 15.4001 -0.0012
# 4 0.0029 0.0010 0.0010 28.0838 -0.0010 -3.1194
# 5 4.3843 27.0810 15.4001 -0.0010 29.7583 0.0008
# 6 0.0006 -0.0008 -0.0012 -3.1194 0.0008 20.3736
#
#
#
# Elastic Compliance Matrix: (Units=1/GPa)
#
#
# Indices 1 2 3 4 5 6 
#
# 1 0.030860 -0.000755 -0.004826 -0.000003 -0.001362 -0.000002
# 2 -0.000755 0.006952 -0.002980 0.000000 -0.004674 0.000000
# 3 -0.004826 -0.002980 0.030348 -0.000001 -0.012282 0.000002
# 4 -0.000003 0.000000 -0.000001 0.036224 0.000002 0.005546
# 5 -0.001362 -0.004674 -0.012282 0.000002 0.044414 -0.000002
# 6 -0.000002 0.000000 0.000002 0.005546 -0.000002 0.049932
#
#
# Mechanical properties :
#
#
# Convention : Reuss Voigt Hill
#
# Bulk Modulus (GPa) = 19.59280 38.88111 29.23696
# Shear Modulus (GPa) = 21.47155 29.32735 25.39945
#
# Velocity S-wave (km/s) = 3.78485 4.42337 4.11651
# Velocity P-wave (km/s) = 5.67201 7.21307 6.48846
#
# Compressibility (1/GPa) = 0.05103915
#
# Stress axis : x y z
#
# Youngs Moduli (GPa) = 32.40390 143.83333 32.95100
#
# Poissons Ratio (x) = 0.10863 0.15901
# Poissons Ratio (y) = 0.02447 0.09819
# Poissons Ratio (z) = 0.15637 0.42862
#
# Static dielectric constant tensor:
#      x y z
#    x 1.488920 0.000000 -0.029980 
#    y 0.000000 1.552950 0.000000 
#    z -0.029980 0.000000 1.462510 
# 
# From -- ./inp_files/187894.got.cif
#   From: 2010.05.17/outbox.cif.g08.bks.cpg/sg12_94_cif.got.tgz:187894.got - 2010.06.03 13:09:07.
