data_PCOD9168994
_publ_section_title
;
Structure prediction by ZEFSAII (Michael W. Deem and Ramdas Pophale) SiO2 
 PCOD9168994
Probable space group: C 2/M
;
_chemical_formula_sum "Si O2"
_cell_formula_units_Z 46
_cell_length_a 6.772225
_cell_length_b 27.096444
_cell_length_c 13.994435
_cell_angle_alpha 90.000000
_cell_angle_beta 128.778725
_cell_angle_gamma 90.000000
_cell_volume 2001.955822
_symmetry_space_group_name_H-M "C 2/M"
_symmetry_group_IT_number 12
_symmetry_cell_setting 'monoclinic'
loop_
_space_group_symop_operation_xyz
x,y,z
-x,y,-z
-x,-y,-z
x,-y,z
1/2+x,1/2+y,z
1/2-x,1/2+y,-z
1/2-x,1/2-y,-z
1/2+x,1/2-y,z
loop_
_atom_site_type_symbol
_atom_site_label
_atom_site_fract_x
_atom_site_fract_y
_atom_site_fract_z
Si Si1 0.618283 0.589385 0.349133
Si Si2 0.000000 0.151066 0.500000
Si Si3 0.500000 0.000000 0.500000
Si Si4 0.456476 0.055348 0.873181
Si Si5 0.210759 0.712316 0.268240
Si Si6 0.181052 0.344362 0.959624
Si Si7 0.608300 0.322067 0.229549
O O1 0.602114 0.616735 0.446291
O O2 0.793273 0.542678 0.409865
O O3 0.331071 0.572844 0.234354
O O4 0.727904 0.627631 0.303818
O O5 0.786883 0.186546 0.389794
O O6 0.637223 0.101435 0.900235
O O7 0.500111 0.000000 0.845067
O O8 0.500000 0.050915 0.000000
O O9 0.398364 0.688267 0.248006
O O10 0.253679 0.770564 0.277103
O O11 0.935739 0.696784 0.145588
O O12 0.454241 0.332462 0.085987
O O13 0.000000 0.344200 0.000000
#
# Coordination Sequence:
#
# PCOD9168994 Si02
#       7
#     8   4   2   8   8   8   8
#     4  11  22  40  57  88 117 151 196 237 289 340
#     4  10  22  38  60  80 114 158 204 226 264 362
#     4  12  28  40  58  84 122 152 184 240 302 336
#     4  10  16  31  63  87 106 137 199 252 277 326
#     4  10  20  33  56  85 118 155 189 234 286 341
#     4   9  15  32  53  88 113 137 188 249 281 331
#     4  10  20  35  58  84 118 146 198 240 290 336
#
# _framework density 22.977530000000002
#
# number of rings (size 3 to 8) (size 9 to 14) (size 15 to 20)
#    0.000    1.913    7.826    0.522    0.000    5.217 
#    0.000    0.000    0.000    0.000    0.000    6.087 
#    0.000    0.000    0.000    0.000    0.000    0.000 
#
# Total GULP energy -128245.523559 kJ/mol
# GULP energy per Si atom -5575.892329 kJ/mol
# Density = 2.292523 g / cm^3
# Si number density = 22.977530 Si / 1000 Ang^3
#
#
#
# Elastic Constant Matrix: (Units=GPa)
#
#
# Indices 1 2 3 4 5 6 
#
# 1 33.3442 25.9435 33.6526 0.0000 4.7394 0.0000
# 2 25.9435 228.6207 97.4140 0.0000 5.4155 0.0000
# 3 33.6526 97.4140 164.1092 0.0000 -0.6737 0.0000
# 4 0.0000 0.0000 0.0000 -29.1317 0.0000 72.6038
# 5 4.7394 5.4155 -0.6737 0.0000 30.9949 0.0000
# 6 0.0000 0.0000 0.0000 72.6038 0.0000 -33.1999
#
#
#
# Elastic Compliance Matrix: (Units=1/GPa)
#
#
# Indices 1 2 3 4 5 6 
#
# 1 0.039177 -0.001166 -0.007366 0.000000 -0.005947 0.000000
# 2 -0.001166 0.005927 -0.003283 0.000000 -0.000929 0.000000
# 3 -0.007366 -0.003283 0.009561 0.000000 0.001908 0.000000
# 4 0.000000 0.000000 0.000000 0.007713 0.000000 0.016868
# 5 -0.005947 -0.000929 0.001908 0.000000 0.033376 0.000000
# 6 0.000000 0.000000 0.000000 0.016868 0.000000 0.006768
#
#
# Mechanical properties :
#
#
# Convention : Reuss Voigt Hill
#
# Bulk Modulus (GPa) = 32.22227 82.23270 57.22749
# Shear Modulus (GPa) = 36.63056 11.67028 24.15042
#
# Velocity S-wave (km/s) = 3.99706 2.25611 3.24550
# Velocity P-wave (km/s) = 5.94608 6.53090 6.24534
#
# Compressibility (1/GPa) = 0.03103443
#
# Stress axis : x y z
#
# Youngs Moduli (GPa) = 25.52525 168.71109 104.59628
#
# Poissons Ratio (x) = 0.19677 0.77043
# Poissons Ratio (y) = 0.02977 0.34339
# Poissons Ratio (z) = 0.18801 0.55389
#
# Static dielectric constant tensor:
#      x y z
#    x 1.973470 0.000000 -0.007720 
#    y 0.000000 1.873830 0.000000 
#    z -0.007720 0.000000 1.839540 
# 
# From -- ./inp_files/200265.got.cif
#   From: 2010.05.17/outbox.cif.g08.bks.cpg/sg12_101_cif.got.tgz:200265.got - 2010.06.03 13:09:07.
