data_PCOD9168128
_publ_section_title
;
Structure prediction by ZEFSAII (Michael W. Deem and Ramdas Pophale) SiO2 
 PCOD9168128
Probable space group: P 21/M
;
_chemical_formula_sum "Si O2"
_cell_formula_units_Z 28
_cell_length_a 21.000000
_cell_length_b 9.000000
_cell_length_c 15.000000
_cell_angle_alpha 90.000000
_cell_angle_beta 30.000000
_cell_angle_gamma 90.000000
_cell_volume 1417.500000
_symmetry_space_group_name_H-M "P 21/M"
_symmetry_group_IT_number 11
_symmetry_cell_setting 'monoclinic'
loop_
_space_group_symop_operation_xyz
x,y,z
-x,1/2+y,-z
-x,-y,-z
x,1/2-y,z
loop_
_atom_site_type_symbol
_atom_site_label
_atom_site_fract_x
_atom_site_fract_y
_atom_site_fract_z
Si Si1 0.317695 0.569952 0.872273
Si Si2 0.847815 0.072309 0.583055
Si Si3 0.858871 0.927744 0.764845
Si Si4 0.149760 0.580447 0.726244
Si Si5 0.894739 0.420997 0.007160
Si Si6 0.580515 0.926624 0.629098
Si Si7 0.597819 0.927272 0.812247
O O1 0.318352 0.750000 0.877430
O O2 0.464927 0.521600 0.705388
O O3 0.239453 0.500129 0.048247
O O4 0.233505 0.527836 0.887813
O O5 0.827973 0.250000 0.609776
O O6 0.995653 0.044432 0.378573
O O7 0.838910 0.003045 0.692955
O O8 0.738087 0.997569 0.656701
O O9 0.842549 0.750000 0.777433
O O10 0.161614 0.750000 0.682259
O O11 0.282337 0.498473 0.550966
O O12 0.024474 0.510552 0.832884
O O13 0.126954 0.575896 0.860493
O O14 0.917124 0.250000 0.953338
O O15 0.594203 0.750000 0.600350
O O16 0.547889 0.953736 0.772486
O O17 0.605309 0.750000 0.817159
O O18 0.500000 0.000000 0.000000
#
# Coordination Sequence:
#
# PCOD9168128 Si02
#       7
#     4   4   4   4   4   4   4
#     4  10  21  38  60  84 116 156 194 240 295 353
#     4  10  21  37  56  80 112 152 195 242 294 349
#     4  10  21  36  56  84 116 148 192 244 292 346
#     4  10  21  38  61  89 119 152 196 244 291 350
#     4   9  20  39  62  88 118 155 194 240 298 352
#     4  10  23  40  58  85 119 156 196 240 295 354
#     4  11  23  38  58  83 115 155 199 245 296 351
#
# _framework density 19.753086
#
# number of rings (size 3 to 8) (size 9 to 14) (size 15 to 20)
#    0.000    2.000    0.000    2.571    2.000    6.286 
#    0.000    0.000    0.000    0.000    0.000    0.000 
#    0.000    0.000    0.000    0.000    0.000    0.000 
#
# Total GULP energy -156357.194352 kJ/mol
# GULP energy per Si atom -5584.185513 kJ/mol
# Density = 1.970813 g / cm^3
# Si number density = 19.753086 Si / 1000 Ang^3
#
#
#
# Elastic Constant Matrix: (Units=GPa)
#
#
# Indices 1 2 3 4 5 6 
#
# 1 111.4484 43.8020 24.0446 0.0000 -43.9871 0.0000
# 2 43.8020 39.3181 29.5225 0.0000 -17.9177 0.0000
# 3 24.0446 29.5225 65.7218 0.0000 -29.0788 0.0000
# 4 0.0000 0.0000 0.0000 31.2107 0.0000 -4.2637
# 5 -43.9871 -17.9177 -29.0788 0.0000 31.8656 0.0000
# 6 0.0000 0.0000 0.0000 -4.2637 0.0000 23.2443
#
#
#
# Elastic Compliance Matrix: (Units=1/GPa)
#
#
# Indices 1 2 3 4 5 6 
#
# 1 0.050072 -0.049392 0.037169 0.000000 0.075265 0.000000
# 2 -0.049392 0.089019 -0.050210 0.000000 -0.063945 0.000000
# 3 0.037169 -0.050210 0.057664 0.000000 0.075696 0.000000
# 4 0.000000 0.000000 0.000000 0.032864 0.000000 0.006028
# 5 0.075265 -0.063945 0.075696 0.000000 0.168398 0.000000
# 6 0.000000 0.000000 0.000000 0.006028 0.000000 0.044127
#
#
# Mechanical properties :
#
#
# Convention : Reuss Voigt Hill
#
# Bulk Modulus (GPa) = 13.91041 45.69183 29.80112
# Shear Modulus (GPa) = 8.46065 25.20542 16.83304
#
# Velocity S-wave (km/s) = 2.07184 3.57602 2.92237
# Velocity P-wave (km/s) = 3.57502 6.34289 5.14845
#
# Compressibility (1/GPa) = 0.07188861
#
# Stress axis : x y z
#
# Youngs Moduli (GPa) = 19.97124 11.23360 17.34198
#
# Poissons Ratio (x) = 0.55485 -0.64459
# Poissons Ratio (y) = 0.98642 0.87074
# Poissons Ratio (z) = -0.74232 0.56404
#
# Static dielectric constant tensor:
#      x y z
#    x 1.712500 0.000000 0.001180 
#    y 0.000000 1.667120 0.000000 
#    z 0.001180 0.000000 1.685030 
# 
# From -- ./inp_files/54524.got.cif
#   From: 2010.05.17/outbox.ucp.g08.bks.cvg/sg11_28_cif.got.tgz:54524.got - 2010.06.11 11:38:39.
