data_PCOD9168709
_publ_section_title
;
Structure prediction by ZEFSAII (Michael W. Deem and Ramdas Pophale) SiO2 
 PCOD9168709
Probable space group: C 2/M
;
_chemical_formula_sum "Si O2"
_cell_formula_units_Z 64
_cell_length_a 24.040203
_cell_length_b 27.196758
_cell_length_c 8.196483
_cell_angle_alpha 90.000000
_cell_angle_beta 48.916770
_cell_angle_gamma 90.000000
_cell_volume 4039.368353
_symmetry_space_group_name_H-M "C 2/M"
_symmetry_group_IT_number 12
_symmetry_cell_setting 'monoclinic'
loop_
_space_group_symop_operation_xyz
x,y,z
-x,y,-z
-x,-y,-z
x,-y,z
1/2+x,1/2+y,z
1/2-x,1/2+y,-z
1/2-x,1/2-y,-z
1/2+x,1/2-y,z
loop_
_atom_site_type_symbol
_atom_site_label
_atom_site_fract_x
_atom_site_fract_y
_atom_site_fract_z
Si Si1 0.955134 0.753985 0.919649
Si Si2 0.938278 0.055184 0.858108
Si Si3 0.233932 0.714243 0.381779
Si Si4 0.673344 0.211625 0.991741
Si Si5 0.645526 0.350151 0.933835
Si Si6 0.815111 0.151848 0.756862
Si Si7 0.896357 0.252733 0.539775
Si Si8 0.896381 0.055548 0.551389
O O1 0.890585 0.713655 0.021042
O O2 0.017553 0.748773 0.661405
O O3 0.912894 0.806184 0.984434
O O4 0.000000 0.751731 0.000000
O O5 0.916228 0.055619 0.707582
O O6 0.026019 0.064750 0.689665
O O7 0.924482 0.000000 0.946634
O O8 0.892230 0.098066 0.031659
O O9 0.250000 0.750000 0.500000
O O10 0.280097 0.664400 0.306563
O O11 0.148111 0.715067 0.507962
O O12 0.272754 0.742456 0.154096
O O13 0.629587 0.224174 0.240094
O O14 0.729654 0.166516 0.894826
O O15 0.667015 0.350753 0.084287
O O16 0.864707 0.196934 0.592790
O O17 0.840341 0.100171 0.632816
O O18 0.871082 0.000000 0.561203
#
# Coordination Sequence:
#
# PCOD9168709 Si02
#       8
#     8   8   8   8   8   8   8   8
#     4  11  22  30  41  63  91 119 148 186 225 270
#     4   8  14  24  40  64  92 119 149 186 220 258
#     4  10  18  29  42  60  89 118 149 190 223 266
#     4  10  19  31  43  64  84 114 155 184 222 265
#     4  10  17  29  43  63  88 119 158 180 221 270
#     4  10  16  27  45  65  85 117 153 186 217 267
#     4  11  17  29  44  62  85 117 154 184 220 261
#     4   8  14  23  38  65  96 118 141 183 233 261
#
# _framework density 15.844061
#
# number of rings (size 3 to 8) (size 9 to 14) (size 15 to 20)
#    0.000    2.250    3.750    4.125    0.000    1.000 
#    0.000    0.000    0.000    0.375    0.000    7.000 
#    0.000    3.500    0.000    0.000    0.000    4.500 
#
# Total GULP energy -178262.227617 kJ/mol
# GULP energy per Si atom -5570.694613 kJ/mol
# Density = 1.580800 g / cm^3
# Si number density = 15.844061 Si / 1000 Ang^3
#
#
#
# Elastic Constant Matrix: (Units=GPa)
#
#
# Indices 1 2 3 4 5 6 
#
# 1 87.3793 38.1022 18.4665 0.0000 -17.7924 0.0000
# 2 38.1022 116.1774 34.6909 0.0000 -22.8279 0.0000
# 3 18.4665 34.6909 41.3678 0.0000 -12.9849 0.0000
# 4 0.0000 0.0000 0.0000 23.0997 0.0000 -11.2626
# 5 -17.7924 -22.8279 -12.9849 0.0000 25.6197 0.0000
# 6 0.0000 0.0000 0.0000 -11.2626 0.0000 16.4390
#
#
#
# Elastic Compliance Matrix: (Units=1/GPa)
#
#
# Indices 1 2 3 4 5 6 
#
# 1 0.014433 -0.002864 -0.002017 0.000000 0.006449 0.000000
# 2 -0.002864 0.012995 -0.007859 0.000000 0.005607 0.000000
# 3 -0.002017 -0.007859 0.034518 0.000000 0.009091 0.000000
# 4 0.000000 0.000000 0.000000 0.065005 0.000000 0.044536
# 5 0.006449 0.005607 0.009091 0.000000 0.053115 0.000000
# 6 0.000000 0.000000 0.000000 0.044536 0.000000 0.091343
#
#
# Mechanical properties :
#
#
# Convention : Reuss Voigt Hill
#
# Bulk Modulus (GPa) = 27.42282 47.49374 37.45828
# Shear Modulus (GPa) = 16.17891 23.27601 19.72746
#
# Velocity S-wave (km/s) = 3.19899 3.83700 3.53243
# Velocity P-wave (km/s) = 5.56688 7.04776 6.35063
#
# Compressibility (1/GPa) = 0.03646598
#
# Stress axis : x y z
#
# Youngs Moduli (GPa) = 69.28757 76.95038 28.97024
#
# Poissons Ratio (x) = 0.22039 0.05842
# Poissons Ratio (y) = 0.19844 0.22769
# Poissons Ratio (z) = 0.13973 0.60479
#
# Static dielectric constant tensor:
#      x y z
#    x 1.591290 0.000000 0.039760 
#    y 0.000000 1.528880 0.000000 
#    z 0.039760 0.000000 1.585010 
# 
# From -- ./inp_files/99913.got.cif
#   From: 2010.05.17/outbox.cif.g08.bks.cpg/sg12_50_cif.got.tgz:99913.got - 2010.06.03 13:09:07.
