data_PCOD9168844
_publ_section_title
;
Structure prediction by ZEFSAII (Michael W. Deem and Ramdas Pophale) SiO2 
 PCOD9168844
Probable space group: C 2/M
;
_chemical_formula_sum "Si O2"
_cell_formula_units_Z 56
_cell_length_a 14.872947
_cell_length_b 28.565871
_cell_length_c 11.236268
_cell_angle_alpha 90.000000
_cell_angle_beta 42.848449
_cell_angle_gamma 90.000000
_cell_volume 3246.495302
_symmetry_space_group_name_H-M "C 2/M"
_symmetry_group_IT_number 12
_symmetry_cell_setting 'monoclinic'
loop_
_space_group_symop_operation_xyz
x,y,z
-x,y,-z
-x,-y,-z
x,-y,z
1/2+x,1/2+y,z
1/2-x,1/2+y,-z
1/2-x,1/2-y,-z
1/2+x,1/2-y,z
loop_
_atom_site_type_symbol
_atom_site_label
_atom_site_fract_x
_atom_site_fract_y
_atom_site_fract_z
Si Si1 0.792406 0.386394 0.878992
Si Si2 0.353148 0.204374 0.663056
Si Si3 0.983555 0.357166 0.876212
Si Si4 0.603596 0.243577 0.007177
Si Si5 0.015523 0.158411 0.133484
Si Si6 0.226401 0.359280 0.472403
Si Si7 0.845209 0.447528 0.618761
O O1 0.855970 0.343502 0.738956
O O2 0.780078 0.430645 0.804756
O O3 0.890943 0.393019 0.893498
O O4 0.644336 0.369803 0.047362
O O5 0.500000 0.222913 0.500000
O O6 0.247463 0.239917 0.822307
O O7 0.301127 0.184776 0.587971
O O8 0.129384 0.354046 0.677862
O O9 0.000000 0.366272 0.000000
O O10 0.906441 0.307714 0.929301
O O11 0.500000 0.239982 0.000000
O O12 0.547049 0.287564 0.134343
O O13 0.884412 0.141232 0.325695
O O14 0.000000 0.155560 0.000000
O O15 0.186107 0.407631 0.446700
O O16 0.807430 0.500000 0.619728
O O17 0.000000 0.446624 0.500000
#
# Coordination Sequence:
#
# PCOD9168844 Si02
#       7
#     8   8   8   8   8   8   8
#     4  10  18  34  53  77 110 139 165 216 285 316
#     4  10  16  29  54  76  95 130 174 224 284 320
#     4  11  23  36  49  69 106 152 194 219 248 306
#     4   9  18  33  45  73 104 132 187 226 252 309
#     4  10  17  31  55  80 109 133 171 217 281 330
#     4  11  18  35  54  77 107 146 164 220 285 318
#     4  10  18  31  60  93 110 123 169 229 284 340
#
# _framework density 17.249371
#
# number of rings (size 3 to 8) (size 9 to 14) (size 15 to 20)
#    0.000    1.857    8.571    0.857    0.000    2.857 
#    0.000    2.143    0.000    1.714    0.000    0.000 
#    0.000    2.286    0.000    0.000    0.000    0.000 
#
# Total GULP energy -155975.354270 kJ/mol
# GULP energy per Si atom -5570.548367 kJ/mol
# Density = 1.721011 g / cm^3
# Si number density = 17.249371 Si / 1000 Ang^3
#
#
#
# Elastic Constant Matrix: (Units=GPa)
#
#
# Indices 1 2 3 4 5 6 
#
# 1 43.1923 -11.5041 38.7141 0.0000 -1.1946 0.0000
# 2 -11.5041 48.0588 26.2412 0.0000 -1.1750 0.0000
# 3 38.7141 26.2412 118.5836 0.0000 -10.2304 0.0000
# 4 0.0000 0.0000 0.0000 17.9390 0.0000 -17.8816
# 5 -1.1946 -1.1750 -10.2304 0.0000 30.9411 0.0000
# 6 0.0000 0.0000 0.0000 -17.8816 0.0000 31.1087
#
#
#
# Elastic Compliance Matrix: (Units=1/GPa)
#
#
# Indices 1 2 3 4 5 6 
#
# 1 0.048117 0.022967 -0.021159 0.000000 -0.004266 0.000000
# 2 0.022967 0.034652 -0.015416 0.000000 -0.002894 0.000000
# 3 -0.021159 -0.015416 0.019178 0.000000 0.004939 0.000000
# 4 0.000000 0.000000 0.000000 0.130539 0.000000 0.075035
# 5 -0.004266 -0.002894 0.004939 0.000000 0.033678 0.000000
# 6 0.000000 0.000000 0.000000 0.075035 0.000000 0.075276
#
#
# Mechanical properties :
#
#
# Convention : Reuss Voigt Hill
#
# Bulk Modulus (GPa) = 13.38126 35.19302 24.28714
# Shear Modulus (GPa) = 12.70431 26.42333 19.56382
#
# Velocity S-wave (km/s) = 2.71681 3.91812 3.37141
# Velocity P-wave (km/s) = 4.19712 6.39654 5.40978
#
# Compressibility (1/GPa) = 0.07473137
#
# Stress axis : x y z
#
# Youngs Moduli (GPa) = 20.78270 28.85808 52.14255
#
# Poissons Ratio (x) = -0.66279 1.10330
# Poissons Ratio (y) = -0.47732 0.80383
# Poissons Ratio (z) = 0.43975 0.44488
#
# Static dielectric constant tensor:
#      x y z
#    x 1.655670 0.000000 0.019150 
#    y 0.000000 1.603760 0.000000 
#    z 0.019150 0.000000 1.625130 
# 
# From -- ./inp_files/149446.got.cif
#   From: 2010.05.17/outbox.cif.g08.bks.cpg/sg12_75_cif.got.tgz:149446.got - 2010.06.03 13:09:07.
