data_PCOD9168917
_publ_section_title
;
Structure prediction by ZEFSAII (Michael W. Deem and Ramdas Pophale) SiO2 
 PCOD9168917
Probable space group: C 2/M
;
_chemical_formula_sum "Si O2"
_cell_formula_units_Z 60
_cell_length_a 21.796300
_cell_length_b 9.291618
_cell_length_c 27.050485
_cell_angle_alpha 90.000000
_cell_angle_beta 37.569171
_cell_angle_gamma 90.000000
_cell_volume 3340.248246
_symmetry_space_group_name_H-M "C 2/M"
_symmetry_group_IT_number 12
_symmetry_cell_setting 'monoclinic'
loop_
_space_group_symop_operation_xyz
x,y,z
-x,y,-z
-x,-y,-z
x,-y,z
1/2+x,1/2+y,z
1/2-x,1/2+y,-z
1/2-x,1/2-y,-z
1/2+x,1/2-y,z
loop_
_atom_site_type_symbol
_atom_site_label
_atom_site_fract_x
_atom_site_fract_y
_atom_site_fract_z
Si Si1 0.371595 0.172256 0.196569
Si Si2 0.740770 0.172542 0.082152
Si Si3 0.462758 0.163388 0.631912
Si Si4 0.816067 0.327202 0.498110
Si Si5 0.780781 0.839161 0.617438
Si Si6 0.500000 0.746378 0.500000
Si Si7 0.405745 0.827054 0.909332
Si Si8 0.249535 0.674303 0.192759
O O1 0.287446 0.200401 0.292261
O O2 0.480279 0.214306 0.149537
O O3 0.337981 0.253545 0.168274
O O4 0.372716 0.000000 0.186870
O O5 0.637261 0.206986 0.118288
O O6 0.745535 0.209365 0.137060
O O7 0.754307 0.000000 0.069907
O O8 0.829158 0.251837 0.996066
O O9 0.568497 0.226721 0.582194
O O10 0.475741 0.164089 0.564571
O O11 0.356838 0.227345 0.716037
O O12 0.459790 0.000000 0.652516
O O13 0.814827 0.500000 0.495699
O O14 0.750000 0.250000 0.500000
O O15 0.775800 0.275712 0.576929
O O16 0.898396 0.841390 0.556282
O O17 0.750149 0.000000 0.620377
O O18 0.399336 0.000000 0.918715
O O19 0.257123 0.500000 0.193030
#
# Coordination Sequence:
#
# PCOD9168917 Si02
#       8
#     8   8   8   8   8   4   8   8
#     4  10  21  36  54  82 113 145 180 221 273 327
#     4   9  19  36  58  81 105 138 182 226 272 325
#     4   9  18  31  51  76 103 138 176 218 264 316
#     4  10  21  36  53  75 104 140 183 227 271 323
#     4  10  20  33  52  77 106 140 176 219 268 317
#     4  10  16  30  52  76 101 136 181 214 257 308
#     4   9  19  37  59  79 105 143 184 222 269 330
#     4  10  20  35  55  82 111 142 179 224 274 324
#
# _framework density 17.962736
#
# number of rings (size 3 to 8) (size 9 to 14) (size 15 to 20)
#    0.000    2.400    1.333    0.800    0.000    3.733 
#    0.000    7.333    0.000    3.200    0.000    0.000 
#    0.000    0.000    0.000    0.000    0.000    0.000 
#
# Total GULP energy -167076.857060 kJ/mol
# GULP energy per Si atom -5569.228569 kJ/mol
# Density = 1.792185 g / cm^3
# Si number density = 17.962736 Si / 1000 Ang^3
#
#
#
# Elastic Constant Matrix: (Units=GPa)
#
#
# Indices 1 2 3 4 5 6 
#
# 1 165.9952 45.8507 73.6189 -0.0001 -7.0687 0.0003
# 2 45.8507 36.3601 23.0899 -0.0002 0.2367 0.0007
# 3 73.6189 23.0899 89.1794 0.0000 -3.6564 0.0000
# 4 -0.0001 -0.0002 0.0000 23.8190 0.0000 2.5913
# 5 -7.0687 0.2367 -3.6564 0.0000 19.9998 0.0000
# 6 0.0003 0.0007 0.0000 2.5913 0.0000 24.8764
#
#
#
# Elastic Compliance Matrix: (Units=1/GPa)
#
#
# Indices 1 2 3 4 5 6 
#
# 1 0.012455 -0.011107 -0.007275 0.000000 0.003204 0.000000
# 2 -0.011107 0.042896 -0.002135 0.000000 -0.004824 -0.000001
# 3 -0.007275 -0.002135 0.017800 0.000000 0.000708 0.000000
# 4 0.000000 0.000000 0.000000 0.042464 0.000000 -0.004423
# 5 0.003204 -0.004824 0.000708 0.000000 0.051319 0.000000
# 6 0.000000 -0.000001 0.000000 -0.004423 0.000000 0.040660
#
#
# Mechanical properties :
#
#
# Convention : Reuss Voigt Hill
#
# Bulk Modulus (GPa) = 31.13525 64.07261 47.60393
# Shear Modulus (GPa) = 19.28011 23.67074 21.47542
#
# Velocity S-wave (km/s) = 3.27974 3.63405 3.46143
# Velocity P-wave (km/s) = 5.63144 7.30449 6.52184
#
# Compressibility (1/GPa) = 0.03211793
#
# Stress axis : x y z
#
# Youngs Moduli (GPa) = 80.28940 23.31206 56.17825
#
# Poissons Ratio (x) = 0.25893 0.40867
# Poissons Ratio (y) = 0.89179 0.11995
# Poissons Ratio (z) = 0.58407 0.04977
#
# Static dielectric constant tensor:
#      x y z
#    x 1.641080 0.000000 -0.010200 
#    y 0.000000 1.620570 0.000000 
#    z -0.010200 0.000000 1.607520 
# 
# From -- ./inp_files/365434.got.cif
#   From: 2010.05.17/outbox.cif.g08.bks.cpg/sg12_183_cif.got.tgz:365434.got - 2010.06.03 13:09:07.
