data_PCOD9168468
_publ_section_title
;
Structure prediction by ZEFSAII (Michael W. Deem and Ramdas Pophale) SiO2 
 PCOD9168468
Probable space group: C 2/M
;
_chemical_formula_sum "Si O2"
_cell_formula_units_Z 44
_cell_length_a 22.607677
_cell_length_b 19.272553
_cell_length_c 22.104113
_cell_angle_alpha 90.000000
_cell_angle_beta 18.057799
_cell_angle_gamma 90.000000
_cell_volume 2985.359904
_symmetry_space_group_name_H-M "C 2/M"
_symmetry_group_IT_number 12
_symmetry_cell_setting 'monoclinic'
loop_
_space_group_symop_operation_xyz
x,y,z
-x,y,-z
-x,-y,-z
x,-y,z
1/2+x,1/2+y,z
1/2-x,1/2+y,-z
1/2-x,1/2-y,-z
1/2+x,1/2-y,z
loop_
_atom_site_type_symbol
_atom_site_label
_atom_site_fract_x
_atom_site_fract_y
_atom_site_fract_z
Si Si1 0.775303 0.648877 0.893959
Si Si2 0.868408 0.781971 0.292629
Si Si3 0.201853 0.500000 0.400354
Si Si4 0.777091 0.500000 0.480782
Si Si5 0.372218 0.151949 0.364766
Si Si6 0.068529 0.348923 0.499447
Si Si7 0.585683 0.500000 0.090235
O O1 0.705271 0.569840 0.970082
O O2 0.920290 0.665361 0.807596
O O3 0.897984 0.656596 0.713747
O O4 0.587451 0.695872 0.074401
O O5 0.777934 0.825155 0.437017
O O6 0.846467 0.701990 0.332889
O O7 0.744771 0.805142 0.355253
O O8 0.134732 0.500000 0.536420
O O9 0.132905 0.429628 0.437022
O O10 0.569320 0.500000 0.813687
O O11 0.839744 0.570347 0.387606
O O12 0.551691 0.500000 0.716848
O O13 0.000000 0.327962 0.500000
#
# Coordination Sequence:
#
# PCOD9168468 Si02
#       7
#     8   8   4   4   8   8   4
#     4  11  17  31  49  67  94 126 163 191 237 276
#     4  10  19  33  45  72  94 122 162 196 237 278
#     4  10  16  35  43  66 103 128 163 195 221 261
#     4  10  15  33  47  68  99 129 149 191 239 274
#     4  10  19  30  51  67  98 124 152 198 239 286
#     4  11  22  34  48  65  96 134 167 198 228 268
#     4  10  16  28  49  68  96 130 158 191 222 277
#
# _framework density 14.738592000000001
#
# number of rings (size 3 to 8) (size 9 to 14) (size 15 to 20)
#    0.545    1.091    7.273    1.909    0.000    0.727 
#    0.000    0.909    0.000    0.000    0.000    0.636 
#    0.000    1.455    0.000    0.000    0.000    0.000 
#
# Total GULP energy -122612.900240 kJ/mol
# GULP energy per Si atom -5573.313647 kJ/mol
# Density = 1.470505 g / cm^3
# Si number density = 14.738592 Si / 1000 Ang^3
#
#
#
# Elastic Constant Matrix: (Units=GPa)
#
#
# Indices 1 2 3 4 5 6 
#
# 1 66.1195 42.8875 25.2229 -0.0277 -8.3201 -0.0005
# 2 42.8875 94.8172 18.4620 -0.0507 -5.0448 0.0025
# 3 25.2229 18.4620 82.0863 -0.0439 -18.3659 -0.0020
# 4 -0.0277 -0.0507 -0.0439 13.3572 0.0207 -2.0345
# 5 -8.3201 -5.0448 -18.3659 0.0207 9.0175 -0.0035
# 6 -0.0005 0.0025 -0.0020 -2.0345 -0.0035 10.1576
#
#
#
# Elastic Compliance Matrix: (Units=1/GPa)
#
#
# Indices 1 2 3 4 5 6 
#
# 1 0.023802 -0.009657 -0.002640 -0.000013 0.011182 0.000004
# 2 -0.009657 0.014969 -0.000954 0.000038 -0.002479 0.000002
# 3 -0.002640 -0.000954 0.023045 0.000002 0.043967 0.000020
# 4 -0.000013 0.000038 0.000002 0.077222 -0.000158 0.015467
# 5 0.011182 -0.002479 0.043967 -0.000158 0.209375 0.000050
# 6 0.000004 0.000002 0.000020 0.015467 0.000050 0.101547
#
#
# Mechanical properties :
#
#
# Convention : Reuss Voigt Hill
#
# Bulk Modulus (GPa) = 28.31726 46.24088 37.27907
# Shear Modulus (GPa) = 10.24101 16.93648 13.58874
#
# Velocity S-wave (km/s) = 2.63885 3.39355 3.03971
# Velocity P-wave (km/s) = 5.34223 6.84084 6.13744
#
# Compressibility (1/GPa) = 0.03531416
#
# Stress axis : x y z
#
# Youngs Moduli (GPa) = 42.01265 66.80646 43.39317
#
# Poissons Ratio (x) = 0.64517 0.11455
# Poissons Ratio (y) = 0.40573 0.04139
# Poissons Ratio (z) = 0.11091 0.06372
#
# Static dielectric constant tensor:
#      x y z
#    x 1.465390 -0.000010 -0.015160 
#    y -0.000010 1.489820 0.000030 
#    z -0.015160 0.000030 1.510480 
# 
# From -- ./inp_files/322406.got.cif
#   From: 2010.05.17/outbox.cif.g08.bks.cpg/sg12_162_cif.got.tgz:322406.got - 2010.06.03 13:09:07.
