data_PCOD9168817
_publ_section_title
;
Structure prediction by ZEFSAII (Michael W. Deem and Ramdas Pophale) SiO2 
 PCOD9168817
Probable space group: C 2/M
;
_chemical_formula_sum "Si O2"
_cell_formula_units_Z 48
_cell_length_a 16.976262
_cell_length_b 14.451260
_cell_length_c 16.149620
_cell_angle_alpha 90.000000
_cell_angle_beta 144.336834
_cell_angle_gamma 90.000000
_cell_volume 2309.898076
_symmetry_space_group_name_H-M "C 2/M"
_symmetry_group_IT_number 12
_symmetry_cell_setting 'monoclinic'
loop_
_space_group_symop_operation_xyz
x,y,z
-x,y,-z
-x,-y,-z
x,-y,z
1/2+x,1/2+y,z
1/2-x,1/2+y,-z
1/2-x,1/2-y,-z
1/2+x,1/2-y,z
loop_
_atom_site_type_symbol
_atom_site_label
_atom_site_fract_x
_atom_site_fract_y
_atom_site_fract_z
Si Si1 0.702856 0.107977 0.077852
Si Si2 0.790113 0.783417 0.626544
Si Si3 0.965175 0.394945 0.609151
Si Si4 0.420188 0.709435 0.346992
Si Si5 0.533538 0.391523 0.775420
Si Si6 0.592844 0.896321 0.241951
O O1 0.769314 0.171608 0.204200
O O2 0.803782 0.123006 0.084529
O O3 0.721704 0.000000 0.116325
O O4 0.547811 0.121327 0.924960
O O5 0.750000 0.750000 0.500000
O O6 0.674214 0.856181 0.550116
O O7 0.935801 0.832773 0.749622
O O8 0.805797 0.687275 0.687087
O O9 0.995238 0.500000 0.609980
O O10 0.070699 0.316049 0.674000
O O11 0.943710 0.395103 0.690601
O O12 0.500000 0.698843 0.500000
O O13 0.496978 0.646743 0.343105
O O14 0.504568 0.500000 0.758283
O O15 0.641773 0.000000 0.264152
#
# Coordination Sequence:
#
# PCOD9168817 Si02
#       6
#     8   8   8   8   8   8
#     4   8  16  29  46  73 101 123 150 193 241 283
#     4  10  16  29  45  70  96 123 152 191 242 287
#     4  10  20  32  47  72  99 123 157 199 239 280
#     4  10  19  32  49  69  94 132 166 190 228 276
#     4   9  17  28  45  69  96 122 154 192 234 279
#     4   9  16  28  49  73 100 124 148 193 247 288
#
# _framework density 20.780138000000001
#
# number of rings (size 3 to 8) (size 9 to 14) (size 15 to 20)
#    1.000    1.667    3.333    0.500    0.000    5.000 
#    0.000    0.000    0.000    2.000    0.000    3.500 
#    0.000    0.000    0.000    0.000    0.000    0.000 
#
# Total GULP energy -133615.210460 kJ/mol
# GULP energy per Si atom -5567.300436 kJ/mol
# Density = 2.073284 g / cm^3
# Si number density = 20.780138 Si / 1000 Ang^3
#
#
#
# Elastic Constant Matrix: (Units=GPa)
#
#
# Indices 1 2 3 4 5 6 
#
# 1 20.7363 -0.1515 7.1304 0.0000 -5.3443 0.0000
# 2 -0.1515 123.7541 50.7902 0.0000 5.4945 0.0000
# 3 7.1304 50.7902 61.3506 0.0000 0.3897 0.0000
# 4 0.0000 0.0000 0.0000 31.7535 0.0000 12.5728
# 5 -5.3443 5.4945 0.3897 0.0000 8.8595 0.0000
# 6 0.0000 0.0000 0.0000 12.5728 0.0000 2.2192
#
#
#
# Elastic Compliance Matrix: (Units=1/GPa)
#
#
# Indices 1 2 3 4 5 6 
#
# 1 0.060531 0.002237 -0.009112 0.000000 0.035528 0.000000
# 2 0.002237 0.012791 -0.010811 0.000000 -0.006108 0.000000
# 3 -0.009112 -0.010811 0.026308 0.000000 0.000050 0.000000
# 4 0.000000 0.000000 0.000000 -0.025330 0.000000 0.143510
# 5 0.035528 -0.006108 0.000050 0.000000 0.138090 0.000000
# 6 0.000000 0.000000 0.000000 0.143510 0.000000 -0.362444
#
#
# Mechanical properties :
#
#
# Convention : Reuss Voigt Hill
#
# Bulk Modulus (GPa) = 15.56240 35.70880 25.63560
# Shear Modulus (GPa) = -53.61268 18.43790 -17.58739
#
# Velocity S-wave (km/s) = -5.08488 2.98196 -2.91238
# Velocity P-wave (km/s) = 5.19320 5.39236 1.02671
#
# Compressibility (1/GPa) = 0.06425744
#
# Stress axis : x y z
#
# Youngs Moduli (GPa) = 16.52054 78.17830 38.01089
#
# Poissons Ratio (x) = -0.17485 0.34637
# Poissons Ratio (y) = -0.03695 0.41092
# Poissons Ratio (z) = 0.15054 0.84516
#
# Static dielectric constant tensor:
#      x y z
#    x 1.827220 0.000000 0.020900 
#    y 0.000000 1.744320 0.000000 
#    z 0.020900 0.000000 1.737020 
# 
# From -- ./inp_files/325340.got.cif
#   From: 2010.05.17/outbox.cif.g08.bks.cpg/sg12_163_cif.got.tgz:325340.got - 2010.06.03 13:09:07.
