data_PCOD9168958
_publ_section_title
;
Structure prediction by ZEFSAII (Michael W. Deem and Ramdas Pophale) SiO2 
 PCOD9168958
Probable space group: C 2/M
;
_chemical_formula_sum "Si O2"
_cell_formula_units_Z 40
_cell_length_a 13.433379
_cell_length_b 14.594789
_cell_length_c 11.762328
_cell_angle_alpha 90.000000
_cell_angle_beta 44.838549
_cell_angle_gamma 90.000000
_cell_volume 1626.050930
_symmetry_space_group_name_H-M "C 2/M"
_symmetry_group_IT_number 12
_symmetry_cell_setting 'monoclinic'
loop_
_space_group_symop_operation_xyz
x,y,z
-x,y,-z
-x,-y,-z
x,-y,z
1/2+x,1/2+y,z
1/2-x,1/2+y,-z
1/2-x,1/2-y,-z
1/2+x,1/2-y,z
loop_
_atom_site_type_symbol
_atom_site_label
_atom_site_fract_x
_atom_site_fract_y
_atom_site_fract_z
Si Si1 0.487206 0.102201 0.133165
Si Si2 0.685228 0.892865 0.285742
Si Si3 0.891346 0.692022 0.432222
Si Si4 0.289239 0.356976 0.974821
Si Si5 0.455076 0.397801 0.403148
O O1 0.399115 0.154527 0.298453
O O2 0.426787 0.000000 0.166421
O O3 0.500000 0.148249 0.000000
O O4 0.645836 0.095118 0.050397
O O5 0.707759 0.857341 0.394814
O O6 0.550358 0.835482 0.348328
O O7 0.648517 0.000000 0.318581
O O8 0.807138 0.879568 0.093622
O O9 0.876526 0.801009 0.449135
O O10 0.413063 0.386167 0.790374
O O11 0.250000 0.250000 0.000000
O O12 0.500000 0.396798 0.500000
O O13 0.392476 0.500000 0.433195
#
# Coordination Sequence:
#
# PCOD9168958 Si02
#       5
#     8   8   8   8   8
#     4  10  20  33  53  81 113 144 172 216 277 328
#     4  10  17  27  49  77 103 129 166 226 276 306
#     4  10  16  31  47  76 104 133 170 218 269 313
#     4  11  18  33  53  80 108 137 179 225 268 314
#     4  11  20  31  49  77 108 140 177 219 265 311
#
# _framework density 24.599474000000001
#
# number of rings (size 3 to 8) (size 9 to 14) (size 15 to 20)
#    0.000    1.600    6.000    5.400    0.000    0.000 
#    0.000    0.000    0.000    5.400    0.000    2.800 
#    0.000    0.000    0.000    0.000    0.000    0.000 
#
# Total GULP energy -111802.506513 kJ/mol
# GULP energy per Si atom -5590.125326 kJ/mol
# Density = 2.454348 g / cm^3
# Si number density = 24.599474 Si / 1000 Ang^3
#
#
#
# Elastic Constant Matrix: (Units=GPa)
#
#
# Indices 1 2 3 4 5 6 
#
# 1 33.1449 20.2813 45.2517 0.0000 7.0680 0.0000
# 2 20.2813 203.1387 69.0323 0.0000 14.0233 0.0000
# 3 45.2517 69.0323 272.3282 0.0000 30.3769 0.0000
# 4 0.0000 0.0000 0.0000 41.6173 0.0000 13.6815
# 5 7.0680 14.0233 30.3769 0.0000 46.0572 0.0000
# 6 0.0000 0.0000 0.0000 13.6815 0.0000 1.6165
#
#
#
# Elastic Compliance Matrix: (Units=1/GPa)
#
#
# Indices 1 2 3 4 5 6 
#
# 1 0.039781 -0.001833 -0.005966 0.000000 -0.001612 0.000000
# 2 -0.001833 0.005499 -0.001008 0.000000 -0.000728 0.000000
# 3 -0.005966 -0.001008 0.005162 0.000000 -0.002182 0.000000
# 4 0.000000 0.000000 0.000000 -0.013481 0.000000 0.114100
# 5 -0.001612 -0.000728 -0.002182 0.000000 0.023621 0.000000
# 6 0.000000 0.000000 0.000000 0.114100 0.000000 -0.347077
#
#
# Mechanical properties :
#
#
# Convention : Reuss Voigt Hill
#
# Bulk Modulus (GPa) = 30.46183 86.41583 58.43883
# Shear Modulus (GPa) = -19.38438 42.79462 11.70512
#
# Velocity S-wave (km/s) = -2.81018 4.17544 2.18371
# Velocity P-wave (km/s) = 1.37132 7.64534 5.49234
#
# Compressibility (1/GPa) = 0.03282797
#
# Stress axis : x y z
#
# Youngs Moduli (GPa) = 25.13772 181.86531 193.71204
#
# Poissons Ratio (x) = 0.33338 1.15564
# Poissons Ratio (y) = 0.04608 0.19527
# Poissons Ratio (z) = 0.14997 0.18332
#
# Static dielectric constant tensor:
#      x y z
#    x 2.099960 0.000000 -0.008460 
#    y 0.000000 1.957950 0.000000 
#    z -0.008460 0.000000 1.972440 
# 
# From -- ./inp_files/166107.got.cif
#   From: 2010.05.17/outbox.cif.g08.bks.cpg/sg12_84_cif.got.tgz:166107.got - 2010.06.03 13:09:07.
