data_PCOD9168624
_publ_section_title
;
Structure prediction by ZEFSAII (Michael W. Deem and Ramdas Pophale) SiO2 
 PCOD9168624
Probable space group: C 2/M
;
_chemical_formula_sum "Si O2"
_cell_formula_units_Z 64
_cell_length_a 25.325696
_cell_length_b 13.468631
_cell_length_c 17.956604
_cell_angle_alpha 90.000000
_cell_angle_beta 140.776773
_cell_angle_gamma 90.000000
_cell_volume 3873.129712
_symmetry_space_group_name_H-M "C 2/M"
_symmetry_group_IT_number 12
_symmetry_cell_setting 'monoclinic'
loop_
_space_group_symop_operation_xyz
x,y,z
-x,y,-z
-x,-y,-z
x,-y,z
1/2+x,1/2+y,z
1/2-x,1/2+y,-z
1/2-x,1/2-y,-z
1/2+x,1/2-y,z
loop_
_atom_site_type_symbol
_atom_site_label
_atom_site_fract_x
_atom_site_fract_y
_atom_site_fract_z
Si Si1 0.413775 0.722418 0.949479
Si Si2 0.724615 0.119281 0.178907
Si Si3 0.373937 0.618599 0.629406
Si Si4 0.566315 0.620548 0.869161
Si Si5 0.671870 0.710830 0.570784
Si Si6 0.010903 0.108397 0.424486
Si Si7 0.704796 0.617705 0.297742
Si Si8 0.669923 0.615039 0.847502
O O1 0.362424 0.823828 0.905780
O O2 0.355395 0.652618 0.834489
O O3 0.500000 0.738148 0.000000
O O4 0.428502 0.669224 0.044398
O O5 0.781880 0.150097 0.312529
O O6 0.766618 0.153991 0.146148
O O7 0.718055 0.000000 0.170236
O O8 0.366492 0.500000 0.616985
O O9 0.473389 0.642806 0.735050
O O10 0.321139 0.666238 0.504755
O O11 0.339290 0.647063 0.672618
O O12 0.570852 0.500000 0.879072
O O13 0.642525 0.655914 0.898634
O O14 0.573853 0.696699 0.477333
O O15 0.710224 0.819936 0.615274
O O16 0.000000 0.104005 0.500000
O O17 0.920068 0.116213 0.290796
O O18 0.046756 0.000000 0.439196
O O19 0.716897 0.500000 0.309271
O O20 0.694637 0.500000 0.886786
#
# Coordination Sequence:
#
# PCOD9168624 Si02
#       8
#     8   8   8   8   8   8   8   8
#     4  11  22  36  55  75  97 137 184 217 255 301
#     4  10  21  35  52  77 109 137 164 209 260 312
#     4  10  18  30  51  78 105 130 161 211 264 305
#     4  10  19  31  53  80 102 128 170 220 259 296
#     4  11  19  30  52  80 105 132 165 203 256 318
#     4  10  16  25  47  78 107 128 154 198 252 309
#     4  10  22  36  50  71 103 138 173 215 254 298
#     4   9  17  30  49  78 107 131 162 205 260 306
#
# _framework density 16.524104999999999
#
# number of rings (size 3 to 8) (size 9 to 14) (size 15 to 20)
#    0.000    1.875    3.750    1.875    0.000    1.250 
#    0.000    0.000    0.000    1.125    0.000    0.000 
#    0.000    0.000    0.000    0.000    0.000    0.000 
#
# Total GULP energy -178197.090793 kJ/mol
# GULP energy per Si atom -5568.659087 kJ/mol
# Density = 1.648650 g / cm^3
# Si number density = 16.524105 Si / 1000 Ang^3
#
#
#
# Elastic Constant Matrix: (Units=GPa)
#
#
# Indices 1 2 3 4 5 6 
#
# 1 124.7117 42.1121 40.4532 0.0000 -12.7643 0.0000
# 2 42.1121 60.1595 26.0331 0.0000 7.1665 0.0000
# 3 40.4532 26.0331 59.8344 0.0000 -4.5391 0.0000
# 4 0.0000 0.0000 0.0000 15.6586 0.0000 1.2811
# 5 -12.7643 7.1665 -4.5391 0.0000 22.7884 0.0000
# 6 0.0000 0.0000 0.0000 1.2811 0.0000 21.3968
#
#
#
# Elastic Compliance Matrix: (Units=1/GPa)
#
#
# Indices 1 2 3 4 5 6 
#
# 1 0.013295 -0.008388 -0.004644 0.000000 0.009159 0.000000
# 2 -0.008388 0.027460 -0.007400 0.000000 -0.014808 0.000000
# 3 -0.004644 -0.007400 0.023405 0.000000 0.004388 0.000000
# 4 0.000000 0.000000 0.000000 0.064177 0.000000 -0.003842
# 5 0.009159 -0.014808 0.004388 0.000000 0.054543 0.000000
# 6 0.000000 0.000000 0.000000 -0.003842 0.000000 0.046966
#
#
# Mechanical properties :
#
#
# Convention : Reuss Voigt Hill
#
# Bulk Modulus (GPa) = 42.92550 51.32250 47.12400
# Shear Modulus (GPa) = 17.95488 21.04257 19.49873
#
# Velocity S-wave (km/s) = 3.29992 3.57241 3.43886
# Velocity P-wave (km/s) = 6.36814 6.93850 6.65943
#
# Compressibility (1/GPa) = 0.02329618
#
# Stress axis : x y z
#
# Youngs Moduli (GPa) = 75.21739 36.41619 42.72570
#
# Poissons Ratio (x) = 0.30546 0.19842
# Poissons Ratio (y) = 0.63092 0.31617
# Poissons Ratio (z) = 0.34932 0.26948
#
# Static dielectric constant tensor:
#      x y z
#    x 1.619210 0.000000 -0.013050 
#    y 0.000000 1.529490 0.000000 
#    z -0.013050 0.000000 1.546670 
# 
# From -- ./inp_files/283333.got.cif
#   From: 2010.05.17/outbox.cif.g08.bks.cpg/sg12_142_cif.got.tgz:283333.got - 2010.06.03 13:09:07.
