data_PCOD9168279
_publ_section_title
;
Structure prediction by ZEFSAII (Michael W. Deem and Ramdas Pophale) SiO2 
 PCOD9168279
Probable space group: C 2/M
;
_chemical_formula_sum "Si O2"
_cell_formula_units_Z 32
_cell_length_a 12.283672
_cell_length_b 22.147581
_cell_length_c 8.690730
_cell_angle_alpha 90.000000
_cell_angle_beta 32.230707
_cell_angle_gamma 90.000000
_cell_volume 1260.975192
_symmetry_space_group_name_H-M "C 2/M"
_symmetry_group_IT_number 12
_symmetry_cell_setting 'monoclinic'
loop_
_space_group_symop_operation_xyz
x,y,z
-x,y,-z
-x,-y,-z
x,-y,z
1/2+x,1/2+y,z
1/2-x,1/2+y,-z
1/2-x,1/2-y,-z
1/2+x,1/2-y,z
loop_
_atom_site_type_symbol
_atom_site_label
_atom_site_fract_x
_atom_site_fract_y
_atom_site_fract_z
Si Si1 0.774578 0.000000 0.699496
Si Si2 0.424246 0.500000 0.920468
Si Si3 0.747416 0.870297 0.797859
Si Si4 0.238848 0.820695 0.549277
Si Si5 0.728488 0.635512 0.898273
O O1 0.678777 0.060247 0.876281
O O2 0.000000 0.000000 0.500000
O O3 0.853991 0.000000 0.431208
O O4 0.500000 0.500000 0.000000
O O5 0.298217 0.562544 0.052506
O O6 0.684360 0.847674 0.704708
O O7 0.000000 0.868646 0.500000
O O8 0.689896 0.841654 0.031797
O O9 0.250000 0.750000 0.500000
O O10 0.314871 0.843903 0.627672
O O11 0.001641 0.839660 0.834126
#
# Coordination Sequence:
#
# PCOD9168279 Si02
#       5
#     4   4   8   8   8
#     4  10  12  22  40  64  84 103 127 163 214 271
#     4  12  14  24  46  68  84 106 133 168 227 265
#     4   9  15  26  41  60  85 111 136 165 210 252
#     4  10  19  28  38  58  86 117 148 169 193 244
#     4  10  18  29  45  63  86 114 137 170 215 254
#
# _framework density 25.377182999999999
#
# number of rings (size 3 to 8) (size 9 to 14) (size 15 to 20)
#    0.000    2.000   10.000    0.000    0.000    1.000 
#    0.000    0.000    0.000    0.000    0.000    0.000 
#    0.000   36.000    0.000  113.125    0.000    0.000 
#
# Total GULP energy -89157.087185 kJ/mol
# GULP energy per Si atom -5572.317949 kJ/mol
# Density = 2.531942 g / cm^3
# Si number density = 25.377183 Si / 1000 Ang^3
#
#
#
# Elastic Constant Matrix: (Units=GPa)
#
#
# Indices 1 2 3 4 5 6 
#
# 1 206.0227 29.1363 65.8188 -0.0004 80.6580 0.0000
# 2 29.1363 171.3770 32.1779 0.0000 39.4042 0.0000
# 3 65.8188 32.1779 197.6896 -0.0005 58.0615 0.0000
# 4 -0.0004 0.0000 -0.0005 56.9590 0.0003 20.2653
# 5 80.6580 39.4042 58.0615 0.0003 74.2074 0.0000
# 6 0.0000 0.0000 0.0000 20.2653 0.0000 -3.1160
#
#
#
# Elastic Compliance Matrix: (Units=1/GPa)
#
#
# Indices 1 2 3 4 5 6 
#
# 1 0.008543 0.000779 -0.000159 0.000000 -0.009575 0.000000
# 2 0.000779 0.006718 -0.000073 0.000000 -0.004357 0.000000
# 3 -0.000159 -0.000073 0.006571 0.000000 -0.004930 0.000000
# 4 0.000000 0.000000 0.000000 0.005298 0.000000 0.034455
# 5 -0.009575 -0.004357 -0.004930 0.000000 0.030053 -0.000001
# 6 0.000000 0.000000 0.000000 0.034455 -0.000001 -0.096841
#
#
# Mechanical properties :
#
#
# Convention : Reuss Voigt Hill
#
# Bulk Modulus (GPa) = 43.61915 92.15059 67.88487
# Shear Modulus (GPa) = -151.01549 55.47384 -47.77083
#
# Velocity S-wave (km/s) = -7.72254 4.68051 -4.34341
# Velocity P-wave (km/s) = 7.89247 8.09943 1.28641
#
# Compressibility (1/GPa) = 0.02292571
#
# Stress axis : x y z
#
# Youngs Moduli (GPa) = 117.05432 148.85095 152.18036
#
# Poissons Ratio (x) = -0.11595 0.02419
# Poissons Ratio (y) = -0.09118 0.01116
# Poissons Ratio (z) = 0.01861 0.01091
#
# Static dielectric constant tensor:
#      x y z
#    x 1.950610 0.000000 0.014790 
#    y 0.000000 2.030530 0.000000 
#    z 0.014790 0.000000 1.979860 
# 
# From -- ./inp_files/48127.got.cif
#   From: 2010.05.17/outbox.cif.g08.bks.cpg/sg12_25_cif.got.tgz:48127.got - 2010.06.03 13:09:07.
