data_PCOD9168152
_publ_section_title
;
Structure prediction by ZEFSAII (Michael W. Deem and Ramdas Pophale) SiO2 
 PCOD9168152
Probable space group: P 21/M
;
_chemical_formula_sum "Si O2"
_cell_formula_units_Z 28
_cell_length_a 21.000000
_cell_length_b 9.000000
_cell_length_c 15.000000
_cell_angle_alpha 90.000000
_cell_angle_beta 150.000000
_cell_angle_gamma 90.000000
_cell_volume 1417.500000
_symmetry_space_group_name_H-M "P 21/M"
_symmetry_group_IT_number 11
_symmetry_cell_setting 'monoclinic'
loop_
_space_group_symop_operation_xyz
x,y,z
-x,1/2+y,-z
-x,-y,-z
x,1/2-y,z
loop_
_atom_site_type_symbol
_atom_site_label
_atom_site_fract_x
_atom_site_fract_y
_atom_site_fract_z
Si Si1 0.441765 0.076499 0.695140
Si Si2 0.481226 0.077063 0.383240
Si Si3 0.267099 0.919491 0.890344
Si Si4 0.221915 0.923687 0.031690
Si Si5 0.192647 0.430835 0.480867
Si Si6 0.895432 0.924664 0.435805
Si Si7 0.996140 0.573279 0.898758
O O1 0.417462 0.250000 0.645782
O O2 0.339506 0.028408 0.644667
O O3 0.433442 0.988862 0.592605
O O4 0.585825 0.065676 0.904112
O O5 0.503124 0.250000 0.417563
O O6 0.500000 0.000000 0.500000
O O7 0.336526 0.036713 0.183277
O O8 0.245907 0.750000 0.832914
O O9 0.231885 0.037794 0.773640
O O10 0.185419 0.937243 0.883024
O O11 0.265264 0.750000 0.093077
O O12 0.116784 0.950072 0.979341
O O13 0.183926 0.250000 0.474531
O O14 0.126078 0.484364 0.490409
O O15 0.120972 0.478799 0.304389
O O16 0.920128 0.750000 0.470047
O O17 0.000000 0.000000 0.500000
O O18 0.985227 0.750000 0.898677
O O19 0.000000 0.500000 0.000000
#
# Coordination Sequence:
#
# PCOD9168152 Si02
#       7
#     4   4   4   4   4   4   4
#     4   9  19  38  60  82 113 153 193 230 284 349
#     4  11  22  35  55  82 112 146 190 240 288 340
#     4   9  18  35  59  85 115 149 186 233 288 342
#     4   9  19  37  57  79 112 151 190 232 284 343
#     4   9  20  39  60  82 113 154 192 231 287 350
#     4  11  22  37  60  87 115 151 196 239 283 341
#     4  10  21  37  57  81 111 147 190 237 288 342
#
# _framework density 19.753086
#
# number of rings (size 3 to 8) (size 9 to 14) (size 15 to 20)
#    0.000    2.286    0.000    3.429    2.000    5.714 
#    0.000    4.286    0.000    0.000    0.000    0.000 
#    0.000    0.000    0.000    0.000    0.000    0.000 
#
# Total GULP energy -156102.253508 kJ/mol
# GULP energy per Si atom -5575.080482 kJ/mol
# Density = 1.970813 g / cm^3
# Si number density = 19.753086 Si / 1000 Ang^3
#
#
#
# Elastic Constant Matrix: (Units=GPa)
#
#
# Indices 1 2 3 4 5 6 
#
# 1 149.0145 39.7964 57.6486 0.0000 1.4770 0.0000
# 2 39.7964 38.1972 30.0475 0.0000 1.4568 0.0000
# 3 57.6486 30.0475 44.5521 0.0000 -8.3383 0.0000
# 4 0.0000 0.0000 0.0000 26.4818 0.0000 -5.7179
# 5 1.4770 1.4568 -8.3383 0.0000 25.8212 0.0000
# 6 0.0000 0.0000 0.0000 -5.7179 0.0000 26.8234
#
#
#
# Elastic Compliance Matrix: (Units=1/GPa)
#
#
# Indices 1 2 3 4 5 6 
#
# 1 0.014756 0.002477 -0.022296 0.000000 -0.008184 0.000000
# 2 0.002477 0.063445 -0.049695 0.000000 -0.019769 0.000000
# 3 -0.022296 -0.049695 0.091080 0.000000 0.033491 0.000000
# 4 0.000000 0.000000 0.000000 0.039584 0.000000 0.008438
# 5 -0.008184 -0.019769 0.033491 0.000000 0.051126 0.000000
# 6 0.000000 0.000000 0.000000 0.008438 0.000000 0.039080
#
#
# Mechanical properties :
#
#
# Convention : Reuss Voigt Hill
#
# Bulk Modulus (GPa) = 33.05411 54.08319 43.56865
# Shear Modulus (GPa) = 11.15619 22.77669 16.96644
#
# Velocity S-wave (km/s) = 2.37909 3.39937 2.93392
# Velocity P-wave (km/s) = 4.93120 6.54574 5.79497
#
# Compressibility (1/GPa) = 0.03025343
#
# Stress axis : x y z
#
# Youngs Moduli (GPa) = 67.77038 15.76165 10.97939
#
# Poissons Ratio (x) = -0.03905 0.24479
# Poissons Ratio (y) = -0.16789 0.54562
# Poissons Ratio (z) = 1.51099 0.78328
#
# Static dielectric constant tensor:
#      x y z
#    x 1.700300 0.000000 0.030910 
#    y 0.000000 1.673990 0.000000 
#    z 0.030910 0.000000 1.842650 
# 
# From -- ./inp_files/49490.got.cif
#   From: 2010.05.17/outbox.ucp.g08.bks.cvg/sg11_25_cif.got.tgz:49490.got - 2010.06.11 11:38:39.
