data_PCOD9168708
_publ_section_title
;
Structure prediction by ZEFSAII (Michael W. Deem and Ramdas Pophale) SiO2 
 PCOD9168708
Probable space group: C 2/M
;
_chemical_formula_sum "Si O2"
_cell_formula_units_Z 48
_cell_length_a 18.034812
_cell_length_b 25.418284
_cell_length_c 7.982156
_cell_angle_alpha 90.000000
_cell_angle_beta 124.100131
_cell_angle_gamma 90.000000
_cell_volume 3029.977252
_symmetry_space_group_name_H-M "C 2/M"
_symmetry_group_IT_number 12
_symmetry_cell_setting 'monoclinic'
loop_
_space_group_symop_operation_xyz
x,y,z
-x,y,-z
-x,-y,-z
x,-y,z
1/2+x,1/2+y,z
1/2-x,1/2+y,-z
1/2-x,1/2-y,-z
1/2+x,1/2-y,z
loop_
_atom_site_type_symbol
_atom_site_label
_atom_site_fract_x
_atom_site_fract_y
_atom_site_fract_z
Si Si1 0.359588 0.559018 0.420203
Si Si2 0.214743 0.834149 0.752861
Si Si3 0.117286 0.165707 0.970841
Si Si4 0.045940 0.058779 0.827914
Si Si5 0.335556 0.241533 0.725884
Si Si6 0.455328 0.268990 0.606235
O O1 0.323180 0.500000 0.397019
O O2 0.291526 0.607385 0.331218
O O3 0.441155 0.566601 0.653837
O O4 0.406551 0.560667 0.295466
O O5 0.193968 0.835388 0.924860
O O6 0.304152 0.803025 0.815838
O O7 0.129112 0.802904 0.566897
O O8 0.089237 0.106675 0.983147
O O9 0.029251 0.191620 0.774772
O O10 0.144830 0.204229 0.153467
O O11 0.059809 0.000000 0.913478
O O12 0.250000 0.250000 0.500000
O O13 0.418802 0.231980 0.707425
O O14 0.500000 0.242726 0.500000
#
# Coordination Sequence:
#
# PCOD9168708 Si02
#       6
#     8   8   8   8   8   8
#     4   8  12  21  39  64  91 117 145 172 201 249
#     4   9  16  27  42  65  89 114 144 178 216 259
#     4  10  16  27  45  62  87 118 147 177 211 253
#     4   8  13  21  39  65  89 117 149 173 197 243
#     4  10  20  29  39  58  84 116 150 184 222 255
#     4   9  17  29  44  59  79 111 148 181 216 258
#
# _framework density 15.841702
#
# number of rings (size 3 to 8) (size 9 to 14) (size 15 to 20)
#    0.000    3.000    1.667    2.000    0.000    0.000 
#    0.000    0.000    0.000    6.000    0.000    0.000 
#    0.000    3.333    0.000    5.667    0.000   36.667 
#
# Total GULP energy -133629.787279 kJ/mol
# GULP energy per Si atom -5567.907803 kJ/mol
# Density = 1.580565 g / cm^3
# Si number density = 15.841702 Si / 1000 Ang^3
#
#
#
# Elastic Constant Matrix: (Units=GPa)
#
#
# Indices 1 2 3 4 5 6 
#
# 1 93.1070 50.5362 12.5392 0.0000 -10.4509 0.0000
# 2 50.5362 97.5559 28.1612 0.0000 -3.0727 0.0000
# 3 12.5392 28.1612 37.4619 0.0000 -9.8376 0.0000
# 4 0.0000 0.0000 0.0000 22.2235 0.0000 4.7210
# 5 -10.4509 -3.0727 -9.8376 0.0000 11.0303 0.0000
# 6 0.0000 0.0000 0.0000 4.7210 0.0000 0.2898
#
#
#
# Elastic Compliance Matrix: (Units=1/GPa)
#
#
# Indices 1 2 3 4 5 6 
#
# 1 0.017915 -0.010814 0.007573 0.000000 0.020716 0.000000
# 2 -0.010814 0.020009 -0.016517 0.000000 -0.019403 0.000000
# 3 0.007573 -0.016517 0.048644 0.000000 0.045958 0.000000
# 4 0.000000 0.000000 0.000000 -0.018290 0.000000 0.297918
# 5 0.020716 -0.019403 0.045958 0.000000 0.145871 0.000000
# 6 0.000000 0.000000 0.000000 0.297918 0.000000 -1.402406
#
#
# Mechanical properties :
#
#
# Convention : Reuss Voigt Hill
#
# Bulk Modulus (GPa) = 21.25329 45.62201 33.43765
# Shear Modulus (GPa) = -4.41285 15.83458 5.71087
#
# Velocity S-wave (km/s) = -1.67082 3.16500 1.90073
# Velocity P-wave (km/s) = 3.11817 6.49750 5.09610
#
# Compressibility (1/GPa) = 0.04705154
#
# Stress axis : x y z
#
# Youngs Moduli (GPa) = 55.81809 49.97665 20.55735
#
# Poissons Ratio (x) = 0.54045 -0.15567
# Poissons Ratio (y) = 0.60362 0.33955
# Poissons Ratio (z) = -0.42269 0.82548
#
# Static dielectric constant tensor:
#      x y z
#    x 1.579220 0.000000 -0.047430 
#    y 0.000000 1.549130 0.000000 
#    z -0.047430 0.000000 1.532810 
# 
# From -- ./inp_files/64862.got.cif
#   From: 2010.05.17/outbox.cif.g08.bks.cpg/sg12_33_cif.got.tgz:64862.got - 2010.06.03 13:09:07.
