data_PCOD9168774
_publ_section_title
;
Structure prediction by ZEFSAII (Michael W. Deem and Ramdas Pophale) SiO2 
 PCOD9168774
Probable space group: C 2/M
;
_chemical_formula_sum "Si O2"
_cell_formula_units_Z 48
_cell_length_a 23.390549
_cell_length_b 11.645395
_cell_length_c 14.168007
_cell_angle_alpha 90.000000
_cell_angle_beta 148.818180
_cell_angle_gamma 90.000000
_cell_volume 1998.150455
_symmetry_space_group_name_H-M "C 2/M"
_symmetry_group_IT_number 12
_symmetry_cell_setting 'monoclinic'
loop_
_space_group_symop_operation_xyz
x,y,z
-x,y,-z
-x,-y,-z
x,-y,z
1/2+x,1/2+y,z
1/2-x,1/2+y,-z
1/2-x,1/2-y,-z
1/2+x,1/2-y,z
loop_
_atom_site_type_symbol
_atom_site_label
_atom_site_fract_x
_atom_site_fract_y
_atom_site_fract_z
Si Si1 0.434374 0.240251 0.194015
Si Si2 0.029881 0.369240 0.936914
Si Si3 0.125887 0.873512 0.718570
Si Si4 0.401895 0.000000 0.241490
Si Si5 0.669077 0.000000 0.649702
Si Si6 0.187724 0.251856 0.625946
Si Si7 0.719024 0.127868 0.410948
O O1 0.423317 0.227234 0.066269
O O2 0.375694 0.334809 0.175397
O O3 0.563761 0.255655 0.406253
O O4 0.389569 0.117876 0.167805
O O5 0.077243 0.500000 0.004352
O O6 0.904054 0.386041 0.724162
O O7 0.000000 0.330611 0.000000
O O8 0.180853 0.785157 0.725128
O O9 0.000000 0.876604 0.500000
O O10 0.172838 0.000000 0.774452
O O11 0.535260 0.000000 0.448589
O O12 0.328976 0.000000 0.233392
O O13 0.717055 0.886009 0.669368
O O14 0.263067 0.162989 0.674073
O O15 0.750000 0.250000 0.500000
O O16 0.771781 0.000000 0.498641
#
# Coordination Sequence:
#
# PCOD9168774 Si02
#       7
#     8   8   8   4   4   8   8
#     4  10  16  28  49  75 105 134 174 221 267 319
#     4  10  21  37  56  78 108 148 191 230 269 323
#     4   9  17  27  43  72 107 139 168 211 272 330
#     4   9  14  24  43  76 104 130 165 216 266 320
#     4   9  16  24  46  76 111 134 164 213 291 321
#     4  10  18  29  49  79 109 137 170 224 277 326
#     4  11  23  37  56  82 111 146 186 230 280 327
#
# _framework density 24.022214999999999
#
# number of rings (size 3 to 8) (size 9 to 14) (size 15 to 20)
#    0.000    2.167    4.167    0.500    1.167    0.667 
#    0.000    0.000    0.000    3.000    0.000    0.000 
#    0.000    0.000    0.000    0.000    0.000    0.000 
#
# Total GULP energy -133845.178042 kJ/mol
# GULP energy per Si atom -5576.882418 kJ/mol
# Density = 2.396754 g / cm^3
# Si number density = 24.022215 Si / 1000 Ang^3
#
#
#
# Elastic Constant Matrix: (Units=GPa)
#
#
# Indices 1 2 3 4 5 6 
#
# 1 78.9103 26.3950 32.3256 0.0000 -12.1753 0.0000
# 2 26.3950 157.2523 29.1785 0.0000 -11.9585 0.0000
# 3 32.3256 29.1785 60.3639 0.0000 -28.9699 0.0000
# 4 0.0000 0.0000 0.0000 27.7609 0.0000 -1.8668
# 5 -12.1753 -11.9585 -28.9699 0.0000 57.1372 0.0000
# 6 0.0000 0.0000 0.0000 -1.8668 0.0000 18.9938
#
#
#
# Elastic Compliance Matrix: (Units=1/GPa)
#
#
# Indices 1 2 3 4 5 6 
#
# 1 0.016514 -0.001225 -0.008836 0.000000 -0.001217 0.000000
# 2 -0.001225 0.007081 -0.002882 0.000000 -0.000240 0.000000
# 3 -0.008836 -0.002882 0.028411 0.000000 0.011919 0.000000
# 4 0.000000 0.000000 0.000000 0.036262 0.000000 0.003564
# 5 -0.001217 -0.000240 0.011919 0.000000 0.023235 0.000000
# 6 0.000000 0.000000 0.000000 0.003564 0.000000 0.052999
#
#
# Mechanical properties :
#
#
# Convention : Reuss Voigt Hill
#
# Bulk Modulus (GPa) = 38.28344 52.48052 45.38198
# Shear Modulus (GPa) = 25.11362 34.68688 29.90025
#
# Velocity S-wave (km/s) = 3.23682 3.80406 3.53185
# Velocity P-wave (km/s) = 5.47181 6.41783 5.96361
#
# Compressibility (1/GPa) = 0.02612095
#
# Stress axis : x y z
#
# Youngs Moduli (GPa) = 60.55453 141.21567 35.19739
#
# Poissons Ratio (x) = 0.17299 0.31099
# Poissons Ratio (y) = 0.07418 0.10145
# Poissons Ratio (z) = 0.53503 0.40703
#
# Static dielectric constant tensor:
#      x y z
#    x 1.945510 0.000000 0.053970 
#    y 0.000000 1.936240 0.000000 
#    z 0.053970 0.000000 2.170540 
# 
# From -- ./inp_files/174104.got.cif
#   From: 2010.05.17/outbox.cif.g08.bks.cpg/sg12_88_cif.got.tgz:174104.got - 2010.06.03 13:09:07.
