data_PCOD9168859
_publ_section_title
;
Structure prediction by ZEFSAII (Michael W. Deem and Ramdas Pophale) SiO2 
 PCOD9168859
Probable space group: C 2/M
;
_chemical_formula_sum "Si O2"
_cell_formula_units_Z 56
_cell_length_a 24.509527
_cell_length_b 14.446407
_cell_length_c 8.297882
_cell_angle_alpha 90.000000
_cell_angle_beta 67.840539
_cell_angle_gamma 90.000000
_cell_volume 2721.056687
_symmetry_space_group_name_H-M "C 2/M"
_symmetry_group_IT_number 12
_symmetry_cell_setting 'monoclinic'
loop_
_space_group_symop_operation_xyz
x,y,z
-x,y,-z
-x,-y,-z
x,-y,z
1/2+x,1/2+y,z
1/2-x,1/2+y,-z
1/2-x,1/2-y,-z
1/2+x,1/2-y,z
loop_
_atom_site_type_symbol
_atom_site_label
_atom_site_fract_x
_atom_site_fract_y
_atom_site_fract_z
Si Si1 0.342311 0.769080 0.840417
Si Si2 0.741441 0.603153 0.452151
Si Si3 0.743441 0.396266 0.062062
Si Si4 0.044307 0.821027 0.314935
Si Si5 0.049376 0.192747 0.835139
Si Si6 0.841861 0.272609 0.452965
Si Si7 0.569709 0.500000 0.455082
Si Si8 0.434835 0.500000 0.157881
O O1 0.302981 0.681518 0.941789
O O2 0.409835 0.750418 0.811445
O O3 0.343908 0.773501 0.644053
O O4 0.307840 0.858203 0.942793
O O5 0.728623 0.500000 0.526422
O O6 0.739467 0.601446 0.260315
O O7 0.805289 0.639318 0.434585
O O8 0.695600 0.681694 0.556097
O O9 0.732299 0.500000 0.013624
O O10 0.000000 0.781436 0.500000
O O11 0.995507 0.855825 0.243573
O O12 0.084357 0.903663 0.348791
O O13 0.094627 0.259225 0.697299
O O14 0.083739 0.104388 0.872517
O O15 0.000000 0.239742 0.000000
O O16 0.500000 0.500000 0.500000
O O17 0.583215 0.500000 0.629078
O O18 0.500000 0.500000 0.000000
#
# Coordination Sequence:
#
# PCOD9168859 Si02
#       8
#     8   8   8   8   8   8   4   4
#     4  10  20  34  59  83 112 143 182 226 273 330
#     4   9  20  38  59  79 107 145 189 228 271 322
#     4   9  20  38  57  83 108 142 184 232 275 317
#     4  11  19  33  52  80 109 145 181 219 272 335
#     4  11  22  33  51  79 114 146 179 224 273 329
#     4  10  20  36  57  83 109 147 185 223 275 326
#     4  10  16  30  46  70 106 146 180 206 256 328
#     4  10  18  30  44  70 112 144 176 212 258 322
#
# _framework density 20.580238999999999
#
# number of rings (size 3 to 8) (size 9 to 14) (size 15 to 20)
#    0.000    2.000    4.286    0.000    4.000    0.571 
#    0.000    0.000    0.000    1.714    0.000    0.000 
#    0.000    0.000    0.000    0.000    0.000    0.000 
#
# Total GULP energy -155931.456640 kJ/mol
# GULP energy per Si atom -5568.980594 kJ/mol
# Density = 2.053340 g / cm^3
# Si number density = 20.580239 Si / 1000 Ang^3
#
#
#
# Elastic Constant Matrix: (Units=GPa)
#
#
# Indices 1 2 3 4 5 6 
#
# 1 55.0485 9.9009 10.0722 0.0000 -10.4397 0.0000
# 2 9.9009 56.1887 5.9000 0.0000 -2.9813 0.0000
# 3 10.0722 5.9000 57.3750 0.0000 -26.2435 0.0000
# 4 0.0000 0.0000 0.0000 28.2462 0.0000 -1.8268
# 5 -10.4397 -2.9813 -26.2435 0.0000 26.5112 0.0000
# 6 0.0000 0.0000 0.0000 -1.8268 0.0000 19.0209
#
#
#
# Elastic Compliance Matrix: (Units=1/GPa)
#
#
# Indices 1 2 3 4 5 6 
#
# 1 0.020179 -0.003177 0.000467 0.000000 0.008051 0.000000
# 2 -0.003177 0.018494 -0.001763 0.000000 -0.000917 0.000000
# 3 0.000467 -0.001763 0.032020 0.000000 0.031682 0.000000
# 4 0.000000 0.000000 0.000000 0.035624 0.000000 0.003421
# 5 0.008051 -0.000917 0.031682 0.000000 0.072149 0.000000
# 6 0.000000 0.000000 0.000000 0.003421 0.000000 0.052902
#
#
# Mechanical properties :
#
#
# Convention : Reuss Voigt Hill
#
# Bulk Modulus (GPa) = 16.19582 24.48426 20.34004
# Shear Modulus (GPa) = 19.16460 24.27163 21.71811
#
# Velocity S-wave (km/s) = 3.05489 3.43792 3.25205
# Velocity P-wave (km/s) = 4.50886 5.26135 4.89957
#
# Compressibility (1/GPa) = 0.06174434
#
# Stress axis : x y z
#
# Youngs Moduli (GPa) = 49.55727 54.07286 31.23033
#
# Poissons Ratio (x) = 0.17182 -0.01458
# Poissons Ratio (y) = 0.15747 0.05507
# Poissons Ratio (z) = -0.02314 0.09535
#
# Static dielectric constant tensor:
#      x y z
#    x 1.823750 0.000000 0.050820 
#    y 0.000000 1.793680 0.000000 
#    z 0.050820 0.000000 1.832580 
# 
# From -- ./inp_files/104482.got.cif
#   From: 2010.05.17/outbox.cif.g08.bks.cpg/sg12_53_cif.got.tgz:104482.got - 2010.06.03 13:09:07.
