data_PCOD9168518
_publ_section_title
;
Structure prediction by ZEFSAII (Michael W. Deem and Ramdas Pophale) SiO2 
 PCOD9168518
Probable space group: C 2/M
;
_chemical_formula_sum "Si O2"
_cell_formula_units_Z 48
_cell_length_a 15.929587
_cell_length_b 8.078756
_cell_length_c 14.584998
_cell_angle_alpha 90.000000
_cell_angle_beta 96.280564
_cell_angle_gamma 90.000000
_cell_volume 1865.696280
_symmetry_space_group_name_H-M "C 2/M"
_symmetry_group_IT_number 12
_symmetry_cell_setting 'monoclinic'
loop_
_space_group_symop_operation_xyz
x,y,z
-x,y,-z
-x,-y,-z
x,-y,z
1/2+x,1/2+y,z
1/2-x,1/2+y,-z
1/2-x,1/2-y,-z
1/2+x,1/2-y,z
loop_
_atom_site_type_symbol
_atom_site_label
_atom_site_fract_x
_atom_site_fract_y
_atom_site_fract_z
Si Si1 0.279753 0.808394 0.222370
Si Si2 0.169434 0.306394 0.051717
Si Si3 0.664098 0.199353 0.440795
Si Si4 0.930932 0.189823 0.116852
Si Si5 0.905131 0.298503 0.383168
Si Si6 0.560507 0.800947 0.267402
O O1 0.202484 0.725503 0.158800
O O2 0.361862 0.798067 0.164110
O O3 0.321486 0.735668 0.319438
O O4 0.258479 0.000000 0.231626
O O5 0.154640 0.500000 0.040401
O O6 0.250000 0.250000 0.000000
O O7 0.092117 0.216467 0.992048
O O8 0.750000 0.250000 0.500000
O O9 0.597151 0.251735 0.511530
O O10 0.640398 0.261845 0.336438
O O11 0.661410 0.000000 0.434115
O O12 0.022638 0.232514 0.168299
O O13 0.912394 0.000000 0.137131
O O14 0.900376 0.500000 0.381792
O O15 0.985347 0.258500 0.331090
O O16 0.565288 0.000000 0.257659
#
# Coordination Sequence:
#
# PCOD9168518 Si02
#       6
#     8   8   8   8   8   8
#     4   9  15  25  41  62  89 121 157 192 228 271
#     4  10  16  23  36  58  91 125 154 185 227 276
#     4  10  20  34  51  71  95 123 156 194 237 283
#     4  10  17  25  39  62  92 122 153 190 233 277
#     4   8  15  29  50  71  91 122 162 197 228 271
#     4   9  17  31  50  69  91 123 162 198 231 272
#
# _framework density 25.727658999999999
#
# number of rings (size 3 to 8) (size 9 to 14) (size 15 to 20)
#    0.000    2.667    0.000    7.000    0.000    2.667 
#    0.000    4.167    0.000    5.000    0.000    1.167 
#    0.000    9.333    0.000    0.000    0.000    0.000 
#
# Total GULP energy -134105.032754 kJ/mol
# GULP energy per Si atom -5587.709698 kJ/mol
# Density = 2.566910 g / cm^3
# Si number density = 25.727659 Si / 1000 Ang^3
#
#
#
# Elastic Constant Matrix: (Units=GPa)
#
#
# Indices 1 2 3 4 5 6 
#
# 1 86.5366 -8.0461 37.7074 0.0000 25.4887 0.0000
# 2 -8.0461 73.6304 14.0968 0.0000 8.0694 0.0000
# 3 37.7074 14.0968 246.1707 0.0000 24.0158 0.0000
# 4 0.0000 0.0000 0.0000 23.6970 0.0000 9.3638
# 5 25.4887 8.0694 24.0158 0.0000 54.6732 0.0000
# 6 0.0000 0.0000 0.0000 9.3638 0.0000 7.5971
#
#
#
# Elastic Compliance Matrix: (Units=1/GPa)
#
#
# Indices 1 2 3 4 5 6 
#
# 1 0.014425 0.002605 -0.001740 0.000000 -0.006345 0.000000
# 2 0.002605 0.014366 -0.000936 0.000000 -0.002923 0.000000
# 3 -0.001740 -0.000936 0.004482 0.000000 -0.001019 0.000000
# 4 0.000000 0.000000 0.000000 0.082267 0.000000 -0.101398
# 5 -0.006345 -0.002923 -0.001019 0.000000 0.022128 0.000000
# 6 0.000000 0.000000 0.000000 -0.101398 0.000000 0.256607
#
#
# Mechanical properties :
#
#
# Convention : Reuss Voigt Hill
#
# Bulk Modulus (GPa) = 30.18441 54.87267 42.52854
# Shear Modulus (GPa) = 12.33167 41.36541 26.84854
#
# Velocity S-wave (km/s) = 2.19170 4.01411 3.23393
# Velocity P-wave (km/s) = 4.26175 6.54666 5.52364
#
# Compressibility (1/GPa) = 0.03312969
#
# Stress axis : x y z
#
# Youngs Moduli (GPa) = 69.32416 69.61051 223.12574
#
# Poissons Ratio (x) = -0.18132 0.38817
# Poissons Ratio (y) = -0.18057 0.20894
# Poissons Ratio (z) = 0.12060 0.06519
#
# Static dielectric constant tensor:
#      x y z
#    x 2.159740 0.000000 -0.012220 
#    y 0.000000 1.872930 0.000000 
#    z -0.012220 0.000000 2.079590 
# 
# From -- ./inp_files/280540.got.cif
#   From: 2010.05.17/outbox.cif.g08.bks.cpg/sg12_141_cif.got.tgz:280540.got - 2010.06.03 13:09:07.
