data_PCOD9168911
_publ_section_title
;
Structure prediction by ZEFSAII (Michael W. Deem and Ramdas Pophale) SiO2 
 PCOD9168911
Probable space group: C 2/M
;
_chemical_formula_sum "Si O2"
_cell_formula_units_Z 56
_cell_length_a 29.326855
_cell_length_b 13.637660
_cell_length_c 9.641172
_cell_angle_alpha 90.000000
_cell_angle_beta 78.639174
_cell_angle_gamma 90.000000
_cell_volume 3780.429822
_symmetry_space_group_name_H-M "C 2/M"
_symmetry_group_IT_number 12
_symmetry_cell_setting 'monoclinic'
loop_
_space_group_symop_operation_xyz
x,y,z
-x,y,-z
-x,-y,-z
x,-y,z
1/2+x,1/2+y,z
1/2-x,1/2+y,-z
1/2-x,1/2-y,-z
1/2+x,1/2-y,z
loop_
_atom_site_type_symbol
_atom_site_label
_atom_site_fract_x
_atom_site_fract_y
_atom_site_fract_z
Si Si1 0.763216 0.284296 0.645004
Si Si2 0.198673 0.886508 0.898230
Si Si3 0.954087 0.618230 0.941420
Si Si4 0.741922 0.888227 0.858892
Si Si5 0.853994 0.618070 0.688812
Si Si6 0.354458 0.196579 0.003349
Si Si7 0.957638 0.618542 0.617378
O O1 0.750000 0.250000 0.500000
O O2 0.724291 0.352160 0.742554
O O3 0.765513 0.188812 0.742378
O O4 0.811865 0.341438 0.623560
O O5 0.184668 0.000000 0.900312
O O6 0.236566 0.876132 0.999969
O O7 0.158346 0.809642 0.960774
O O8 0.947789 0.500000 0.950509
O O9 0.905995 0.666762 0.019374
O O10 0.961561 0.646511 0.776228
O O11 0.000000 0.643173 0.000000
O O12 0.749310 0.000000 0.811628
O O13 0.687257 0.863201 0.898748
O O14 0.850604 0.500000 0.706873
O O15 0.851084 0.666304 0.843398
O O16 0.905339 0.642934 0.600713
O O17 0.960200 0.500000 0.613006
O O18 0.000000 0.657081 0.500000
#
# Coordination Sequence:
#
# PCOD9168911 Si02
#       7
#     8   8   8   8   8   8   8
#     4  11  21  32  44  69 102 128 158 196 236 287
#     4  10  19  33  53  70  94 126 161 204 237 277
#     4   9  17  28  45  70  99 123 148 193 244 283
#     4  10  18  31  50  70  93 124 162 199 230 278
#     4  10  17  29  50  69  94 129 160 190 232 283
#     4  10  16  30  51  73  92 122 164 194 230 286
#     4   8  15  28  44  63  88 121 155 183 219 278
#
# _framework density 14.813131
#
# number of rings (size 3 to 8) (size 9 to 14) (size 15 to 20)
#    0.000    2.286    2.857    3.429    0.000    1.143 
#    5.143    0.000    0.000    0.429    0.000    0.000 
#    0.000    3.429    0.000    0.000    0.000    0.000 
#
# Total GULP energy -155986.261878 kJ/mol
# GULP energy per Si atom -5570.937924 kJ/mol
# Density = 1.477942 g / cm^3
# Si number density = 14.813131 Si / 1000 Ang^3
#
#
#
# Elastic Constant Matrix: (Units=GPa)
#
#
# Indices 1 2 3 4 5 6 
#
# 1 129.1072 44.4739 43.7052 0.0000 -6.8237 0.0000
# 2 44.4739 89.2671 29.6609 0.0000 -4.7399 0.0000
# 3 43.7052 29.6609 60.9145 0.0000 -3.7273 0.0000
# 4 0.0000 0.0000 0.0000 14.1149 0.0000 0.0565
# 5 -6.8237 -4.7399 -3.7273 0.0000 22.3294 0.0000
# 6 0.0000 0.0000 0.0000 0.0565 0.0000 22.7117
#
#
#
# Elastic Compliance Matrix: (Units=1/GPa)
#
#
# Indices 1 2 3 4 5 6 
#
# 1 0.011101 -0.003377 -0.006220 0.000000 0.001637 0.000000
# 2 -0.003377 0.014461 -0.004540 0.000000 0.001280 0.000000
# 3 -0.006220 -0.004540 0.023151 0.000000 0.001000 0.000000
# 4 0.000000 0.000000 0.000000 0.070848 0.000000 -0.000176
# 5 0.001637 0.001280 0.001000 0.000000 0.045723 0.000000
# 6 0.000000 0.000000 0.000000 -0.000176 0.000000 0.044031
#
#
# Mechanical properties :
#
#
# Convention : Reuss Voigt Hill
#
# Bulk Modulus (GPa) = 48.92717 57.21875 53.07296
# Shear Modulus (GPa) = 20.45799 22.59445 21.52622
#
# Velocity S-wave (km/s) = 3.72031 3.90974 3.81620
# Velocity P-wave (km/s) = 7.18022 7.68716 7.43801
#
# Compressibility (1/GPa) = 0.02043854
#
# Stress axis : x y z
#
# Youngs Moduli (GPa) = 90.08231 69.14984 43.19383
#
# Poissons Ratio (x) = 0.23351 0.26868
# Poissons Ratio (y) = 0.30420 0.19612
# Poissons Ratio (z) = 0.56034 0.31397
#
# Static dielectric constant tensor:
#      x y z
#    x 1.496320 0.000000 -0.003010 
#    y 0.000000 1.489700 0.000000 
#    z -0.003010 0.000000 1.493810 
# 
# From -- ./inp_files/110811.got.cif
#   From: 2010.05.17/outbox.cif.g08.bks.cpg/sg12_56_cif.got.tgz:110811.got - 2010.06.03 13:09:07.
