data_PCOD9168378
_publ_section_title
;
Structure prediction by ZEFSAII (Michael W. Deem and Ramdas Pophale) SiO2 
 PCOD9168378
Probable space group: C 2/M
;
_chemical_formula_sum "Si O2"
_cell_formula_units_Z 44
_cell_length_a 28.137973
_cell_length_b 7.434672
_cell_length_c 7.989566
_cell_angle_alpha 90.000000
_cell_angle_beta 90.072210
_cell_angle_gamma 90.000000
_cell_volume 1671.388715
_symmetry_space_group_name_H-M "C 2/M"
_symmetry_group_IT_number 12
_symmetry_cell_setting 'monoclinic'
loop_
_space_group_symop_operation_xyz
x,y,z
-x,y,-z
-x,-y,-z
x,-y,z
1/2+x,1/2+y,z
1/2-x,1/2+y,-z
1/2-x,1/2-y,-z
1/2+x,1/2-y,z
loop_
_atom_site_type_symbol
_atom_site_label
_atom_site_fract_x
_atom_site_fract_y
_atom_site_fract_z
Si Si1 0.135664 0.787813 0.009234
Si Si2 0.454702 0.715240 0.157103
Si Si3 0.692244 0.214465 0.341951
Si Si4 0.700786 0.710940 0.711930
Si Si5 0.557824 0.302258 0.474098
Si Si6 0.460564 0.000000 0.773274
O O1 0.159499 0.766319 0.187588
O O2 0.329315 0.786443 0.134219
O O3 0.128771 0.000000 0.977251
O O4 0.082703 0.711519 0.980822
O O5 0.466302 0.500000 0.139832
O O6 0.426905 0.730824 0.334578
O O7 0.500117 0.841476 0.171678
O O8 0.745755 0.285816 0.305934
O O9 0.694490 0.000000 0.348267
O O10 0.568090 0.153499 0.339993
O O11 0.706243 0.500000 0.749857
O O12 0.677915 0.725633 0.527776
O O13 0.500000 0.303003 0.500000
O O14 0.572505 0.500000 0.418236
#
# Coordination Sequence:
#
# PCOD9168378 Si02
#       6
#     8   8   8   8   8   4
#     4  10  20  33  50  73 103 136 168 211 265 311
#     4   9  17  26  39  65  98 130 165 208 255 302
#     4  10  20  33  52  76  99 130 173 216 257 309
#     4   9  19  36  54  71  97 135 175 212 255 310
#     4   8  13  22  37  59  90 127 168 205 242 298
#     4  10  15  24  42  62  94 136 170 204 250 304
#
# _framework density 26.325413000000001
#
# number of rings (size 3 to 8) (size 9 to 14) (size 15 to 20)
#    0.000    2.727    0.000    5.182    1.273    1.455 
#    0.000    0.000    0.000    0.000    0.000    0.000 
#    0.000   18.909    0.000  127.091    0.000    0.727 
#
# Total GULP energy -122661.550162 kJ/mol
# GULP energy per Si atom -5575.525007 kJ/mol
# Density = 2.626549 g / cm^3
# Si number density = 26.325413 Si / 1000 Ang^3
#
#
#
# Elastic Constant Matrix: (Units=GPa)
#
#
# Indices 1 2 3 4 5 6 
#
# 1 145.8455 11.0583 69.4215 0.0000 -13.1897 0.0000
# 2 11.0583 101.8667 4.7146 0.0000 -0.2812 0.0000
# 3 69.4215 4.7146 179.7141 0.0000 11.3205 0.0000
# 4 0.0000 0.0000 0.0000 137.2518 0.0000 -3.3266
# 5 -13.1897 -0.2812 11.3205 0.0000 27.0845 0.0000
# 6 0.0000 0.0000 0.0000 -3.3266 0.0000 -6.7390
#
#
#
# Elastic Compliance Matrix: (Units=1/GPa)
#
#
# Indices 1 2 3 4 5 6 
#
# 1 0.009384 -0.000817 -0.003996 0.000000 0.006232 0.000000
# 2 -0.000817 0.009901 0.000076 0.000000 -0.000327 0.000000
# 3 -0.003996 0.000076 0.007424 0.000000 -0.005048 0.000000
# 4 0.000000 0.000000 0.000000 0.007200 0.000000 -0.003554
# 5 0.006232 -0.000327 -0.005048 0.000000 0.042063 0.000000
# 6 0.000000 0.000000 0.000000 -0.003554 0.000000 -0.146637
#
#
# Mechanical properties :
#
#
# Convention : Reuss Voigt Hill
#
# Bulk Modulus (GPa) = 58.01689 66.42389 62.22039
# Shear Modulus (GPa) = -90.17723 54.33492 -17.92115
#
# Velocity S-wave (km/s) = -5.85911 4.54802 -2.61196
# Velocity P-wave (km/s) = 4.86683 7.27090 3.81968
#
# Compressibility (1/GPa) = 0.01723636
#
# Stress axis : x y z
#
# Youngs Moduli (GPa) = 106.56215 101.00026 134.69734
#
# Poissons Ratio (x) = 0.08247 0.53827
# Poissons Ratio (y) = 0.08701 -0.01027
# Poissons Ratio (z) = 0.42584 -0.00770
#
# Static dielectric constant tensor:
#      x y z
#    x 2.156070 0.000000 -0.040840 
#    y 0.000000 2.065130 0.000000 
#    z -0.040840 0.000000 2.141240 
# 
# From -- ./inp_files/180255.got.cif
#   From: 2010.05.17/outbox.cif.g08.bks.cpg/sg12_91_cif.got.tgz:180255.got - 2010.06.03 13:09:07.
