data_PCOD9168317
_publ_section_title
;
Structure prediction by ZEFSAII (Michael W. Deem and Ramdas Pophale) SiO2 
 PCOD9168317
Probable space group: C 2/M
;
_chemical_formula_sum "Si O2"
_cell_formula_units_Z 60
_cell_length_a 14.215051
_cell_length_b 22.595387
_cell_length_c 17.555401
_cell_angle_alpha 90.000000
_cell_angle_beta 138.347385
_cell_angle_gamma 90.000000
_cell_volume 3747.551041
_symmetry_space_group_name_H-M "C 2/M"
_symmetry_group_IT_number 12
_symmetry_cell_setting 'monoclinic'
loop_
_space_group_symop_operation_xyz
x,y,z
-x,y,-z
-x,-y,-z
x,-y,z
1/2+x,1/2+y,z
1/2-x,1/2+y,-z
1/2-x,1/2-y,-z
1/2+x,1/2-y,z
loop_
_atom_site_type_symbol
_atom_site_label
_atom_site_fract_x
_atom_site_fract_y
_atom_site_fract_z
Si Si1 0.757559 0.780730 0.744184
Si Si2 0.830067 0.932584 0.397924
Si Si3 0.865953 0.668379 0.014902
Si Si4 0.000000 0.741202 0.500000
Si Si5 0.693153 0.854970 0.187771
Si Si6 0.697686 0.675984 0.515928
Si Si7 0.740985 0.211128 0.899129
Si Si8 0.430968 0.268045 0.699905
O O1 0.607313 0.796407 0.615740
O O2 0.748105 0.710226 0.757040
O O3 0.779195 0.811761 0.838321
O O4 0.875003 0.784463 0.749843
O O5 0.773348 0.903302 0.285776
O O6 0.785716 0.888467 0.438764
O O7 0.000000 0.932167 0.500000
O O8 0.780993 0.000000 0.376636
O O9 0.787384 0.665812 0.048783
O O10 0.028635 0.648202 0.114423
O O11 0.801006 0.637920 0.900140
O O12 0.856078 0.738928 0.990576
O O13 0.094924 0.784370 0.506455
O O14 0.621436 0.680203 0.388302
O O15 0.844929 0.711497 0.613437
O O16 0.593119 0.248097 0.801152
#
# Coordination Sequence:
#
# PCOD9168317 Si02
#       8
#     8   8   8   4   8   8   8   8
#     4  10  17  25  43  62  98 127 157 193 232 296
#     4  11  21  32  50  73  96 130 173 210 248 294
#     4   9  19  28  44  62  88 129 168 196 232 293
#     4  10  14  24  41  62  88 132 149 186 238 284
#     4  10  17  32  45  62  95 128 162 197 241 286
#     4  10  17  28  43  68  98 128 162 196 246 298
#     4  10  17  28  41  66  90 130 173 192 238 291
#     4  10  18  26  45  70  96 132 164 194 246 308
#
# _framework density 16.010453999999999
#
# number of rings (size 3 to 8) (size 9 to 14) (size 15 to 20)
#    0.000    2.000    6.000    0.000    1.867    0.000 
#    0.000    1.333    0.000    0.000    0.000    0.000 
#    0.000    9.600    0.000    2.933    0.533    0.267 
#
# Total GULP energy -167093.797408 kJ/mol
# GULP energy per Si atom -5569.793247 kJ/mol
# Density = 1.597401 g / cm^3
# Si number density = 16.010454 Si / 1000 Ang^3
#
#
#
# Elastic Constant Matrix: (Units=GPa)
#
#
# Indices 1 2 3 4 5 6 
#
# 1 73.3959 15.5250 29.8153 0.0000 -28.4845 0.0000
# 2 15.5250 55.0628 22.3485 0.0000 -10.0829 0.0000
# 3 29.8153 22.3485 90.7089 0.0000 -16.3562 0.0000
# 4 0.0000 0.0000 0.0000 7.4352 0.0000 -0.2801
# 5 -28.4845 -10.0829 -16.3562 0.0000 37.5372 0.0000
# 6 0.0000 0.0000 0.0000 -0.2801 0.0000 10.3894
#
#
#
# Elastic Compliance Matrix: (Units=1/GPa)
#
#
# Indices 1 2 3 4 5 6 
#
# 1 0.020919 -0.001784 -0.003973 0.000000 0.013664 0.000000
# 2 -0.001784 0.020772 -0.004091 0.000000 0.002444 0.000000
# 3 -0.003973 -0.004091 0.013670 0.000000 0.001843 0.000000
# 4 0.000000 0.000000 0.000000 0.134631 0.000000 0.003629
# 5 0.013664 0.002444 0.001843 0.000000 0.038468 0.000000
# 6 0.000000 0.000000 0.000000 0.003629 0.000000 0.096350
#
#
# Mechanical properties :
#
#
# Convention : Reuss Voigt Hill
#
# Bulk Modulus (GPa) = 28.03739 39.39390 33.71565
# Shear Modulus (GPa) = 14.02945 21.17095 17.60020
#
# Velocity S-wave (km/s) = 2.96339 3.64032 3.31916
# Velocity P-wave (km/s) = 5.40915 6.50598 5.98275
#
# Compressibility (1/GPa) = 0.03566666
#
# Stress axis : x y z
#
# Youngs Moduli (GPa) = 47.80449 48.14228 73.15155
#
# Poissons Ratio (x) = 0.08587 0.29060
# Poissons Ratio (y) = 0.08526 0.29925
# Poissons Ratio (z) = 0.18991 0.19694
#
# Static dielectric constant tensor:
#      x y z
#    x 1.604960 0.000000 -0.025760 
#    y 0.000000 1.487840 0.000000 
#    z -0.025760 0.000000 1.625790 
# 
# From -- ./inp_files/272558.got.cif
#   From: 2010.05.17/outbox.cif.g08.bks.cpg/sg12_137_cif.got.tgz:272558.got - 2010.06.03 13:09:07.
