data_PCOD9168698
_publ_section_title
;
Structure prediction by ZEFSAII (Michael W. Deem and Ramdas Pophale) SiO2 
 PCOD9168698
Probable space group: C 2/M
;
_chemical_formula_sum "Si O2"
_cell_formula_units_Z 44
_cell_length_a 5.554045
_cell_length_b 19.260857
_cell_length_c 23.648336
_cell_angle_alpha 90.000000
_cell_angle_beta 62.422628
_cell_angle_gamma 90.000000
_cell_volume 2242.377422
_symmetry_space_group_name_H-M "C 2/M"
_symmetry_group_IT_number 12
_symmetry_cell_setting 'monoclinic'
loop_
_space_group_symop_operation_xyz
x,y,z
-x,y,-z
-x,-y,-z
x,-y,z
1/2+x,1/2+y,z
1/2-x,1/2+y,-z
1/2-x,1/2-y,-z
1/2+x,1/2-y,z
loop_
_atom_site_type_symbol
_atom_site_label
_atom_site_fract_x
_atom_site_fract_y
_atom_site_fract_z
Si Si1 0.328671 0.000000 0.960526
Si Si2 0.199018 0.329982 0.525862
Si Si3 0.202836 0.118326 0.798346
Si Si4 0.464880 0.747874 0.104142
Si Si5 0.890351 0.600166 0.155468
Si Si6 0.092552 0.293467 0.327397
O O1 0.430655 0.933653 0.913611
O O2 0.500000 0.000000 0.000000
O O3 0.000000 0.000000 0.000000
O O4 0.500000 0.361248 0.500000
O O5 0.250000 0.250000 0.500000
O O6 0.000000 0.361260 0.500000
O O7 0.048665 0.326047 0.602061
O O8 0.119907 0.180360 0.850915
O O9 0.452672 0.082737 0.803867
O O10 0.302998 0.151470 0.729383
O O11 0.922264 0.078254 0.817515
O O12 0.786701 0.749369 0.067724
O O13 0.383781 0.816343 0.148734
O O14 0.356198 0.251225 0.321634
#
# Coordination Sequence:
#
# PCOD9168698 Si02
#       6
#     4   8   8   8   8   8
#     4  12  26  44  66  84  98 138 174 200 260 336
#     4  10  16  27  33  54  95 153 192 215 245 277
#     4  10  19  31  52  80 104 140 169 212 268 305
#     4   8  14  27  47  71 100 128 153 187 253 292
#     4  10  20  37  55  77 109 125 166 219 254 310
#     4  12  18  25  44  68 102 143 201 212 242 317
#
# _framework density 19.622031
#
# number of rings (size 3 to 8) (size 9 to 14) (size 15 to 20)
#    0.000    1.818    3.636    5.455    0.000    0.000 
#    0.000    0.000    0.000   29.455    0.000    0.000 
#    0.000    0.000    0.000   16.364    2.182    0.000 
#
# Total GULP energy -122561.522898 kJ/mol
# GULP energy per Si atom -5570.978314 kJ/mol
# Density = 1.957737 g / cm^3
# Si number density = 19.622031 Si / 1000 Ang^3
#
#
#
# Elastic Constant Matrix: (Units=GPa)
#
#
# Indices 1 2 3 4 5 6 
#
# 1 242.9873 18.7709 45.0689 0.0000 20.4674 0.0000
# 2 18.7709 41.5246 4.0617 0.0000 -0.0558 0.0000
# 3 45.0689 4.0617 92.8527 0.0000 2.4591 0.0000
# 4 0.0000 0.0000 0.0000 29.1929 0.0000 -3.2922
# 5 20.4674 -0.0558 2.4591 0.0000 37.0932 0.0000
# 6 0.0000 0.0000 0.0000 -3.2922 0.0000 -0.0468
#
#
#
# Elastic Compliance Matrix: (Units=1/GPa)
#
#
# Indices 1 2 3 4 5 6 
#
# 1 0.004898 -0.002000 -0.002222 0.000000 -0.002558 0.000000
# 2 -0.002000 0.025003 -0.000153 0.000000 0.001151 0.000000
# 3 -0.002222 -0.000153 0.011843 0.000000 0.000441 0.000000
# 4 0.000000 0.000000 0.000000 0.003833 0.000000 -0.269753
# 5 -0.002558 0.001151 0.000441 0.000000 0.028343 0.000000
# 6 0.000000 0.000000 0.000000 -0.269753 0.000000 -2.391944
#
#
# Mechanical properties :
#
#
# Convention : Reuss Voigt Hill
#
# Bulk Modulus (GPa) = 30.30963 57.01862 43.66412
# Shear Modulus (GPa) = -2.17554 33.87873 15.85159
#
# Velocity S-wave (km/s) = -1.05410 4.15970 2.84535
# Velocity P-wave (km/s) = 3.74149 7.22443 5.75288
#
# Compressibility (1/GPa) = 0.03299282
#
# Stress axis : x y z
#
# Youngs Moduli (GPa) = 204.18426 39.99561 84.43607
#
# Poissons Ratio (x) = 0.07999 0.18761
# Poissons Ratio (y) = 0.40837 0.01296
# Poissons Ratio (z) = 0.45368 0.00614
#
# Static dielectric constant tensor:
#      x y z
#    x 1.811960 0.000000 0.018170 
#    y 0.000000 1.681560 0.000000 
#    z 0.018170 0.000000 1.630000 
# 
# From -- ./inp_files/297733.got.cif
#   From: 2010.05.17/outbox.cif.g08.bks.cpg/sg12_149_cif.got.tgz:297733.got - 2010.06.03 13:09:07.
