data_PCOD9168697
_publ_section_title
;
Structure prediction by ZEFSAII (Michael W. Deem and Ramdas Pophale) SiO2 
 PCOD9168697
Probable space group: C 2/M
;
_chemical_formula_sum "Si O2"
_cell_formula_units_Z 48
_cell_length_a 5.577372
_cell_length_b 19.221682
_cell_length_c 24.054604
_cell_angle_alpha 90.000000
_cell_angle_beta 63.072034
_cell_angle_gamma 90.000000
_cell_volume 2299.205919
_symmetry_space_group_name_H-M "C 2/M"
_symmetry_group_IT_number 12
_symmetry_cell_setting 'monoclinic'
loop_
_space_group_symop_operation_xyz
x,y,z
-x,y,-z
-x,-y,-z
x,-y,z
1/2+x,1/2+y,z
1/2-x,1/2+y,-z
1/2-x,1/2-y,-z
1/2+x,1/2-y,z
loop_
_atom_site_type_symbol
_atom_site_label
_atom_site_fract_x
_atom_site_fract_y
_atom_site_fract_z
Si Si1 0.572709 0.754149 0.885641
Si Si2 0.728423 0.882754 0.790685
Si Si3 0.419181 0.293136 0.668097
Si Si4 0.855679 0.103331 0.167605
Si Si5 0.798943 0.169726 0.474944
Si Si6 0.704026 0.579936 0.023011
O O1 0.253771 0.749639 0.920946
O O2 0.647487 0.823816 0.844787
O O3 0.659332 0.688071 0.837928
O O4 0.816890 0.847083 0.724506
O O5 0.448554 0.921734 0.808790
O O6 0.987842 0.916364 0.792843
O O7 0.657338 0.248719 0.672970
O O8 0.555366 0.326869 0.599561
O O9 0.044533 0.079989 0.097231
O O10 0.500000 0.138661 0.500000
O O11 0.750000 0.250000 0.500000
O O12 0.000000 0.138648 0.500000
O O13 0.752077 0.500000 0.998644
O O14 0.500000 0.612319 0.000000
O O15 0.000000 0.610969 0.000000
#
# Coordination Sequence:
#
# PCOD9168697 Si02
#       6
#     8   8   8   8   8   8
#     4   8  14  25  39  57  83 111 141 167 206 238
#     4  10  19  28  43  67  87 124 154 186 218 257
#     4  12  18  25  41  57  85 117 169 205 220 253
#     4  10  18  32  48  65  95 112 139 187 229 256
#     4  10  16  27  33  51  77 118 158 209 226 253
#     4  10  21  37  57  77  90 110 145 178 220 285
#
# _framework density 20.876771999999999
#
# number of rings (size 3 to 8) (size 9 to 14) (size 15 to 20)
#    0.000    2.000    3.333    5.000    0.000    0.000 
#    0.000    0.000    0.000   27.000    0.000    0.000 
#    0.000    0.000    0.000    0.000    0.000   16.667 
#
# Total GULP energy -133829.135213 kJ/mol
# GULP energy per Si atom -5576.213967 kJ/mol
# Density = 2.082926 g / cm^3
# Si number density = 20.876772 Si / 1000 Ang^3
#
#
#
# Elastic Constant Matrix: (Units=GPa)
#
#
# Indices 1 2 3 4 5 6 
#
# 1 252.5644 10.4126 29.7609 0.0000 4.8860 0.0000
# 2 10.4126 49.2922 -2.8380 0.0000 -3.9062 0.0000
# 3 29.7609 -2.8380 77.5749 0.0000 -4.3758 0.0000
# 4 0.0000 0.0000 0.0000 16.3840 0.0000 -0.5755
# 5 4.8860 -3.9062 -4.3758 0.0000 34.1669 0.0000
# 6 0.0000 0.0000 0.0000 -0.5755 0.0000 -24.3180
#
#
#
# Elastic Compliance Matrix: (Units=1/GPa)
#
#
# Indices 1 2 3 4 5 6 
#
# 1 0.004223 -0.001066 -0.001713 0.000000 -0.000945 0.000000
# 2 -0.001066 0.020802 0.001322 0.000000 0.002700 0.000000
# 3 -0.001713 0.001322 0.013718 0.000000 0.002153 0.000000
# 4 0.000000 0.000000 0.000000 0.060984 0.000000 -0.001443
# 5 -0.000945 0.002700 0.002153 0.000000 0.029988 0.000000
# 6 0.000000 0.000000 0.000000 -0.001443 0.000000 -0.041088
#
#
# Mechanical properties :
#
#
# Convention : Reuss Voigt Hill
#
# Bulk Modulus (GPa) = 27.90861 50.45583 39.18222
# Shear Modulus (GPa) = 48.31682 28.05299 38.18490
#
# Velocity S-wave (km/s) = 4.81602 3.66968 4.28139
# Velocity P-wave (km/s) = 6.65753 6.49433 6.57644
#
# Compressibility (1/GPa) = 0.03583123
#
# Stress axis : x y z
#
# Youngs Moduli (GPa) = 236.77578 48.07140 72.89917
#
# Poissons Ratio (x) = 0.05123 0.12484
# Poissons Ratio (y) = 0.25232 -0.09638
# Poissons Ratio (z) = 0.40549 -0.06356
#
# Static dielectric constant tensor:
#      x y z
#    x 1.874220 0.000000 0.004640 
#    y 0.000000 1.779590 0.000000 
#    z 0.004640 0.000000 1.678080 
# 
# From -- ./inp_files/297938.got.cif
#   From: 2010.05.17/outbox.cif.g08.bks.cpg/sg12_149_cif.got.tgz:297938.got - 2010.06.03 13:09:07.
