data_PCOD9168331
_publ_section_title
;
Structure prediction by ZEFSAII (Michael W. Deem and Ramdas Pophale) SiO2 
 PCOD9168331
Probable space group: C 2/M
;
_chemical_formula_sum "Si O2"
_cell_formula_units_Z 64
_cell_length_a 18.937151
_cell_length_b 23.458537
_cell_length_c 17.381397
_cell_angle_alpha 90.000000
_cell_angle_beta 151.529778
_cell_angle_gamma 90.000000
_cell_volume 3680.842007
_symmetry_space_group_name_H-M "C 2/M"
_symmetry_group_IT_number 12
_symmetry_cell_setting 'monoclinic'
loop_
_space_group_symop_operation_xyz
x,y,z
-x,y,-z
-x,-y,-z
x,-y,z
1/2+x,1/2+y,z
1/2-x,1/2+y,-z
1/2-x,1/2-y,-z
1/2+x,1/2-y,z
loop_
_atom_site_type_symbol
_atom_site_label
_atom_site_fract_x
_atom_site_fract_y
_atom_site_fract_z
Si Si1 0.089703 0.435349 0.900510
Si Si2 0.202573 0.667218 0.913903
Si Si3 0.788743 0.229849 0.852794
Si Si4 0.999505 0.224041 0.254201
Si Si5 0.839419 0.935368 0.272673
Si Si6 0.460456 0.316928 0.374930
Si Si7 0.129929 0.249705 0.229128
Si Si8 0.124260 0.380051 0.186010
O O1 0.068420 0.500000 0.853946
O O2 0.140108 0.392497 0.882240
O O3 0.947368 0.412864 0.811025
O O4 0.219150 0.434777 0.088985
O O5 0.221522 0.680522 0.841614
O O6 0.086816 0.715470 0.831791
O O7 0.366274 0.679785 0.105768
O O8 0.701879 0.288175 0.789605
O O9 0.781736 0.219139 0.755028
O O10 0.957050 0.240742 0.039485
O O11 0.048068 0.210106 0.387542
O O12 0.127684 0.225829 0.313230
O O13 0.953302 0.884957 0.363017
O O14 0.754275 0.914657 0.268261
O O15 0.894513 0.000000 0.331921
O O16 0.500000 0.301499 0.500000
O O17 0.164732 0.316600 0.252158
O O18 0.000000 0.373524 0.000000
#
# Coordination Sequence:
#
# PCOD9168331 Si02
#       8
#     8   8   8   8   8   8   8   8
#     4  10  17  25  40  66  93 115 136 171 220 260
#     4   9  15  25  43  63  88 110 139 176 210 266
#     4   9  17  27  44  68  83 110 141 176 225 253
#     4   9  17  26  43  63  83 114 146 174 218 252
#     4  10  19  29  40  57  86 123 154 172 198 247
#     4  11  20  31  42  59  91 121 150 179 204 247
#     4  10  14  26  49  67  85 107 138 182 218 273
#     4  10  15  23  39  64  91 110 136 167 218 261
#
# _framework density 17.387325000000001
#
# number of rings (size 3 to 8) (size 9 to 14) (size 15 to 20)
#    0.000    2.250    5.000    1.875    0.000    1.750 
#    0.000    0.625    0.000    0.000    0.000    7.875 
#    0.000    8.000    0.000    0.000    0.000    0.000 
#
# Total GULP energy -178418.429616 kJ/mol
# GULP energy per Si atom -5575.575925 kJ/mol
# Density = 1.734775 g / cm^3
# Si number density = 17.387325 Si / 1000 Ang^3
#
#
#
# Elastic Constant Matrix: (Units=GPa)
#
#
# Indices 1 2 3 4 5 6 
#
# 1 143.2702 66.8983 10.6833 0.0000 -27.8642 0.0000
# 2 66.8983 110.5877 10.3906 0.0000 -11.3794 0.0000
# 3 10.6833 10.3906 27.4713 0.0000 -9.3759 0.0000
# 4 0.0000 0.0000 0.0000 4.3900 0.0000 -1.4372
# 5 -27.8642 -11.3794 -9.3759 0.0000 20.8907 0.0000
# 6 0.0000 0.0000 0.0000 -1.4372 0.0000 25.0383
#
#
#
# Elastic Compliance Matrix: (Units=1/GPa)
#
#
# Indices 1 2 3 4 5 6 
#
# 1 0.012559 -0.006345 0.002425 0.000000 0.014384 0.000000
# 2 -0.006345 0.012897 -0.003426 0.000000 -0.002976 0.000000
# 3 0.002425 -0.003426 0.043954 0.000000 0.021095 0.000000
# 4 0.000000 0.000000 0.000000 0.232153 0.000000 0.013326
# 5 0.014384 -0.002976 0.021095 0.000000 0.074900 0.000000
# 6 0.000000 0.000000 0.000000 0.013326 0.000000 0.040704
#
#
# Mechanical properties :
#
#
# Convention : Reuss Voigt Hill
#
# Bulk Modulus (GPa) = 18.27574 50.80817 34.54195
# Shear Modulus (GPa) = 11.10866 22.95428 17.03147
#
# Velocity S-wave (km/s) = 2.53038 3.63736 3.13315
# Velocity P-wave (km/s) = 4.36702 6.85021 5.74440
#
# Compressibility (1/GPa) = 0.05471736
#
# Stress axis : x y z
#
# Youngs Moduli (GPa) = 79.62226 77.53874 22.75095
#
# Poissons Ratio (x) = 0.49201 -0.05517
# Poissons Ratio (y) = 0.50523 0.07795
# Poissons Ratio (z) = -0.19308 0.26566
#
# Static dielectric constant tensor:
#      x y z
#    x 1.645810 0.000000 -0.003820 
#    y 0.000000 1.567030 0.000000 
#    z -0.003820 0.000000 1.657830 
# 
# From -- ./inp_files/168506.got.cif
#   From: 2010.05.17/outbox.cif.g08.bks.cpg/sg12_85_cif.got.tgz:168506.got - 2010.06.03 13:09:07.
