data_PCOD9168154
_publ_section_title
;
Structure prediction by ZEFSAII (Michael W. Deem and Ramdas Pophale) SiO2 
 PCOD9168154
Probable space group: P 21/M
;
_chemical_formula_sum "Si O2"
_cell_formula_units_Z 28
_cell_length_a 15.000000
_cell_length_b 9.000000
_cell_length_c 12.000000
_cell_angle_alpha 90.000000
_cell_angle_beta 110.000000
_cell_angle_gamma 90.000000
_cell_volume 1522.302046
_symmetry_space_group_name_H-M "P 21/M"
_symmetry_group_IT_number 11
_symmetry_cell_setting 'monoclinic'
loop_
_space_group_symop_operation_xyz
x,y,z
-x,1/2+y,-z
-x,-y,-z
x,1/2-y,z
loop_
_atom_site_type_symbol
_atom_site_label
_atom_site_fract_x
_atom_site_fract_y
_atom_site_fract_z
Si Si1 0.025226 0.929258 0.629086
Si Si2 0.794772 0.069516 0.152418
Si Si3 0.896022 0.071989 0.965437
Si Si4 0.357704 0.072936 0.427329
Si Si5 0.513997 0.427952 0.330730
Si Si6 0.852313 0.927506 0.720019
Si Si7 0.421457 0.930672 0.886361
O O1 0.025204 0.750000 0.618638
O O2 0.127725 0.976220 0.721523
O O3 0.943839 0.967206 0.685137
O O4 0.000000 0.000000 0.500000
O O5 0.793873 0.250000 0.152509
O O6 0.686645 0.022208 0.130141
O O7 0.838072 0.024335 0.050950
O O8 0.905368 0.250000 0.973761
O O9 0.847149 0.017413 0.831996
O O10 0.000000 0.000000 0.000000
O O11 0.370894 0.250000 0.446885
O O12 0.409225 0.031513 0.332259
O O13 0.246434 0.043071 0.383948
O O14 0.413541 0.989059 0.547107
O O15 0.518467 0.250000 0.330930
O O16 0.546884 0.478879 0.223840
O O17 0.858195 0.750000 0.746085
O O18 0.424295 0.750000 0.893882
O O19 0.500000 0.000000 0.000000
#
# Coordination Sequence:
#
# PCOD9168154 Si02
#       7
#     4   4   4   4   4   4   4
#     4  10  21  38  57  81 114 149 184 226 276 333
#     4   9  20  39  58  79 114 152 181 226 286 332
#     4  11  21  37  59  82 110 145 186 227 276 335
#     4   9  19  35  56  81 109 141 178 229 281 323
#     4   9  19  36  56  79 108 142 184 227 274 330
#     4  10  21  37  57  82 114 144 180 233 284 327
#     4  10  22  39  58  82 112 148 189 232 279 332
#
# _framework density 18.393196
#
# number of rings (size 3 to 8) (size 9 to 14) (size 15 to 20)
#    0.000    2.286    1.429    0.429    4.000    1.714 
#    0.000    1.429    0.000    0.000    0.000    0.000 
#    0.000    0.000    0.000    0.000    0.000    0.000 
#
# Total GULP energy -156140.937101 kJ/mol
# GULP energy per Si atom -5576.462039 kJ/mol
# Density = 1.835133 g / cm^3
# Si number density = 18.393196 Si / 1000 Ang^3
#
#
#
# Elastic Constant Matrix: (Units=GPa)
#
#
# Indices 1 2 3 4 5 6 
#
# 1 158.1640 23.1742 79.1830 0.0000 2.1584 0.0000
# 2 23.1742 5.3417 21.9389 0.0000 -1.5071 0.0000
# 3 79.1830 21.9389 123.3035 0.0000 -14.4772 0.0000
# 4 0.0000 0.0000 0.0000 33.5612 0.0000 2.4872
# 5 2.1584 -1.5071 -14.4772 0.0000 28.8976 0.0000
# 6 0.0000 0.0000 0.0000 2.4872 0.0000 22.2250
#
#
#
# Elastic Compliance Matrix: (Units=1/GPa)
#
#
# Indices 1 2 3 4 5 6 
#
# 1 0.020374 -0.126009 0.008910 0.000000 -0.003630 0.000000
# 2 -0.126009 1.495547 -0.185845 0.000000 -0.005697 0.000000
# 3 0.008910 -0.185845 0.036378 0.000000 0.007867 0.000000
# 4 0.000000 0.000000 0.000000 0.030045 0.000000 -0.003362
# 5 -0.003630 -0.005697 0.007867 0.000000 0.038520 0.000000
# 6 0.000000 0.000000 0.000000 -0.003362 0.000000 0.045371
#
#
# Mechanical properties :
#
#
# Convention : Reuss Voigt Hill
#
# Bulk Modulus (GPa) = 1.05662 59.48904 30.27283
# Shear Modulus (GPa) = 1.93230 27.77097 14.85164
#
# Velocity S-wave (km/s) = 1.02608 3.88989 2.84465
# Velocity P-wave (km/s) = 1.40694 7.25177 5.22339
#
# Compressibility (1/GPa) = 0.94641232
#
# Stress axis : x y z
#
# Youngs Moduli (GPa) = 49.08198 0.66865 27.48877
#
# Poissons Ratio (x) = 0.08426 -0.24493
# Poissons Ratio (y) = 6.18475 5.10866
# Poissons Ratio (z) = -0.43733 0.12427
#
# Static dielectric constant tensor:
#      x y z
#    x 1.641420 0.000000 0.007490 
#    y 0.000000 1.619910 0.000000 
#    z 0.007490 0.000000 1.647890 
# 
# From -- ./inp_files/37473.got.cif
#   From: 2010.05.17/outbox.ucp.g08.bks.cvg/sg11_19_cif.got.tgz:37473.got - 2010.06.11 11:38:39.
