data_PCOD9168659
_publ_section_title
;
Structure prediction by ZEFSAII (Michael W. Deem and Ramdas Pophale) SiO2 
 PCOD9168659
Probable space group: C 2/M
;
_chemical_formula_sum "Si O2"
_cell_formula_units_Z 56
_cell_length_a 5.272703
_cell_length_b 16.470253
_cell_length_c 33.208437
_cell_angle_alpha 90.000000
_cell_angle_beta 62.467806
_cell_angle_gamma 90.000000
_cell_volume 2557.312608
_symmetry_space_group_name_H-M "C 2/M"
_symmetry_group_IT_number 12
_symmetry_cell_setting 'monoclinic'
loop_
_space_group_symop_operation_xyz
x,y,z
-x,y,-z
-x,-y,-z
x,-y,z
1/2+x,1/2+y,z
1/2-x,1/2+y,-z
1/2-x,1/2-y,-z
1/2+x,1/2-y,z
loop_
_atom_site_type_symbol
_atom_site_label
_atom_site_fract_x
_atom_site_fract_y
_atom_site_fract_z
Si Si1 0.056627 0.193831 0.320380
Si Si2 0.553520 0.906787 0.273668
Si Si3 0.952577 0.158503 0.813321
Si Si4 0.914830 0.196325 0.047768
Si Si5 0.156674 0.345347 0.148921
Si Si6 0.393840 0.303494 0.549880
Si Si7 0.938332 0.592212 0.629135
O O1 0.810072 0.251009 0.319944
O O2 0.855120 0.136733 0.362249
O O3 0.250914 0.130370 0.281192
O O4 0.832775 0.234396 0.447818
O O5 0.805497 0.849996 0.238150
O O6 0.553901 0.907071 0.322445
O O7 0.591492 0.000000 0.257975
O O8 0.871762 0.251435 0.832186
O O9 0.096131 0.118667 0.841835
O O10 0.655858 0.118680 0.822809
O O11 0.698227 0.266508 0.047749
O O12 0.744783 0.153467 0.095994
O O13 0.000000 0.151703 0.000000
O O14 0.500000 0.342128 0.500000
O O15 0.208517 0.361464 0.591531
O O16 0.933923 0.500000 0.615984
#
# Coordination Sequence:
#
# PCOD9168659 Si02
#       7
#     8   8   8   8   8   8   8
#     4  12  25  42  66  92 122 162 217 258 309 367
#     4  11  27  45  61  92 132 170 212 262 320 372
#     4  10  21  33  53  72 113 154 193 243 296 352
#     4  10  16  26  45  72 113 149 178 238 320 369
#     4  10  18  34  50  82 112 144 204 253 294 358
#     4  10  23  45  70  99 132 168 213 265 315 375
#     4  11  25  45  68  98 137 169 210 266 321 382
#
# _framework density 21.897986
#
# number of rings (size 3 to 8) (size 9 to 14) (size 15 to 20)
#    0.000    1.429    4.286    1.286    8.000    0.286 
#    0.000    0.000    0.000    2.571    0.000    0.000 
#    0.000    6.286    0.000    0.000    0.000    0.000 
#
# Total GULP energy -156215.722980 kJ/mol
# GULP energy per Si atom -5579.132964 kJ/mol
# Density = 2.184814 g / cm^3
# Si number density = 21.897986 Si / 1000 Ang^3
#
#
#
# Elastic Constant Matrix: (Units=GPa)
#
#
# Indices 1 2 3 4 5 6 
#
# 1 121.8458 8.4701 -1.0409 0.0000 -6.0315 0.0000
# 2 8.4701 48.0064 15.9590 0.0000 -1.2597 0.0000
# 3 -1.0409 15.9590 134.6006 0.0000 -9.3556 0.0000
# 4 0.0000 0.0000 0.0000 10.5872 0.0000 10.8089
# 5 -6.0315 -1.2597 -9.3556 0.0000 38.1928 0.0000
# 6 0.0000 0.0000 0.0000 10.8089 0.0000 8.1188
#
#
#
# Elastic Compliance Matrix: (Units=1/GPa)
#
#
# Indices 1 2 3 4 5 6 
#
# 1 0.008386 -0.001558 0.000344 0.000000 0.001357 0.000000
# 2 -0.001558 0.021975 -0.002629 0.000000 -0.000165 0.000000
# 3 0.000344 -0.002629 0.007876 0.000000 0.001897 0.000000
# 4 0.000000 0.000000 0.000000 -0.262950 0.000000 0.350075
# 5 0.001357 -0.000165 0.001897 0.000000 0.026856 0.000000
# 6 0.000000 0.000000 0.000000 0.350075 0.000000 -0.342896
#
#
# Mechanical properties :
#
#
# Convention : Reuss Voigt Hill
#
# Bulk Modulus (GPa) = 32.73368 39.02546 35.87957
# Shear Modulus (GPa) = -9.56236 30.11742 10.27753
#
# Velocity S-wave (km/s) = -2.09195 3.71260 2.16877
# Velocity P-wave (km/s) = 3.02419 6.01980 4.76360
#
# Compressibility (1/GPa) = 0.03054958
#
# Stress axis : x y z
#
# Youngs Moduli (GPa) = 119.25304 45.50595 126.97439
#
# Poissons Ratio (x) = 0.07091 -0.04367
# Poissons Ratio (y) = 0.18582 0.33382
# Poissons Ratio (z) = -0.04101 0.11964
#
# Static dielectric constant tensor:
#      x y z
#    x 1.873580 0.000000 0.041330 
#    y 0.000000 2.243150 0.000000 
#    z 0.041330 0.000000 1.881480 
# 
# From -- ./inp_files/354947.got.cif
#   From: 2010.05.17/outbox.cif.g08.bks.cpg/sg12_178_cif.got.tgz:354947.got - 2010.06.03 13:09:07.
