data_PCOD9168002
_publ_section_title
;
Structure prediction by ZEFSAII (Michael W. Deem and Ramdas Pophale) SiO2 
 PCOD9168002
Probable space group: P 21/M
;
_chemical_formula_sum "Si O2"
_cell_formula_units_Z 32
_cell_length_a 24.000000
_cell_length_b 9.000000
_cell_length_c 24.000000
_cell_angle_alpha 90.000000
_cell_angle_beta 160.000000
_cell_angle_gamma 90.000000
_cell_volume 1773.032423
_symmetry_space_group_name_H-M "P 21/M"
_symmetry_group_IT_number 11
_symmetry_cell_setting 'monoclinic'
loop_
_space_group_symop_operation_xyz
x,y,z
-x,1/2+y,-z
-x,-y,-z
x,1/2-y,z
loop_
_atom_site_type_symbol
_atom_site_label
_atom_site_fract_x
_atom_site_fract_y
_atom_site_fract_z
Si Si1 0.404577 0.927239 0.461491
Si Si2 0.060284 0.428294 0.113665
Si Si3 0.626236 0.069971 0.878887
Si Si4 0.132559 0.426113 0.700067
Si Si5 0.975630 0.072839 0.157360
Si Si6 0.793269 0.926158 0.361529
Si Si7 0.447345 0.429281 0.070839
Si Si8 0.355455 0.429264 0.530024
O O1 0.422365 0.750000 0.477952
O O2 0.500000 0.000000 0.500000
O O3 0.222401 0.982118 0.279692
O O4 0.438880 0.994848 0.554632
O O5 0.086728 0.250000 0.132474
O O6 0.956277 0.449761 0.072430
O O7 0.000000 0.500000 0.000000
O O8 0.630652 0.250000 0.889542
O O9 0.475410 0.039070 0.694666
O O10 0.589175 0.990807 0.902122
O O11 0.807451 0.020440 0.028080
O O12 0.106398 0.250000 0.684986
O O13 0.179854 0.446604 0.679602
O O14 0.958637 0.508406 0.545255
O O15 0.290415 0.472523 0.884873
O O16 0.980161 0.250000 0.170879
O O17 0.161286 0.022692 0.350092
O O18 0.782277 0.750000 0.362968
O O19 0.622366 0.003832 0.216676
O O20 0.458044 0.250000 0.079744
O O21 0.352761 0.250000 0.519198
#
# Coordination Sequence:
#
# PCOD9168002 Si02
#       8
#     4   4   4   4   4   4   4   4
#     4  11  22  36  55  81 111 144 182 229 284 345
#     4  10  20  35  55  83 112 143 181 227 285 345
#     4  10  21  37  58  81 108 151 198 238 284 343
#     4   9  20  38  59  86 121 159 196 241 299 350
#     4   8  17  35  55  76 105 140 181 229 280 335
#     4  10  20  36  61  89 117 155 201 246 293 349
#     4  11  23  38  56  84 122 158 195 243 294 348
#     4   9  19  37  58  79 108 143 184 235 289 344
#
# _framework density 18.048175000000001
#
# number of rings (size 3 to 8) (size 9 to 14) (size 15 to 20)
#    0.000    2.250    0.000    3.375    1.750    3.000 
#    0.000    4.375    0.000    0.000    0.000    0.000 
#    0.000    0.000    0.000    0.000    0.000    0.000 
#
# Total GULP energy -178307.909347 kJ/mol
# GULP energy per Si atom -5572.122167 kJ/mol
# Density = 1.800710 g / cm^3
# Si number density = 18.048175 Si / 1000 Ang^3
#
#
#
# Elastic Constant Matrix: (Units=GPa)
#
#
# Indices 1 2 3 4 5 6 
#
# 1 96.1884 50.9815 79.6412 0.0000 5.3928 0.0000
# 2 50.9815 75.1019 57.7720 0.0000 -2.0574 0.0000
# 3 79.6412 57.7720 156.2211 0.0000 3.5687 0.0000
# 4 0.0000 0.0000 0.0000 27.1592 0.0000 0.6931
# 5 5.3928 -2.0574 3.5687 0.0000 30.8507 0.0000
# 6 0.0000 0.0000 0.0000 0.6931 0.0000 31.2482
#
#
#
# Elastic Compliance Matrix: (Units=1/GPa)
#
#
# Indices 1 2 3 4 5 6 
#
# 1 0.021660 -0.008897 -0.007672 0.000000 -0.003492 0.000000
# 2 -0.008897 0.022393 -0.003825 0.000000 0.003491 0.000000
# 3 -0.007672 -0.003825 0.011733 0.000000 -0.000271 0.000000
# 4 0.000000 0.000000 0.000000 0.036841 0.000000 -0.000817
# 5 -0.003492 0.003491 -0.000271 0.000000 0.033289 0.000000
# 6 0.000000 0.000000 0.000000 -0.000817 0.000000 0.032020
#
#
# Mechanical properties :
#
#
# Convention : Reuss Voigt Hill
#
# Bulk Modulus (GPa) = 66.67928 78.25565 72.46747
# Shear Modulus (GPa) = 24.54295 27.12607 25.83451
#
# Velocity S-wave (km/s) = 3.69163 3.88104 3.78751
# Velocity P-wave (km/s) = 7.42941 7.97099 7.70496
#
# Compressibility (1/GPa) = 0.01499716
#
# Stress axis : x y z
#
# Youngs Moduli (GPa) = 46.16767 44.65648 85.22840
#
# Poissons Ratio (x) = 0.39733 0.65389
# Poissons Ratio (y) = 0.41077 0.32600
# Poissons Ratio (z) = 0.35421 0.17081
#
# Static dielectric constant tensor:
#      x y z
#    x 1.652390 0.000000 -0.009440 
#    y 0.000000 1.605340 0.000000 
#    z -0.009440 0.000000 1.626110 
# 
# From -- ./inp_files/69994.got.cif
#   From: 2010.05.17/outbox.ucp.g08.bks.cvg/sg11_35_cif.got.tgz:69994.got - 2010.06.11 11:38:39.
