data_PCOD9168590
_publ_section_title
;
Structure prediction by ZEFSAII (Michael W. Deem and Ramdas Pophale) SiO2 
 PCOD9168590
Probable space group: C 2/M
;
_chemical_formula_sum "Si O2"
_cell_formula_units_Z 64
_cell_length_a 27.985390
_cell_length_b 13.462195
_cell_length_c 12.733790
_cell_angle_alpha 90.000000
_cell_angle_beta 113.993790
_cell_angle_gamma 90.000000
_cell_volume 4382.844281
_symmetry_space_group_name_H-M "C 2/M"
_symmetry_group_IT_number 12
_symmetry_cell_setting 'monoclinic'
loop_
_space_group_symop_operation_xyz
x,y,z
-x,y,-z
-x,-y,-z
x,-y,z
1/2+x,1/2+y,z
1/2-x,1/2+y,-z
1/2-x,1/2-y,-z
1/2+x,1/2-y,z
loop_
_atom_site_type_symbol
_atom_site_label
_atom_site_fract_x
_atom_site_fract_y
_atom_site_fract_z
Si Si1 0.407133 0.115989 0.411274
Si Si2 0.952294 0.380587 0.228714
Si Si3 0.771390 0.383681 0.800363
Si Si4 0.299923 0.798557 0.250625
Si Si5 0.678037 0.192047 0.368370
Si Si6 0.162638 0.380424 0.934041
Si Si7 0.433684 0.882375 0.676439
Si Si8 0.758429 0.114685 0.611764
O O1 0.444541 0.138098 0.346329
O O2 0.356409 0.184064 0.353056
O O3 0.431229 0.124426 0.547472
O O4 0.390221 0.000000 0.383218
O O5 0.954531 0.500000 0.219067
O O6 0.898189 0.347118 0.126483
O O7 0.008715 0.344837 0.239764
O O8 0.758819 0.500000 0.794407
O O9 0.721057 0.313110 0.762047
O O10 0.800657 0.359390 0.718095
O O11 0.809156 0.357669 0.931713
O O12 0.306734 0.834660 0.137455
O O13 0.259755 0.862405 0.285469
O O14 0.616483 0.174882 0.324876
O O15 0.708902 0.141227 0.492935
O O16 0.696885 0.306436 0.379801
O O17 0.162579 0.500000 0.920952
O O18 0.428004 0.000000 0.697921
O O19 0.772449 0.000000 0.611020
#
# Coordination Sequence:
#
# PCOD9168590 Si02
#       8
#     8   8   8   8   8   8   8   8
#     4   9  15  24  40  64  90 109 131 173 222 256
#     4   8  15  25  40  62  85 111 140 173 212 254
#     4  10  20  31  41  58  90 124 146 172 208 253
#     4  10  17  27  46  66  83 110 147 179 213 253
#     4  10  20  29  42  63  88 117 144 168 208 259
#     4   9  17  30  45  63  88 114 143 178 217 253
#     4  10  16  25  41  62  89 114 139 169 209 258
#     4  10  18  30  45  63  87 112 141 178 213 249
#
# _framework density 14.60239
#
# number of rings (size 3 to 8) (size 9 to 14) (size 15 to 20)
#    0.000    2.500    1.250    3.750    0.000    1.500 
#    0.000    0.625    0.000    3.000    0.000    3.500 
#    0.000    9.000    0.000    0.000    0.000    0.000 
#
# Total GULP energy -178216.840845 kJ/mol
# GULP energy per Si atom -5569.276276 kJ/mol
# Density = 1.456915 g / cm^3
# Si number density = 14.602390 Si / 1000 Ang^3
#
#
#
# Elastic Constant Matrix: (Units=GPa)
#
#
# Indices 1 2 3 4 5 6 
#
# 1 113.7773 44.5842 26.4659 0.0000 6.5510 0.0000
# 2 44.5842 70.5350 23.7047 0.0000 5.9759 0.0000
# 3 26.4659 23.7047 58.0378 0.0000 -2.2873 0.0000
# 4 0.0000 0.0000 0.0000 12.1658 0.0000 1.3340
# 5 6.5510 5.9759 -2.2873 0.0000 10.3327 0.0000
# 6 0.0000 0.0000 0.0000 1.3340 0.0000 18.3301
#
#
#
# Elastic Compliance Matrix: (Units=1/GPa)
#
#
# Indices 1 2 3 4 5 6 
#
# 1 0.012275 -0.006259 -0.003233 0.000000 -0.004878 0.000000
# 2 -0.006259 0.020988 -0.006093 0.000000 -0.009519 0.000000
# 3 -0.003233 -0.006093 0.021601 0.000000 0.010356 0.000000
# 4 0.000000 0.000000 0.000000 0.082859 0.000000 -0.006030
# 5 -0.004878 -0.009519 0.010356 0.000000 0.107670 0.000000
# 6 0.000000 0.000000 0.000000 -0.006030 0.000000 0.054994
#
#
# Mechanical properties :
#
#
# Convention : Reuss Voigt Hill
#
# Bulk Modulus (GPa) = 42.20631 47.98440 45.09535
# Shear Modulus (GPa) = 14.72951 18.00541 16.36746
#
# Velocity S-wave (km/s) = 3.17946 3.51528 3.35158
# Velocity P-wave (km/s) = 6.51499 7.02910 6.77692
#
# Compressibility (1/GPa) = 0.02369314
#
# Stress axis : x y z
#
# Youngs Moduli (GPa) = 81.46924 47.64723 46.29332
#
# Poissons Ratio (x) = 0.29821 0.14968
# Poissons Ratio (y) = 0.50989 0.28207
# Poissons Ratio (z) = 0.26342 0.29032
#
# Static dielectric constant tensor:
#      x y z
#    x 1.494150 0.000000 0.000980 
#    y 0.000000 1.462940 0.000000 
#    z 0.000980 0.000000 1.497720 
# 
# From -- ./inp_files/182127.got.cif
#   From: 2010.05.17/outbox.cif.g08.bks.cpg/sg12_92_cif.got.tgz:182127.got - 2010.06.03 13:09:07.
