data_PCOD9168236
_publ_section_title
;
Structure prediction by ZEFSAII (Michael W. Deem and Ramdas Pophale) SiO2 
 PCOD9168236
Probable space group: P 21/M
;
_chemical_formula_sum "Si O2"
_cell_formula_units_Z 32
_cell_length_a 24.000000
_cell_length_b 9.000000
_cell_length_c 15.000000
_cell_angle_alpha 90.000000
_cell_angle_beta 30.000000
_cell_angle_gamma 90.000000
_cell_volume 1620.000000
_symmetry_space_group_name_H-M "P 21/M"
_symmetry_group_IT_number 11
_symmetry_cell_setting 'monoclinic'
loop_
_space_group_symop_operation_xyz
x,y,z
-x,1/2+y,-z
-x,-y,-z
x,1/2-y,z
loop_
_atom_site_type_symbol
_atom_site_label
_atom_site_fract_x
_atom_site_fract_y
_atom_site_fract_z
Si Si1 0.868654 0.074156 0.579760
Si Si2 0.511939 0.923161 0.271362
Si Si3 0.107586 0.571241 0.803788
Si Si4 0.891935 0.425309 0.746393
Si Si5 0.214824 0.428946 0.484637
Si Si6 0.455408 0.928259 0.153428
Si Si7 0.697747 0.573930 0.351564
Si Si8 0.274361 0.422785 0.896968
O O1 0.855762 0.250000 0.579818
O O2 0.832697 0.045390 0.732459
O O3 0.812627 0.981525 0.578074
O O4 0.997854 0.025330 0.401489
O O5 0.473920 0.750000 0.328542
O O6 0.526771 0.955053 0.145094
O O7 0.619768 0.935349 0.184282
O O8 0.418887 0.028336 0.442873
O O9 0.099135 0.750000 0.808648
O O10 0.130906 0.499942 0.673803
O O11 0.209949 0.521799 0.724901
O O12 0.000000 0.500000 0.000000
O O13 0.920957 0.250000 0.707103
O O14 0.816631 0.469571 0.934111
O O15 0.214575 0.250000 0.491156
O O16 0.335745 0.497711 0.338428
O O17 0.445473 0.750000 0.155202
O O18 0.500000 0.000000 0.000000
O O19 0.719304 0.750000 0.334712
O O20 0.698660 0.544718 0.243767
O O21 0.236214 0.250000 0.953761
#
# Coordination Sequence:
#
# PCOD9168236 Si02
#       8
#     4   4   4   4   4   4   4   4
#     4  10  22  41  64  90 126 167 208 258 315 375
#     4  10  22  42  65  90 124 167 209 258 318 377
#     4  12  26  45  68  95 130 170 215 267 321 387
#     4  10  22  40  62  93 125 163 211 259 311 373
#     4  12  25  43  68  98 130 169 215 266 324 388
#     4  11  24  42  65  96 132 171 216 265 321 383
#     4  11  23  41  65  93 126 165 209 260 318 379
#     4  10  23  40  62  92 126 163 208 260 315 374
#
# _framework density 19.753086
#
# number of rings (size 3 to 8) (size 9 to 14) (size 15 to 20)
#    0.000    1.250    1.250    4.125    3.500    3.500 
#    0.000    0.000    0.000    0.000    0.000    0.000 
#    0.000    0.000    0.000    0.000    0.000    0.000 
#
# Total GULP energy -178853.262914 kJ/mol
# GULP energy per Si atom -5589.164466 kJ/mol
# Density = 1.970813 g / cm^3
# Si number density = 19.753086 Si / 1000 Ang^3
#
#
#
# Elastic Constant Matrix: (Units=GPa)
#
#
# Indices 1 2 3 4 5 6 
#
# 1 82.6853 20.1833 -12.4532 0.0000 22.2280 0.0000
# 2 20.1833 107.1039 18.4674 0.0000 13.2552 0.0000
# 3 -12.4532 18.4674 55.7042 0.0000 24.0442 0.0000
# 4 0.0000 0.0000 0.0000 36.9672 0.0000 4.6622
# 5 22.2280 13.2552 24.0442 0.0000 35.6173 0.0000
# 6 0.0000 0.0000 0.0000 4.6622 0.0000 36.2145
#
#
#
# Elastic Compliance Matrix: (Units=1/GPa)
#
#
# Indices 1 2 3 4 5 6 
#
# 1 0.021611 -0.004010 0.016000 0.000000 -0.022796 0.000000
# 2 -0.004010 0.010757 -0.005384 0.000000 0.002134 0.000000
# 3 0.016000 -0.005384 0.037763 0.000000 -0.033475 0.000000
# 4 0.000000 0.000000 0.000000 0.027497 0.000000 -0.003540
# 5 -0.022796 0.002134 -0.033475 0.000000 0.064106 0.000000
# 6 0.000000 0.000000 0.000000 -0.003540 0.000000 0.028069
#
#
# Mechanical properties :
#
#
# Convention : Reuss Voigt Hill
#
# Bulk Modulus (GPa) = 11.99853 33.09872 22.54863
# Shear Modulus (GPa) = 24.46534 36.37954 30.42244
#
# Velocity S-wave (km/s) = 3.52313 4.29618 3.92871
# Velocity P-wave (km/s) = 4.75788 6.43445 5.65860
#
# Compressibility (1/GPa) = 0.08334353
#
# Stress axis : x y z
#
# Youngs Moduli (GPa) = 46.27304 92.96613 26.48111
#
# Poissons Ratio (x) = 0.37281 -0.42371
# Poissons Ratio (y) = 0.18556 0.14256
# Poissons Ratio (z) = -0.74039 0.50050
#
# Static dielectric constant tensor:
#      x y z
#    x 1.707780 0.000000 -0.010660 
#    y 0.000000 1.662270 0.000000 
#    z -0.010660 0.000000 1.694220 
# 
# From -- ./inp_files/55509.got.cif
#   From: 2010.05.17/outbox.ucp.g08.bks.cvg/sg11_28_cif.got.tgz:55509.got - 2010.06.11 11:38:39.
