data_PCOD9168878
_publ_section_title
;
Structure prediction by ZEFSAII (Michael W. Deem and Ramdas Pophale) SiO2 
 PCOD9168878
Probable space group: C 2/M
;
_chemical_formula_sum "Si O2"
_cell_formula_units_Z 40
_cell_length_a 5.376371
_cell_length_b 15.308334
_cell_length_c 24.530459
_cell_angle_alpha 90.000000
_cell_angle_beta 83.889422
_cell_angle_gamma 90.000000
_cell_volume 2007.466330
_symmetry_space_group_name_H-M "C 2/M"
_symmetry_group_IT_number 12
_symmetry_cell_setting 'monoclinic'
loop_
_space_group_symop_operation_xyz
x,y,z
-x,y,-z
-x,-y,-z
x,-y,z
1/2+x,1/2+y,z
1/2-x,1/2+y,-z
1/2-x,1/2-y,-z
1/2+x,1/2-y,z
loop_
_atom_site_type_symbol
_atom_site_label
_atom_site_fract_x
_atom_site_fract_y
_atom_site_fract_z
Si Si1 0.238653 0.648954 0.023370
Si Si2 0.635788 0.895121 0.264437
Si Si3 0.685358 0.807188 0.148651
Si Si4 0.606875 0.605141 0.324506
Si Si5 0.505722 0.306571 0.560116
O O1 0.207480 0.649473 0.088776
O O2 0.500000 0.608557 0.000000
O O3 0.250000 0.750000 0.000000
O O4 0.000000 0.608593 0.000000
O O5 0.652524 0.869181 0.201133
O O6 0.375986 0.862628 0.296815
O O7 0.878955 0.862949 0.291763
O O8 0.634695 0.000000 0.268662
O O9 0.440796 0.746353 0.151309
O O10 0.610302 0.500000 0.321318
O O11 0.556576 0.633144 0.387394
O O12 0.500000 0.349129 0.500000
O O13 0.280315 0.235395 0.562615
#
# Coordination Sequence:
#
# PCOD9168878 Si02
#       5
#     8   8   8   8   8
#     4  10  16  30  48  73 103 131 161 218 264 307
#     4  10  23  39  53  76 113 146 174 221 278 315
#     4  12  21  32  55  84 101 134 183 221 260 319
#     4  10  21  39  58  76 106 150 186 217 261 320
#     4  10  21  36  57  85 115 143 174 224 278 312
#
# _framework density 19.925612999999998
#
# number of rings (size 3 to 8) (size 9 to 14) (size 15 to 20)
#    0.000    1.600    4.000    2.400    0.000    5.200 
#    0.000    0.000    0.000    8.400    0.000    0.000 
#    0.000    0.000    0.000    0.000    0.000    0.000 
#
# Total GULP energy -111679.731366 kJ/mol
# GULP energy per Si atom -5583.986568 kJ/mol
# Density = 1.988026 g / cm^3
# Si number density = 19.925613 Si / 1000 Ang^3
#
#
#
# Elastic Constant Matrix: (Units=GPa)
#
#
# Indices 1 2 3 4 5 6 
#
# 1 167.6366 12.5760 40.9459 0.0000 1.5880 0.0000
# 2 12.5760 18.5509 13.8713 0.0000 0.9535 0.0000
# 3 40.9459 13.8713 169.3331 0.0000 -12.9699 0.0000
# 4 0.0000 0.0000 0.0000 -275.2456 0.0000 37.8353
# 5 1.5880 0.9535 -12.9699 0.0000 42.4290 0.0000
# 6 0.0000 0.0000 0.0000 37.8353 0.0000 -9.6792
#
#
#
# Elastic Compliance Matrix: (Units=1/GPa)
#
#
# Indices 1 2 3 4 5 6 
#
# 1 0.006556 -0.003404 -0.001351 0.000000 -0.000582 0.000000
# 2 -0.003404 0.059516 -0.004244 0.000000 -0.002507 0.000000
# 3 -0.001351 -0.004244 0.006749 0.000000 0.002209 0.000000
# 4 0.000000 0.000000 0.000000 -0.007852 0.000000 -0.030695
# 5 -0.000582 -0.002507 0.002209 0.000000 0.024322 0.000000
# 6 0.000000 0.000000 0.000000 -0.030695 0.000000 -0.223298
#
#
# Mechanical properties :
#
#
# Convention : Reuss Voigt Hill
#
# Bulk Modulus (GPa) = 18.24086 54.47854 36.35970
# Shear Modulus (GPa) = -51.15936 -29.29066 -40.22501
#
# Velocity S-wave (km/s) = -5.07256 -3.83822 -4.49793
# Velocity P-wave (km/s) = 5.01334 2.78528 2.94752
#
# Compressibility (1/GPa) = 0.05482198
#
# Stress axis : x y z
#
# Youngs Moduli (GPa) = 152.52768 16.80219 148.16833
#
# Poissons Ratio (x) = 0.05720 0.20018
# Poissons Ratio (y) = 0.51927 0.62886
# Poissons Ratio (z) = 0.20607 0.07131
#
# Static dielectric constant tensor:
#      x y z
#    x 1.710120 0.000000 0.001250 
#    y 0.000000 1.680810 0.000000 
#    z 0.001250 0.000000 1.686390 
# 
# From -- ./inp_files/252544.got.cif
#   From: 2010.05.17/outbox.cif.g08.bks.cpg/sg12_127_cif.got.tgz:252544.got - 2010.06.03 13:09:07.
