data_PCOD9168462
_publ_section_title
;
Structure prediction by ZEFSAII (Michael W. Deem and Ramdas Pophale) SiO2 
 PCOD9168462
Probable space group: C 2/M
;
_chemical_formula_sum "Si O2"
_cell_formula_units_Z 48
_cell_length_a 14.694328
_cell_length_b 19.476284
_cell_length_c 14.512771
_cell_angle_alpha 90.000000
_cell_angle_beta 34.500912
_cell_angle_gamma 90.000000
_cell_volume 2352.579216
_symmetry_space_group_name_H-M "C 2/M"
_symmetry_group_IT_number 12
_symmetry_cell_setting 'monoclinic'
loop_
_space_group_symop_operation_xyz
x,y,z
-x,y,-z
-x,-y,-z
x,-y,z
1/2+x,1/2+y,z
1/2-x,1/2+y,-z
1/2-x,1/2-y,-z
1/2+x,1/2-y,z
loop_
_atom_site_type_symbol
_atom_site_label
_atom_site_fract_x
_atom_site_fract_y
_atom_site_fract_z
Si Si1 0.636938 0.500000 0.312888
Si Si2 0.014820 0.000000 0.205591
Si Si3 0.741587 0.850720 0.194953
Si Si4 0.846707 0.383938 0.076550
Si Si5 0.411990 0.000000 0.671988
Si Si6 0.622089 0.732050 0.185879
Si Si7 0.387005 0.000000 0.890655
Si Si8 0.559494 0.351014 0.799778
O O1 0.500000 0.500000 0.500000
O O2 0.550958 0.500000 0.284563
O O3 0.755538 0.435942 0.219721
O O4 0.930899 0.929879 0.243215
O O5 0.199457 0.000000 0.015151
O O6 0.683013 0.928417 0.248350
O O7 0.612777 0.798418 0.258622
O O8 0.798317 0.831082 0.250101
O O9 0.897834 0.848327 0.997868
O O10 0.714675 0.328814 0.160245
O O11 0.899450 0.432212 0.945369
O O12 0.000000 0.353289 0.000000
O O13 0.500000 0.000000 0.500000
O O14 0.490225 0.000000 0.710798
O O15 0.469183 0.700367 0.261459
O O16 0.750000 0.750000 0.000000
#
# Coordination Sequence:
#
# PCOD9168462 Si02
#       8
#     4   4   8   8   4   8   4   8
#     4  10  20  36  55  84 118 159 197 238 295 350
#     4  10  15  31  58  81 107 144 190 241 288 333
#     4  10  21  33  55  89 116 144 195 240 292 349
#     4  10  20  35  60  89 118 155 200 248 297 358
#     4  12  23  40  58  79 119 162 196 245 297 354
#     4  10  19  32  55  91 116 147 186 249 300 346
#     4  10  16  35  55  82 111 151 195 238 289 334
#     4  10  17  33  58  87 113 143 184 246 289 334
#
# _framework density 20.403137999999998
#
# number of rings (size 3 to 8) (size 9 to 14) (size 15 to 20)
#    0.000    2.000    5.000    2.500    4.667    1.333 
#    0.000    4.167    0.000    1.000    0.000    0.000 
#    0.000    0.000    0.000    0.000    0.000    0.000 
#
# Total GULP energy -133774.031981 kJ/mol
# GULP energy per Si atom -5573.917999 kJ/mol
# Density = 2.035670 g / cm^3
# Si number density = 20.403138 Si / 1000 Ang^3
#
#
#
# Elastic Constant Matrix: (Units=GPa)
#
#
# Indices 1 2 3 4 5 6 
#
# 1 121.6778 54.5802 13.7056 -0.0026 11.3179 -0.0056
# 2 54.5802 112.4698 3.5948 0.0015 2.5860 -0.0023
# 3 13.7056 3.5948 45.1416 -0.0006 20.6583 -0.0015
# 4 -0.0026 0.0015 -0.0006 -2.8281 0.0006 -8.0281
# 5 11.3179 2.5860 20.6583 0.0006 11.2308 0.0037
# 6 -0.0056 -0.0023 -0.0015 -8.0281 0.0037 -12.9673
#
#
#
# Elastic Compliance Matrix: (Units=1/GPa)
#
#
# Indices 1 2 3 4 5 6 
#
# 1 0.012490 -0.005683 0.011514 -0.000025 -0.032458 0.000000
# 2 -0.005683 0.011539 -0.003782 -0.000005 0.010027 0.000007
# 3 0.011514 -0.003782 0.150869 -0.000252 -0.288246 0.000051
# 4 -0.000025 -0.000005 -0.000252 0.466847 0.000560 -0.289025
# 5 -0.032458 0.010027 -0.288246 0.000560 0.649650 -0.000114
# 6 0.000000 0.000007 0.000051 -0.289025 -0.000114 0.101818
#
#
# Mechanical properties :
#
#
# Convention : Reuss Voigt Hill
#
# Bulk Modulus (GPa) = 5.58670 47.00559 26.29614
# Shear Modulus (GPa) = 3.45118 12.91432 8.18275
#
# Velocity S-wave (km/s) = 1.30199 2.51859 2.00480
# Velocity P-wave (km/s) = 2.23703 5.61660 4.27496
#
# Compressibility (1/GPa) = 0.17899646
#
# Stress axis : x y z
#
# Youngs Moduli (GPa) = 80.06613 86.65941 6.62826
#
# Poissons Ratio (x) = 0.49247 -0.07632
# Poissons Ratio (y) = 0.45500 0.02507
# Poissons Ratio (z) = -0.92192 0.32778
#
# Static dielectric constant tensor:
#      x y z
#    x 1.794530 -0.000010 0.019470 
#    y -0.000010 1.708530 0.000000 
#    z 0.019470 0.000000 1.722820 
# 
# From -- ./inp_files/217406.got.cif
#   From: 2010.05.17/outbox.cif.g08.bks.cpg/sg12_109_cif.got.tgz:217406.got - 2010.06.03 13:09:07.
