data_PCOD9168733
_publ_section_title
;
Structure prediction by ZEFSAII (Michael W. Deem and Ramdas Pophale) SiO2 
 PCOD9168733
Probable space group: C 2/M
;
_chemical_formula_sum "Si O2"
_cell_formula_units_Z 56
_cell_length_a 21.898689
_cell_length_b 16.249783
_cell_length_c 17.737717
_cell_angle_alpha 90.000000
_cell_angle_beta 153.188705
_cell_angle_gamma 90.000000
_cell_volume 2847.026126
_symmetry_space_group_name_H-M "C 2/M"
_symmetry_group_IT_number 12
_symmetry_cell_setting 'monoclinic'
loop_
_space_group_symop_operation_xyz
x,y,z
-x,y,-z
-x,-y,-z
x,-y,z
1/2+x,1/2+y,z
1/2-x,1/2+y,-z
1/2-x,1/2-y,-z
1/2+x,1/2-y,z
loop_
_atom_site_type_symbol
_atom_site_label
_atom_site_fract_x
_atom_site_fract_y
_atom_site_fract_z
Si Si1 0.091732 0.409594 0.816599
Si Si2 0.484061 0.135976 0.096410
Si Si3 0.148510 0.241943 0.670045
Si Si4 0.386596 0.736129 0.200027
Si Si5 0.578030 0.325135 0.011307
Si Si6 0.228599 0.408496 0.268020
Si Si7 0.914862 0.089833 0.139073
O O1 0.037565 0.500000 0.735263
O O2 0.055678 0.391965 0.864043
O O3 0.046227 0.326398 0.723744
O O4 0.254206 0.414235 0.982151
O O5 0.632692 0.107206 0.234295
O O6 0.475470 0.234804 0.074691
O O7 0.376700 0.098798 0.918475
O O8 0.157610 0.209146 0.765941
O O9 0.267689 0.307114 0.794816
O O10 0.169891 0.166507 0.636185
O O11 0.000000 0.277569 0.500000
O O12 0.468944 0.664892 0.249202
O O13 0.250000 0.750000 0.000000
O O14 0.500000 0.351561 0.000000
O O15 0.571726 0.385097 0.933332
O O16 0.287825 0.500000 0.335019
O O17 0.973850 0.000000 0.219335
#
# Coordination Sequence:
#
# PCOD9168733 Si02
#       7
#     8   8   8   8   8   8   8
#     4  10  17  26  48  78 106 134 179 233 279 316
#     4  10  16  27  50  80 106 142 183 233 273 317
#     4  11  22  35  54  84 116 151 183 224 288 342
#     4  10  17  33  55  77 108 145 188 234 266 325
#     4  11  18  34  57  78 112 145 189 233 277 328
#     4  10  18  29  46  75 112 146 183 223 271 338
#     4  10  19  31  53  84 108 141 194 242 274 315
#
# _framework density 19.669647999999999
#
# number of rings (size 3 to 8) (size 9 to 14) (size 15 to 20)
#    0.000    1.714    7.143    4.286    0.000    2.286 
#    0.000    0.000    0.000    5.143    0.000    2.000 
#    0.000    0.000    0.000    0.000    0.000    0.000 
#
# Total GULP energy -156076.486507 kJ/mol
# GULP energy per Si atom -5574.160232 kJ/mol
# Density = 1.962488 g / cm^3
# Si number density = 19.669648 Si / 1000 Ang^3
#
#
#
# Elastic Constant Matrix: (Units=GPa)
#
#
# Indices 1 2 3 4 5 6 
#
# 1 147.4872 21.8549 11.5829 -0.0001 6.7867 0.0000
# 2 21.8549 129.2543 -6.2460 -0.0002 2.9646 -0.0001
# 3 11.5829 -6.2460 27.8926 -0.0002 6.7154 -0.0001
# 4 -0.0001 -0.0002 -0.0002 -2.7788 -0.0001 -3.0727
# 5 6.7867 2.9646 6.7154 -0.0001 13.7522 -0.0001
# 6 0.0000 -0.0001 -0.0001 -3.0727 -0.0001 15.9026
#
#
#
# Elastic Compliance Matrix: (Units=1/GPa)
#
#
# Indices 1 2 3 4 5 6 
#
# 1 0.007290 -0.001327 -0.002864 0.000000 -0.001913 0.000000
# 2 -0.001327 0.008165 0.002998 -0.000001 -0.002569 0.000000
# 3 -0.002864 0.002998 0.042527 -0.000002 -0.020000 0.000000
# 4 0.000000 -0.000001 -0.000002 -0.296516 -0.000002 -0.057293
# 5 -0.001913 -0.002569 -0.020000 -0.000002 0.083980 0.000000
# 6 0.000000 0.000000 0.000000 -0.057293 0.000000 0.051813
#
#
# Mechanical properties :
#
#
# Convention : Reuss Voigt Hill
#
# Bulk Modulus (GPa) = 17.98683 39.89086 28.93884
# Shear Modulus (GPa) = -61.10703 23.87135 -18.61784
#
# Velocity S-wave (km/s) = -5.57979 3.48747 -3.07990
# Velocity P-wave (km/s) = 5.68751 6.04492 1.44797
#
# Compressibility (1/GPa) = 0.05559622
#
# Stress axis : x y z
#
# Youngs Moduli (GPa) = 137.17715 122.47582 23.51424
#
# Poissons Ratio (x) = 0.16254 0.06734
# Poissons Ratio (y) = 0.18205 -0.07050
# Poissons Ratio (z) = 0.39285 -0.36718
#
# Static dielectric constant tensor:
#      x y z
#    x 1.714340 0.000000 0.022810 
#    y 0.000000 1.766980 0.000000 
#    z 0.022810 0.000000 1.708600 
# 
# From -- ./inp_files/285024.got.cif
#   From: 2010.05.17/outbox.cif.g08.bks.cpg/sg12_143_cif.got.tgz:285024.got - 2010.06.03 13:09:07.
