data_PCOD9168043
_publ_section_title
;
Structure prediction by ZEFSAII (Michael W. Deem and Ramdas Pophale) SiO2 
 PCOD9168043
Probable space group: P 21/M
;
_chemical_formula_sum "Si O2"
_cell_formula_units_Z 32
_cell_length_a 21.000000
_cell_length_b 9.000000
_cell_length_c 27.000000
_cell_angle_alpha 90.000000
_cell_angle_beta 20.000000
_cell_angle_gamma 90.000000
_cell_volume 1745.328791
_symmetry_space_group_name_H-M "P 21/M"
_symmetry_group_IT_number 11
_symmetry_cell_setting 'monoclinic'
loop_
_space_group_symop_operation_xyz
x,y,z
-x,1/2+y,-z
-x,-y,-z
x,1/2-y,z
loop_
_atom_site_type_symbol
_atom_site_label
_atom_site_fract_x
_atom_site_fract_y
_atom_site_fract_z
Si Si1 0.003756 0.084700 0.200653
Si Si2 0.028477 0.075461 0.927245
Si Si3 0.300545 0.572990 0.148532
Si Si4 0.275303 0.423104 0.916861
Si Si5 0.293194 0.926470 0.411166
Si Si6 0.041040 0.076326 0.669928
Si Si7 0.312774 0.579511 0.652262
Si Si8 0.999521 0.426809 0.553154
O O1 0.000870 0.250000 0.226039
O O2 0.837834 0.079581 0.282065
O O3 0.976096 0.957614 0.260317
O O4 0.195917 0.067807 0.030398
O O5 0.040836 0.250000 0.922246
O O6 0.214365 0.009663 0.767624
O O7 0.000000 0.000000 0.000000
O O8 0.855400 0.027462 0.019786
O O9 0.322522 0.750000 0.128784
O O10 0.151688 0.527065 0.215327
O O11 0.192388 0.538110 0.278223
O O12 0.500000 0.500000 0.000000
O O13 0.246225 0.250000 0.922615
O O14 0.490368 0.459704 0.754221
O O15 0.268269 0.750000 0.425387
O O16 0.167276 0.008015 0.462767
O O17 0.211371 0.985151 0.522558
O O18 0.066457 0.250000 0.640120
O O19 0.500000 0.500000 0.500000
O O20 0.346388 0.750000 0.641766
O O21 0.016685 0.250000 0.537967
O O22 0.000000 0.500000 0.500000
#
# Coordination Sequence:
#
# PCOD9168043 Si02
#       8
#     4   4   4   4   4   4   4   4
#     4   9  19  36  56  78 106 140 175 216 265 315
#     4  11  22  37  58  82 110 145 184 226 274 326
#     4   9  20  36  53  76 105 137 175 219 262 308
#     4   9  20  38  57  80 110 140 178 226 272 323
#     4  10  20  36  58  81 107 141 178 220 271 320
#     4  10  21  36  53  78 110 140 176 220 262 314
#     4  10  21  38  58  82 112 144 182 226 272 324
#     4  10  21  37  55  79 110 141 178 221 265 318
#
# _framework density 18.334654
#
# number of rings (size 3 to 8) (size 9 to 14) (size 15 to 20)
#    0.000    2.250    0.000    4.125    0.000    8.500 
#    0.000    5.000    0.000    0.000    0.000    0.000 
#    0.000    0.000    0.000    0.000    0.000    0.000 
#
# Total GULP energy -178484.144783 kJ/mol
# GULP energy per Si atom -5577.629524 kJ/mol
# Density = 1.829292 g / cm^3
# Si number density = 18.334654 Si / 1000 Ang^3
#
#
#
# Elastic Constant Matrix: (Units=GPa)
#
#
# Indices 1 2 3 4 5 6 
#
# 1 36.1098 41.0188 41.9567 0.0000 23.5228 0.0000
# 2 41.0188 96.7685 89.0544 0.0000 10.4759 0.0000
# 3 41.9567 89.0544 167.1241 0.0000 2.2219 0.0000
# 4 0.0000 0.0000 0.0000 27.1307 0.0000 1.0991
# 5 23.5228 10.4759 2.2219 0.0000 9.0871 0.0000
# 6 0.0000 0.0000 0.0000 1.0991 0.0000 30.1709
#
#
#
# Elastic Compliance Matrix: (Units=1/GPa)
#
#
# Indices 1 2 3 4 5 6 
#
# 1 -0.030073 -0.003702 0.008458 0.000000 0.080046 0.000000
# 2 -0.003702 0.024681 -0.012010 0.000000 -0.015933 0.000000
# 3 0.008458 -0.012010 0.010401 0.000000 -0.010592 0.000000
# 4 0.000000 0.000000 0.000000 0.036913 0.000000 -0.001345
# 5 0.080046 -0.015933 -0.010592 0.000000 -0.076201 0.000000
# 6 0.000000 0.000000 0.000000 -0.001345 0.000000 0.033194
#
#
# Mechanical properties :
#
#
# Convention : Reuss Voigt Hill
#
# Bulk Modulus (GPa) = -105.27003 71.56249 -16.85377
# Shear Modulus (GPa) = 487.52154 21.80923 254.66539
#
# Velocity S-wave (km/s) = 16.32418 3.45267 11.79830
# Velocity P-wave (km/s) = 17.25586 7.41691 13.28110
#
# Compressibility (1/GPa) = -0.00949938
#
# Stress axis : x y z
#
# Youngs Moduli (GPa) = -33.25243 40.51689 96.14625
#
# Poissons Ratio (x) = 0.15000 -0.81324
# Poissons Ratio (y) = -0.12311 1.15475
# Poissons Ratio (z) = 0.28126 0.48662
#
# Static dielectric constant tensor:
#      x y z
#    x 1.648370 0.000000 0.016690 
#    y 0.000000 1.611790 0.000000 
#    z 0.016690 0.000000 1.596810 
# 
# From -- ./inp_files/72111.got.cif
#   From: 2010.05.17/outbox.ucp.g08.bks.cvg/sg11_37_cif.got.tgz:72111.got - 2010.06.11 11:38:39.
