data_PCOD9168387
_publ_section_title
;
Structure prediction by ZEFSAII (Michael W. Deem and Ramdas Pophale) SiO2 
 PCOD9168387
Probable space group: C 2/M
;
_chemical_formula_sum "Si O2"
_cell_formula_units_Z 48
_cell_length_a 23.394950
_cell_length_b 15.582919
_cell_length_c 7.699953
_cell_angle_alpha 90.000000
_cell_angle_beta 137.513999
_cell_angle_gamma 90.000000
_cell_volume 1895.948460
_symmetry_space_group_name_H-M "C 2/M"
_symmetry_group_IT_number 12
_symmetry_cell_setting 'monoclinic'
loop_
_space_group_symop_operation_xyz
x,y,z
-x,y,-z
-x,-y,-z
x,-y,z
1/2+x,1/2+y,z
1/2-x,1/2+y,-z
1/2-x,1/2-y,-z
1/2+x,1/2-y,z
loop_
_atom_site_type_symbol
_atom_site_label
_atom_site_fract_x
_atom_site_fract_y
_atom_site_fract_z
Si Si1 0.248631 0.101604 0.973570
Si Si2 0.635733 0.335242 0.414486
Si Si3 0.060127 0.348854 0.287883
Si Si4 0.131386 0.000000 0.895133
Si Si5 0.960750 0.000000 0.690638
Si Si6 0.782374 0.597726 0.541703
Si Si7 0.092616 0.398896 0.845624
O O1 0.192983 0.157507 0.717469
O O2 0.344856 0.132347 0.168293
O O3 0.253182 0.000000 0.921234
O O4 0.192197 0.083812 0.018614
O O5 0.582976 0.249073 0.298308
O O6 0.574517 0.416483 0.293662
O O7 0.701760 0.342999 0.403407
O O8 0.151551 0.393186 0.468599
O O9 0.000000 0.385878 0.000000
O O10 0.996855 0.356911 0.308260
O O11 0.081282 0.000000 0.597530
O O12 0.060695 0.000000 0.881477
O O13 0.751220 0.500000 0.479210
O O14 0.844978 0.611208 0.848046
O O15 0.074793 0.500000 0.784018
#
# Coordination Sequence:
#
# PCOD9168387 Si02
#       7
#     8   8   8   4   4   8   8
#     4   7  12  24  43  59  71  89 118 153 194 221
#     4  10  15  25  37  54  77 102 121 155 187 212
#     4  10  19  24  33  55  79 105 131 147 176 217
#     4   7  12  22  42  67  65  85 120 153 193 231
#     4   9  14  24  41  55  79  91 119 153 189 225
#     4   9  15  26  40  51  69  98 133 162 184 207
#     4   8  13  24  39  55  73  95 122 155 191 217
#
# _framework density 25.317146000000001
#
# number of rings (size 3 to 8) (size 9 to 14) (size 15 to 20)
#    0.500    2.833    1.667    2.000    0.000    2.000 
#    0.000    0.417    0.000    1.000    0.000    0.000 
#    0.000    0.000    0.000   32.000    0.000    2.333 
#
# Total GULP energy -133952.876138 kJ/mol
# GULP energy per Si atom -5581.369839 kJ/mol
# Density = 2.525952 g / cm^3
# Si number density = 25.317146 Si / 1000 Ang^3
#
#
#
# Elastic Constant Matrix: (Units=GPa)
#
#
# Indices 1 2 3 4 5 6 
#
# 1 169.4561 15.3297 68.7120 0.0000 55.5179 0.0000
# 2 15.3297 76.3667 26.3079 0.0000 32.8330 0.0000
# 3 68.7120 26.3079 162.5857 0.0000 58.9128 0.0000
# 4 0.0000 0.0000 0.0000 35.2144 0.0000 13.2311
# 5 55.5179 32.8330 58.9128 0.0000 71.3494 0.0000
# 6 0.0000 0.0000 0.0000 13.2311 0.0000 23.6646
#
#
#
# Elastic Compliance Matrix: (Units=1/GPa)
#
#
# Indices 1 2 3 4 5 6 
#
# 1 0.008332 0.001368 -0.001663 0.000000 -0.005740 0.000000
# 2 0.001368 0.016551 -0.000158 0.000000 -0.008550 0.000000
# 3 -0.001663 -0.000158 0.009109 0.000000 -0.006155 0.000000
# 4 0.000000 0.000000 0.000000 0.035950 0.000000 -0.020100
# 5 -0.005740 -0.008550 -0.006155 0.000000 0.027498 0.000000
# 6 0.000000 0.000000 0.000000 -0.020100 0.000000 0.053495
#
#
# Mechanical properties :
#
#
# Convention : Reuss Voigt Hill
#
# Bulk Modulus (GPa) = 30.22413 69.90085 50.06249
# Shear Modulus (GPa) = 30.69940 45.91627 38.30783
#
# Velocity S-wave (km/s) = 3.48601 4.26331 3.89410
# Velocity P-wave (km/s) = 5.30727 7.20447 6.32738
#
# Compressibility (1/GPa) = 0.03308615
#
# Stress axis : x y z
#
# Youngs Moduli (GPa) = 120.01480 60.42092 109.78050
#
# Poissons Ratio (x) = -0.08266 0.18255
# Poissons Ratio (y) = -0.16419 0.01736
# Poissons Ratio (z) = 0.19957 0.00955
#
# Static dielectric constant tensor:
#      x y z
#    x 2.120280 0.000000 -0.065770 
#    y 0.000000 1.905050 0.000000 
#    z -0.065770 0.000000 2.067910 
# 
# From -- ./inp_files/251108.got.cif
#   From: 2010.05.17/outbox.cif.g08.bks.cpg/sg12_126_cif.got.tgz:251108.got - 2010.06.03 13:09:07.
