data_PCOD9168608
_publ_section_title
;
Structure prediction by ZEFSAII (Michael W. Deem and Ramdas Pophale) SiO2 
 PCOD9168608
Probable space group: C 2/M
;
_chemical_formula_sum "Si O2"
_cell_formula_units_Z 52
_cell_length_a 32.310311
_cell_length_b 15.351192
_cell_length_c 12.443750
_cell_angle_alpha 90.000000
_cell_angle_beta 150.513914
_cell_angle_gamma 90.000000
_cell_volume 3037.993770
_symmetry_space_group_name_H-M "C 2/M"
_symmetry_group_IT_number 12
_symmetry_cell_setting 'monoclinic'
loop_
_space_group_symop_operation_xyz
x,y,z
-x,y,-z
-x,-y,-z
x,-y,z
1/2+x,1/2+y,z
1/2-x,1/2+y,-z
1/2-x,1/2-y,-z
1/2+x,1/2-y,z
loop_
_atom_site_type_symbol
_atom_site_label
_atom_site_fract_x
_atom_site_fract_y
_atom_site_fract_z
Si Si1 0.092298 0.105828 0.166162
Si Si2 0.123948 0.898777 0.999761
Si Si3 0.000000 0.694401 0.500000
Si Si4 0.172565 0.395211 0.932318
Si Si5 0.681041 0.394671 0.580754
Si Si6 0.442950 0.347983 0.517535
Si Si7 0.296180 0.602147 0.028744
O O1 0.161249 0.126003 0.412867
O O2 0.086782 0.000000 0.145216
O O3 0.116809 0.139479 0.103332
O O4 0.000000 0.134180 0.000000
O O5 0.184591 0.858622 0.045159
O O6 0.030086 0.895739 0.738862
O O7 0.148651 0.000000 0.067534
O O8 0.079127 0.640190 0.719959
O O9 0.032422 0.755805 0.477170
O O10 0.170969 0.500000 0.922771
O O11 0.229067 0.372973 0.164055
O O12 0.223436 0.361470 0.941653
O O13 0.669076 0.500000 0.567088
O O14 0.611013 0.348827 0.496036
O O15 0.381820 0.391369 0.291463
O O16 0.277519 0.500000 0.971799
#
# Coordination Sequence:
#
# PCOD9168608 Si02
#       7
#     8   8   4   8   8   8   8
#     4   9  15  23  43  73 101 129 158 186 219 269
#     4  10  16  25  43  71 105 131 154 180 220 284
#     4  12  23  32  47  72  90 124 164 198 243 282
#     4   9  20  37  53  66  87 119 162 208 241 275
#     4   9  17  31  49  73  99 127 157 190 231 272
#     4  11  18  27  41  72  99 128 146 187 233 283
#     4   9  17  29  46  69  97 127 154 186 234 282
#
# _framework density 17.116558999999999
#
# number of rings (size 3 to 8) (size 9 to 14) (size 15 to 20)
#    0.000    2.308    3.077    2.538    0.000    3.692 
#    0.000    0.000    0.000    0.923    4.000    0.000 
#    0.000    7.385    0.000    0.000    0.000    0.000 
#
# Total GULP energy -144808.566078 kJ/mol
# GULP energy per Si atom -5569.560234 kJ/mol
# Density = 1.707760 g / cm^3
# Si number density = 17.116559 Si / 1000 Ang^3
#
#
#
# Elastic Constant Matrix: (Units=GPa)
#
#
# Indices 1 2 3 4 5 6 
#
# 1 66.0121 -0.0142 43.6522 0.0000 -21.6438 0.0000
# 2 -0.0142 16.6763 12.5801 0.0000 0.8811 0.0000
# 3 43.6522 12.5801 92.1687 0.0000 3.2461 0.0000
# 4 0.0000 0.0000 0.0000 15.5652 0.0000 28.6486
# 5 -21.6438 0.8811 3.2461 0.0000 23.9391 0.0000
# 6 0.0000 0.0000 0.0000 28.6486 0.0000 44.0556
#
#
#
# Elastic Compliance Matrix: (Units=1/GPa)
#
#
# Indices 1 2 3 4 5 6 
#
# 1 0.048249 0.017898 -0.026936 0.000000 0.046617 0.000000
# 2 0.017898 0.073523 -0.019078 0.000000 0.016063 0.000000
# 3 -0.026936 -0.019078 0.027174 0.000000 -0.027336 0.000000
# 4 0.000000 0.000000 0.000000 -0.326319 0.000000 0.212200
# 5 0.046617 0.016063 -0.027336 0.000000 0.087035 0.000000
# 6 0.000000 0.000000 0.000000 0.212200 0.000000 -0.115291
#
#
# Mechanical properties :
#
#
# Convention : Reuss Voigt Hill
#
# Bulk Modulus (GPa) = 10.78576 31.92147 21.35362
# Shear Modulus (GPa) = -42.19665 24.62128 -8.78768
#
# Velocity S-wave (km/s) = -4.97052 3.79680 -2.26830
# Velocity P-wave (km/s) = 5.16007 6.15718 2.37535
#
# Compressibility (1/GPa) = 0.09271480
#
# Stress axis : x y z
#
# Youngs Moduli (GPa) = 20.72564 13.60111 36.80041
#
# Poissons Ratio (x) = -0.24343 0.99126
# Poissons Ratio (y) = -0.37095 0.70206
# Poissons Ratio (z) = 0.55827 0.25948
#
# Static dielectric constant tensor:
#      x y z
#    x 1.631420 0.000000 -0.006770 
#    y 0.000000 1.583640 0.000000 
#    z -0.006770 0.000000 1.575210 
# 
# From -- ./inp_files/189850.got.cif
#   From: 2010.05.17/outbox.cif.g08.bks.cpg/sg12_95_cif.got.tgz:189850.got - 2010.06.03 13:09:07.
