data_PCOD9168782
_publ_section_title
;
Structure prediction by ZEFSAII (Michael W. Deem and Ramdas Pophale) SiO2 
 PCOD9168782
Probable space group: C 2/M
;
_chemical_formula_sum "Si O2"
_cell_formula_units_Z 56
_cell_length_a 21.896666
_cell_length_b 14.218070
_cell_length_c 10.424895
_cell_angle_alpha 90.000000
_cell_angle_beta 43.404025
_cell_angle_gamma 90.000000
_cell_volume 2230.152933
_symmetry_space_group_name_H-M "C 2/M"
_symmetry_group_IT_number 12
_symmetry_cell_setting 'monoclinic'
loop_
_space_group_symop_operation_xyz
x,y,z
-x,y,-z
-x,-y,-z
x,-y,z
1/2+x,1/2+y,z
1/2-x,1/2+y,-z
1/2-x,1/2-y,-z
1/2+x,1/2-y,z
loop_
_atom_site_type_symbol
_atom_site_label
_atom_site_fract_x
_atom_site_fract_y
_atom_site_fract_z
Si Si1 0.266208 0.610416 0.863148
Si Si2 0.597900 0.400880 0.700304
Si Si3 0.478052 0.893641 0.335606
Si Si4 0.384418 0.103928 0.110847
Si Si5 0.376472 0.246021 0.819271
Si Si6 0.385218 0.603605 0.030391
Si Si7 0.343542 0.785258 0.410632
O O1 0.281355 0.500000 0.864629
O O2 0.209462 0.615336 0.818668
O O3 0.352016 0.676250 0.750314
O O4 0.196366 0.661841 0.067039
O O5 0.630111 0.500000 0.597545
O O6 0.492068 0.402685 0.870288
O O7 0.618737 0.309999 0.589284
O O8 0.637949 0.389979 0.783169
O O9 0.531026 0.809894 0.325282
O O10 0.376165 0.865342 0.458753
O O11 0.482538 0.000000 0.380609
O O12 0.538936 0.895463 0.112561
O O13 0.392488 0.182671 0.205015
O O14 0.384692 0.000000 0.171896
O O15 0.365669 0.308262 0.968139
O O16 0.352525 0.500000 0.035128
O O17 0.250000 0.750000 0.500000
#
# Coordination Sequence:
#
# PCOD9168782 Si02
#       7
#     8   8   8   8   8   8   8
#     4   9  18  29  47  79 111 138 172 218 271 320
#     4   9  18  30  43  66  99 132 167 206 254 312
#     4  10  20  35  57  83 107 138 182 225 267 320
#     4   9  19  36  57  80 108 143 181 222 265 318
#     4  10  16  28  50  76 109 136 170 222 269 312
#     4   9  16  27  47  71  97 132 169 209 254 306
#     4  12  23  33  51  78 107 142 175 219 271 318
#
# _framework density 25.110385999999998
#
# number of rings (size 3 to 8) (size 9 to 14) (size 15 to 20)
#    0.000    2.286    1.429    5.143    2.000    2.286 
#    0.000    0.000    0.000    1.714    0.000    3.000 
#    0.000    0.000    0.000    0.000    0.000    0.000 
#
# Total GULP energy -156119.842105 kJ/mol
# GULP energy per Si atom -5575.708647 kJ/mol
# Density = 2.505323 g / cm^3
# Si number density = 25.110386 Si / 1000 Ang^3
#
#
#
# Elastic Constant Matrix: (Units=GPa)
#
#
# Indices 1 2 3 4 5 6 
#
# 1 113.8243 64.0777 26.9306 0.0000 -22.4428 0.0000
# 2 64.0777 220.6338 31.1142 0.0000 -8.8225 0.0000
# 3 26.9306 31.1142 41.5640 0.0000 -5.4677 0.0000
# 4 0.0000 0.0000 0.0000 7.2101 0.0000 -19.9731
# 5 -22.4428 -8.8225 -5.4677 0.0000 38.8859 0.0000
# 6 0.0000 0.0000 0.0000 -19.9731 0.0000 24.2850
#
#
#
# Elastic Compliance Matrix: (Units=1/GPa)
#
#
# Indices 1 2 3 4 5 6 
#
# 1 0.012783 -0.002701 -0.005472 0.000000 0.005995 0.000000
# 2 -0.002701 0.005653 -0.002566 0.000000 -0.000637 0.000000
# 3 -0.005472 -0.002566 0.029580 0.000000 0.000419 0.000000
# 4 0.000000 0.000000 0.000000 -0.108498 0.000000 -0.089234
# 5 0.005995 -0.000637 0.000419 0.000000 0.029091 0.000000
# 6 0.000000 0.000000 0.000000 -0.089234 0.000000 -0.032213
#
#
# Mechanical properties :
#
#
# Convention : Reuss Voigt Hill
#
# Bulk Modulus (GPa) = 37.67970 68.91858 53.29914
# Shear Modulus (GPa) = -150.23539 31.00285 -59.61627
#
# Velocity S-wave (km/s) = -7.74338 3.51759 -4.87783
# Velocity P-wave (km/s) = 8.05657 6.63353 3.23300
#
# Compressibility (1/GPa) = 0.02653949
#
# Stress axis : x y z
#
# Youngs Moduli (GPa) = 78.23057 176.89123 33.80640
#
# Poissons Ratio (x) = 0.47780 0.18498
# Poissons Ratio (y) = 0.21131 0.08673
# Poissons Ratio (z) = 0.42805 0.45383
#
# Static dielectric constant tensor:
#      x y z
#    x 2.046730 0.000000 -0.028430 
#    y 0.000000 2.003710 0.000000 
#    z -0.028430 0.000000 2.013820 
# 
# From -- ./inp_files/240391.got.cif
#   From: 2010.05.17/outbox.cif.g08.bks.cpg/sg12_121_cif.got.tgz:240391.got - 2010.06.03 13:09:07.
