data_PCOD9168643
_publ_section_title
;
Structure prediction by ZEFSAII (Michael W. Deem and Ramdas Pophale) SiO2 
 PCOD9168643
Probable space group: C 2/M
;
_chemical_formula_sum "Si O2"
_cell_formula_units_Z 56
_cell_length_a 14.458686
_cell_length_b 21.109876
_cell_length_c 11.271121
_cell_angle_alpha 90.000000
_cell_angle_beta 103.663449
_cell_angle_gamma 90.000000
_cell_volume 3342.826433
_symmetry_space_group_name_H-M "C 2/M"
_symmetry_group_IT_number 12
_symmetry_cell_setting 'monoclinic'
loop_
_space_group_symop_operation_xyz
x,y,z
-x,y,-z
-x,-y,-z
x,-y,z
1/2+x,1/2+y,z
1/2-x,1/2+y,-z
1/2-x,1/2-y,-z
1/2+x,1/2-y,z
loop_
_atom_site_type_symbol
_atom_site_label
_atom_site_fract_x
_atom_site_fract_y
_atom_site_fract_z
Si Si1 0.636160 0.746283 0.831207
Si Si2 0.015093 0.068835 0.707635
Si Si3 0.804990 0.105422 0.092434
Si Si4 0.407678 0.388140 0.899602
Si Si5 0.535223 0.292780 0.382588
Si Si6 0.175724 0.763108 0.244535
Si Si7 0.889974 0.657925 0.959170
O O1 0.669914 0.680801 0.902099
O O2 0.535749 0.733348 0.739897
O O3 0.712859 0.758192 0.750599
O O4 0.630989 0.800522 0.928429
O O5 0.124536 0.078808 0.785093
O O6 0.951486 0.070279 0.808211
O O7 0.979028 0.130899 0.627642
O O8 0.005654 0.000000 0.647706
O O9 0.839567 0.079958 0.975800
O O10 0.691851 0.104309 0.074987
O O11 0.357793 0.328180 0.826356
O O12 0.500000 0.364792 0.000000
O O13 0.500000 0.271002 0.500000
O O14 0.637947 0.269621 0.367483
O O15 0.127663 0.705048 0.157714
O O16 0.000000 0.637640 0.000000
#
# Coordination Sequence:
#
# PCOD9168643 Si02
#       7
#     8   8   8   8   8   8   8
#     4  10  17  27  44  64  89 125 148 169 221 264
#     4   9  19  31  45  62  84 118 152 187 230 264
#     4   9  16  25  40  67  92 109 145 177 210 272
#     4   9  14  22  40  62  90 111 136 171 212 264
#     4  10  21  32  43  63  89 121 158 192 217 249
#     4  10  16  26  43  63  91 120 143 181 209 266
#     4  11  16  24  45  69  90 122 145 170 214 271
#
# _framework density 16.752289999999999
#
# number of rings (size 3 to 8) (size 9 to 14) (size 15 to 20)
#    0.000    2.286    4.286    2.143    0.000    3.429 
#    0.000    0.000    0.000    0.429    0.000    0.000 
#    0.000    0.000    0.000    1.286    0.000    0.000 
#
# Total GULP energy -155900.699470 kJ/mol
# GULP energy per Si atom -5567.882124 kJ/mol
# Density = 1.671416 g / cm^3
# Si number density = 16.752290 Si / 1000 Ang^3
#
#
#
# Elastic Constant Matrix: (Units=GPa)
#
#
# Indices 1 2 3 4 5 6 
#
# 1 111.1256 15.8470 9.8043 0.0000 -12.4540 0.0000
# 2 15.8470 34.8040 -0.2967 0.0000 -2.0487 0.0000
# 3 9.8043 -0.2967 32.3286 0.0000 -23.4517 0.0000
# 4 0.0000 0.0000 0.0000 -2.7406 0.0000 1.7070
# 5 -12.4540 -2.0487 -23.4517 0.0000 28.1890 0.0000
# 6 0.0000 0.0000 0.0000 1.7070 0.0000 -0.4282
#
#
#
# Elastic Compliance Matrix: (Units=1/GPa)
#
#
# Indices 1 2 3 4 5 6 
#
# 1 0.010083 -0.004362 -0.000243 0.000000 0.003936 0.000000
# 2 -0.004362 0.031005 0.004651 0.000000 0.004196 0.000000
# 3 -0.000243 0.004651 0.078731 0.000000 0.065730 0.000000
# 4 0.000000 0.000000 0.000000 0.246062 0.000000 0.980865
# 5 0.003936 0.004196 0.065730 0.000000 0.092202 0.000000
# 6 0.000000 0.000000 0.000000 0.980865 0.000000 1.574757
#
#
# Mechanical properties :
#
#
# Convention : Reuss Voigt Hill
#
# Bulk Modulus (GPa) = 8.33951 25.44083 16.89017
# Shear Modulus (GPa) = 2.41229 15.19762 8.80495
#
# Velocity S-wave (km/s) = 1.20129 3.01524 2.29508
# Velocity P-wave (km/s) = 2.62927 5.22892 4.13852
#
# Compressibility (1/GPa) = 0.11991117
#
# Stress axis : x y z
#
# Youngs Moduli (GPa) = 99.17371 32.25305 12.70156
#
# Poissons Ratio (x) = 0.14067 0.00309
# Poissons Ratio (y) = 0.43255 -0.05907
# Poissons Ratio (z) = 0.02409 -0.15000
#
# Static dielectric constant tensor:
#      x y z
#    x 1.632820 0.000000 -0.029850 
#    y 0.000000 1.562450 0.000000 
#    z -0.029850 0.000000 1.569820 
# 
# From -- ./inp_files/147064.got.cif
#   From: 2010.05.17/outbox.cif.g08.bks.cpg/sg12_74_cif.got.tgz:147064.got - 2010.06.03 13:09:07.
