data_PCOD9168515
_publ_section_title
;
Structure prediction by ZEFSAII (Michael W. Deem and Ramdas Pophale) SiO2 
 PCOD9168515
Probable space group: C 2/M
;
_chemical_formula_sum "Si O2"
_cell_formula_units_Z 56
_cell_length_a 28.261575
_cell_length_b 7.326706
_cell_length_c 18.282806
_cell_angle_alpha 90.000000
_cell_angle_beta 125.801342
_cell_angle_gamma 90.000000
_cell_volume 3070.405028
_symmetry_space_group_name_H-M "C 2/M"
_symmetry_group_IT_number 12
_symmetry_cell_setting 'monoclinic'
loop_
_space_group_symop_operation_xyz
x,y,z
-x,y,-z
-x,-y,-z
x,-y,z
1/2+x,1/2+y,z
1/2-x,1/2+y,-z
1/2-x,1/2-y,-z
1/2+x,1/2-y,z
loop_
_atom_site_type_symbol
_atom_site_label
_atom_site_fract_x
_atom_site_fract_y
_atom_site_fract_z
Si Si1 0.038636 0.276931 0.466782
Si Si2 0.170735 0.282476 0.566935
Si Si3 0.205513 0.717043 0.282158
Si Si4 0.093359 0.277872 0.098571
Si Si5 0.015279 0.277778 0.897228
Si Si6 0.475460 0.220822 0.708691
Si Si7 0.160529 0.278837 0.396243
O O1 0.038393 0.500000 0.466949
O O2 0.106520 0.218470 0.532431
O O3 0.014303 0.218835 0.365275
O O4 0.000000 0.216609 0.500000
O O5 0.165611 0.500000 0.556429
O O6 0.226013 0.246153 0.667847
O O7 0.183430 0.213324 0.495689
O O8 0.196954 0.500000 0.277305
O O9 0.157204 0.784726 0.181236
O O10 0.189896 0.790157 0.348974
O O11 0.093529 0.500000 0.097030
O O12 0.044873 0.227058 0.115590
O O13 0.067928 0.218196 0.997370
O O14 0.015877 0.500000 0.896851
O O15 0.013649 0.215767 0.811872
O O16 0.408177 0.264615 0.666269
O O17 0.479176 0.000000 0.710746
O O18 0.165295 0.500000 0.400023
#
# Coordination Sequence:
#
# PCOD9168515 Si02
#       7
#     8   8   8   8   8   8   8
#     4   8  14  24  37  52  68  88 117 153 186 213
#     4   9  17  26  36  51  72  96 121 147 176 213
#     4  10  16  23  35  52  75 100 122 142 170 209
#     4   8  13  18  28  47  72  96 117 142 170 205
#     4   8  11  17  28  46  71  95 116 141 177 211
#     4   8  11  17  31  49  71  93 113 143 184 217
#     4   8  13  21  32  49  73  98 120 142 170 207
#
# _framework density 18.238636
#
# number of rings (size 3 to 8) (size 9 to 14) (size 15 to 20)
#    0.000    3.571    1.429    3.000    0.000    0.000 
#    0.000    0.000    0.000    0.429    0.000    3.000 
#    0.000    0.000    0.000    0.000    0.000    0.000 
#
# Total GULP energy -155989.915583 kJ/mol
# GULP energy per Si atom -5571.068414 kJ/mol
# Density = 1.819712 g / cm^3
# Si number density = 18.238636 Si / 1000 Ang^3
#
#
#
# Elastic Constant Matrix: (Units=GPa)
#
#
# Indices 1 2 3 4 5 6 
#
# 1 85.0095 2.6325 84.6035 0.0000 -9.1512 0.0000
# 2 2.6325 70.0462 4.1989 0.0000 -0.2271 -0.0001
# 3 84.6035 4.1989 193.1171 0.0000 5.9765 0.0000
# 4 0.0000 0.0000 0.0000 -7.7704 0.0000 24.1554
# 5 -9.1512 -0.2271 5.9765 0.0000 21.0630 0.0000
# 6 0.0000 -0.0001 0.0000 24.1554 0.0000 -31.4066
#
#
#
# Elastic Compliance Matrix: (Units=1/GPa)
#
#
# Indices 1 2 3 4 5 6 
#
# 1 0.024210 -0.000205 -0.011024 0.000000 0.013644 0.000000
# 2 -0.000205 0.014298 -0.000225 0.000000 0.000129 0.000000
# 3 -0.011024 -0.000225 0.010251 0.000000 -0.007701 0.000000
# 4 0.000000 0.000000 0.000000 0.092525 0.000000 0.071162
# 5 0.013644 0.000129 -0.007701 0.000000 0.055591 0.000000
# 6 0.000000 0.000000 0.000000 0.071162 0.000000 0.022892
#
#
# Mechanical properties :
#
#
# Convention : Reuss Voigt Hill
#
# Bulk Modulus (GPa) = 38.68345 59.00472 48.84408
# Shear Modulus (GPa) = 19.89724 13.49306 16.69515
#
# Velocity S-wave (km/s) = 3.30652 2.72289 3.02879
# Velocity P-wave (km/s) = 5.98607 6.50440 6.25061
#
# Compressibility (1/GPa) = 0.02585085
#
# Stress axis : x y z
#
# Youngs Moduli (GPa) = 41.30544 69.94036 97.55176
#
# Poissons Ratio (x) = 0.01432 1.07541
# Poissons Ratio (y) = 0.00846 0.02196
# Poissons Ratio (z) = 0.45535 0.01575
#
# Static dielectric constant tensor:
#      x y z
#    x 1.588930 0.000000 0.004470 
#    y 0.000000 1.745780 0.000000 
#    z 0.004470 0.000000 1.675770 
# 
# From -- ./inp_files/292642.got.cif
#   From: 2010.05.17/outbox.cif.g08.bks.cpg/sg12_147_cif.got.tgz:292642.got - 2010.06.03 13:09:07.
