data_PCOD9168419
_publ_section_title
;
Structure prediction by ZEFSAII (Michael W. Deem and Ramdas Pophale) SiO2 
 PCOD9168419
Probable space group: C 2/M
;
_chemical_formula_sum "Si O2"
_cell_formula_units_Z 56
_cell_length_a 16.765362
_cell_length_b 15.348482
_cell_length_c 19.664303
_cell_angle_alpha 90.000000
_cell_angle_beta 34.703954
_cell_angle_gamma 90.000000
_cell_volume 2880.883956
_symmetry_space_group_name_H-M "C 2/M"
_symmetry_group_IT_number 12
_symmetry_cell_setting 'monoclinic'
loop_
_space_group_symop_operation_xyz
x,y,z
-x,y,-z
-x,-y,-z
x,-y,z
1/2+x,1/2+y,z
1/2-x,1/2+y,-z
1/2-x,1/2-y,-z
1/2+x,1/2-y,z
loop_
_atom_site_type_symbol
_atom_site_label
_atom_site_fract_x
_atom_site_fract_y
_atom_site_fract_z
Si Si1 0.070209 0.102377 0.284408
Si Si2 0.828596 0.367018 0.550703
Si Si3 0.637397 0.097840 0.314593
Si Si4 0.595356 0.710671 0.868246
Si Si5 0.872522 0.171216 0.537143
Si Si6 0.680452 0.098516 0.783194
Si Si7 0.973698 0.098700 0.216685
O O1 0.209651 0.109678 0.231705
O O2 0.944748 0.137537 0.418778
O O3 0.073524 0.137816 0.205295
O O4 0.047383 0.000000 0.291501
O O5 0.855926 0.400980 0.607960
O O6 0.804160 0.263776 0.570836
O O7 0.678156 0.405228 0.638975
O O8 0.974669 0.384509 0.409502
O O9 0.748811 0.174151 0.220824
O O10 0.677893 0.000000 0.263317
O O11 0.591429 0.813176 0.851808
O O12 0.546310 0.655510 0.836884
O O13 0.500000 0.694820 0.000000
O O14 0.769052 0.108400 0.650920
O O15 0.000000 0.189766 0.500000
O O16 0.620461 0.000000 0.828932
O O17 0.013496 0.000000 0.169079
#
# Coordination Sequence:
#
# PCOD9168419 Si02
#       7
#     8   8   8   8   8   8   8
#     4   9  19  32  51  81 111 142 174 212 267 329
#     4  10  15  27  47  76 109 136 165 204 257 317
#     4  10  17  28  48  75 105 141 175 210 260 314
#     4  11  22  37  54  78 103 138 191 237 267 310
#     4  10  15  28  50  76 107 135 173 211 253 313
#     4  10  19  35  56  77 105 142 184 226 267 318
#     4  10  20  35  53  81 115 141 172 215 270 325
#
# _framework density 19.438478
#
# number of rings (size 3 to 8) (size 9 to 14) (size 15 to 20)
#    0.000    2.000    4.286    4.286    0.000    3.714 
#    0.000    0.714    0.000    0.000    0.000    1.000 
#    0.000    0.000    0.000    0.000    0.000    0.000 
#
# Total GULP energy -155873.727784 kJ/mol
# GULP energy per Si atom -5566.918849 kJ/mol
# Density = 1.939424 g / cm^3
# Si number density = 19.438478 Si / 1000 Ang^3
#
#
#
# Elastic Constant Matrix: (Units=GPa)
#
#
# Indices 1 2 3 4 5 6 
#
# 1 43.9008 24.1093 15.8667 -0.0001 24.2966 0.0001
# 2 24.1093 113.8076 25.3989 0.0000 12.4826 0.0000
# 3 15.8667 25.3989 62.7060 -0.0001 12.6150 0.0001
# 4 -0.0001 0.0000 -0.0001 2.6942 0.0001 4.5074
# 5 24.2966 12.4826 12.6150 0.0001 19.9761 -0.0001
# 6 0.0001 0.0000 0.0001 4.5074 -0.0001 20.1792
#
#
#
# Elastic Compliance Matrix: (Units=1/GPa)
#
#
# Indices 1 2 3 4 5 6 
#
# 1 0.073637 -0.006424 0.001352 0.000014 -0.086402 -0.000004
# 2 -0.006424 0.010520 -0.003305 -0.000001 0.003327 0.000000
# 3 0.001352 -0.003305 0.019313 0.000002 -0.011775 -0.000001
# 4 0.000014 -0.000001 0.000002 0.592631 -0.000021 -0.132377
# 5 -0.086402 0.003327 -0.011775 -0.000021 0.160506 0.000006
# 6 -0.000004 0.000000 -0.000001 -0.132377 0.000006 0.079125
#
#
# Mechanical properties :
#
#
# Convention : Reuss Voigt Hill
#
# Bulk Modulus (GPa) = 11.53204 39.01824 25.27514
# Shear Modulus (GPa) = 5.09480 18.90587 12.00034
#
# Velocity S-wave (km/s) = 1.62070 3.12204 2.48735
# Velocity P-wave (km/s) = 3.07371 5.75434 4.61303
#
# Compressibility (1/GPa) = 0.08671492
#
# Stress axis : x y z
#
# Youngs Moduli (GPa) = 13.58018 95.05349 51.77869
#
# Poissons Ratio (x) = 0.61065 -0.06999
# Poissons Ratio (y) = 0.08724 0.17113
# Poissons Ratio (z) = -0.01836 0.31415
#
# Static dielectric constant tensor:
#      x y z
#    x 1.729050 0.000000 -0.015740 
#    y 0.000000 1.732680 0.000000 
#    z -0.015740 0.000000 1.695600 
# 
# From -- ./inp_files/277821.got.cif
#   From: 2010.05.17/outbox.cif.g08.bks.cpg/sg12_139_cif.got.tgz:277821.got - 2010.06.03 13:09:07.
