data_PCOD9168971
_publ_section_title
;
Structure prediction by ZEFSAII (Michael W. Deem and Ramdas Pophale) SiO2 
 PCOD9168971
Probable space group: C 2/M
;
_chemical_formula_sum "Si O2"
_cell_formula_units_Z 56
_cell_length_a 22.064609
_cell_length_b 17.541619
_cell_length_c 7.763748
_cell_angle_alpha 90.000000
_cell_angle_beta 69.163079
_cell_angle_gamma 90.000000
_cell_volume 2808.416798
_symmetry_space_group_name_H-M "C 2/M"
_symmetry_group_IT_number 12
_symmetry_cell_setting 'monoclinic'
loop_
_space_group_symop_operation_xyz
x,y,z
-x,y,-z
-x,-y,-z
x,-y,z
1/2+x,1/2+y,z
1/2-x,1/2+y,-z
1/2-x,1/2-y,-z
1/2+x,1/2-y,z
loop_
_atom_site_type_symbol
_atom_site_label
_atom_site_fract_x
_atom_site_fract_y
_atom_site_fract_z
Si Si1 0.190599 0.164204 0.720409
Si Si2 0.781885 0.189912 0.685060
Si Si3 0.259781 0.089124 0.950926
Si Si4 0.621827 0.797150 0.246299
Si Si5 0.079318 0.255359 0.914062
Si Si6 0.096293 0.582146 0.808483
Si Si7 0.464942 0.919531 0.742764
O O1 0.215589 0.150292 0.502554
O O2 0.228825 0.241931 0.739088
O O3 0.211223 0.102510 0.840242
O O4 0.114037 0.182353 0.797119
O O5 0.848779 0.235566 0.655083
O O6 0.767327 0.130510 0.851080
O O7 0.323466 0.138101 0.839179
O O8 0.273159 0.000000 0.963660
O O9 0.559230 0.848750 0.342248
O O10 0.604376 0.756291 0.084952
O O11 0.113468 0.328593 0.784827
O O12 0.000000 0.260467 0.000000
O O13 0.132408 0.500000 0.752473
O O14 0.038750 0.579748 0.728155
O O15 0.069589 0.581543 0.032921
O O16 0.447149 0.000000 0.677997
#
# Coordination Sequence:
#
# PCOD9168971 Si02
#       7
#     8   8   8   8   8   8   8
#     4  10  21  38  56  81 115 145 186 237 283 329
#     4  10  20  37  58  78 112 150 185 236 285 325
#     4  11  21  35  59  85 110 144 189 237 285 333
#     4  10  16  31  52  81 111 143 186 225 266 328
#     4  11  17  29  54  81 112 152 189 225 270 330
#     4   8  13  20  36  68 105 143 178 208 246 304
#     4   8  12  20  37  67 104 138 173 208 248 304
#
# _framework density 19.940061
#
# number of rings (size 3 to 8) (size 9 to 14) (size 15 to 20)
#    0.000    2.286    5.714    2.143    0.000    1.143 
#    0.000    0.714    0.000    2.143    0.000    3.000 
#    0.000    0.000    0.000    0.000    0.000    0.000 
#
# Total GULP energy -155872.307378 kJ/mol
# GULP energy per Si atom -5566.868121 kJ/mol
# Density = 1.989468 g / cm^3
# Si number density = 19.940061 Si / 1000 Ang^3
#
#
#
# Elastic Constant Matrix: (Units=GPa)
#
#
# Indices 1 2 3 4 5 6 
#
# 1 69.0467 19.3973 19.9349 0.0000 8.2374 0.0000
# 2 19.3973 48.1919 38.4409 0.0000 7.8132 0.0000
# 3 19.9349 38.4409 81.9051 0.0000 7.5544 0.0000
# 4 0.0000 0.0000 0.0000 -10.9859 0.0000 6.4590
# 5 8.2374 7.8132 7.5544 0.0000 19.4322 0.0000
# 6 0.0000 0.0000 0.0000 6.4590 0.0000 25.9593
#
#
#
# Elastic Compliance Matrix: (Units=1/GPa)
#
#
# Indices 1 2 3 4 5 6 
#
# 1 0.016811 -0.004945 -0.001345 0.000000 -0.004615 0.000000
# 2 -0.004945 0.035727 -0.014970 0.000000 -0.006449 0.000000
# 3 -0.001345 -0.014970 0.019660 0.000000 -0.001054 0.000000
# 4 0.000000 0.000000 0.000000 -0.079409 0.000000 0.019758
# 5 -0.004615 -0.006449 -0.001054 0.000000 0.056420 0.000000
# 6 0.000000 0.000000 0.000000 0.019758 0.000000 0.033606
#
#
# Mechanical properties :
#
#
# Convention : Reuss Voigt Hill
#
# Bulk Modulus (GPa) = 33.69499 39.40998 36.55249
# Shear Modulus (GPa) = 36.97493 14.97250 25.97371
#
# Velocity S-wave (km/s) = 4.31083 2.74318 3.61306
# Velocity P-wave (km/s) = 6.45853 5.46265 5.98135
#
# Compressibility (1/GPa) = 0.02967800
#
# Stress axis : x y z
#
# Youngs Moduli (GPa) = 59.48428 27.98989 50.86595
#
# Poissons Ratio (x) = 0.13842 0.06841
# Poissons Ratio (y) = 0.29418 0.76144
# Poissons Ratio (z) = 0.08000 0.41900
#
# Static dielectric constant tensor:
#      x y z
#    x 1.787740 0.000000 -0.034230 
#    y 0.000000 1.749800 0.000000 
#    z -0.034230 0.000000 1.780960 
# 
# From -- ./inp_files/87252.got.cif
#   From: 2010.05.17/outbox.cif.g08.bks.cpg/sg12_44_cif.got.tgz:87252.got - 2010.06.03 13:09:07.
