data_PCOD9168680
_publ_section_title
;
Structure prediction by ZEFSAII (Michael W. Deem and Ramdas Pophale) SiO2 
 PCOD9168680
Probable space group: C 2/M
;
_chemical_formula_sum "Si O2"
_cell_formula_units_Z 64
_cell_length_a 23.365642
_cell_length_b 13.227712
_cell_length_c 12.578175
_cell_angle_alpha 90.000000
_cell_angle_beta 73.626126
_cell_angle_gamma 90.000000
_cell_volume 3729.916311
_symmetry_space_group_name_H-M "C 2/M"
_symmetry_group_IT_number 12
_symmetry_cell_setting 'monoclinic'
loop_
_space_group_symop_operation_xyz
x,y,z
-x,y,-z
-x,-y,-z
x,-y,z
1/2+x,1/2+y,z
1/2-x,1/2+y,-z
1/2-x,1/2-y,-z
1/2+x,1/2-y,z
loop_
_atom_site_type_symbol
_atom_site_label
_atom_site_fract_x
_atom_site_fract_y
_atom_site_fract_z
Si Si1 0.052752 0.885440 0.558372
Si Si2 0.659921 0.256433 0.406323
Si Si3 0.606988 0.122245 0.246420
Si Si4 0.766183 0.378141 0.241351
Si Si5 0.671603 0.882053 0.998662
Si Si6 0.027989 0.299293 0.712736
Si Si7 0.440231 0.889709 0.097654
Si Si8 0.152750 0.616579 0.598278
O O1 0.110726 0.835149 0.475025
O O2 0.031066 0.811819 0.662939
O O3 0.000000 0.886086 0.500000
O O4 0.064709 0.000000 0.586256
O O5 0.629474 0.178455 0.339933
O O6 0.711494 0.317911 0.320136
O O7 0.681292 0.191333 0.496746
O O8 0.649835 0.155898 0.125117
O O9 0.537834 0.153432 0.262782
O O10 0.609611 0.000000 0.252846
O O11 0.756190 0.500000 0.242991
O O12 0.820927 0.363685 0.296992
O O13 0.780440 0.342098 0.112807
O O14 0.687256 0.000000 0.007476
O O15 0.612503 0.877676 0.957147
O O16 0.048979 0.303662 0.823020
O O17 0.081600 0.362007 0.628588
O O18 0.431679 0.000000 0.157367
O O19 0.500000 0.896287 0.000000
O O20 0.165248 0.500000 0.566844
#
# Coordination Sequence:
#
# PCOD9168680 Si02
#       8
#     8   8   8   8   8   8   8   8
#     4  10  21  38  53  71 100 137 184 224 254 301
#     4  11  22  35  52  77 105 143 178 214 266 315
#     4  11  21  33  51  82 118 140 165 207 267 331
#     4  10  20  36  55  75  99 136 186 228 251 295
#     4   9  18  31  50  78 108 140 172 211 257 307
#     4  11  19  31  54  84 107 138 168 210 269 323
#     4  10  16  26  49  81 113 139 167 206 259 321
#     4  10  20  33  53  80 110 136 168 216 269 320
#
# _framework density 17.158563000000001
#
# number of rings (size 3 to 8) (size 9 to 14) (size 15 to 20)
#    0.000    1.750    3.750    2.250    0.000    0.500 
#    0.000    1.875    0.000    1.125    0.000    0.875 
#    0.000    0.000    0.000    0.000    0.000    0.000 
#
# Total GULP energy -178237.623022 kJ/mol
# GULP energy per Si atom -5569.925719 kJ/mol
# Density = 1.711951 g / cm^3
# Si number density = 17.158563 Si / 1000 Ang^3
#
#
#
# Elastic Constant Matrix: (Units=GPa)
#
#
# Indices 1 2 3 4 5 6 
#
# 1 38.1207 16.9506 5.7326 0.0000 -11.9432 0.0000
# 2 16.9506 89.0537 38.2371 0.0000 0.1261 0.0000
# 3 5.7326 38.2371 83.8342 0.0000 -6.1106 0.0000
# 4 0.0000 0.0000 0.0000 38.4011 0.0000 -4.9322
# 5 -11.9432 0.1261 -6.1106 0.0000 29.4421 0.0000
# 6 0.0000 0.0000 0.0000 -4.9322 0.0000 16.6335
#
#
#
# Elastic Compliance Matrix: (Units=1/GPa)
#
#
# Indices 1 2 3 4 5 6 
#
# 1 0.033578 -0.007294 0.002057 0.000000 0.014079 0.000000
# 2 -0.007294 0.015606 -0.006945 0.000000 -0.004467 0.000000
# 3 0.002057 -0.006945 0.015249 0.000000 0.004029 0.000000
# 4 0.000000 0.000000 0.000000 0.027072 0.000000 0.008027
# 5 0.014079 -0.004467 0.004029 0.000000 0.040531 0.000000
# 6 0.000000 0.000000 0.000000 0.008027 0.000000 0.062500
#
#
# Mechanical properties :
#
#
# Convention : Reuss Voigt Hill
#
# Bulk Modulus (GPa) = 24.95740 36.98325 30.97033
# Shear Modulus (GPa) = 21.52802 26.90123 24.21462
#
# Velocity S-wave (km/s) = 3.54595 3.96384 3.76071
# Velocity P-wave (km/s) = 5.59837 6.52304 6.07831
#
# Compressibility (1/GPa) = 0.04006828
#
# Stress axis : x y z
#
# Youngs Moduli (GPa) = 29.78179 64.07885 65.57898
#
# Poissons Ratio (x) = 0.46742 -0.13491
# Poissons Ratio (y) = 0.21724 0.45542
# Poissons Ratio (z) = -0.06127 0.44501
#
# Static dielectric constant tensor:
#      x y z
#    x 1.585280 0.000000 -0.026260 
#    y 0.000000 1.571620 0.000000 
#    z -0.026260 0.000000 1.630260 
# 
# From -- ./inp_files/175232.got.cif
#   From: 2010.05.17/outbox.cif.g08.bks.cpg/sg12_88_cif.got.tgz:175232.got - 2010.06.03 13:09:07.
