data_PCOD9168361
_publ_section_title
;
Structure prediction by ZEFSAII (Michael W. Deem and Ramdas Pophale) SiO2 
 PCOD9168361
Probable space group: C 2/M
;
_chemical_formula_sum "Si O2"
_cell_formula_units_Z 48
_cell_length_a 16.680476
_cell_length_b 33.621230
_cell_length_c 8.327583
_cell_angle_alpha 90.000000
_cell_angle_beta 23.553186
_cell_angle_gamma 90.000000
_cell_volume 1866.236501
_symmetry_space_group_name_H-M "C 2/M"
_symmetry_group_IT_number 12
_symmetry_cell_setting 'monoclinic'
loop_
_space_group_symop_operation_xyz
x,y,z
-x,y,-z
-x,-y,-z
x,-y,z
1/2+x,1/2+y,z
1/2-x,1/2+y,-z
1/2-x,1/2-y,-z
1/2+x,1/2-y,z
loop_
_atom_site_type_symbol
_atom_site_label
_atom_site_fract_x
_atom_site_fract_y
_atom_site_fract_z
Si Si1 0.761082 0.669180 0.958732
Si Si2 0.795927 0.453255 0.708597
Si Si3 0.764005 0.582254 0.088753
Si Si4 0.254205 0.954195 0.436371
Si Si5 0.213063 0.290529 0.775765
Si Si6 0.257668 0.697041 0.345961
O O1 0.725086 0.626706 0.105174
O O2 0.681585 0.672374 0.923152
O O3 0.000000 0.674501 0.500000
O O4 0.697655 0.700164 0.213711
O O5 0.851891 0.500000 0.599057
O O6 0.695889 0.444708 0.063099
O O7 0.686792 0.444508 0.741319
O O8 0.996646 0.426681 0.340271
O O9 0.694366 0.572307 0.395378
O O10 0.200582 0.000000 0.496994
O O11 0.500000 0.953061 0.000000
O O12 0.317960 0.308266 0.422582
O O13 0.201678 0.243234 0.771223
O O14 0.985552 0.306598 0.197071
#
# Coordination Sequence:
#
# PCOD9168361 Si02
#       6
#     8   8   8   8   8   8
#     4  10  18  27  37  59  82 105 135 175 220 254
#     4   9  15  23  33  46  68 103 143 176 199 238
#     4  10  15  22  32  48  70  98 131 173 213 236
#     4   8  14  22  31  44  63  95 137 175 201 231
#     4   9  18  32  48  64  83 110 139 179 214 260
#     4   9  18  32  48  64  84 108 142 176 217 257
#
# _framework density 25.720213000000001
#
# number of rings (size 3 to 8) (size 9 to 14) (size 15 to 20)
#    0.000    2.833    1.667    3.500    0.000    1.333 
#    9.000    0.000    0.000    0.000    0.000    0.000 
#    0.000    0.000    0.000    0.000    0.000   30.000 
#
# Total GULP energy -134171.697377 kJ/mol
# GULP energy per Si atom -5590.487391 kJ/mol
# Density = 2.566167 g / cm^3
# Si number density = 25.720213 Si / 1000 Ang^3
#
#
#
# Elastic Constant Matrix: (Units=GPa)
#
#
# Indices 1 2 3 4 5 6 
#
# 1 193.2749 60.9196 63.6289 0.0000 58.6740 0.0000
# 2 60.9196 74.4391 44.8478 0.0000 50.2873 0.0000
# 3 63.6289 44.8478 162.4358 0.0000 49.0035 0.0000
# 4 0.0000 0.0000 0.0000 13.8626 0.0000 32.3194
# 5 58.6740 50.2873 49.0035 0.0000 74.2556 0.0000
# 6 0.0000 0.0000 0.0000 32.3194 0.0000 75.1294
#
#
#
# Elastic Compliance Matrix: (Units=1/GPa)
#
#
# Indices 1 2 3 4 5 6 
#
# 1 0.007518 -0.003622 -0.001115 0.000000 -0.002752 0.000000
# 2 -0.003622 0.027165 -0.001742 0.000000 -0.014386 0.000000
# 3 -0.001115 -0.001742 0.008056 0.000001 -0.003256 0.000000
# 4 0.000000 0.000000 0.000001-24.603165 -0.000001 10.583853
# 5 -0.002752 -0.014386 -0.003256 -0.000001 0.027533 0.000001
# 6 0.000000 0.000000 0.000000 10.583853 0.000001 -4.539679
#
#
# Mechanical properties :
#
#
# Convention : Reuss Voigt Hill
#
# Bulk Modulus (GPa) = 33.57610 85.43805 59.50707
# Shear Modulus (GPa) = -0.17212 50.03310 24.93049
#
# Velocity S-wave (km/s) = -0.25897 4.41532 3.11673
# Velocity P-wave (km/s) = 3.60462 7.69960 6.01153
#
# Compressibility (1/GPa) = 0.02978309
#
# Stress axis : x y z
#
# Youngs Moduli (GPa) = 133.01380 36.81145 124.12928
#
# Poissons Ratio (x) = 0.13333 0.13837
# Poissons Ratio (y) = 0.48176 0.21619
# Poissons Ratio (z) = 0.14827 0.06411
#
# Static dielectric constant tensor:
#      x y z
#    x 2.073920 0.000000 -0.093550 
#    y 0.000000 1.939760 0.000000 
#    z -0.093550 0.000000 2.119260 
# 
# From -- ./inp_files/99973.got.cif
#   From: 2010.05.17/outbox.cif.g08.bks.cpg/sg12_50_cif.got.tgz:99973.got - 2010.06.03 13:09:07.
