data_PCOD9168707
_publ_section_title
;
Structure prediction by ZEFSAII (Michael W. Deem and Ramdas Pophale) SiO2 
 PCOD9168707
Probable space group: C 2/M
;
_chemical_formula_sum "Si O2"
_cell_formula_units_Z 48
_cell_length_a 16.937499
_cell_length_b 25.432222
_cell_length_c 8.446978
_cell_angle_alpha 90.000000
_cell_angle_beta 56.002486
_cell_angle_gamma 90.000000
_cell_volume 3016.628811
_symmetry_space_group_name_H-M "C 2/M"
_symmetry_group_IT_number 12
_symmetry_cell_setting 'monoclinic'
loop_
_space_group_symop_operation_xyz
x,y,z
-x,y,-z
-x,-y,-z
x,-y,z
1/2+x,1/2+y,z
1/2-x,1/2+y,-z
1/2-x,1/2-y,-z
1/2+x,1/2-y,z
loop_
_atom_site_type_symbol
_atom_site_label
_atom_site_fract_x
_atom_site_fract_y
_atom_site_fract_z
Si Si1 0.468680 0.059597 0.297945
Si Si2 0.152909 0.559264 0.893965
Si Si3 0.058803 0.272667 0.076227
Si Si4 0.608383 0.833769 0.546057
Si Si5 0.726470 0.163739 0.720763
Si Si6 0.391318 0.735625 0.664353
O O1 0.409289 0.061365 0.198889
O O2 0.424870 0.106736 0.449361
O O3 0.459767 0.000000 0.369844
O O4 0.577422 0.068964 0.120174
O O5 0.189748 0.500000 0.869217
O O6 0.229626 0.604656 0.784087
O O7 0.112105 0.236168 0.142166
O O8 0.980419 0.306580 0.260872
O O9 0.136067 0.310297 0.910561
O O10 0.000000 0.245797 0.000000
O O11 0.696860 0.834894 0.569063
O O12 0.626879 0.795032 0.379497
O O13 0.818087 0.197528 0.660633
O O14 0.500000 0.721883 0.500000
#
# Coordination Sequence:
#
# PCOD9168707 Si02
#       6
#     8   8   8   8   8   8
#     4   8  12  21  39  63  88 113 136 163 203 252
#     4   8  13  21  39  65  86 106 140 175 201 241
#     4   9  17  29  44  59  79 108 143 179 208 248
#     4   9  16  27  42  64  89 111 133 172 213 257
#     4  10  16  27  45  62  83 113 144 169 210 253
#     4  10  20  29  39  59  88 115 142 177 210 246
#
# _framework density 15.911802
#
# number of rings (size 3 to 8) (size 9 to 14) (size 15 to 20)
#    0.000    3.000    1.667    2.000    0.000    0.000 
#    0.000    0.000    0.000    6.000    0.000    0.000 
#    0.000    0.667    0.000    0.000    0.000   24.333 
#
# Total GULP energy -133623.929452 kJ/mol
# GULP energy per Si atom -5567.663727 kJ/mol
# Density = 1.587559 g / cm^3
# Si number density = 15.911802 Si / 1000 Ang^3
#
#
#
# Elastic Constant Matrix: (Units=GPa)
#
#
# Indices 1 2 3 4 5 6 
#
# 1 84.3301 51.9850 16.7636 0.0000 10.8193 0.0000
# 2 51.9850 102.8130 17.6752 0.0000 -1.9363 0.0000
# 3 16.7636 17.6752 19.2143 0.0000 9.4058 0.0000
# 4 0.0000 0.0000 0.0000 13.6609 0.0000 -6.1076
# 5 10.8193 -1.9363 9.4058 0.0000 15.5631 0.0000
# 6 0.0000 0.0000 0.0000 -6.1076 0.0000 2.2901
#
#
#
# Elastic Compliance Matrix: (Units=1/GPa)
#
#
# Indices 1 2 3 4 5 6 
#
# 1 0.020382 -0.010439 -0.000863 0.000000 -0.014947 0.000000
# 2 -0.010439 0.018449 -0.017808 0.000000 0.020315 0.000000
# 3 -0.000863 -0.017808 0.099368 0.000000 -0.061671 0.000000
# 4 0.000000 0.000000 0.000000 -0.380591 0.000000 -1.015007
# 5 -0.014947 0.020315 -0.061671 0.000000 0.114445 0.000000
# 6 0.000000 0.000000 0.000000 -1.015007 0.000000 -2.270288
#
#
# Mechanical properties :
#
#
# Convention : Reuss Voigt Hill
#
# Bulk Modulus (GPa) = 12.50325 42.13387 27.31856
# Shear Modulus (GPa) = -2.16136 14.29840 6.06852
#
# Velocity S-wave (km/s) = -1.16674 3.00092 1.95503
# Velocity P-wave (km/s) = 2.46168 6.20842 4.72252
#
# Compressibility (1/GPa) = 0.07997922
#
# Stress axis : x y z
#
# Youngs Moduli (GPa) = 49.06175 54.20424 10.06355
#
# Poissons Ratio (x) = 0.56584 0.00869
# Poissons Ratio (y) = 0.51216 0.17921
# Poissons Ratio (z) = 0.04235 0.96527
#
# Static dielectric constant tensor:
#      x y z
#    x 1.546390 0.000000 0.039230 
#    y 0.000000 1.556690 0.000000 
#    z 0.039230 0.000000 1.553170 
# 
# From -- ./inp_files/64878.got.cif
#   From: 2010.05.17/outbox.cif.g08.bks.cpg/sg12_33_cif.got.tgz:64878.got - 2010.06.03 13:09:07.
