data_PCOD9168762
_publ_section_title
;
Structure prediction by ZEFSAII (Michael W. Deem and Ramdas Pophale) SiO2 
 PCOD9168762
Probable space group: C 2/M
;
_chemical_formula_sum "Si O2"
_cell_formula_units_Z 52
_cell_length_a 24.894970
_cell_length_b 15.142109
_cell_length_c 24.008879
_cell_angle_alpha 90.000000
_cell_angle_beta 21.015896
_cell_angle_gamma 90.000000
_cell_volume 3245.732888
_symmetry_space_group_name_H-M "C 2/M"
_symmetry_group_IT_number 12
_symmetry_cell_setting 'monoclinic'
loop_
_space_group_symop_operation_xyz
x,y,z
-x,y,-z
-x,-y,-z
x,-y,z
1/2+x,1/2+y,z
1/2-x,1/2+y,-z
1/2-x,1/2-y,-z
1/2+x,1/2-y,z
loop_
_atom_site_type_symbol
_atom_site_label
_atom_site_fract_x
_atom_site_fract_y
_atom_site_fract_z
Si Si1 0.850483 0.500000 0.384638
Si Si2 0.760931 0.666595 0.847743
Si Si3 0.076032 0.894028 0.797099
Si Si4 0.091781 0.500000 0.241056
Si Si5 0.845623 0.837464 0.402524
Si Si6 0.322595 0.000000 0.963903
Si Si7 0.821240 0.897531 0.186172
Si Si8 0.318462 0.309706 0.882704
O O1 0.747830 0.415197 0.478453
O O2 0.927945 0.500000 0.371532
O O3 0.997234 0.500000 0.203913
O O4 0.869845 0.587965 0.762693
O O5 0.756999 0.662692 0.784452
O O6 0.800027 0.754513 0.843714
O O7 0.591482 0.641345 0.030119
O O8 0.131947 0.861901 0.683751
O O9 0.183339 0.869181 0.745075
O O10 0.066569 0.000000 0.806846
O O11 0.199048 0.500000 0.082479
O O12 0.750000 0.750000 0.500000
O O13 0.008188 0.824209 0.271310
O O14 0.256771 0.906726 0.047604
O O15 0.770837 0.000000 0.228788
O O16 0.000000 0.898248 0.000000
O O17 0.250000 0.250000 0.000000
#
# Coordination Sequence:
#
# PCOD9168762 Si02
#       8
#     4   8   8   4   8   4   8   8
#     4  10  23  35  47  69 107 141 171 210 264 306
#     4  11  17  29  51  80 104 136 174 220 252 302
#     4  10  18  30  52  77 108 143 174 210 258 312
#     4  10  16  28  48  68 102 137 169 207 251 299
#     4  12  22  34  49  75 110 143 171 210 262 322
#     4  10  21  35  48  75 102 133 181 220 252 311
#     4   8  15  27  47  78 106 135 172 211 258 303
#     4  12  21  32  53  76 102 140 181 215 263 307
#
# _framework density 16.021035000000001
#
# number of rings (size 3 to 8) (size 9 to 14) (size 15 to 20)
#    0.462    1.077    5.385    3.231    0.000    0.000 
#    0.000    0.000    0.000    4.615    0.000    5.923 
#    0.000    2.462    0.000    0.000    0.000    0.000 
#
# Total GULP energy -144931.203968 kJ/mol
# GULP energy per Si atom -5574.277076 kJ/mol
# Density = 1.598457 g / cm^3
# Si number density = 16.021035 Si / 1000 Ang^3
#
#
#
# Elastic Constant Matrix: (Units=GPa)
#
#
# Indices 1 2 3 4 5 6 
#
# 1 110.9494 50.0488 26.3341 0.0007 -11.2528 -0.0004
# 2 50.0488 130.1636 53.1035 -0.0003 -15.9688 -0.0002
# 3 26.3341 53.1035 78.8350 0.0013 -19.4096 -0.0005
# 4 0.0007 -0.0003 0.0013 29.4523 -0.0005 -3.1747
# 5 -11.2528 -15.9688 -19.4096 -0.0005 16.5751 0.0003
# 6 -0.0004 -0.0002 -0.0005 -3.1747 0.0003 27.1790
#
#
#
# Elastic Compliance Matrix: (Units=1/GPa)
#
#
# Indices 1 2 3 4 5 6 
#
# 1 0.011127 -0.003698 -0.000341 0.000000 0.003591 0.000000
# 2 -0.003698 0.011904 -0.006432 0.000001 0.001425 0.000000
# 3 -0.000341 -0.006432 0.021847 -0.000001 0.019155 0.000000
# 4 0.000000 0.000001 -0.000001 0.034386 0.000001 0.004017
# 5 0.003591 0.001425 0.019155 0.000001 0.086574 0.000000
# 6 0.000000 0.000000 0.000000 0.004017 0.000000 0.037262
#
#
# Mechanical properties :
#
#
# Convention : Reuss Voigt Hill
#
# Bulk Modulus (GPa) = 41.78111 64.32455 53.05283
# Shear Modulus (GPa) = 21.54972 27.33872 24.44422
#
# Velocity S-wave (km/s) = 3.67152 4.13537 3.91033
# Velocity P-wave (km/s) = 6.64146 7.93971 7.31942
#
# Compressibility (1/GPa) = 0.02393426
#
# Stress axis : x y z
#
# Youngs Moduli (GPa) = 89.87379 84.00753 45.77194
#
# Poissons Ratio (x) = 0.31070 0.01562
# Poissons Ratio (y) = 0.33240 0.29440
# Poissons Ratio (z) = 0.03068 0.54033
#
# Static dielectric constant tensor:
#      x y z
#    x 1.542820 0.000000 -0.001000 
#    y 0.000000 1.516170 0.000000 
#    z -0.001000 0.000000 1.549270 
# 
# From -- ./inp_files/369541.got.cif
#   From: 2010.05.17/outbox.cif.g08.bks.cpg/sg12_185_cif.got.tgz:369541.got - 2010.06.03 13:09:07.
