data_PCOD9168891
_publ_section_title
;
Structure prediction by ZEFSAII (Michael W. Deem and Ramdas Pophale) SiO2 
 PCOD9168891
Probable space group: C 2/M
;
_chemical_formula_sum "Si O2"
_cell_formula_units_Z 56
_cell_length_a 18.037308
_cell_length_b 12.855953
_cell_length_c 9.894851
_cell_angle_alpha 90.000000
_cell_angle_beta 84.002049
_cell_angle_gamma 90.000000
_cell_volume 2281.924321
_symmetry_space_group_name_H-M "C 2/M"
_symmetry_group_IT_number 12
_symmetry_cell_setting 'monoclinic'
loop_
_space_group_symop_operation_xyz
x,y,z
-x,y,-z
-x,-y,-z
x,-y,z
1/2+x,1/2+y,z
1/2-x,1/2+y,-z
1/2-x,1/2-y,-z
1/2+x,1/2-y,z
loop_
_atom_site_type_symbol
_atom_site_label
_atom_site_fract_x
_atom_site_fract_y
_atom_site_fract_z
Si Si1 0.816642 0.881889 0.164869
Si Si2 0.606836 0.837680 0.874655
Si Si3 0.229776 0.110833 0.129898
Si Si4 0.819366 0.293775 0.673514
Si Si5 0.451996 0.167108 0.818325
Si Si6 0.124175 0.884384 0.499379
Si Si7 0.508097 0.387632 0.270932
O O1 0.873123 0.785542 0.138816
O O2 0.755580 0.860883 0.294560
O O3 0.845246 0.000000 0.167246
O O4 0.771609 0.877737 0.030786
O O5 0.686257 0.888043 0.831932
O O6 0.537314 0.871681 0.795771
O O7 0.583672 0.864459 0.032791
O O8 0.190780 0.206719 0.207419
O O9 0.193790 0.000000 0.169590
O O10 0.894977 0.352396 0.706184
O O11 0.830664 0.221516 0.539809
O O12 0.467926 0.291155 0.822844
O O13 0.072460 0.875817 0.641447
O O14 0.065096 0.886606 0.386751
O O15 0.160490 0.000000 0.493399
O O16 0.512650 0.500000 0.202638
#
# Coordination Sequence:
#
# PCOD9168891 Si02
#       7
#     8   8   8   8   8   8   8
#     4  10  19  31  45  64  92 126 156 183 217 267
#     4  10  19  32  43  67  98 124 149 178 223 281
#     4  10  18  31  48  65  88 122 157 192 222 256
#     4  10  16  30  49  70  90 116 151 192 226 264
#     4  10  18  28  46  66  96 123 144 182 228 271
#     4   8  14  25  44  69  91 114 148 189 228 263
#     4   8  15  26  40  65  96 119 145 183 228 272
#
# _framework density 24.540692
#
# number of rings (size 3 to 8) (size 9 to 14) (size 15 to 20)
#    0.000    2.571    2.857    2.143    0.000    1.714 
#    0.000    3.571    0.000    3.429    0.000   12.000 
#    0.000    0.000    0.000    0.000    0.000    0.000 
#
# Total GULP energy -156352.308666 kJ/mol
# GULP energy per Si atom -5584.011024 kJ/mol
# Density = 2.448484 g / cm^3
# Si number density = 24.540692 Si / 1000 Ang^3
#
#
#
# Elastic Constant Matrix: (Units=GPa)
#
#
# Indices 1 2 3 4 5 6 
#
# 1 127.1402 -3.3144 12.3662 0.0000 -9.8164 0.0000
# 2 -3.3144 84.4339 6.4198 0.0000 -2.3205 0.0000
# 3 12.3662 6.4198 44.8513 0.0000 -3.4841 0.0000
# 4 0.0000 0.0000 0.0000 13.7475 0.0000 5.2866
# 5 -9.8164 -2.3205 -3.4841 0.0000 34.8772 0.0000
# 6 0.0000 0.0000 0.0000 5.2866 0.0000 3.6964
#
#
#
# Elastic Compliance Matrix: (Units=1/GPa)
#
#
# Indices 1 2 3 4 5 6 
#
# 1 0.008258 0.000549 -0.002189 0.000000 0.002142 0.000000
# 2 0.000549 0.012024 -0.001812 0.000000 0.000774 0.000000
# 3 -0.002189 -0.001812 0.023282 0.000000 0.001589 0.000000
# 4 0.000000 0.000000 0.000000 0.161637 0.000000 -0.231171
# 5 0.002142 0.000774 0.001589 0.000000 0.029485 0.000000
# 6 0.000000 0.000000 0.000000 -0.231171 0.000000 0.601153
#
#
# Mechanical properties :
#
#
# Convention : Reuss Voigt Hill
#
# Bulk Modulus (GPa) = 27.27744 31.92983 29.60364
# Shear Modulus (GPa) = 5.84820 26.52782 16.18801
#
# Velocity S-wave (km/s) = 1.54539 3.29138 2.57113
# Velocity P-wave (km/s) = 3.78466 5.24247 4.57204
#
# Compressibility (1/GPa) = 0.03666033
#
# Stress axis : x y z
#
# Youngs Moduli (GPa) = 121.09517 83.16546 42.95098
#
# Poissons Ratio (x) = -0.04570 0.09402
# Poissons Ratio (y) = -0.06654 0.07785
# Poissons Ratio (z) = 0.26509 0.15074
#
# Static dielectric constant tensor:
#      x y z
#    x 2.046950 0.000000 0.013840 
#    y 0.000000 1.998950 0.000000 
#    z 0.013840 0.000000 1.913640 
# 
# From -- ./inp_files/224264.got.cif
#   From: 2010.05.17/outbox.cif.g08.bks.cpg/sg12_113_cif.got.tgz:224264.got - 2010.06.03 13:09:07.
