data_PCOD9168952
_publ_section_title
;
Structure prediction by ZEFSAII (Michael W. Deem and Ramdas Pophale) SiO2 
 PCOD9168952
Probable space group: C 2/M
;
_chemical_formula_sum "Si O2"
_cell_formula_units_Z 48
_cell_length_a 18.827601
_cell_length_b 17.969197
_cell_length_c 9.186030
_cell_angle_alpha 90.000000
_cell_angle_beta 109.243630
_cell_angle_gamma 90.000000
_cell_volume 2934.143302
_symmetry_space_group_name_H-M "C 2/M"
_symmetry_group_IT_number 12
_symmetry_cell_setting 'monoclinic'
loop_
_space_group_symop_operation_xyz
x,y,z
-x,y,-z
-x,-y,-z
x,-y,z
1/2+x,1/2+y,z
1/2-x,1/2+y,-z
1/2-x,1/2-y,-z
1/2+x,1/2-y,z
loop_
_atom_site_type_symbol
_atom_site_label
_atom_site_fract_x
_atom_site_fract_y
_atom_site_fract_z
Si Si1 0.143754 0.266180 0.801821
Si Si2 0.751669 0.000000 0.845767
Si Si3 0.686503 0.000000 0.187161
Si Si4 0.738256 0.628277 0.949210
Si Si5 0.918716 0.500000 0.130927
Si Si6 0.832210 0.500000 0.482196
Si Si7 0.503854 0.842543 0.829840
Si Si8 0.084723 0.346013 0.492481
O O1 0.177170 0.184438 0.844261
O O2 0.062845 0.280244 0.818819
O O3 0.133995 0.292105 0.627771
O O4 0.198052 0.321900 0.928838
O O5 0.663480 0.000000 0.845721
O O6 0.742298 0.000000 0.667669
O O7 0.788610 0.927681 0.942123
O O8 0.727125 0.926402 0.149986
O O9 0.682965 0.000000 0.356749
O O10 0.604183 0.000000 0.055804
O O11 0.963346 0.424342 0.192760
O O12 0.879285 0.427054 0.473649
O O13 0.427689 0.829741 0.687090
O O14 0.500000 0.841611 0.000000
O O15 0.000000 0.345110 0.500000
#
# Coordination Sequence:
#
# PCOD9168952 Si02
#       8
#     8   4   4   8   4   4   8   8
#     4  10  18  33  49  67  93 131 166 195 230 282
#     4  10  16  31  52  70  91 129 168 191 224 289
#     4  10  20  31  49  70  94 125 162 200 238 281
#     4   9  18  34  51  63  92 131 167 194 235 284
#     4  10  16  31  43  68 100 134 163 172 218 296
#     4  12  18  29  44  73 102 124 161 196 223 273
#     4  11  19  29  46  72 102 131 157 190 234 281
#     4  10  20  29  45  70  99 135 160 186 223 285
#
# _framework density 16.359120000000001
#
# number of rings (size 3 to 8) (size 9 to 14) (size 15 to 20)
#    0.000    2.000    5.000    3.000    0.000    0.000 
#    0.000    2.500    0.000    0.000    0.000   23.333 
#    0.000    0.000    0.000    0.000    0.000    0.000 
#
# Total GULP energy -133750.299462 kJ/mol
# GULP energy per Si atom -5572.929144 kJ/mol
# Density = 1.632189 g / cm^3
# Si number density = 16.359120 Si / 1000 Ang^3
#
#
#
# Elastic Constant Matrix: (Units=GPa)
#
#
# Indices 1 2 3 4 5 6 
#
# 1 17.1892 22.8238 22.4279 0.0000 3.1979 0.0000
# 2 22.8238 98.1262 56.0803 0.0000 14.7715 0.0000
# 3 22.4279 56.0803 151.5785 0.0000 -2.9858 0.0000
# 4 0.0000 0.0000 0.0000 14.6429 0.0000 7.3130
# 5 3.1979 14.7715 -2.9858 0.0000 22.3612 0.0000
# 6 0.0000 0.0000 0.0000 7.3130 0.0000 14.7721
#
#
#
# Elastic Compliance Matrix: (Units=1/GPa)
#
#
# Indices 1 2 3 4 5 6 
#
# 1 0.089921 -0.016242 -0.007357 0.000000 -0.003113 0.000000
# 2 -0.016242 0.018068 -0.004483 0.000000 -0.010211 0.000000
# 3 -0.007357 -0.004483 0.009448 0.000000 0.005275 0.000000
# 4 0.000000 0.000000 0.000000 0.090723 0.000000 -0.044913
# 5 -0.003113 -0.010211 0.005275 0.000000 0.052615 0.000000
# 6 0.000000 0.000000 0.000000 -0.044913 0.000000 0.089929
#
#
# Mechanical properties :
#
#
# Convention : Reuss Voigt Hill
#
# Bulk Modulus (GPa) = 16.32030 52.17310 34.24670
# Shear Modulus (GPa) = 11.70161 21.39271 16.54716
#
# Velocity S-wave (km/s) = 2.67740 3.62013 3.18385
# Velocity P-wave (km/s) = 4.42221 7.03103 5.87330
#
# Compressibility (1/GPa) = 0.06127338
#
# Stress axis : x y z
#
# Youngs Moduli (GPa) = 11.12092 55.34720 105.84080
#
# Poissons Ratio (x) = 0.89895 0.77868
# Poissons Ratio (y) = 0.18063 0.47444
# Poissons Ratio (z) = 0.08182 0.24810
#
# Static dielectric constant tensor:
#      x y z
#    x 1.563330 0.000000 -0.025820 
#    y 0.000000 1.546720 0.000000 
#    z -0.025820 0.000000 1.629490 
# 
# From -- ./inp_files/88710.got.cif
#   From: 2010.05.17/outbox.cif.g08.bks.cpg/sg12_45_cif.got.tgz:88710.got - 2010.06.03 13:09:07.
