data_PCOD9168071
_publ_section_title
;
Structure prediction by ZEFSAII (Michael W. Deem and Ramdas Pophale) SiO2 
 PCOD9168071
Probable space group: P 21/M
;
_chemical_formula_sum "Si O2"
_cell_formula_units_Z 32
_cell_length_a 9.000000
_cell_length_b 21.000000
_cell_length_c 15.000000
_cell_angle_alpha 90.000000
_cell_angle_beta 140.000000
_cell_angle_gamma 90.000000
_cell_volume 1822.302873
_symmetry_space_group_name_H-M "P 21/M"
_symmetry_group_IT_number 11
_symmetry_cell_setting 'monoclinic'
loop_
_space_group_symop_operation_xyz
x,y,z
-x,1/2+y,-z
-x,-y,-z
x,1/2-y,z
loop_
_atom_site_type_symbol
_atom_site_label
_atom_site_fract_x
_atom_site_fract_y
_atom_site_fract_z
Si Si1 0.945887 0.089735 0.787266
Si Si2 0.581551 0.554096 0.399902
Si Si3 0.836635 0.175484 0.569538
Si Si4 0.454359 0.412322 0.303261
Si Si5 0.187476 0.822463 0.784419
Si Si6 0.847335 0.678535 0.458425
Si Si7 0.073658 0.052542 0.269954
Si Si8 0.688921 0.672696 0.933556
O O1 0.681586 0.074569 0.697041
O O2 0.931559 0.137602 0.697546
O O3 0.031609 0.018136 0.797924
O O4 0.103703 0.130022 0.928995
O O5 0.568791 0.483921 0.346016
O O6 0.690582 0.615673 0.399871
O O7 0.744614 0.545797 0.563096
O O8 0.777846 0.250000 0.560781
O O9 0.621524 0.133345 0.437162
O O10 0.024696 0.175338 0.577137
O O11 0.226207 0.427537 0.255172
O O12 0.390701 0.369093 0.188812
O O13 0.142403 0.750000 0.801796
O O14 0.460972 0.827143 0.891781
O O15 0.046151 0.823368 0.625916
O O16 0.095024 0.886998 0.789463
O O17 0.736553 0.750000 0.415621
O O18 0.739288 0.750000 0.940766
#
# Coordination Sequence:
#
# PCOD9168071 Si02
#       8
#     4   4   4   4   4   4   4   4
#     4  11  22  39  58  83 119 152 186 236 291 334
#     4  10  20  37  59  88 119 146 185 243 293 334
#     4  11  20  34  57  85 110 146 195 237 278 332
#     4  11  20  37  60  84 114 149 190 237 278 337
#     4   9  19  36  56  82 117 152 185 235 289 335
#     4   9  19  34  56  86 116 145 189 241 286 335
#     4  10  20  37  60  88 118 142 193 244 281 340
#     4  11  24  40  56  82 118 154 193 232 280 347
#
# _framework density 17.560198
#
# number of rings (size 3 to 8) (size 9 to 14) (size 15 to 20)
#    0.000    1.750    3.750    1.500    0.000    6.000 
#    0.000    1.250    0.000    0.000    0.000    0.000 
#    0.000    0.000    0.000    0.000    0.000    0.000 
#
# Total GULP energy -178189.691585 kJ/mol
# GULP energy per Si atom -5568.427862 kJ/mol
# Density = 1.752023 g / cm^3
# Si number density = 17.560198 Si / 1000 Ang^3
#
#
#
# Elastic Constant Matrix: (Units=GPa)
#
#
# Indices 1 2 3 4 5 6 
#
# 1 31.1973 34.8707 -8.7777 0.0000 7.3171 0.0000
# 2 34.8707 197.1473 18.5433 0.0000 5.7462 0.0000
# 3 -8.7777 18.5433 30.4160 0.0000 2.7782 0.0000
# 4 0.0000 0.0000 0.0000 36.2537 0.0000 0.2281
# 5 7.3171 5.7462 2.7782 0.0000 18.0578 0.0000
# 6 0.0000 0.0000 0.0000 0.2281 0.0000 39.3346
#
#
#
# Elastic Compliance Matrix: (Units=1/GPa)
#
#
# Indices 1 2 3 4 5 6 
#
# 1 0.058828 -0.012208 0.026616 0.000000 -0.024048 0.000000
# 2 -0.012208 0.007941 -0.008708 0.000000 0.003759 0.000000
# 3 0.026616 -0.008708 0.047264 0.000000 -0.015286 0.000000
# 4 0.000000 0.000000 0.000000 0.027584 0.000000 -0.000160
# 5 -0.024048 0.003759 -0.015286 0.000000 0.066277 0.000000
# 6 0.000000 0.000000 0.000000 -0.000160 0.000000 0.025424
#
#
# Mechanical properties :
#
#
# Convention : Reuss Voigt Hill
#
# Bulk Modulus (GPa) = 7.97230 38.67034 23.32132
# Shear Modulus (GPa) = 18.95887 33.00418 25.98152
#
# Velocity S-wave (km/s) = 3.28937 4.34001 3.85069
# Velocity P-wave (km/s) = 4.35619 6.86903 5.75152
#
# Compressibility (1/GPa) = 0.12543436
#
# Stress axis : x y z
#
# Youngs Moduli (GPa) = 16.99860 125.92709 21.15794
#
# Poissons Ratio (x) = 1.53731 -0.56315
# Poissons Ratio (y) = 0.20752 0.18424
# Poissons Ratio (z) = -0.45244 1.09655
#
# Static dielectric constant tensor:
#      x y z
#    x 1.613790 0.000000 -0.006800 
#    y 0.000000 1.617920 0.000000 
#    z -0.006800 0.000000 1.606970 
# 
# From -- ./inp_files/32858.got.cif
#   From: 2010.05.17/outbox.ucp.g08.bks.cvg/sg11_17_cif.got.tgz:32858.got - 2010.06.11 11:38:39.
