data_PCOD9168257
_publ_section_title
;
Structure prediction by ZEFSAII (Michael W. Deem and Ramdas Pophale) SiO2 
 PCOD9168257
Probable space group: P 21/M
;
_chemical_formula_sum "Si O2"
_cell_formula_units_Z 28
_cell_length_a 9.000000
_cell_length_b 15.000000
_cell_length_c 15.000000
_cell_angle_alpha 90.000000
_cell_angle_beta 40.000000
_cell_angle_gamma 90.000000
_cell_volume 1301.644910
_symmetry_space_group_name_H-M "P 21/M"
_symmetry_group_IT_number 11
_symmetry_cell_setting 'monoclinic'
loop_
_space_group_symop_operation_xyz
x,y,z
-x,1/2+y,-z
-x,-y,-z
x,1/2-y,z
loop_
_atom_site_type_symbol
_atom_site_label
_atom_site_fract_x
_atom_site_fract_y
_atom_site_fract_z
Si Si1 0.901690 0.892102 0.705061
Si Si2 0.075903 0.597034 0.244290
Si Si3 0.885223 0.647248 0.520659
Si Si4 0.626956 0.856833 0.331958
Si Si5 0.630919 0.147922 0.056520
Si Si6 0.280940 0.847717 0.652637
Si Si7 0.413476 0.534691 0.751037
O O1 0.010995 0.876880 0.556204
O O2 0.644775 0.855850 0.816448
O O3 0.034389 0.842449 0.721174
O O4 0.904744 0.994530 0.734543
O O5 0.029161 0.641905 0.362539
O O6 0.862856 0.621586 0.276910
O O7 0.284157 0.623187 0.082150
O O8 0.805378 0.750000 0.565365
O O9 0.671815 0.576815 0.617819
O O10 0.616777 0.750000 0.314106
O O11 0.440026 0.875486 0.495834
O O12 0.596753 0.928747 0.265564
O O13 0.708800 0.250000 0.042207
O O14 0.684448 0.074346 0.110085
O O15 0.360765 0.750000 0.647130
O O16 0.279586 0.917922 0.731871
#
# Coordination Sequence:
#
# PCOD9168257 Si02
#       7
#     4   4   4   4   4   4   4
#     4  11  23  41  64  96 130 170 220 263 320 377
#     4  12  23  42  65  94 130 176 214 265 319 385
#     4  11  22  40  69 101 131 168 217 265 318 386
#     4  11  23  39  64  98 132 167 215 271 324 376
#     4  11  25  44  67  95 131 173 217 263 320 392
#     4  11  20  37  66  99 134 165 210 270 324 377
#     4  11  21  40  67  97 126 171 218 262 317 383
#
# _framework density 21.511243
#
# number of rings (size 3 to 8) (size 9 to 14) (size 15 to 20)
#    0.000    0.857    2.857    6.857    0.000    1.714 
#    0.000    0.000    0.000   12.000    0.000    0.000 
#    0.000    0.000    0.000    0.000    0.000    0.000 
#
# Total GULP energy -156293.703443 kJ/mol
# GULP energy per Si atom -5581.917980 kJ/mol
# Density = 2.146228 g / cm^3
# Si number density = 21.511243 Si / 1000 Ang^3
#
#
#
# Elastic Constant Matrix: (Units=GPa)
#
#
# Indices 1 2 3 4 5 6 
#
# 1 85.8557 27.7874 21.3342 0.0000 16.4365 0.0000
# 2 27.7874 161.9141 30.1532 0.0000 26.3836 0.0000
# 3 21.3342 30.1532 103.2219 0.0000 35.4275 0.0000
# 4 0.0000 0.0000 0.0000 33.4337 0.0000 35.2939
# 5 16.4365 26.3836 35.4275 0.0000 32.2799 0.0000
# 6 0.0000 0.0000 0.0000 35.2939 0.0000 95.7491
#
#
#
# Elastic Compliance Matrix: (Units=1/GPa)
#
#
# Indices 1 2 3 4 5 6 
#
# 1 0.013182 -0.001343 -0.000650 0.000000 -0.004901 0.000000
# 2 -0.001343 0.007263 -0.000066 0.000000 -0.005180 0.000000
# 3 -0.000650 -0.000066 0.015577 0.000000 -0.016711 0.000000
# 4 0.000000 0.000000 0.000000 0.048962 0.000000 -0.018048
# 5 -0.004901 -0.005180 -0.016711 0.000000 0.056048 0.000000
# 6 0.000000 0.000000 0.000000 -0.018048 0.000000 0.017097
#
#
# Mechanical properties :
#
#
# Convention : Reuss Voigt Hill
#
# Bulk Modulus (GPa) = 31.34428 56.61569 43.97999
# Shear Modulus (GPa) = 28.92162 50.40700 39.66431
#
# Velocity S-wave (km/s) = 3.67070 4.84600 4.29871
# Velocity P-wave (km/s) = 5.70685 7.59526 6.71774
#
# Compressibility (1/GPa) = 0.03190375
#
# Stress axis : x y z
#
# Youngs Moduli (GPa) = 75.86209 137.68572 64.19728
#
# Poissons Ratio (x) = 0.18485 0.04173
# Poissons Ratio (y) = 0.10185 0.00426
# Poissons Ratio (z) = 0.04932 0.00914
#
# Static dielectric constant tensor:
#      x y z
#    x 1.818850 0.000000 -0.063570 
#    y 0.000000 1.822050 0.000000 
#    z -0.063570 0.000000 1.836630 
# 
# From -- ./inp_files/47751.got.cif
#   From: 2010.05.17/outbox.ucp.g08.bks.cvg/sg11_24_cif.got.tgz:47751.got - 2010.06.11 11:38:39.
