data_PCOD9168780
_publ_section_title
;
Structure prediction by ZEFSAII (Michael W. Deem and Ramdas Pophale) SiO2 
 PCOD9168780
Probable space group: C 2/M
;
_chemical_formula_sum "Si O2"
_cell_formula_units_Z 42
_cell_length_a 12.742474
_cell_length_b 25.581239
_cell_length_c 10.258807
_cell_angle_alpha 90.000000
_cell_angle_beta 145.616693
_cell_angle_gamma 90.000000
_cell_volume 1888.471449
_symmetry_space_group_name_H-M "C 2/M"
_symmetry_group_IT_number 12
_symmetry_cell_setting 'monoclinic'
loop_
_space_group_symop_operation_xyz
x,y,z
-x,y,-z
-x,-y,-z
x,-y,z
1/2+x,1/2+y,z
1/2-x,1/2+y,-z
1/2-x,1/2-y,-z
1/2+x,1/2-y,z
loop_
_atom_site_type_symbol
_atom_site_label
_atom_site_fract_x
_atom_site_fract_y
_atom_site_fract_z
Si Si1 0.119214 0.083549 0.844179
Si Si2 0.710102 0.500000 0.123548
Si Si3 0.549158 0.695862 0.702706
Si Si4 0.000000 0.000000 0.500000
Si Si5 0.510855 0.216817 0.861480
Si Si6 0.462144 0.900052 0.809773
Si Si7 0.627631 0.000000 0.429133
O O1 0.013602 0.138034 0.721904
O O2 0.066926 0.045366 0.672818
O O3 0.337771 0.096682 0.053417
O O4 0.106151 0.051095 0.963558
O O5 0.752619 0.500000 0.318461
O O6 0.913195 0.500000 0.259514
O O7 0.500000 0.698858 0.500000
O O8 0.459888 0.740644 0.700889
O O9 0.771384 0.704502 0.936319
O O10 0.404924 0.160900 0.743697
O O11 0.500000 0.236007 0.000000
O O12 0.343816 0.947562 0.627442
O O13 0.500000 0.912035 0.000000
#
# Coordination Sequence:
#
# PCOD9168780 Si02
#       7
#     8   4   8   2   8   8   4
#     4   9  17  30  51  73  98 130 170 212 248 308
#     4   8  16  28  44  71 102 126 164 201 264 302
#     4  10  19  35  57  81 102 142 183 215 259 322
#     4  10  16  28  50  74  92 132 168 216 244 298
#     4   9  20  37  53  78 113 136 171 227 267 307
#     4   9  17  31  50  74 102 128 164 212 262 303
#     4   9  15  27  46  75  98 131 158 207 254 320
#
# _framework density 22.240209
#
# number of rings (size 3 to 8) (size 9 to 14) (size 15 to 20)
#    0.000    2.857    0.952    0.857    0.000    0.762 
#   13.714    0.000    0.000    0.000    0.000    6.667 
#    0.000    0.000    0.000    0.000    0.000    0.000 
#
# Total GULP energy -117056.278833 kJ/mol
# GULP energy per Si atom -5574.108516 kJ/mol
# Density = 2.218959 g / cm^3
# Si number density = 22.240209 Si / 1000 Ang^3
#
#
#
# Elastic Constant Matrix: (Units=GPa)
#
#
# Indices 1 2 3 4 5 6 
#
# 1 59.4173 31.2783 12.2575 0.0000 -6.2670 0.0000
# 2 31.2783 203.3492 116.1890 0.0000 -54.0029 0.0000
# 3 12.2575 116.1890 135.1402 0.0000 -42.3698 0.0000
# 4 0.0000 0.0000 0.0000 -10.1637 0.0000 11.7114
# 5 -6.2670 -54.0029 -42.3698 0.0000 48.7792 0.0000
# 6 0.0000 0.0000 0.0000 11.7114 0.0000 -3.3683
#
#
#
# Elastic Compliance Matrix: (Units=1/GPa)
#
#
# Indices 1 2 3 4 5 6 
#
# 1 0.018481 -0.003811 0.001404 0.000000 -0.000625 0.000000
# 2 -0.003811 0.011340 -0.007725 0.000000 0.005354 0.000000
# 3 0.001404 -0.007725 0.015514 0.000000 0.005104 0.000000
# 4 0.000000 0.000000 0.000000 0.032727 0.000000 0.113789
# 5 -0.000625 0.005354 0.005104 0.000000 0.030781 0.000000
# 6 0.000000 0.000000 0.000000 0.113789 0.000000 0.098752
#
#
# Mechanical properties :
#
#
# Convention : Reuss Voigt Hill
#
# Bulk Modulus (GPa) = 39.88628 79.70625 59.79626
# Shear Modulus (GPa) = 21.16710 22.92822 22.04766
#
# Velocity S-wave (km/s) = 3.08839 3.21430 3.15197
# Velocity P-wave (km/s) = 5.53993 7.04927 6.33968
#
# Compressibility (1/GPa) = 0.02507128
#
# Stress axis : x y z
#
# Youngs Moduli (GPa) = 54.11058 88.18529 64.45655
#
# Poissons Ratio (x) = 0.33608 -0.09052
# Poissons Ratio (y) = 0.20622 0.49794
# Poissons Ratio (z) = -0.07599 0.68124
#
# Static dielectric constant tensor:
#      x y z
#    x 1.793700 0.000000 0.085780 
#    y 0.000000 1.832070 0.000000 
#    z 0.085780 0.000000 1.771820 
# 
# From -- ./inp_files/67215.got.cif
#   From: 2010.05.17/outbox.cif.g08.bks.cpg/sg12_34_cif.got.tgz:67215.got - 2010.06.03 13:09:07.
