data_PCOD9168016
_publ_section_title
;
Structure prediction by ZEFSAII (Michael W. Deem and Ramdas Pophale) SiO2 
 PCOD9168016
Probable space group: P 21/M
;
_chemical_formula_sum "Si O2"
_cell_formula_units_Z 24
_cell_length_a 15.000000
_cell_length_b 9.000000
_cell_length_c 15.000000
_cell_angle_alpha 90.000000
_cell_angle_beta 140.000000
_cell_angle_gamma 90.000000
_cell_volume 1301.644910
_symmetry_space_group_name_H-M "P 21/M"
_symmetry_group_IT_number 11
_symmetry_cell_setting 'monoclinic'
loop_
_space_group_symop_operation_xyz
x,y,z
-x,1/2+y,-z
-x,-y,-z
x,1/2-y,z
loop_
_atom_site_type_symbol
_atom_site_label
_atom_site_fract_x
_atom_site_fract_y
_atom_site_fract_z
Si Si1 0.863302 0.426957 0.564058
Si Si2 0.651507 0.072832 0.923164
Si Si3 0.404763 0.426155 0.302119
Si Si4 0.337606 0.428246 0.734121
Si Si5 0.305143 0.073979 0.421168
Si Si6 0.818664 0.571990 0.205394
O O1 0.848771 0.250000 0.557092
O O2 0.754997 0.493586 0.411172
O O3 0.822767 0.497255 0.627881
O O4 0.019990 0.462916 0.655534
O O5 0.658972 0.250000 0.920247
O O6 0.498528 0.033726 0.844350
O O7 0.663467 0.996103 0.836752
O O8 0.763956 0.011889 0.077336
O O9 0.426302 0.250000 0.308013
O O10 0.553423 0.504286 0.430867
O O11 0.316049 0.450486 0.323759
O O12 0.324106 0.250000 0.713765
O O13 0.276071 0.469731 0.782950
O O14 0.304653 0.250000 0.438244
O O15 0.806955 0.750000 0.183684
#
# Coordination Sequence:
#
# PCOD9168016 Si02
#       6
#     4   4   4   4   4   4
#     4  11  22  36  58  86 114 151 192 232 282 335
#     4  11  22  36  58  87 115 149 190 232 284 338
#     4  10  20  35  58  85 113 146 184 231 282 333
#     4  10  21  38  59  83 113 149 192 239 281 331
#     4  10  20  35  57  85 114 145 185 232 281 333
#     4  10  23  40  56  80 117 155 192 233 280 336
#
# _framework density 18.438207999999999
#
# number of rings (size 3 to 8) (size 9 to 14) (size 15 to 20)
#    0.000    1.667    1.667    3.000    0.000    4.667 
#    0.000    0.833    0.000    0.000    0.000    0.000 
#    0.000    0.000    0.000    0.000    0.000    0.000 
#
# Total GULP energy -134081.499304 kJ/mol
# GULP energy per Si atom -5586.729138 kJ/mol
# Density = 1.839624 g / cm^3
# Si number density = 18.438208 Si / 1000 Ang^3
#
#
#
# Elastic Constant Matrix: (Units=GPa)
#
#
# Indices 1 2 3 4 5 6 
#
# 1 14.7082 1.5284 2.9981 0.0000 -28.0992 0.0000
# 2 1.5284 6.4906 7.4030 0.0000 -7.9452 0.0000
# 3 2.9981 7.4030 35.3659 0.0000 -4.1487 0.0000
# 4 0.0000 0.0000 0.0000 24.8740 0.0000 -3.5535
# 5 -28.0992 -7.9452 -4.1487 0.0000 17.7858 0.0000
# 6 0.0000 0.0000 0.0000 -3.5535 0.0000 27.1255
#
#
#
# Elastic Compliance Matrix: (Units=1/GPa)
#
#
# Indices 1 2 3 4 5 6 
#
# 1 -0.011986 -0.061222 0.008638 0.000000 -0.044271 0.000000
# 2 -0.061222 0.176060 -0.034734 0.000000 -0.026176 0.000000
# 3 0.008638 -0.034734 0.035568 0.000000 0.006427 0.000000
# 4 0.000000 0.000000 0.000000 0.040969 0.000000 0.005367
# 5 -0.044271 -0.026176 0.006427 0.000000 -0.023911 0.000000
# 6 0.000000 0.000000 0.000000 0.005367 0.000000 0.037569
#
#
# Mechanical properties :
#
#
# Convention : Reuss Voigt Hill
#
# Bulk Modulus (GPa) = 39.99084 8.93598 24.46341
# Shear Modulus (GPa) = 11.43534 16.93275 14.18404
#
# Velocity S-wave (km/s) = 2.49308 3.03372 2.77659
# Velocity P-wave (km/s) = 5.47937 4.13863 4.85550
#
# Compressibility (1/GPa) = 0.02500573
#
# Stress axis : x y z
#
# Youngs Moduli (GPa) = -83.42801 5.67987 28.11493
#
# Poissons Ratio (x) = 0.34773 -0.24286
# Poissons Ratio (y) = -5.10763 0.97656
# Poissons Ratio (z) = 0.72067 0.19729
#
# Static dielectric constant tensor:
#      x y z
#    x 1.646580 0.000000 -0.013730 
#    y 0.000000 1.608510 0.000000 
#    z -0.013730 0.000000 1.600270 
# 
# From -- ./inp_files/25725.got.cif
#   From: 2010.05.17/outbox.ucp.g08.bks.cvg/sg11_13_cif.got.tgz:25725.got - 2010.06.11 11:38:39.
