data_PCOD9168907
_publ_section_title
;
Structure prediction by ZEFSAII (Michael W. Deem and Ramdas Pophale) SiO2 
 PCOD9168907
Probable space group: C 2/M
;
_chemical_formula_sum "Si O2"
_cell_formula_units_Z 44
_cell_length_a 25.978133
_cell_length_b 9.253149
_cell_length_c 14.705835
_cell_angle_alpha 90.000000
_cell_angle_beta 43.285830
_cell_angle_gamma 90.000000
_cell_volume 2423.719058
_symmetry_space_group_name_H-M "C 2/M"
_symmetry_group_IT_number 12
_symmetry_cell_setting 'monoclinic'
loop_
_space_group_symop_operation_xyz
x,y,z
-x,y,-z
-x,-y,-z
x,-y,z
1/2+x,1/2+y,z
1/2-x,1/2+y,-z
1/2-x,1/2-y,-z
1/2+x,1/2-y,z
loop_
_atom_site_type_symbol
_atom_site_label
_atom_site_fract_x
_atom_site_fract_y
_atom_site_fract_z
Si Si1 0.846088 0.162579 0.785306
Si Si2 0.100754 0.326041 0.110568
Si Si3 0.500000 0.745263 0.500000
Si Si4 0.224412 0.324522 0.440004
Si Si5 0.784447 0.673607 0.188859
Si Si6 0.055329 0.334304 0.622126
O O1 0.852466 0.263220 0.864912
O O2 0.927761 0.162860 0.632174
O O3 0.784619 0.208229 0.790495
O O4 0.826921 0.000000 0.839022
O O5 0.100005 0.500000 0.120683
O O6 0.015597 0.269446 0.232581
O O7 0.140788 0.292144 0.964500
O O8 0.531810 0.829810 0.546411
O O9 0.227946 0.500000 0.439487
O O10 0.250000 0.250000 0.500000
O O11 0.273917 0.263513 0.293570
O O12 0.138330 0.274850 0.530253
O O13 0.782185 0.500000 0.209619
O O14 0.060460 0.500000 0.645210
#
# Coordination Sequence:
#
# PCOD9168907 Si02
#       6
#     8   8   4   8   8   8
#     4  10  19  29  47  79 117 150 179 214 267 326
#     4   9  19  34  54  79 111 146 181 221 267 322
#     4  10  16  30  50  80 115 144 179 216 273 326
#     4  11  23  40  60  82 106 141 186 231 273 320
#     4  10  20  36  55  79 110 145 183 224 270 321
#     4   9  18  33  55  82 109 140 182 225 269 319
#
# _framework density 18.153918999999998
#
# number of rings (size 3 to 8) (size 9 to 14) (size 15 to 20)
#    0.000    2.182    1.818    1.636    0.000    2.182 
#    0.000    1.818    0.000    5.455    0.000    0.000 
#    0.000    0.000    0.000    0.000    0.000    0.000 
#
# Total GULP energy -122599.542016 kJ/mol
# GULP energy per Si atom -5572.706455 kJ/mol
# Density = 1.811260 g / cm^3
# Si number density = 18.153919 Si / 1000 Ang^3
#
#
#
# Elastic Constant Matrix: (Units=GPa)
#
#
# Indices 1 2 3 4 5 6 
#
# 1 79.1237 20.7163 60.0482 0.0000 6.0399 0.0000
# 2 20.7163 43.3383 48.2449 0.0000 9.8800 0.0000
# 3 60.0482 48.2449 155.7227 0.0000 9.5990 0.0000
# 4 0.0000 0.0000 0.0000 26.8787 0.0000 5.8180
# 5 6.0399 9.8800 9.5990 0.0000 19.7873 0.0000
# 6 0.0000 0.0000 0.0000 5.8180 0.0000 20.8149
#
#
#
# Elastic Compliance Matrix: (Units=1/GPa)
#
#
# Indices 1 2 3 4 5 6 
#
# 1 0.017979 -0.000882 -0.006544 0.000000 -0.001873 0.000000
# 2 -0.000882 0.038643 -0.010782 0.000000 -0.013795 0.000000
# 3 -0.006544 -0.010782 0.012195 0.000000 0.001465 0.000000
# 4 0.000000 0.000000 0.000000 0.039600 0.000000 -0.011069
# 5 -0.001873 -0.013795 0.001465 0.000000 0.057287 0.000000
# 6 0.000000 0.000000 0.000000 -0.011069 0.000000 0.051136
#
#
# Mechanical properties :
#
#
# Convention : Reuss Voigt Hill
#
# Bulk Modulus (GPa) = 30.86285 59.57814 45.22050
# Shear Modulus (GPa) = 18.93534 23.44120 21.18827
#
# Velocity S-wave (km/s) = 3.23312 3.59729 3.42006
# Velocity P-wave (km/s) = 5.56552 7.08121 6.36862
#
# Compressibility (1/GPa) = 0.03240141
#
# Stress axis : x y z
#
# Youngs Moduli (GPa) = 55.62123 25.87772 82.00024
#
# Poissons Ratio (x) = 0.02283 0.53661
# Poissons Ratio (y) = 0.04907 0.88409
# Poissons Ratio (z) = 0.36399 0.27900
#
# Static dielectric constant tensor:
#      x y z
#    x 1.620640 0.000000 -0.042620 
#    y 0.000000 1.629010 0.000000 
#    z -0.042620 0.000000 1.646900 
# 
# From -- ./inp_files/172772.got.cif
#   From: 2010.05.17/outbox.cif.g08.bks.cpg/sg12_87_cif.got.tgz:172772.got - 2010.06.03 13:09:07.
