data_PCOD9168756
_publ_section_title
;
Structure prediction by ZEFSAII (Michael W. Deem and Ramdas Pophale) SiO2 
 PCOD9168756
Probable space group: C 2/M
;
_chemical_formula_sum "Si O2"
_cell_formula_units_Z 64
_cell_length_a 21.699556
_cell_length_b 16.539242
_cell_length_c 19.500806
_cell_angle_alpha 90.000000
_cell_angle_beta 152.386954
_cell_angle_gamma 90.000000
_cell_volume 3243.894309
_symmetry_space_group_name_H-M "C 2/M"
_symmetry_group_IT_number 12
_symmetry_cell_setting 'monoclinic'
loop_
_space_group_symop_operation_xyz
x,y,z
-x,y,-z
-x,-y,-z
x,-y,z
1/2+x,1/2+y,z
1/2-x,1/2+y,-z
1/2-x,1/2-y,-z
1/2+x,1/2-y,z
loop_
_atom_site_type_symbol
_atom_site_label
_atom_site_fract_x
_atom_site_fract_y
_atom_site_fract_z
Si Si1 0.363080 0.186039 0.329252
Si Si2 0.867110 0.341551 0.178080
Si Si3 0.396107 0.282995 0.841462
Si Si4 0.963561 0.865662 0.391524
Si Si5 0.834369 0.636014 0.543806
Si Si6 0.269405 0.313845 0.419778
Si Si7 0.871560 0.853595 0.157870
Si Si8 0.560340 0.410690 0.225326
O O1 0.500000 0.155402 0.500000
O O2 0.333275 0.149116 0.225208
O O3 0.236755 0.180695 0.254339
O O4 0.393369 0.281335 0.344967
O O5 0.878273 0.244018 0.175478
O O6 0.011174 0.381860 0.311042
O O7 0.757822 0.371440 0.016058
O O8 0.346288 0.209704 0.746233
O O9 0.466208 0.347832 0.861204
O O10 0.500000 0.256398 0.000000
O O11 0.879743 0.893638 0.241722
O O12 0.000000 0.907719 0.500000
O O13 0.105642 0.848526 0.496669
O O14 0.789860 0.632919 0.578503
O O15 0.816528 0.728390 0.499139
O O16 0.720251 0.589077 0.390934
O O17 0.995093 0.879356 0.231620
O O18 0.510315 0.500000 0.161399
#
# Coordination Sequence:
#
# PCOD9168756 Si02
#       8
#     8   8   8   8   8   8   8   8
#     4  10  16  28  46  71 103 139 163 205 271 337
#     4  10  18  30  54  84 106 130 169 232 304 335
#     4  11  21  31  49  78 111 141 178 224 273 325
#     4  10  16  29  49  77 106 136 157 206 281 357
#     4  10  17  31  53  74 102 132 184 230 265 313
#     4  10  16  29  50  78 105 137 163 217 285 335
#     4  10  19  33  53  80 108 136 176 229 286 339
#     4  11  23  38  54  71 104 160 206 223 248 310
#
# _framework density 19.729372999999999
#
# number of rings (size 3 to 8) (size 9 to 14) (size 15 to 20)
#    0.000    1.750    6.250    3.000    0.000    2.250 
#    0.000    0.625    0.000    3.750    0.000    0.000 
#    0.000    1.500    0.000    0.000    0.000    0.000 
#
# Total GULP energy -178366.756825 kJ/mol
# GULP energy per Si atom -5573.961151 kJ/mol
# Density = 1.968447 g / cm^3
# Si number density = 19.729373 Si / 1000 Ang^3
#
#
#
# Elastic Constant Matrix: (Units=GPa)
#
#
# Indices 1 2 3 4 5 6 
#
# 1 87.7229 -2.8194 10.8201 -0.0003 -14.0004 -0.0003
# 2 -2.8194 12.3695 -5.5165 -0.0004 -4.7229 -0.0003
# 3 10.8201 -5.5165 126.5418 -0.0005 -25.7220 -0.0004
# 4 -0.0003 -0.0004 -0.0005 -6.9875 -0.0003 5.2628
# 5 -14.0004 -4.7229 -25.7220 -0.0003 37.9465 -0.0002
# 6 -0.0003 -0.0003 -0.0004 5.2628 -0.0002 -3.3468
#
#
#
# Elastic Compliance Matrix: (Units=1/GPa)
#
#
# Indices 1 2 3 4 5 6 
#
# 1 0.012384 0.004978 0.000247 0.000013 0.005356 0.000019
# 2 0.004978 0.092212 0.007307 0.000081 0.018267 0.000116
# 3 0.000247 0.007307 0.009746 0.000017 0.007607 0.000025
# 4 0.000013 0.000081 0.000017 0.776184 0.000038 1.220556
# 5 0.005356 0.018267 0.007607 0.000038 0.035759 0.000055
# 6 0.000019 0.000116 0.000025 1.220556 0.000055 1.620540
#
#
# Mechanical properties :
#
#
# Convention : Reuss Voigt Hill
#
# Bulk Modulus (GPa) = 7.17332 25.73363 16.45348
# Shear Modulus (GPa) = 1.94687 20.46578 11.20632
#
# Velocity S-wave (km/s) = 0.99445 3.22425 2.38586
# Velocity P-wave (km/s) = 2.22763 5.18967 3.99343
#
# Compressibility (1/GPa) = 0.13940551
#
# Stress axis : x y z
#
# Youngs Moduli (GPa) = 80.75029 10.84459 102.60352
#
# Poissons Ratio (x) = -0.05398 -0.02532
# Poissons Ratio (y) = -0.40195 -0.74976
# Poissons Ratio (z) = -0.01993 -0.07924
#
# Static dielectric constant tensor:
#      x y z
#    x 1.695160 0.000000 -0.024140 
#    y 0.000000 1.697680 0.000000 
#    z -0.024140 0.000000 1.736220 
# 
# From -- ./inp_files/285248.got.cif
#   From: 2010.05.17/outbox.cif.g08.bks.cpg/sg12_143_cif.got.tgz:285248.got - 2010.06.03 13:09:07.
