data_PCOD9168636
_publ_section_title
;
Structure prediction by ZEFSAII (Michael W. Deem and Ramdas Pophale) SiO2 
 PCOD9168636
Probable space group: C 2/M
;
_chemical_formula_sum "Si O2"
_cell_formula_units_Z 56
_cell_length_a 29.180409
_cell_length_b 14.962723
_cell_length_c 7.211098
_cell_angle_alpha 90.000000
_cell_angle_beta 101.635314
_cell_angle_gamma 90.000000
_cell_volume 3083.799830
_symmetry_space_group_name_H-M "C 2/M"
_symmetry_group_IT_number 12
_symmetry_cell_setting 'monoclinic'
loop_
_space_group_symop_operation_xyz
x,y,z
-x,y,-z
-x,-y,-z
x,-y,z
1/2+x,1/2+y,z
1/2-x,1/2+y,-z
1/2-x,1/2-y,-z
1/2+x,1/2-y,z
loop_
_atom_site_type_symbol
_atom_site_label
_atom_site_fract_x
_atom_site_fract_y
_atom_site_fract_z
Si Si1 0.754364 0.855914 0.528734
Si Si2 0.943204 0.104920 0.251217
Si Si3 0.180023 0.400576 0.772513
Si Si4 0.646528 0.708991 0.775568
Si Si5 0.455440 0.396318 0.711039
Si Si6 0.733009 0.598515 0.885086
Si Si7 0.644858 0.606622 0.381263
O O1 0.750000 0.750000 0.500000
O O2 0.710890 0.889955 0.611605
O O3 0.755938 0.896397 0.324580
O O4 0.804196 0.878960 0.666472
O O5 0.898642 0.164727 0.169583
O O6 0.948959 0.107252 0.481203
O O7 0.992539 0.139980 0.210257
O O8 0.935827 0.000000 0.198136
O O9 0.159058 0.500000 0.762546
O O10 0.146388 0.315587 0.763022
O O11 0.219161 0.392907 0.964611
O O12 0.695297 0.674416 0.900722
O O13 0.648208 0.664961 0.571454
O O14 0.459633 0.500000 0.766875
O O15 0.405104 0.365760 0.747673
O O16 0.712327 0.500000 0.907089
O O17 0.641078 0.500000 0.419119
#
# Coordination Sequence:
#
# PCOD9168636 Si02
#       7
#     8   8   8   8   8   8   8
#     4  11  19  31  49  67  94 125 156 187 229 267
#     4   8  12  20  37  62  89 114 145 183 225 273
#     4  11  22  33  45  65  94 126 159 191 224 266
#     4  10  16  26  42  62  88 118 153 185 225 266
#     4   7  11  19  34  60  89 113 142 181 221 272
#     4  10  20  33  48  65  91 123 155 192 229 269
#     4   9  15  25  42  64  91 120 151 184 224 274
#
# _framework density 18.159414999999999
#
# number of rings (size 3 to 8) (size 9 to 14) (size 15 to 20)
#    0.000    2.571    2.857    5.571    0.000    0.000 
#    0.000    0.000    0.000    0.000    0.000    9.000 
#    0.000    5.714    0.000    5.143    4.000    0.857 
#
# Total GULP energy -155998.105475 kJ/mol
# GULP energy per Si atom -5571.360910 kJ/mol
# Density = 1.811808 g / cm^3
# Si number density = 18.159415 Si / 1000 Ang^3
#
#
#
# Elastic Constant Matrix: (Units=GPa)
#
#
# Indices 1 2 3 4 5 6 
#
# 1 58.1941 38.1642 24.0731 0.0000 26.0206 0.0000
# 2 38.1642 130.0250 13.1772 0.0000 9.1524 0.0000
# 3 24.0731 13.1772 44.8487 0.0000 -16.3295 0.0000
# 4 0.0000 0.0000 0.0000 17.3236 0.0000 5.5895
# 5 26.0206 9.1524 -16.3295 0.0000 5.6509 0.0000
# 6 0.0000 0.0000 0.0000 5.5895 0.0000 18.2032
#
#
#
# Elastic Compliance Matrix: (Units=1/GPa)
#
#
# Indices 1 2 3 4 5 6 
#
# 1 0.001747 -0.003726 0.011009 0.000000 0.029805 0.000000
# 2 -0.003726 0.009220 -0.001944 0.000000 -0.003391 0.000000
# 3 0.011009 -0.001944 0.006756 0.000000 -0.028021 0.000000
# 4 0.000000 0.000000 0.000000 0.064072 0.000000 -0.019674
# 5 0.029805 -0.003391 -0.028021 0.000000 -0.035759 0.000000
# 6 0.000000 0.000000 0.000000 -0.019674 0.000000 0.060976
#
#
# Mechanical properties :
#
#
# Convention : Reuss Voigt Hill
#
# Bulk Modulus (GPa) = 35.20918 42.65521 38.93219
# Shear Modulus (GPa) = 47.25784 18.74578 33.00181
#
# Velocity S-wave (km/s) = 5.10690 3.21641 4.26765
# Velocity P-wave (km/s) = 7.36240 6.11016 6.76531
#
# Compressibility (1/GPa) = 0.02840168
#
# Stress axis : x y z
#
# Youngs Moduli (GPa) = 572.44446 108.45689 148.00902
#
# Poissons Ratio (x) = 0.40415 -1.62945
# Poissons Ratio (y) = 2.13314 0.28767
# Poissons Ratio (z) = -6.30210 0.21080
#
# Static dielectric constant tensor:
#      x y z
#    x 1.691340 0.000000 -0.014270 
#    y 0.000000 1.606680 0.000000 
#    z -0.014270 0.000000 1.721470 
# 
# From -- ./inp_files/110910.got.cif
#   From: 2010.05.17/outbox.cif.g08.bks.cpg/sg12_56_cif.got.tgz:110910.got - 2010.06.03 13:09:07.
