data_PCOD9168269
_publ_section_title
;
Structure prediction by ZEFSAII (Michael W. Deem and Ramdas Pophale) SiO2 
 PCOD9168269
Probable space group: P 21/M
;
_chemical_formula_sum "Si O2"
_cell_formula_units_Z 28
_cell_length_a 30.000000
_cell_length_b 9.000000
_cell_length_c 30.000000
_cell_angle_alpha 90.000000
_cell_angle_beta 10.000000
_cell_angle_gamma 90.000000
_cell_volume 1406.550239
_symmetry_space_group_name_H-M "P 21/M"
_symmetry_group_IT_number 11
_symmetry_cell_setting 'monoclinic'
loop_
_space_group_symop_operation_xyz
x,y,z
-x,1/2+y,-z
-x,-y,-z
x,1/2-y,z
loop_
_atom_site_type_symbol
_atom_site_label
_atom_site_fract_x
_atom_site_fract_y
_atom_site_fract_z
Si Si1 0.887096 0.429436 0.157002
Si Si2 0.244867 0.083169 0.238409
Si Si3 0.390450 0.572772 0.694635
Si Si4 0.639010 0.072690 0.171753
Si Si5 0.871823 0.931496 0.365999
Si Si6 0.306414 0.080315 0.071538
Si Si7 0.198051 0.426088 0.461443
O O1 0.861550 0.250000 0.179206
O O2 0.620505 0.501714 0.438031
O O3 0.000000 0.500000 0.000000
O O4 0.123940 0.482503 0.953831
O O5 0.238535 0.250000 0.262783
O O6 0.278146 0.091127 0.152524
O O7 0.000000 0.000000 0.500000
O O8 0.500000 0.000000 0.000000
O O9 0.363620 0.750000 0.709414
O O10 0.432264 0.561580 0.706082
O O11 0.649055 0.250000 0.153655
O O12 0.394806 0.005499 0.388612
O O13 0.897671 0.016031 0.893229
O O14 0.869986 0.750000 0.364493
O O15 0.858737 0.964871 0.430996
O O16 0.269735 0.250000 0.090305
O O17 0.075407 0.968370 0.289171
O O18 0.571380 0.015362 0.789941
O O19 0.255294 0.250000 0.402146
#
# Coordination Sequence:
#
# PCOD9168269 Si02
#       7
#     4   4   4   4   4   4   4
#     4  12  25  42  62  87 121 158 195 242 296 349
#     4  11  24  41  62  87 116 153 194 241 293 351
#     4  11  22  39  64  92 118 153 200 243 290 351
#     4   9  17  31  55  84 115 149 188 237 289 340
#     4   9  17  31  53  85 117 146 189 244 288 326
#     4  11  24  41  59  84 122 159 190 233 300 361
#     4  11  22  37  62  91 117 152 203 250 284 332
#
# _framework density 19.906860999999999
#
# number of rings (size 3 to 8) (size 9 to 14) (size 15 to 20)
#    0.000    1.429    0.000    6.000    0.000   10.286 
#    0.000    0.000    0.000   17.143    0.000    0.000 
#    0.000    0.000    0.000    0.000    0.000    0.000 
#
# Total GULP energy -155897.707350 kJ/mol
# GULP energy per Si atom -5567.775262 kJ/mol
# Density = 1.986155 g / cm^3
# Si number density = 19.906861 Si / 1000 Ang^3
#
#
#
# Elastic Constant Matrix: (Units=GPa)
#
#
# Indices 1 2 3 4 5 6 
#
# 1 59.8893 23.2127 39.5282 0.0000 9.4603 0.0000
# 2 23.2127 87.4109 10.5418 0.0000 10.1915 0.0000
# 3 39.5282 10.5418 132.4604 0.0000 30.5292 0.0000
# 4 0.0000 0.0000 0.0000 -3.3471 0.0000 -34.8219
# 5 9.4603 10.1915 30.5292 0.0000 39.3210 0.0000
# 6 0.0000 0.0000 0.0000 -34.8219 0.0000 -39.2495
#
#
#
# Elastic Compliance Matrix: (Units=1/GPa)
#
#
# Indices 1 2 3 4 5 6 
#
# 1 0.023054 -0.005439 -0.006691 0.000000 0.001058 0.000000
# 2 -0.005439 0.013089 0.001293 0.000000 -0.003088 0.000000
# 3 -0.006691 0.001293 0.011143 0.000000 -0.007377 0.000000
# 4 0.000000 0.000000 0.000000 0.036302 0.000000 -0.032207
# 5 0.001058 -0.003088 -0.007377 0.000000 0.031705 0.000000
# 6 0.000000 0.000000 0.000000 -0.032207 0.000000 0.003096
#
#
# Mechanical properties :
#
#
# Convention : Reuss Voigt Hill
#
# Bulk Modulus (GPa) = 39.04175 47.36955 43.20565
# Shear Modulus (GPa) = 33.64733 13.11008 23.37871
#
# Velocity S-wave (km/s) = 4.11571 2.56905 3.43068
# Velocity P-wave (km/s) = 6.49925 5.71378 6.11913
#
# Compressibility (1/GPa) = 0.02561361
#
# Stress axis : x y z
#
# Youngs Moduli (GPa) = 43.37563 76.40235 89.73898
#
# Poissons Ratio (x) = 0.41553 0.60042
# Poissons Ratio (y) = 0.23591 -0.11603
# Poissons Ratio (z) = 0.29021 -0.09879
#
# Static dielectric constant tensor:
#      x y z
#    x 1.520150 0.000000 -0.128160 
#    y 0.000000 1.707210 0.000000 
#    z -0.128160 0.000000 1.665980 
# 
# From -- ./inp_files/73863.got.cif
#   From: 2010.05.17/outbox.ucp.g08.bks.cvg/sg11_37_cif.got.tgz:73863.got - 2010.06.11 11:38:39.
