data_PCOD9168864
_publ_section_title
;
Structure prediction by ZEFSAII (Michael W. Deem and Ramdas Pophale) SiO2 
 PCOD9168864
Probable space group: C 2/M
;
_chemical_formula_sum "Si O2"
_cell_formula_units_Z 48
_cell_length_a 5.369954
_cell_length_b 27.635043
_cell_length_c 24.077525
_cell_angle_alpha 90.000000
_cell_angle_beta 109.544546
_cell_angle_gamma 90.000000
_cell_volume 3367.203680
_symmetry_space_group_name_H-M "C 2/M"
_symmetry_group_IT_number 12
_symmetry_cell_setting 'monoclinic'
loop_
_space_group_symop_operation_xyz
x,y,z
-x,y,-z
-x,-y,-z
x,-y,z
1/2+x,1/2+y,z
1/2-x,1/2+y,-z
1/2-x,1/2-y,-z
1/2+x,1/2-y,z
loop_
_atom_site_type_symbol
_atom_site_label
_atom_site_fract_x
_atom_site_fract_y
_atom_site_fract_z
Si Si1 0.807757 0.116296 0.038505
Si Si2 0.908182 0.441181 0.772122
Si Si3 0.850725 0.229140 0.067153
Si Si4 0.204096 0.940993 0.636070
Si Si5 0.988245 0.058464 0.158828
Si Si6 0.397760 0.941041 0.431834
O O1 0.842449 0.171629 0.061639
O O2 0.891127 0.080939 0.094083
O O3 0.500000 0.109520 0.000000
O O4 0.000000 0.109523 0.000000
O O5 0.907006 0.500000 0.771338
O O6 0.806193 0.425330 0.704131
O O7 0.708553 0.426491 0.806165
O O8 0.209937 0.426491 0.806164
O O9 0.643107 0.250001 0.095407
O O10 0.750000 0.250000 0.000000
O O11 0.403104 0.925785 0.602092
O O12 0.903151 0.925785 0.602095
O O13 0.204313 0.000000 0.636215
O O14 0.982783 0.000000 0.155187
O O15 0.500000 0.925745 0.500000
O O16 0.397682 0.000000 0.431781
#
# Coordination Sequence:
#
# PCOD9168864 Si02
#       6
#     8   8   8   8   8   8
#     4  12  21  31  48  65  81 104 127 154 208 263
#     4   9  17  31  44  53  70 100 139 172 197 228
#     4  10  16  30  47  65  83  99 120 150 186 244
#     4   9  15  23  37  50  63  94 129 155 194 240
#     4  10  21  33  43  58  80 103 132 173 205 234
#     4   9  15  21  30  50  75  91 112 155 206 245
#
# _framework density 14.255152000000001
#
# number of rings (size 3 to 8) (size 9 to 14) (size 15 to 20)
#    0.000    2.167    3.333    2.500    0.000    6.667 
#    0.000    0.000    0.000    0.000    0.000    0.000 
#    0.000    0.000    0.000    0.000    0.000    0.000 
#
# Total GULP energy -133711.372106 kJ/mol
# GULP energy per Si atom -5571.307171 kJ/mol
# Density = 1.422271 g / cm^3
# Si number density = 14.255152 Si / 1000 Ang^3
#
#
#
# Elastic Constant Matrix: (Units=GPa)
#
#
# Indices 1 2 3 4 5 6 
#
# 1 188.9194 21.6470 91.6892 0.0000 2.0144 0.0000
# 2 21.6470 19.5791 25.3127 0.0000 -0.1253 0.0000
# 3 91.6892 25.3127 122.6717 0.0000 0.2783 0.0000
# 4 0.0000 0.0000 0.0000 -1.0839 0.0000 0.2721
# 5 2.0144 -0.1253 0.2783 0.0000 19.5403 0.0000
# 6 0.0000 0.0000 0.0000 0.2721 0.0000 6.8044
#
#
#
# Elastic Compliance Matrix: (Units=1/GPa)
#
#
# Indices 1 2 3 4 5 6 
#
# 1 0.008355 -0.001597 -0.005913 0.000000 -0.000787 0.000000
# 2 -0.001597 0.069971 -0.013246 0.000000 0.000802 0.000000
# 3 -0.005913 -0.013246 0.015304 0.000000 0.000307 0.000000
# 4 0.000000 0.000000 0.000000 -0.913394 0.000000 0.036532
# 5 -0.000787 0.000802 0.000307 0.000000 0.051258 0.000000
# 6 0.000000 0.000000 0.000000 0.036532 0.000000 0.145502
#
#
# Mechanical properties :
#
#
# Convention : Reuss Voigt Hill
#
# Bulk Modulus (GPa) = 19.18775 67.60758 43.39766
# Shear Modulus (GPa) = -8.86337 17.88691 4.51177
#
# Velocity S-wave (km/s) = -2.49623 3.54611 1.78098
# Velocity P-wave (km/s) = 2.27623 8.01850 5.89396
#
# Compressibility (1/GPa) = 0.05211659
#
# Stress axis : x y z
#
# Youngs Moduli (GPa) = 119.69594 14.29164 65.34212
#
# Poissons Ratio (x) = 0.02283 0.38637
# Poissons Ratio (y) = 0.19118 0.86553
# Poissons Ratio (z) = 0.70777 0.18931
#
# Static dielectric constant tensor:
#      x y z
#    x 1.405180 0.000000 -0.001640 
#    y 0.000000 1.435820 0.000000 
#    z -0.001640 0.000000 1.452730 
# 
# From -- ./inp_files/253361.got.cif
#   From: 2010.05.17/outbox.cif.g08.bks.cpg/sg12_127_cif.got.tgz:253361.got - 2010.06.03 13:09:07.
