data_PCOD9168481
_publ_section_title
;
Structure prediction by ZEFSAII (Michael W. Deem and Ramdas Pophale) SiO2 
 PCOD9168481
Probable space group: C 2/M
;
_chemical_formula_sum "Si O2"
_cell_formula_units_Z 64
_cell_length_a 14.098870
_cell_length_b 9.227512
_cell_length_c 24.048421
_cell_angle_alpha 90.000000
_cell_angle_beta 63.410883
_cell_angle_gamma 90.000000
_cell_volume 2797.752089
_symmetry_space_group_name_H-M "C 2/M"
_symmetry_group_IT_number 12
_symmetry_cell_setting 'monoclinic'
loop_
_space_group_symop_operation_xyz
x,y,z
-x,y,-z
-x,-y,-z
x,-y,z
1/2+x,1/2+y,z
1/2-x,1/2+y,-z
1/2-x,1/2-y,-z
1/2+x,1/2-y,z
loop_
_atom_site_type_symbol
_atom_site_label
_atom_site_fract_x
_atom_site_fract_y
_atom_site_fract_z
Si Si1 0.398188 0.836539 0.487919
Si Si2 0.762625 0.832996 0.273081
Si Si3 0.482791 0.332050 0.766674
Si Si4 0.338721 0.675150 0.138808
Si Si5 0.282815 0.660834 0.610577
Si Si6 0.537285 0.164598 0.647446
Si Si7 0.059374 0.672431 0.112171
Si Si8 0.122282 0.833941 0.991522
O O1 0.500000 0.850333 0.500000
O O2 0.318391 0.744341 0.545838
O O3 0.441558 0.771466 0.419158
O O4 0.356229 0.000000 0.487180
O O5 0.889909 0.827246 0.252567
O O6 0.757461 0.790104 0.209594
O O7 0.699525 0.744528 0.336243
O O8 0.733421 0.000000 0.286519
O O9 0.451095 0.500000 0.773938
O O10 0.474366 0.256661 0.708974
O O11 0.426895 0.246778 0.831497
O O12 0.362902 0.500000 0.137281
O O13 0.441853 0.771847 0.124761
O O14 0.310742 0.698402 0.081670
O O15 0.329409 0.500000 0.599249
O O16 0.156191 0.650903 0.640062
O O17 0.496304 0.000000 0.652284
O O18 0.064770 0.500000 0.115663
O O19 0.129687 0.729521 0.042217
O O20 0.141217 0.000000 0.004077
O O21 0.000000 0.829092 0.000000
#
# Coordination Sequence:
#
# PCOD9168481 Si02
#       8
#     8   8   8   8   8   8   8   8
#     4  10  21  36  52  69  92 122 150 178 218 269
#     4   8  14  25  40  57  78 106 142 181 219 262
#     4   9  16  26  40  57  78 107 142 179 221 264
#     4   8  14  23  33  46  68 102 141 179 218 260
#     4  10  19  30  47  70  93 117 147 187 228 263
#     4   9  18  32  49  70  92 114 147 188 226 264
#     4  10  16  20  29  47  72 102 138 179 219 258
#     4   8  13  21  30  41  64 100 140 177 214 259
#
# _framework density 22.875508
#
# number of rings (size 3 to 8) (size 9 to 14) (size 15 to 20)
#    0.000    3.000    0.000    3.750    0.000    6.500 
#    0.000    0.000    0.000    0.000    0.000    0.000 
#    0.000    0.000    0.000    1.125    0.000   13.750 
#
# Total GULP energy -178675.138757 kJ/mol
# GULP energy per Si atom -5583.598086 kJ/mol
# Density = 2.282344 g / cm^3
# Si number density = 22.875508 Si / 1000 Ang^3
#
#
#
# Elastic Constant Matrix: (Units=GPa)
#
#
# Indices 1 2 3 4 5 6 
#
# 1 48.5170 6.9072 36.1629 0.0000 0.2952 0.0000
# 2 6.9072 129.8149 130.9729 0.0000 15.6009 0.0000
# 3 36.1629 130.9729 253.4843 0.0000 34.8743 0.0000
# 4 0.0000 0.0000 0.0000 18.2400 0.0000 0.3690
# 5 0.2952 15.6009 34.8743 0.0000 46.0880 0.0000
# 6 0.0000 0.0000 0.0000 0.3690 0.0000 -22.3555
#
#
#
# Elastic Compliance Matrix: (Units=1/GPa)
#
#
# Indices 1 2 3 4 5 6 
#
# 1 0.024701 0.004801 -0.006429 0.000000 0.003081 0.000000
# 2 0.004801 0.017062 -0.009713 0.000000 0.001544 0.000000
# 3 -0.006429 -0.009713 0.010518 0.000000 -0.004630 0.000000
# 4 0.000000 0.000000 0.000000 0.054806 0.000000 0.000905
# 5 0.003081 0.001544 -0.004630 0.000000 0.024659 0.000000
# 6 0.000000 0.000000 0.000000 0.000905 0.000000 -0.044717
#
#
# Mechanical properties :
#
#
# Convention : Reuss Voigt Hill
#
# Bulk Modulus (GPa) = 33.78399 86.65580 60.21990
# Shear Modulus (GPa) = 41.81440 25.57937 33.69689
#
# Velocity S-wave (km/s) = 4.28005 3.34758 3.84220
# Velocity P-wave (km/s) = 6.26305 7.27361 6.78716
#
# Compressibility (1/GPa) = 0.02959982
#
# Stress axis : x y z
#
# Youngs Moduli (GPa) = 40.48473 58.60939 95.07705
#
# Poissons Ratio (x) = -0.28141 0.61121
# Poissons Ratio (y) = -0.19438 0.92350
# Poissons Ratio (z) = 0.26026 0.56928
#
# Static dielectric constant tensor:
#      x y z
#    x 1.914120 0.000000 -0.021130 
#    y 0.000000 1.805870 0.000000 
#    z -0.021130 0.000000 1.885340 
# 
# From -- ./inp_files/365158.got.cif
#   From: 2010.05.17/outbox.cif.g08.bks.cpg/sg12_183_cif.got.tgz:365158.got - 2010.06.03 13:09:07.
