data_PCOD9168263
_publ_section_title
;
Structure prediction by ZEFSAII (Michael W. Deem and Ramdas Pophale) SiO2 
 PCOD9168263
Probable space group: P 21/M
;
_chemical_formula_sum "Si O2"
_cell_formula_units_Z 32
_cell_length_a 21.000000
_cell_length_b 9.000000
_cell_length_c 27.000000
_cell_angle_alpha 90.000000
_cell_angle_beta 20.000000
_cell_angle_gamma 90.000000
_cell_volume 1745.328791
_symmetry_space_group_name_H-M "P 21/M"
_symmetry_group_IT_number 11
_symmetry_cell_setting 'monoclinic'
loop_
_space_group_symop_operation_xyz
x,y,z
-x,1/2+y,-z
-x,-y,-z
x,1/2-y,z
loop_
_atom_site_type_symbol
_atom_site_label
_atom_site_fract_x
_atom_site_fract_y
_atom_site_fract_z
Si Si1 0.003817 0.427672 0.444387
Si Si2 0.332961 0.924418 0.379538
Si Si3 0.281292 0.927599 0.885718
Si Si4 0.704136 0.570428 0.852148
Si Si5 0.261789 0.072445 0.600558
Si Si6 0.667088 0.070028 0.264169
Si Si7 0.904727 0.071897 0.183845
Si Si8 0.968316 0.425754 0.313016
O O1 0.018377 0.250000 0.437168
O O2 0.808254 0.460620 0.561147
O O3 0.000000 0.500000 0.500000
O O4 0.173459 0.476588 0.285025
O O5 0.384724 0.750000 0.339807
O O6 0.201380 0.944469 0.523818
O O7 0.515867 0.022977 0.244416
O O8 0.261295 0.750000 0.902564
O O9 0.279984 0.979955 0.829282
O O10 0.110294 0.004623 0.038227
O O11 0.688582 0.750000 0.863050
O O12 0.838474 0.533469 0.800809
O O13 0.500000 0.500000 0.000000
O O14 0.264314 0.250000 0.604620
O O15 0.458845 0.024774 0.432430
O O16 0.228733 0.991992 0.676449
O O17 0.092513 0.022402 0.689007
O O18 0.664749 0.250000 0.264748
O O19 0.816165 0.024351 0.196145
O O20 0.910661 0.250000 0.181958
O O21 0.977047 0.250000 0.294093
#
# Coordination Sequence:
#
# PCOD9168263 Si02
#       8
#     4   4   4   4   4   4   4   4
#     4   9  19  36  57  83 114 145 183 227 269 322
#     4   9  18  35  58  82 109 146 189 228 271 328
#     4  11  21  37  58  84 113 143 183 233 281 327
#     4   9  19  36  57  83 114 145 183 227 269 322
#     4  11  21  37  58  84 113 143 183 233 281 327
#     4   9  20  37  59  83 110 141 184 233 277 328
#     4  11  23  39  55  79 114 151 184 225 279 334
#     4   9  18  35  58  82 109 146 189 228 271 328
#
# _framework density 18.334654
#
# number of rings (size 3 to 8) (size 9 to 14) (size 15 to 20)
#    0.000    2.250    1.250    3.375    0.000    1.500 
#    2.250    6.250    0.000    0.000    0.000    0.000 
#    0.000    0.000    0.000    0.000    0.000    0.000 
#
# Total GULP energy -178514.968320 kJ/mol
# GULP energy per Si atom -5578.592760 kJ/mol
# Density = 1.829292 g / cm^3
# Si number density = 18.334654 Si / 1000 Ang^3
#
#
#
# Elastic Constant Matrix: (Units=GPa)
#
#
# Indices 1 2 3 4 5 6 
#
# 1 55.2354 21.8496 9.7383 0.0000 -2.4390 0.0000
# 2 21.8496 34.0657 18.6244 0.0000 -8.9419 0.0000
# 3 9.7383 18.6244 63.1193 0.0000 -18.9947 0.0000
# 4 0.0000 0.0000 0.0000 29.5807 0.0000 0.2019
# 5 -2.4390 -8.9419 -18.9947 0.0000 23.0900 0.0000
# 6 0.0000 0.0000 0.0000 0.2019 0.0000 28.3768
#
#
#
# Elastic Compliance Matrix: (Units=1/GPa)
#
#
# Indices 1 2 3 4 5 6 
#
# 1 0.024572 -0.016778 -0.000019 0.000000 -0.003918 0.000000
# 2 -0.016778 0.047261 -0.008482 0.000000 0.009553 0.000000
# 3 -0.000019 -0.008482 0.023071 0.000000 0.015692 0.000000
# 4 0.000000 0.000000 0.000000 0.033807 0.000000 -0.000241
# 5 -0.003918 0.009553 0.015692 0.000000 0.059504 0.000000
# 6 0.000000 0.000000 0.000000 -0.000241 0.000000 0.035242
#
#
# Mechanical properties :
#
#
# Convention : Reuss Voigt Hill
#
# Bulk Modulus (GPa) = 22.55033 28.09389 25.32211
# Shear Modulus (GPa) = 17.31321 23.02337 20.16829
#
# Velocity S-wave (km/s) = 3.07626 3.54747 3.32024
# Velocity P-wave (km/s) = 4.99438 5.66882 5.34225
#
# Compressibility (1/GPa) = 0.04434526
#
# Stress axis : x y z
#
# Youngs Moduli (GPa) = 40.69731 21.15906 43.34431
#
# Poissons Ratio (x) = 0.35501 0.00084
# Poissons Ratio (y) = 0.68282 0.36764
# Poissons Ratio (z) = 0.00079 0.17947
#
# Static dielectric constant tensor:
#      x y z
#    x 1.659220 0.000000 0.008860 
#    y 0.000000 1.618310 0.000000 
#    z 0.008860 0.000000 1.603040 
# 
# From -- ./inp_files/72083.got.cif
#   From: 2010.05.17/outbox.ucp.g08.bks.cvg/sg11_37_cif.got.tgz:72083.got - 2010.06.11 11:38:39.
