data_PCOD9168299
_publ_section_title
;
Structure prediction by ZEFSAII (Michael W. Deem and Ramdas Pophale) SiO2 
 PCOD9168299
Probable space group: C 2/M
;
_chemical_formula_sum "Si O2"
_cell_formula_units_Z 48
_cell_length_a 5.277340
_cell_length_b 14.863932
_cell_length_c 31.071871
_cell_angle_alpha 90.000000
_cell_angle_beta 74.985107
_cell_angle_gamma 90.000000
_cell_volume 2354.126003
_symmetry_space_group_name_H-M "C 2/M"
_symmetry_group_IT_number 12
_symmetry_cell_setting 'monoclinic'
loop_
_space_group_symop_operation_xyz
x,y,z
-x,y,-z
-x,-y,-z
x,-y,z
1/2+x,1/2+y,z
1/2-x,1/2+y,-z
1/2-x,1/2-y,-z
1/2+x,1/2-y,z
loop_
_atom_site_type_symbol
_atom_site_label
_atom_site_fract_x
_atom_site_fract_y
_atom_site_fract_z
Si Si1 0.220015 0.353944 0.019643
Si Si2 0.152601 0.391944 0.357964
Si Si3 0.516719 0.808716 0.785579
Si Si4 0.272547 0.391885 0.691086
Si Si5 0.623740 0.191755 0.452134
Si Si6 0.981638 0.308334 0.880009
O O1 0.134266 0.354875 0.072819
O O2 0.500000 0.395664 0.000000
O O3 0.250000 0.250000 0.000000
O O4 0.000000 0.395889 0.000000
O O5 0.151780 0.500000 0.355179
O O6 0.428663 0.358949 0.326090
O O7 0.137069 0.365019 0.408260
O O8 0.906139 0.358962 0.340828
O O9 0.232262 0.769967 0.785020
O O10 0.635100 0.864632 0.741352
O O11 0.496465 0.856758 0.833105
O O12 0.281559 0.500000 0.688438
O O13 0.500000 0.145483 0.500000
O O14 0.411693 0.270774 0.451237
O O15 0.769160 0.228791 0.879902
#
# Coordination Sequence:
#
# PCOD9168299 Si02
#       6
#     8   8   8   8   8   8
#     4  10  14  20  34  52  77 116 146 173 226 287
#     4  10  21  36  56  77  99 131 171 212 244 286
#     4  10  21  32  48  71  99 127 158 205 249 291
#     4  10  21  37  53  73 100 131 170 207 247 295
#     4  10  21  36  54  80 110 138 165 201 248 299
#     4  10  16  25  36  57  87 117 146 188 232 284
#
# _framework density 20.389731000000001
#
# number of rings (size 3 to 8) (size 9 to 14) (size 15 to 20)
#    0.000    2.000    3.333    2.000    0.000    4.333 
#    0.000    0.000    0.000    6.000    0.000    0.000 
#    0.000    1.333    0.000    0.000    0.000    6.667 
#
# Total GULP energy -133860.133626 kJ/mol
# GULP energy per Si atom -5577.505568 kJ/mol
# Density = 2.034332 g / cm^3
# Si number density = 20.389731 Si / 1000 Ang^3
#
#
#
# Elastic Constant Matrix: (Units=GPa)
#
#
# Indices 1 2 3 4 5 6 
#
# 1 112.8361 0.2104 -0.0668 0.0000 -1.6562 0.0000
# 2 0.2104 25.6996 -3.0881 0.0000 -0.5314 0.0000
# 3 -0.0668 -3.0881 122.0391 0.0000 2.7102 0.0000
# 4 0.0000 0.0000 0.0000 -37.8145 0.0000 0.8156
# 5 -1.6562 -0.5314 2.7102 0.0000 36.5220 0.0000
# 6 0.0000 0.0000 0.0000 0.8156 0.0000 -1.5207
#
#
#
# Elastic Compliance Matrix: (Units=1/GPa)
#
#
# Indices 1 2 3 4 5 6 
#
# 1 0.008868 -0.000065 -0.000006 0.000000 0.000402 0.000000
# 2 -0.000065 0.039039 0.000977 0.000000 0.000493 0.000000
# 3 -0.000006 0.000977 0.008232 0.000000 -0.000597 0.000000
# 4 0.000000 0.000000 0.000000 -0.026754 0.000000 -0.014350
# 5 0.000402 0.000493 -0.000597 0.000000 0.027450 0.000000
# 6 0.000000 0.000000 0.000000 -0.014350 0.000000 -0.665280
#
#
# Mechanical properties :
#
#
# Convention : Reuss Voigt Hill
#
# Bulk Modulus (GPa) = 17.25566 28.29845 22.77705
# Shear Modulus (GPa) = -8.46111 17.00531 4.27210
#
# Velocity S-wave (km/s) = -2.03929 2.89106 1.44906
# Velocity P-wave (km/s) = 1.71358 5.00532 3.74096
#
# Compressibility (1/GPa) = 0.05795200
#
# Stress axis : x y z
#
# Youngs Moduli (GPa) = 112.75961 25.61530 121.47622
#
# Poissons Ratio (x) = 0.00166 0.00069
# Poissons Ratio (y) = 0.00733 -0.11867
# Poissons Ratio (z) = 0.00064 -0.02502
#
# Static dielectric constant tensor:
#      x y z
#    x 1.730280 0.000000 0.001410 
#    y 0.000000 1.700310 0.000000 
#    z 0.001410 0.000000 1.740380 
# 
# From -- ./inp_files/330991.got.cif
#   From: 2010.05.17/outbox.cif.g08.bks.cpg/sg12_166_cif.got.tgz:330991.got - 2010.06.03 13:09:07.
