data_PCOD9168563
_publ_section_title
;
Structure prediction by ZEFSAII (Michael W. Deem and Ramdas Pophale) SiO2 
 PCOD9168563
Probable space group: C 2/M
;
_chemical_formula_sum "Si O2"
_cell_formula_units_Z 36
_cell_length_a 12.106619
_cell_length_b 30.138011
_cell_length_c 6.983640
_cell_angle_alpha 90.000000
_cell_angle_beta 40.828412
_cell_angle_gamma 90.000000
_cell_volume 1665.948232
_symmetry_space_group_name_H-M "C 2/M"
_symmetry_group_IT_number 12
_symmetry_cell_setting 'monoclinic'
loop_
_space_group_symop_operation_xyz
x,y,z
-x,y,-z
-x,-y,-z
x,-y,z
1/2+x,1/2+y,z
1/2-x,1/2+y,-z
1/2-x,1/2-y,-z
1/2+x,1/2-y,z
loop_
_atom_site_type_symbol
_atom_site_label
_atom_site_fract_x
_atom_site_fract_y
_atom_site_fract_z
Si Si1 0.808878 0.446935 0.900048
Si Si2 0.626370 0.198240 0.512526
Si Si3 0.000000 0.233486 0.000000
Si Si4 0.124975 0.596929 0.602957
Si Si5 0.441925 0.450242 0.301452
O O1 0.834861 0.500000 0.841050
O O2 0.834187 0.420911 0.666358
O O3 0.945381 0.427132 0.866258
O O4 0.611226 0.440529 0.196916
O O5 0.500000 0.199173 0.500000
O O6 0.610604 0.149528 0.624063
O O7 0.555849 0.235229 0.750563
O O8 0.824458 0.206382 0.196213
O O9 0.286060 0.582429 0.513067
O O10 0.381455 0.500000 0.426254
O O11 0.500000 0.451231 0.000000
#
# Coordination Sequence:
#
# PCOD9168563 Si02
#       5
#     8   8   4   8   8
#     4   9  15  24  39  71 112 141 178 225 268 318
#     4  11  22  41  63  86 115 150 194 237 297 352
#     4  10  26  42  60  86 116 152 186 248 300 346
#     4  10  16  24  46  73 102 139 179 224 267 330
#     4   8  14  22  35  64 108 141 170 222 269 312
#
# _framework density 21.609314999999999
#
# number of rings (size 3 to 8) (size 9 to 14) (size 15 to 20)
#    0.000    2.444    2.222    4.667    4.667    0.000 
#    0.000    0.000    0.000    0.000    0.000    7.000 
#    0.000    3.556    0.000    0.000    0.000    0.000 
#
# Total GULP energy -100462.339775 kJ/mol
# GULP energy per Si atom -5581.241099 kJ/mol
# Density = 2.156013 g / cm^3
# Si number density = 21.609315 Si / 1000 Ang^3
#
#
#
# Elastic Constant Matrix: (Units=GPa)
#
#
# Indices 1 2 3 4 5 6 
#
# 1 119.6855 41.9682 36.5777 0.0000 -55.0891 0.0000
# 2 41.9682 92.1004 22.0870 0.0000 -30.9313 0.0000
# 3 36.5777 22.0870 116.2193 0.0000 -24.2075 0.0000
# 4 0.0000 0.0000 0.0000 -30.4125 0.0000 -47.0143
# 5 -55.0891 -30.9313 -24.2075 0.0000 49.7543 0.0000
# 6 0.0000 0.0000 0.0000 -47.0143 0.0000 5.9854
#
#
#
# Elastic Compliance Matrix: (Units=1/GPa)
#
#
# Indices 1 2 3 4 5 6 
#
# 1 0.017517 -0.001709 -0.001524 0.000000 0.017592 0.000000
# 2 -0.001709 0.013979 -0.000782 0.000000 0.006418 0.000000
# 3 -0.001524 -0.000782 0.009770 0.000000 0.002580 0.000000
# 4 0.000000 0.000000 0.000000 -0.002502 0.000000 -0.019652
# 5 0.017592 0.006418 0.002580 0.000000 0.044822 0.000000
# 6 0.000000 0.000000 0.000000 -0.019652 0.000000 0.012712
#
#
# Mechanical properties :
#
#
# Convention : Reuss Voigt Hill
#
# Bulk Modulus (GPa) = 30.08700 58.80787 44.44744
# Shear Modulus (GPa) = 43.32430 20.22360 31.77395
#
# Velocity S-wave (km/s) = 4.48246 3.06252 3.83872
# Velocity P-wave (km/s) = 6.38305 6.30703 6.34515
#
# Compressibility (1/GPa) = 0.03323694
#
# Stress axis : x y z
#
# Youngs Moduli (GPa) = 57.08588 71.53363 102.35297
#
# Poissons Ratio (x) = 0.12223 0.15602
# Poissons Ratio (y) = 0.09754 0.08005
# Poissons Ratio (z) = 0.08702 0.05594
#
# Static dielectric constant tensor:
#      x y z
#    x 1.825660 0.000000 0.038570 
#    y 0.000000 1.714700 0.000000 
#    z 0.038570 0.000000 1.885730 
# 
# From -- ./inp_files/68007.got.cif
#   From: 2010.05.17/outbox.cif.g08.bks.cpg/sg12_35_cif.got.tgz:68007.got - 2010.06.03 13:09:07.
