data_PCOD9168305
_publ_section_title
;
Structure prediction by ZEFSAII (Michael W. Deem and Ramdas Pophale) SiO2 
 PCOD9168305
Probable space group: C 2/M
;
_chemical_formula_sum "Si O2"
_cell_formula_units_Z 40
_cell_length_a 5.347109
_cell_length_b 13.968983
_cell_length_c 31.823194
_cell_angle_alpha 90.000000
_cell_angle_beta 51.114792
_cell_angle_gamma 90.000000
_cell_volume 1850.262492
_symmetry_space_group_name_H-M "C 2/M"
_symmetry_group_IT_number 12
_symmetry_cell_setting 'monoclinic'
loop_
_space_group_symop_operation_xyz
x,y,z
-x,y,-z
-x,-y,-z
x,-y,z
1/2+x,1/2+y,z
1/2-x,1/2+y,-z
1/2-x,1/2-y,-z
1/2+x,1/2-y,z
loop_
_atom_site_type_symbol
_atom_site_label
_atom_site_fract_x
_atom_site_fract_y
_atom_site_fract_z
Si Si1 0.950005 0.000000 0.838854
Si Si2 0.760321 0.314489 0.764706
Si Si3 0.304834 0.500000 0.093281
Si Si4 0.768943 0.190405 0.643330
Si Si5 0.838268 0.860005 0.476381
Si Si6 0.806106 0.210187 0.061812
O O1 0.119232 0.904575 0.803947
O O2 0.996838 0.000000 0.884337
O O3 0.582262 0.000000 0.861611
O O4 0.478159 0.253484 0.771700
O O5 0.003830 0.352209 0.702605
O O6 0.374837 0.598903 0.061996
O O7 0.564449 0.273364 0.640950
O O8 0.925792 0.135155 0.588112
O O9 0.500000 0.901582 0.500000
O O10 0.750000 0.750000 0.500000
O O11 0.000000 0.901405 0.500000
O O12 0.440328 0.232776 0.087799
O O13 0.000000 0.244263 0.000000
#
# Coordination Sequence:
#
# PCOD9168305 Si02
#       6
#     4   8   4   8   8   8
#     4  12  26  42  61  90 120 161 210 260 303 342
#     4  10  23  40  60  82 114 153 202 251 301 362
#     4  12  25  40  66  92 124 165 210 250 305 352
#     4  10  16  27  44  69 101 136 176 224 286 347
#     4  10  14  20  36  65 101 123 161 225 268 340
#     4  10  22  41  65  97 133 167 203 246 300 360
#
# _framework density 21.618552999999999
#
# number of rings (size 3 to 8) (size 9 to 14) (size 15 to 20)
#    0.000    1.600    4.000    2.700    0.000    4.800 
#    0.000    4.000    0.000    0.000    0.000    1.400 
#    0.000    0.000    0.000    0.000    0.000    0.000 
#
# Total GULP energy -111627.840874 kJ/mol
# GULP energy per Si atom -5581.392044 kJ/mol
# Density = 2.156935 g / cm^3
# Si number density = 21.618553 Si / 1000 Ang^3
#
#
#
# Elastic Constant Matrix: (Units=GPa)
#
#
# Indices 1 2 3 4 5 6 
#
# 1 138.4182 19.6962 6.0188 0.0674 15.4777 0.0134
# 2 19.6962 80.6448 1.2699 -0.0861 12.2146 -0.0114
# 3 6.0188 1.2699 56.4055 0.0737 5.3798 0.0054
# 4 0.0674 -0.0861 0.0737 -140.3768 -0.0971 -18.5050
# 5 15.4777 12.2146 5.3798 -0.0971 29.5094 -0.0175
# 6 0.0134 -0.0114 0.0054 -18.5050 -0.0175 -7.9263
#
#
#
# Elastic Compliance Matrix: (Units=1/GPa)
#
#
# Indices 1 2 3 4 5 6 
#
# 1 0.007827 -0.001382 -0.000475 0.000005 -0.003447 0.000010
# 2 -0.001382 0.013476 0.000312 -0.000006 -0.004910 0.000003
# 3 -0.000475 0.000312 0.018075 0.000013 -0.003175 -0.000012
# 4 0.000005 -0.000006 0.000013 -0.010291 -0.000022 0.024025
# 5 -0.003447 -0.004910 -0.003175 -0.000022 0.038306 -0.000033
# 6 0.000010 0.000003 -0.000012 0.024025 -0.000033 -0.182253
#
#
# Mechanical properties :
#
#
# Convention : Reuss Voigt Hill
#
# Bulk Modulus (GPa) = 27.55681 36.60425 32.08053
# Shear Modulus (GPa) = -50.16448 -7.19316 -28.67882
#
# Velocity S-wave (km/s) = -4.82232 -1.82607 -3.64618
# Velocity P-wave (km/s) = 4.26987 3.53873 1.68956
#
# Compressibility (1/GPa) = 0.03628867
#
# Stress axis : x y z
#
# Youngs Moduli (GPa) = 127.75938 74.20375 55.32418
#
# Poissons Ratio (x) = 0.10256 0.02630
# Poissons Ratio (y) = 0.17658 -0.01728
# Poissons Ratio (z) = 0.06073 -0.02318
#
# Static dielectric constant tensor:
#      x y z
#    x 1.816860 0.000000 -0.022000 
#    y 0.000000 1.747940 0.000000 
#    z -0.022000 0.000000 1.795310 
# 
# From -- ./inp_files/371421.got.cif
#   From: 2010.05.17/outbox.cif.g08.bks.cpg/sg12_186_cif.got.tgz:371421.got - 2010.06.03 13:09:07.
