data_PCOD9168789
_publ_section_title
;
Structure prediction by ZEFSAII (Michael W. Deem and Ramdas Pophale) SiO2 
 PCOD9168789
Probable space group: C 2/M
;
_chemical_formula_sum "Si O2"
_cell_formula_units_Z 40
_cell_length_a 23.537897
_cell_length_b 11.796033
_cell_length_c 18.168599
_cell_angle_alpha 90.000000
_cell_angle_beta 152.154858
_cell_angle_gamma 90.000000
_cell_volume 2356.240101
_symmetry_space_group_name_H-M "C 2/M"
_symmetry_group_IT_number 12
_symmetry_cell_setting 'monoclinic'
loop_
_space_group_symop_operation_xyz
x,y,z
-x,y,-z
-x,-y,-z
x,-y,z
1/2+x,1/2+y,z
1/2-x,1/2+y,-z
1/2-x,1/2-y,-z
1/2+x,1/2-y,z
loop_
_atom_site_type_symbol
_atom_site_label
_atom_site_fract_x
_atom_site_fract_y
_atom_site_fract_z
Si Si1 0.630873 0.500000 0.554376
Si Si2 0.198805 0.299038 0.250585
Si Si3 0.359908 0.500000 0.257396
Si Si4 0.644064 0.135557 0.666196
Si Si5 0.727435 0.772063 0.059127
Si Si6 0.976358 0.636444 0.085799
O O1 0.702003 0.389768 0.611285
O O2 0.492271 0.500000 0.374003
O O3 0.632468 0.500000 0.645479
O O4 0.274907 0.193156 0.305801
O O5 0.096543 0.297230 0.196484
O O6 0.121839 0.349946 0.093233
O O7 0.291574 0.388942 0.154347
O O8 0.500000 0.171484 0.500000
O O9 0.709555 0.178532 0.816025
O O10 0.647145 0.000000 0.664355
O O11 0.750000 0.750000 0.000000
O O12 0.587470 0.798254 0.920031
O O13 0.996480 0.500000 0.119334
#
# Coordination Sequence:
#
# PCOD9168789 Si02
#       6
#     4   8   4   8   8   8
#     4  11  16  28  57  84 107 120 168 239 267 299
#     4  10  16  28  51  83 105 130 169 221 270 302
#     4  11  20  31  52  83 105 133 174 223 268 298
#     4  10  21  36  54  77 109 146 178 212 263 322
#     4  11  22  35  54  78 108 141 180 218 259 316
#     4  10  16  30  50  80 110 133 168 217 270 311
#
# _framework density 16.976199000000001
#
# number of rings (size 3 to 8) (size 9 to 14) (size 15 to 20)
#    0.000    1.600    7.000    1.800    1.400    0.000 
#    0.000    8.000    0.000    4.800    0.000    0.000 
#    0.000    0.000    0.000    0.000    0.000    0.000 
#
# Total GULP energy -111387.631473 kJ/mol
# GULP energy per Si atom -5569.381574 kJ/mol
# Density = 1.693756 g / cm^3
# Si number density = 16.976199 Si / 1000 Ang^3
#
#
#
# Elastic Constant Matrix: (Units=GPa)
#
#
# Indices 1 2 3 4 5 6 
#
# 1 140.0818 42.3738 49.2662 0.0000 36.8767 0.0000
# 2 42.3738 86.6299 31.8468 0.0000 17.7821 0.0000
# 3 49.2662 31.8468 62.4774 0.0000 38.4443 0.0000
# 4 0.0000 0.0000 0.0000 18.2374 0.0000 12.3189
# 5 36.8767 17.7821 38.4443 0.0000 35.8116 0.0000
# 6 0.0000 0.0000 0.0000 12.3189 0.0000 14.1442
#
#
#
# Elastic Compliance Matrix: (Units=1/GPa)
#
#
# Indices 1 2 3 4 5 6 
#
# 1 0.010759 -0.002799 -0.003227 0.000000 -0.006225 0.000000
# 2 -0.002799 0.014988 -0.007739 0.000000 0.003748 0.000000
# 3 -0.003227 -0.007739 0.053283 0.000000 -0.050034 0.000000
# 4 0.000000 0.000000 0.000000 0.133185 0.000000 -0.115997
# 5 -0.006225 0.003748 -0.050034 0.000000 0.086186 0.000000
# 6 0.000000 0.000000 0.000000 -0.115997 0.000000 0.171728
#
#
# Mechanical properties :
#
#
# Convention : Reuss Voigt Hill
#
# Bulk Modulus (GPa) = 19.41719 59.57365 39.49542
# Shear Modulus (GPa) = 9.71206 24.68546 17.19876
#
# Velocity S-wave (km/s) = 2.39445 3.81743 3.18639
# Velocity P-wave (km/s) = 4.37119 7.38911 6.07068
#
# Compressibility (1/GPa) = 0.05150075
#
# Stress axis : x y z
#
# Youngs Moduli (GPa) = 92.94656 66.71994 18.76784
#
# Poissons Ratio (x) = 0.18672 0.06056
# Poissons Ratio (y) = 0.26011 0.14525
# Poissons Ratio (z) = 0.29991 0.51636
#
# Static dielectric constant tensor:
#      x y z
#    x 1.649620 0.000000 0.058360 
#    y 0.000000 1.558530 0.000000 
#    z 0.058360 0.000000 1.593550 
# 
# From -- ./inp_files/173321.got.cif
#   From: 2010.05.17/outbox.cif.g08.bks.cpg/sg12_87_cif.got.tgz:173321.got - 2010.06.03 13:09:07.
