data_PCOD9168689
_publ_section_title
;
Structure prediction by ZEFSAII (Michael W. Deem and Ramdas Pophale) SiO2 
 PCOD9168689
Probable space group: C 2/M
;
_chemical_formula_sum "Si O2"
_cell_formula_units_Z 48
_cell_length_a 15.907132
_cell_length_b 18.819302
_cell_length_c 11.419721
_cell_angle_alpha 90.000000
_cell_angle_beta 125.608955
_cell_angle_gamma 90.000000
_cell_volume 2779.371846
_symmetry_space_group_name_H-M "C 2/M"
_symmetry_group_IT_number 12
_symmetry_cell_setting 'monoclinic'
loop_
_space_group_symop_operation_xyz
x,y,z
-x,y,-z
-x,-y,-z
x,-y,z
1/2+x,1/2+y,z
1/2-x,1/2+y,-z
1/2-x,1/2-y,-z
1/2+x,1/2-y,z
loop_
_atom_site_type_symbol
_atom_site_label
_atom_site_fract_x
_atom_site_fract_y
_atom_site_fract_z
Si Si1 0.000000 0.146735 0.000000
Si Si2 0.147424 0.921498 0.497272
Si Si3 0.167654 0.245640 0.256479
Si Si4 0.648499 0.309785 0.708582
Si Si5 0.500000 0.188160 0.500000
Si Si6 0.937518 0.080640 0.181732
Si Si7 0.331901 0.848667 0.536137
O O1 0.921058 0.196863 0.866234
O O2 0.057386 0.098970 0.950548
O O3 0.132827 0.859977 0.581174
O O4 0.258439 0.910620 0.525654
O O5 0.054072 0.915673 0.329299
O O6 0.140688 0.000000 0.546131
O O7 0.234381 0.282519 0.208382
O O8 0.250792 0.199224 0.396560
O O9 0.130731 0.303763 0.320774
O O10 0.572012 0.242572 0.633427
O O11 0.625146 0.359241 0.799683
O O12 0.572344 0.142059 0.473300
O O13 0.900246 0.000000 0.171334
#
# Coordination Sequence:
#
# PCOD9168689 Si02
#       7
#     4   8   8   8   4   8   8
#     4  12  21  34  48  76 103 144 158 200 244 326
#     4  10  18  31  52  75 100 131 169 210 245 290
#     4   9  19  31  52  71 104 128 170 204 257 284
#     4  10  18  32  52  79  96 128 168 221 247 286
#     4  10  16  26  52  74 100 122 164 210 258 280
#     4  11  21  32  48  72 107 139 163 195 247 309
#     4   9  17  33  48  75  97 136 164 211 242 297
#
# _framework density 17.270088999999999
#
# number of rings (size 3 to 8) (size 9 to 14) (size 15 to 20)
#    0.000    2.000    3.333    2.750    0.000    2.000 
#    0.000    0.417    0.000    0.000    0.000   19.250 
#    0.000    0.000    0.000    0.000    0.000    0.000 
#
# Total GULP energy -133784.467897 kJ/mol
# GULP energy per Si atom -5574.352829 kJ/mol
# Density = 1.723078 g / cm^3
# Si number density = 17.270089 Si / 1000 Ang^3
#
#
#
# Elastic Constant Matrix: (Units=GPa)
#
#
# Indices 1 2 3 4 5 6 
#
# 1 78.0631 1.2774 5.1534 0.0000 -9.9891 0.0000
# 2 1.2774 35.2488 3.4450 0.0000 -0.7620 0.0000
# 3 5.1534 3.4450 28.1494 0.0000 -8.5429 0.0000
# 4 0.0000 0.0000 0.0000 9.9504 0.0000 5.7012
# 5 -9.9891 -0.7620 -8.5429 0.0000 20.1934 0.0000
# 6 0.0000 0.0000 0.0000 5.7012 0.0000 14.2137
#
#
#
# Elastic Compliance Matrix: (Units=1/GPa)
#
#
# Indices 1 2 3 4 5 6 
#
# 1 0.013686 -0.000308 -0.000478 0.000000 0.006556 0.000000
# 2 -0.000308 0.028724 -0.003644 0.000000 -0.000610 0.000000
# 3 -0.000478 -0.003644 0.041240 0.000000 0.017072 0.000000
# 4 0.000000 0.000000 0.000000 0.130487 0.000000 -0.052340
# 5 0.006556 -0.000610 0.017072 0.000000 0.059964 0.000000
# 6 0.000000 0.000000 0.000000 -0.052340 0.000000 0.091349
#
#
# Mechanical properties :
#
#
# Convention : Reuss Voigt Hill
#
# Bulk Modulus (GPa) = 13.37089 17.91254 15.64172
# Shear Modulus (GPa) = 12.52386 17.64386 15.08386
#
# Velocity S-wave (km/s) = 2.69583 3.19978 2.95856
# Velocity P-wave (km/s) = 4.17720 4.90367 4.55494
#
# Compressibility (1/GPa) = 0.07478934
#
# Stress axis : x y z
#
# Youngs Moduli (GPa) = 73.06921 34.81420 24.24859
#
# Poissons Ratio (x) = 0.01071 0.01160
# Poissons Ratio (y) = 0.02247 0.08837
# Poissons Ratio (z) = 0.03494 0.12687
#
# Static dielectric constant tensor:
#      x y z
#    x 1.624100 0.000000 -0.016240 
#    y 0.000000 1.588760 0.000000 
#    z -0.016240 0.000000 1.562810 
# 
# From -- ./inp_files/146731.got.cif
#   From: 2010.05.17/outbox.cif.g08.bks.cpg/sg12_74_cif.got.tgz:146731.got - 2010.06.03 13:09:07.
