data_PCOD9168986
_publ_section_title
;
Structure prediction by ZEFSAII (Michael W. Deem and Ramdas Pophale) SiO2 
 PCOD9168986
Probable space group: C 2/M
;
_chemical_formula_sum "Si O2"
_cell_formula_units_Z 48
_cell_length_a 8.517647
_cell_length_b 18.019497
_cell_length_c 20.370009
_cell_angle_alpha 90.000000
_cell_angle_beta 63.519740
_cell_angle_gamma 90.000000
_cell_volume 2798.461101
_symmetry_space_group_name_H-M "C 2/M"
_symmetry_group_IT_number 12
_symmetry_cell_setting 'monoclinic'
loop_
_space_group_symop_operation_xyz
x,y,z
-x,y,-z
-x,-y,-z
x,-y,z
1/2+x,1/2+y,z
1/2-x,1/2+y,-z
1/2-x,1/2-y,-z
1/2+x,1/2-y,z
loop_
_atom_site_type_symbol
_atom_site_label
_atom_site_fract_x
_atom_site_fract_y
_atom_site_fract_z
Si Si1 0.882587 0.679712 0.274219
Si Si2 0.679856 0.784717 0.945895
Si Si3 0.003416 0.787056 0.627646
Si Si4 0.944742 0.799292 0.155206
Si Si5 0.320538 0.914631 0.729905
Si Si6 0.134591 0.352354 0.423614
O O1 0.944405 0.739116 0.317961
O O2 0.674912 0.669512 0.322090
O O3 0.925690 0.721720 0.198618
O O4 0.999178 0.608273 0.267188
O O5 0.625085 0.720905 0.904192
O O6 0.852009 0.823521 0.884253
O O7 0.500000 0.825974 0.000000
O O8 0.750000 0.750000 0.000000
O O9 0.174610 0.835583 0.581145
O O10 0.952521 0.726387 0.582421
O O11 0.824424 0.859087 0.213644
O O12 0.341197 0.896710 0.648681
O O13 0.276952 0.000000 0.748016
O O14 0.000000 0.387527 0.500000
#
# Coordination Sequence:
#
# PCOD9168986 Si02
#       6
#     8   8   8   8   8   8
#     4  10  16  31  56  79 101 138 184 228 264 307
#     4   9  19  30  53  92 109 128 176 227 265 312
#     4   9  16  29  51  79 102 128 189 239 266 311
#     4  11  16  33  59  78 108 143 177 224 257 317
#     4  11  23  35  52  82 114 146 184 225 278 327
#     4  10  19  32  52  78 111 144 184 232 281 324
#
# _framework density 17.152283000000001
#
# number of rings (size 3 to 8) (size 9 to 14) (size 15 to 20)
#    0.000    2.000    6.667    0.500    0.000    0.333 
#    0.000    0.833    0.000    6.000    0.000    0.000 
#    0.000    0.000    0.000    0.000    0.000    0.000 
#
# Total GULP energy -133654.899471 kJ/mol
# GULP energy per Si atom -5568.954145 kJ/mol
# Density = 1.711324 g / cm^3
# Si number density = 17.152283 Si / 1000 Ang^3
#
#
#
# Elastic Constant Matrix: (Units=GPa)
#
#
# Indices 1 2 3 4 5 6 
#
# 1 115.2107 15.8041 43.7565 0.0000 -26.8530 0.0000
# 2 15.8041 44.7826 18.3883 0.0000 -2.4856 0.0000
# 3 43.7565 18.3883 102.8050 0.0000 -14.1068 0.0000
# 4 0.0000 0.0000 0.0000 1.7047 0.0000 -2.4695
# 5 -26.8530 -2.4856 -14.1068 0.0000 33.9562 0.0000
# 6 0.0000 0.0000 0.0000 -2.4695 0.0000 8.8773
#
#
#
# Elastic Compliance Matrix: (Units=1/GPa)
#
#
# Indices 1 2 3 4 5 6 
#
# 1 0.012275 -0.002367 -0.003704 0.000000 0.007995 0.000000
# 2 -0.002367 0.024557 -0.003600 0.000000 -0.001570 0.000000
# 3 -0.003704 -0.003600 0.012205 0.000000 0.001878 0.000000
# 4 0.000000 0.000000 0.000000 0.982574 0.000000 0.273332
# 5 0.007995 -0.001570 0.001878 0.000000 0.036437 0.000000
# 6 0.000000 0.000000 0.000000 0.273332 0.000000 0.188682
#
#
# Mechanical properties :
#
#
# Convention : Reuss Voigt Hill
#
# Bulk Modulus (GPa) = 33.67705 46.52178 40.09941
# Shear Modulus (GPa) = 3.88811 21.23093 12.55952
#
# Velocity S-wave (km/s) = 1.50723 3.52204 2.70892
# Velocity P-wave (km/s) = 4.76506 6.61221 5.76312
#
# Compressibility (1/GPa) = 0.02969382
#
# Stress axis : x y z
#
# Youngs Moduli (GPa) = 81.46877 40.72215 81.93163
#
# Poissons Ratio (x) = 0.09640 0.30347
# Poissons Ratio (y) = 0.19285 0.29498
# Poissons Ratio (z) = 0.30176 0.14661
#
# Static dielectric constant tensor:
#      x y z
#    x 1.629990 0.000000 -0.023810 
#    y 0.000000 1.533510 0.000000 
#    z -0.023810 0.000000 1.642100 
# 
# From -- ./inp_files/256173.got.cif
#   From: 2010.05.17/outbox.cif.g08.bks.cpg/sg12_129_cif.got.tgz:256173.got - 2010.06.03 13:09:07.
