data_PCOD9168385
_publ_section_title
;
Structure prediction by ZEFSAII (Michael W. Deem and Ramdas Pophale) SiO2 
 PCOD9168385
Probable space group: C 2/M
;
_chemical_formula_sum "Si O2"
_cell_formula_units_Z 52
_cell_length_a 23.587129
_cell_length_b 8.375616
_cell_length_c 21.221615
_cell_angle_alpha 90.000000
_cell_angle_beta 38.770350
_cell_angle_gamma 90.000000
_cell_volume 2625.328368
_symmetry_space_group_name_H-M "C 2/M"
_symmetry_group_IT_number 12
_symmetry_cell_setting 'monoclinic'
loop_
_space_group_symop_operation_xyz
x,y,z
-x,y,-z
-x,-y,-z
x,-y,z
1/2+x,1/2+y,z
1/2-x,1/2+y,-z
1/2-x,1/2-y,-z
1/2+x,1/2-y,z
loop_
_atom_site_type_symbol
_atom_site_label
_atom_site_fract_x
_atom_site_fract_y
_atom_site_fract_z
Si Si1 0.750164 0.309777 0.834061
Si Si2 0.279777 0.312427 0.406031
Si Si3 0.500000 0.753623 0.500000
Si Si4 0.666365 0.810867 0.030444
Si Si5 0.024188 0.692172 0.748199
Si Si6 0.038440 0.690441 0.336654
Si Si7 0.291423 0.182430 0.662577
O O1 0.733243 0.500000 0.847508
O O2 0.854310 0.290874 0.766724
O O3 0.748650 0.245764 0.763495
O O4 0.686016 0.231945 0.941077
O O5 0.260343 0.500000 0.424792
O O6 0.250000 0.250000 0.500000
O O7 0.385856 0.276541 0.305931
O O8 0.229895 0.244009 0.386946
O O9 0.490289 0.696259 0.580696
O O10 0.600919 0.826269 0.418572
O O11 0.568794 0.751115 0.138790
O O12 0.664445 0.000000 0.040288
O O13 0.750000 0.750000 0.000000
O O14 0.032890 0.500000 0.749241
O O15 0.013558 0.720592 0.682601
O O16 0.023373 0.500000 0.366865
O O17 0.257738 0.000000 0.689299
#
# Coordination Sequence:
#
# PCOD9168385 Si02
#       7
#     8   8   4   8   8   8   8
#     4   9  17  33  55  81 111 144 182 235 289 332
#     4  11  23  39  58  84 115 152 192 234 280 336
#     4  10  15  24  50  80 103 134 177 228 279 330
#     4  11  21  35  57  85 116 150 189 235 287 341
#     4  10  21  37  56  80 111 150 193 232 276 339
#     4   9  15  26  47  77 107 136 176 225 276 328
#     4   9  18  32  54  81 110 144 189 233 280 338
#
# _framework density 19.807047000000001
#
# number of rings (size 3 to 8) (size 9 to 14) (size 15 to 20)
#    0.000    2.154    1.538    4.154    0.000    3.692 
#    0.000    2.308    0.000    4.615    0.000    7.000 
#    0.000    0.000    0.000    0.000    0.000    0.000 
#
# Total GULP energy -144777.727303 kJ/mol
# GULP energy per Si atom -5568.374127 kJ/mol
# Density = 1.976197 g / cm^3
# Si number density = 19.807047 Si / 1000 Ang^3
#
#
#
# Elastic Constant Matrix: (Units=GPa)
#
#
# Indices 1 2 3 4 5 6 
#
# 1 128.2538 8.1024 46.4994 0.0002 20.0013 -0.0001
# 2 8.1024 14.4347 7.3525 0.0003 4.6286 0.0001
# 3 46.4994 7.3525 122.3245 0.0006 15.8502 -0.0003
# 4 0.0002 0.0003 0.0006 19.2185 -0.0004 -0.6325
# 5 20.0013 4.6286 15.8502 -0.0004 29.3213 0.0003
# 6 -0.0001 0.0001 -0.0003 -0.6325 0.0003 12.8625
#
#
#
# Elastic Compliance Matrix: (Units=1/GPa)
#
#
# Indices 1 2 3 4 5 6 
#
# 1 0.009752 -0.002473 -0.002954 0.000000 -0.004665 0.000000
# 2 -0.002473 0.074716 -0.002410 -0.000001 -0.008805 0.000000
# 3 -0.002954 -0.002410 0.009820 0.000000 -0.002913 0.000000
# 4 0.000000 -0.000001 0.000000 0.052117 0.000001 0.002563
# 5 -0.004665 -0.008805 -0.002913 0.000001 0.040252 -0.000001
# 6 0.000000 0.000000 0.000000 0.002563 -0.000001 0.077871
#
#
# Mechanical properties :
#
#
# Convention : Reuss Voigt Hill
#
# Bulk Modulus (GPa) = 12.72036 43.21353 27.96694
# Shear Modulus (GPa) = 16.31814 25.81772 21.06793
#
# Velocity S-wave (km/s) = 2.87340 3.61426 3.26492
# Velocity P-wave (km/s) = 4.17668 6.26752 5.32572
#
# Compressibility (1/GPa) = 0.07861412
#
# Stress axis : x y z
#
# Youngs Moduli (GPa) = 102.54606 13.38394 101.83165
#
# Poissons Ratio (x) = 0.03310 0.30079
# Poissons Ratio (y) = 0.25364 0.24540
# Poissons Ratio (z) = 0.30290 0.03225
#
# Static dielectric constant tensor:
#      x y z
#    x 1.711680 0.000000 0.040690 
#    y 0.000000 1.722680 0.000000 
#    z 0.040690 0.000000 1.718920 
# 
# From -- ./inp_files/324044.got.cif
#   From: 2010.05.17/outbox.cif.g08.bks.cpg/sg12_163_cif.got.tgz:324044.got - 2010.06.03 13:09:07.
