data_PCOD9168675
_publ_section_title
;
Structure prediction by ZEFSAII (Michael W. Deem and Ramdas Pophale) SiO2 
 PCOD9168675
Probable space group: C 2/M
;
_chemical_formula_sum "Si O2"
_cell_formula_units_Z 48
_cell_length_a 16.126562
_cell_length_b 15.134138
_cell_length_c 22.382807
_cell_angle_alpha 90.000000
_cell_angle_beta 148.701662
_cell_angle_gamma 90.000000
_cell_volume 2837.885303
_symmetry_space_group_name_H-M "C 2/M"
_symmetry_group_IT_number 12
_symmetry_cell_setting 'monoclinic'
loop_
_space_group_symop_operation_xyz
x,y,z
-x,y,-z
-x,-y,-z
x,-y,z
1/2+x,1/2+y,z
1/2-x,1/2+y,-z
1/2-x,1/2-y,-z
1/2+x,1/2-y,z
loop_
_atom_site_type_symbol
_atom_site_label
_atom_site_fract_x
_atom_site_fract_y
_atom_site_fract_z
Si Si1 0.560603 0.224076 0.783827
Si Si2 0.900869 0.396396 0.378330
Si Si3 0.641312 0.897432 0.416866
Si Si4 0.032186 0.902004 0.311832
Si Si5 0.631912 0.601373 0.031564
Si Si6 0.568167 0.654778 0.203152
O O1 0.409592 0.170387 0.665326
O O2 0.578321 0.315372 0.756960
O O3 0.715097 0.163944 0.873698
O O4 0.516328 0.257214 0.823192
O O5 0.851109 0.500000 0.345227
O O6 0.742112 0.337883 0.281168
O O7 0.000000 0.383095 0.500000
O O8 0.016597 0.381124 0.393906
O O9 0.818099 0.886907 0.552467
O O10 0.624437 0.000000 0.387801
O O11 0.093605 0.899317 0.280660
O O12 0.965303 0.000000 0.282182
O O13 0.680074 0.500000 0.073105
O O14 0.500000 0.625822 0.000000
O O15 0.546771 0.609127 0.914994
#
# Coordination Sequence:
#
# PCOD9168675 Si02
#       6
#     8   8   8   8   8   8
#     4  10  21  32  49  74 106 137 171 205 251 307
#     4  10  16  26  47  75 103 131 162 201 251 300
#     4  10  18  31  50  78 110 136 167 210 256 300
#     4   9  18  30  50  74 104 138 168 204 246 296
#     4  11  22  37  55  76 103 132 164 211 266 313
#     4  10  20  31  48  72 107 133 169 201 245 305
#
# _framework density 16.914003000000001
#
# number of rings (size 3 to 8) (size 9 to 14) (size 15 to 20)
#    1.000    1.000    1.667    4.000    0.000    2.667 
#    0.000    0.000    0.000    0.500    0.000    7.000 
#    0.000   19.333    0.000    0.000    0.000    0.000 
#
# Total GULP energy -133639.350655 kJ/mol
# GULP energy per Si atom -5568.306277 kJ/mol
# Density = 1.687551 g / cm^3
# Si number density = 16.914003 Si / 1000 Ang^3
#
#
#
# Elastic Constant Matrix: (Units=GPa)
#
#
# Indices 1 2 3 4 5 6 
#
# 1 29.3214 15.1511 7.3123 0.0003 3.0574 0.0001
# 2 15.1511 72.9439 36.9922 0.0002 10.8545 -0.0001
# 3 7.3123 36.9922 70.5656 0.0006 3.0018 0.0000
# 4 0.0003 0.0002 0.0006 31.2684 0.0003 3.0199
# 5 3.0574 10.8545 3.0018 0.0003 24.3797 0.0000
# 6 0.0001 -0.0001 0.0000 3.0199 0.0000 17.9537
#
#
#
# Elastic Compliance Matrix: (Units=1/GPa)
#
#
# Indices 1 2 3 4 5 6 
#
# 1 0.038249 -0.007854 0.000210 0.000000 -0.001326 0.000000
# 2 -0.007854 0.021613 -0.010202 0.000000 -0.007382 0.000000
# 3 0.000210 -0.010202 0.019407 0.000000 0.002126 0.000000
# 4 0.000000 0.000000 0.000000 0.032509 0.000000 -0.005468
# 5 -0.001326 -0.007382 0.002126 0.000000 0.044209 0.000000
# 6 0.000000 0.000000 0.000000 -0.005468 0.000000 0.056619
#
#
# Mechanical properties :
#
#
# Convention : Reuss Voigt Hill
#
# Bulk Modulus (GPa) = 22.94783 32.41577 27.68180
# Shear Modulus (GPa) = 19.02422 22.27870 20.65146
#
# Velocity S-wave (km/s) = 3.35738 3.63323 3.49803
# Velocity P-wave (km/s) = 5.35034 6.06689 5.71985
#
# Compressibility (1/GPa) = 0.04357710
#
# Stress axis : x y z
#
# Youngs Moduli (GPa) = 26.14451 46.26911 51.52741
#
# Poissons Ratio (x) = 0.36339 -0.01082
# Poissons Ratio (y) = 0.20534 0.52568
# Poissons Ratio (z) = -0.00549 0.47204
#
# Static dielectric constant tensor:
#      x y z
#    x 1.565640 0.000000 -0.019130 
#    y 0.000000 1.597130 0.000000 
#    z -0.019130 0.000000 1.577250 
# 
# From -- ./inp_files/340223.got.cif
#   From: 2010.05.17/outbox.cif.g08.bks.cpg/sg12_171_cif.got.tgz:340223.got - 2010.06.03 13:09:07.
