data_PCOD9168815
_publ_section_title
;
Structure prediction by ZEFSAII (Michael W. Deem and Ramdas Pophale) SiO2 
 PCOD9168815
Probable space group: C 2/M
;
_chemical_formula_sum "Si O2"
_cell_formula_units_Z 56
_cell_length_a 28.955727
_cell_length_b 21.420920
_cell_length_c 18.126671
_cell_angle_alpha 90.000000
_cell_angle_beta 19.480631
_cell_angle_gamma 90.000000
_cell_volume 3749.480397
_symmetry_space_group_name_H-M "C 2/M"
_symmetry_group_IT_number 12
_symmetry_cell_setting 'monoclinic'
loop_
_space_group_symop_operation_xyz
x,y,z
-x,y,-z
-x,-y,-z
x,-y,z
1/2+x,1/2+y,z
1/2-x,1/2+y,-z
1/2-x,1/2-y,-z
1/2+x,1/2-y,z
loop_
_atom_site_type_symbol
_atom_site_label
_atom_site_fract_x
_atom_site_fract_y
_atom_site_fract_z
Si Si1 0.709881 0.573011 0.273405
Si Si2 0.643075 0.741294 0.947904
Si Si3 0.179735 0.341919 0.020587
Si Si4 0.662480 0.274867 0.563310
Si Si5 0.357893 0.147091 0.171165
Si Si6 0.595924 0.794518 0.520654
Si Si7 0.973807 0.826022 0.625303
O O1 0.685139 0.500000 0.304060
O O2 0.785430 0.601293 0.087109
O O3 0.803987 0.590933 0.201837
O O4 0.568099 0.612895 0.495188
O O5 0.676265 0.780799 0.971909
O O6 0.627308 0.794200 0.907743
O O7 0.770387 0.697449 0.732460
O O8 0.494939 0.708996 0.178698
O O9 0.310081 0.336024 0.878748
O O10 0.030566 0.342759 0.284213
O O11 0.750000 0.250000 0.500000
O O12 0.742829 0.330866 0.402825
O O13 0.648685 0.219337 0.523798
O O14 0.500000 0.135736 0.000000
O O15 0.529628 0.729334 0.591715
O O16 0.000000 0.808565 0.500000
#
# Coordination Sequence:
#
# PCOD9168815 Si02
#       7
#     8   8   8   8   8   8   8
#     4  10  20  33  46  68  97 127 164 197 229 279
#     4   9  16  27  40  67  96 121 148 185 232 287
#     4   9  18  28  45  66  92 125 153 190 234 281
#     4  10  17  25  44  66  92 128 151 190 235 288
#     4  10  17  29  45  64  95 125 155 188 237 279
#     4  10  17  28  43  66  96 122 151 190 239 289
#     4  10  16  29  45  65  93 125 152 190 237 281
#
# _framework density 14.935402
#
# number of rings (size 3 to 8) (size 9 to 14) (size 15 to 20)
#    0.000    2.286    7.143    0.429    0.000    2.857 
#    0.000    0.000    0.000    0.000    0.000    1.000 
#    0.000    2.857    0.000    0.000    0.000    0.000 
#
# Total GULP energy -155903.103653 kJ/mol
# GULP energy per Si atom -5567.967988 kJ/mol
# Density = 1.490141 g / cm^3
# Si number density = 14.935402 Si / 1000 Ang^3
#
#
#
# Elastic Constant Matrix: (Units=GPa)
#
#
# Indices 1 2 3 4 5 6 
#
# 1 61.9502 20.9055 24.0910 -0.0004 -17.7201 0.0001
# 2 20.9055 51.4704 25.1476 -0.0024 -5.8101 0.0011
# 3 24.0910 25.1476 123.3582 -0.0031 -16.4562 0.0016
# 4 -0.0004 -0.0024 -0.0031 11.8806 0.0009 0.8308
# 5 -17.7201 -5.8101 -16.4562 0.0009 25.7350 -0.0005
# 6 0.0001 0.0011 0.0016 0.8308 -0.0005 6.1992
#
#
#
# Elastic Compliance Matrix: (Units=1/GPa)
#
#
# Indices 1 2 3 4 5 6 
#
# 1 0.022854 -0.007181 -0.001220 -0.000002 0.013335 0.000002
# 2 -0.007181 0.023954 -0.003738 0.000004 -0.001927 -0.000004
# 3 -0.001220 -0.003738 0.009710 0.000001 0.004525 -0.000002
# 4 -0.000002 0.000004 0.000001 0.084967 -0.000003 -0.011387
# 5 0.013335 -0.001927 0.004525 -0.000003 0.050498 0.000003
# 6 0.000002 -0.000004 -0.000002 -0.011387 0.000003 0.162836
#
#
# Mechanical properties :
#
#
# Convention : Reuss Voigt Hill
#
# Bulk Modulus (GPa) = 31.01733 41.89636 36.45684
# Shear Modulus (GPa) = 12.82561 19.87195 16.34878
#
# Velocity S-wave (km/s) = 2.93360 3.65160 3.31211
# Velocity P-wave (km/s) = 5.68220 6.77432 6.25216
#
# Compressibility (1/GPa) = 0.03224005
#
# Stress axis : x y z
#
# Youngs Moduli (GPa) = 43.75576 41.74655 102.98155
#
# Poissons Ratio (x) = 0.29978 0.12569
# Poissons Ratio (y) = 0.31421 0.38493
# Poissons Ratio (z) = 0.05340 0.15604
#
# Static dielectric constant tensor:
#      x y z
#    x 1.517590 0.000000 -0.004150 
#    y 0.000000 1.453470 0.000000 
#    z -0.004150 0.000000 1.550480 
# 
# From -- ./inp_files/184903.got.cif
#   From: 2010.05.17/outbox.cif.g08.bks.cpg/sg12_93_cif.got.tgz:184903.got - 2010.06.03 13:09:07.
