data_PCOD9168799
_publ_section_title
;
Structure prediction by ZEFSAII (Michael W. Deem and Ramdas Pophale) SiO2 
 PCOD9168799
Probable space group: C 2/M
;
_chemical_formula_sum "Si O2"
_cell_formula_units_Z 48
_cell_length_a 17.702929
_cell_length_b 14.988015
_cell_length_c 20.643211
_cell_angle_alpha 90.000000
_cell_angle_beta 22.749518
_cell_angle_gamma 90.000000
_cell_volume 2118.089309
_symmetry_space_group_name_H-M "C 2/M"
_symmetry_group_IT_number 12
_symmetry_cell_setting 'monoclinic'
loop_
_space_group_symop_operation_xyz
x,y,z
-x,y,-z
-x,-y,-z
x,-y,z
1/2+x,1/2+y,z
1/2-x,1/2+y,-z
1/2-x,1/2-y,-z
1/2+x,1/2-y,z
loop_
_atom_site_type_symbol
_atom_site_label
_atom_site_fract_x
_atom_site_fract_y
_atom_site_fract_z
Si Si1 0.832909 0.307716 0.376102
Si Si2 0.764287 0.265861 0.194495
Si Si3 0.224211 0.398457 0.699495
Si Si4 0.743066 0.095207 0.907583
Si Si5 0.824245 0.394849 0.810718
Si Si6 0.588765 0.324955 0.107975
O O1 0.750000 0.250000 0.500000
O O2 0.717339 0.374054 0.420179
O O3 0.002566 0.366035 0.276860
O O4 0.896985 0.230936 0.273719
O O5 0.714607 0.324404 0.296546
O O6 0.700078 0.324089 0.183191
O O7 0.675459 0.168220 0.252759
O O8 0.000000 0.262421 0.000000
O O9 0.278870 0.500000 0.672942
O O10 0.984511 0.396743 0.891804
O O11 0.875134 0.100598 0.866659
O O12 0.762197 0.000000 0.858642
O O13 0.827003 0.500000 0.796452
O O14 0.632066 0.364579 0.003816
O O15 0.750000 0.250000 0.000000
#
# Coordination Sequence:
#
# PCOD9168799 Si02
#       6
#     8   8   8   8   8   8
#     4  11  22  38  61  85 120 161 199 248 301 355
#     4  10  19  33  55  90 123 151 190 246 305 353
#     4  10  19  34  58  87 118 152 190 238 299 362
#     4  10  16  28  54  86 116 145 187 239 292 346
#     4  11  21  38  64  87 116 159 203 246 300 363
#     4  10  16  32  56  86 114 149 192 244 292 340
#
# _framework density 22.661932
#
# number of rings (size 3 to 8) (size 9 to 14) (size 15 to 20)
#    0.000    1.667    6.667    2.500    0.000    2.333 
#    0.000    4.167    0.000    4.000    0.000    0.000 
#    0.000    0.000    0.000    0.000    0.000    0.000 
#
# Total GULP energy -133932.562611 kJ/mol
# GULP energy per Si atom -5580.523442 kJ/mol
# Density = 2.261035 g / cm^3
# Si number density = 22.661932 Si / 1000 Ang^3
#
#
#
# Elastic Constant Matrix: (Units=GPa)
#
#
# Indices 1 2 3 4 5 6 
#
# 1 88.6981 54.9971 17.6285 -0.0027 23.7019 0.0012
# 2 54.9971 203.2599 35.5986 0.0023 24.6376 -0.0051
# 3 17.6285 35.5986 41.1149 -0.0073 13.1695 0.0081
# 4 -0.0027 0.0023 -0.0073 12.6472 0.0045 4.9886
# 5 23.7019 24.6376 13.1695 0.0045 30.0290 -0.0023
# 6 0.0012 -0.0051 0.0081 4.9886 -0.0023 31.6412
#
#
#
# Elastic Compliance Matrix: (Units=1/GPa)
#
#
# Indices 1 2 3 4 5 6 
#
# 1 0.015898 -0.002925 -0.001202 0.000008 -0.009621 -0.000003
# 2 -0.002925 0.006575 -0.004014 -0.000005 -0.001325 0.000003
# 3 -0.001202 -0.004014 0.031360 0.000027 -0.009511 -0.000014
# 4 0.000008 -0.000005 0.000027 0.084312 -0.000028 -0.013293
# 5 -0.009621 -0.001325 -0.009511 -0.000028 0.046154 0.000010
# 6 -0.000003 0.000003 -0.000014 -0.013293 0.000010 0.033700
#
#
# Mechanical properties :
#
#
# Convention : Reuss Voigt Hill
#
# Bulk Modulus (GPa) = 26.63135 61.05789 43.84462
# Shear Modulus (GPa) = 20.25960 29.85339 25.05650
#
# Velocity S-wave (km/s) = 2.99321 3.63345 3.32876
# Velocity P-wave (km/s) = 4.87061 6.67863 5.84495
#
# Compressibility (1/GPa) = 0.03754972
#
# Stress axis : x y z
#
# Youngs Moduli (GPa) = 62.90269 152.09431 31.88826
#
# Poissons Ratio (x) = 0.44484 0.03834
# Poissons Ratio (y) = 0.18397 0.12800
# Poissons Ratio (z) = 0.07562 0.61053
#
# Static dielectric constant tensor:
#      x y z
#    x 1.892430 0.000000 -0.037480 
#    y 0.000000 1.876270 0.000010 
#    z -0.037480 0.000010 1.942070 
# 
# From -- ./inp_files/73652.got.cif
#   From: 2010.05.17/outbox.cif.g08.bks.cpg/sg12_37_cif.got.tgz:73652.got - 2010.06.03 13:09:07.
