data_PCOD9168103
_publ_section_title
;
Structure prediction by ZEFSAII (Michael W. Deem and Ramdas Pophale) SiO2 
 PCOD9168103
Probable space group: P 21/M
;
_chemical_formula_sum "Si O2"
_cell_formula_units_Z 32
_cell_length_a 15.000000
_cell_length_b 21.000000
_cell_length_c 15.000000
_cell_angle_alpha 90.000000
_cell_angle_beta 20.000000
_cell_angle_gamma 90.000000
_cell_volume 1616.045177
_symmetry_space_group_name_H-M "P 21/M"
_symmetry_group_IT_number 11
_symmetry_cell_setting 'monoclinic'
loop_
_space_group_symop_operation_xyz
x,y,z
-x,1/2+y,-z
-x,-y,-z
x,1/2-y,z
loop_
_atom_site_type_symbol
_atom_site_label
_atom_site_fract_x
_atom_site_fract_y
_atom_site_fract_z
Si Si1 0.092803 0.122902 0.582549
Si Si2 0.631771 0.500982 0.603514
Si Si3 0.546430 0.899169 0.533081
Si Si4 0.322070 0.322828 0.049858
Si Si5 0.002206 0.424443 0.016533
Si Si6 0.863849 0.176013 0.624788
Si Si7 0.623178 0.323197 0.136515
Si Si8 0.134315 0.075145 0.092004
O O1 0.220975 0.054509 0.477774
O O2 0.938137 0.132824 0.637639
O O3 0.352121 0.167430 0.336751
O O4 0.875248 0.138770 0.862608
O O5 0.574478 0.535219 0.562772
O O6 0.355316 0.478581 0.901051
O O7 0.844363 0.446213 0.391174
O O8 0.817410 0.891165 0.227359
O O9 0.469164 0.847974 0.680319
O O10 0.297253 0.903347 0.703886
O O11 0.361580 0.250000 0.985421
O O12 0.224580 0.364209 0.060539
O O13 0.596889 0.345737 0.830436
O O14 0.100814 0.325216 0.333093
O O15 0.130556 0.413167 0.990671
O O16 0.000000 0.500000 0.000000
O O17 0.827539 0.250000 0.689002
O O18 0.698242 0.250000 0.066015
#
# Coordination Sequence:
#
# PCOD9168103 Si02
#       8
#     4   4   4   4   4   4   4   4
#     4  11  22  37  61  91 120 153 199 239 290 353
#     4  11  21  37  57  88 123 151 186 241 300 354
#     4  11  21  37  55  88 119 150 194 244 284 339
#     4  10  23  42  61  84 114 152 199 251 295 340
#     4  12  21  36  61  88 112 149 206 242 283 346
#     4  10  20  39  64  85 112 152 204 246 282 346
#     4  11  22  37  58  86 127 161 188 234 302 361
#     4  12  23  38  61  85 116 156 197 244 302 352
#
# _framework density 19.801427
#
# number of rings (size 3 to 8) (size 9 to 14) (size 15 to 20)
#    0.000    1.000    2.500    6.750    0.000    1.000 
#    0.000    5.000    0.000    0.000    0.000    0.000 
#    0.000    0.000    0.000    0.000    0.000    0.000 
#
# Total GULP energy -178715.099296 kJ/mol
# GULP energy per Si atom -5584.846853 kJ/mol
# Density = 1.975636 g / cm^3
# Si number density = 19.801427 Si / 1000 Ang^3
#
#
#
# Elastic Constant Matrix: (Units=GPa)
#
#
# Indices 1 2 3 4 5 6 
#
# 1 111.5623 47.2525 20.4489 0.0000 -13.3732 0.0000
# 2 47.2525 32.9538 0.0426 0.0000 -4.6377 0.0000
# 3 20.4489 0.0426 77.2263 0.0000 -22.2607 0.0000
# 4 0.0000 0.0000 0.0000 244.7012 0.0000 -646.7646
# 5 -13.3732 -4.6377 -22.2607 0.0000 26.7636 0.0000
# 6 0.0000 0.0000 0.0000 -646.7646 0.0000 2011.3461
#
#
#
# Elastic Compliance Matrix: (Units=1/GPa)
#
#
# Indices 1 2 3 4 5 6 
#
# 1 0.026050 -0.037186 -0.006554 0.000000 0.001121 0.000000
# 2 -0.037186 0.084430 0.011393 0.000000 0.005525 0.000000
# 3 -0.006554 0.011393 0.018814 0.000000 0.014348 0.000000
# 4 0.000000 0.000000 0.000000 0.027227 0.000000 0.008755
# 5 0.001121 0.005525 0.014348 0.000000 0.050816 0.000000
# 6 0.000000 0.000000 0.000000 0.008755 0.000000 0.003312
#
#
# Mechanical properties :
#
#
# Convention : Reuss Voigt Hill
#
# Bulk Modulus (GPa) = 15.48031 39.69224 27.58628
# Shear Modulus (GPa) = 16.84203 466.82876 241.83540
#
# Velocity S-wave (km/s) = 2.91958 15.37098 11.06325
# Velocity P-wave (km/s) = 4.38178 18.30604 13.30998
#
# Compressibility (1/GPa) = 0.06459818
#
# Stress axis : x y z
#
# Youngs Moduli (GPa) = 38.38811 11.84414 53.15215
#
# Poissons Ratio (x) = 0.44044 0.34836
# Poissons Ratio (y) = 1.42752 -0.60555
# Poissons Ratio (z) = 0.25160 -0.13494
#
# Static dielectric constant tensor:
#      x y z
#    x 1.707520 0.000000 -0.002200 
#    y 0.000000 1.678970 0.000000 
#    z -0.002200 0.000000 1.687390 
# 
# From -- ./inp_files/52705.got.cif
#   From: 2010.05.17/outbox.ucp.g08.bks.cvg/sg11_27_cif.got.tgz:52705.got - 2010.06.11 11:38:39.
