data_PCOD9168295
_publ_section_title
;
Structure prediction by ZEFSAII (Michael W. Deem and Ramdas Pophale) SiO2 
 PCOD9168295
Probable space group: C 2/M
;
_chemical_formula_sum "Si O2"
_cell_formula_units_Z 48
_cell_length_a 25.118528
_cell_length_b 16.612789
_cell_length_c 7.679083
_cell_angle_alpha 90.000000
_cell_angle_beta 32.332374
_cell_angle_gamma 90.000000
_cell_volume 1713.806344
_symmetry_space_group_name_H-M "C 2/M"
_symmetry_group_IT_number 12
_symmetry_cell_setting 'monoclinic'
loop_
_space_group_symop_operation_xyz
x,y,z
-x,y,-z
-x,-y,-z
x,-y,z
1/2+x,1/2+y,z
1/2-x,1/2+y,-z
1/2-x,1/2-y,-z
1/2+x,1/2-y,z
loop_
_atom_site_type_symbol
_atom_site_label
_atom_site_fract_x
_atom_site_fract_y
_atom_site_fract_z
Si Si1 0.067343 0.330918 0.644732
Si Si2 0.452801 0.500000 0.937608
Si Si3 0.709504 0.327798 0.822083
Si Si4 0.585621 0.000000 0.405046
Si Si5 0.211605 0.500000 0.654816
Si Si6 0.760074 0.657623 0.277215
Si Si7 0.765852 0.000000 0.131977
Si Si8 0.554343 0.342838 0.663200
O O1 0.178561 0.321119 0.413600
O O2 0.063218 0.413223 0.554992
O O3 0.042442 0.246206 0.619626
O O4 0.000000 0.338637 0.000000
O O5 0.499360 0.418580 0.729615
O O6 0.500000 0.500000 0.000000
O O7 0.334099 0.500000 0.302574
O O8 0.711658 0.331836 0.605366
O O9 0.676473 0.235870 0.947081
O O10 0.678248 0.414357 0.989574
O O11 0.500000 0.000000 0.500000
O O12 0.706657 0.000000 0.115852
O O13 0.178636 0.577271 0.853942
O O14 0.187855 0.500000 0.515191
O O15 0.670462 0.643636 0.389497
O O16 0.500000 0.335208 0.000000
#
# Coordination Sequence:
#
# PCOD9168295 Si02
#       8
#     8   4   8   4   4   8   4   8
#     4   9  17  28  43  63  89 114 139 182 220 261
#     4  10  14  20  32  60  90 119 140 162 202 261
#     4   8  15  22  34  51  80 112 143 165 210 250
#     4  10  19  33  48  63  80 109 153 192 221 257
#     4  10  14  20  35  53  87 113 140 165 209 249
#     4   9  13  20  30  50  81 118 140 166 198 252
#     4   8  16  27  37  56  77 105 143 184 207 254
#     4   9  14  21  34  58  93 120 140 165 210 256
#
# _framework density 28.007832000000001
#
# number of rings (size 3 to 8) (size 9 to 14) (size 15 to 20)
#    0.000    3.000    3.333    0.250    0.000    0.000 
#    0.000    0.000    0.000    0.000    0.000    1.750 
#    0.000    0.000    0.000    0.000    0.000    0.000 
#
# Total GULP energy -134010.784927 kJ/mol
# GULP energy per Si atom -5583.782705 kJ/mol
# Density = 2.794408 g / cm^3
# Si number density = 28.007832 Si / 1000 Ang^3
#
#
#
# Elastic Constant Matrix: (Units=GPa)
#
#
# Indices 1 2 3 4 5 6 
#
# 1 158.7489 41.5082 35.6488 0.0000 -12.8262 0.0000
# 2 41.5082 293.9129 25.4533 0.0000 -4.6321 0.0000
# 3 35.6488 25.4533 81.9286 0.0000 -0.5987 0.0000
# 4 0.0000 0.0000 0.0000 -3.9134 0.0000 -4.3330
# 5 -12.8262 -4.6321 -0.5987 0.0000 34.7749 0.0000
# 6 0.0000 0.0000 0.0000 -4.3330 0.0000 31.9659
#
#
#
# Elastic Compliance Matrix: (Units=1/GPa)
#
#
# Indices 1 2 3 4 5 6 
#
# 1 0.007365 -0.000744 -0.002955 0.000000 0.002566 0.000000
# 2 -0.000744 0.003579 -0.000787 0.000000 0.000189 0.000000
# 3 -0.002955 -0.000787 0.013729 0.000000 -0.000958 0.000000
# 4 0.000000 0.000000 0.000000 -0.222187 0.000000 -0.030117
# 5 0.002566 0.000189 -0.000958 0.000000 0.029712 0.000000
# 6 0.000000 0.000000 0.000000 -0.030117 0.000000 0.027201
#
#
# Mechanical properties :
#
#
# Convention : Reuss Voigt Hill
#
# Bulk Modulus (GPa) = 63.68792 82.20122 72.94457
# Shear Modulus (GPa) = -39.55752 41.36415 0.90331
#
# Velocity S-wave (km/s) = -3.76223 3.84719 0.56853
# Velocity P-wave (km/s) = 1.97893 7.01053 5.15091
#
# Compressibility (1/GPa) = 0.01570156
#
# Stress axis : x y z
#
# Youngs Moduli (GPa) = 135.78522 279.44548 72.83958
#
# Poissons Ratio (x) = 0.20784 0.21522
# Poissons Ratio (y) = 0.10099 0.05731
# Poissons Ratio (z) = 0.40120 0.21986
#
# Static dielectric constant tensor:
#      x y z
#    x 2.213170 0.000000 0.112050 
#    y 0.000000 2.363700 0.000000 
#    z 0.112050 0.000000 2.261950 
# 
# From -- ./inp_files/97615.got.cif
#   From: 2010.05.17/outbox.cif.g08.bks.cpg/sg12_49_cif.got.tgz:97615.got - 2010.06.03 13:09:07.
