data_PCOD9168098
_publ_section_title
;
Structure prediction by ZEFSAII (Michael W. Deem and Ramdas Pophale) SiO2 
 PCOD9168098
Probable space group: P 21/M
;
_chemical_formula_sum "Si O2"
_cell_formula_units_Z 32
_cell_length_a 30.000000
_cell_length_b 9.000000
_cell_length_c 12.000000
_cell_angle_alpha 90.000000
_cell_angle_beta 30.000000
_cell_angle_gamma 90.000000
_cell_volume 1620.000000
_symmetry_space_group_name_H-M "P 21/M"
_symmetry_group_IT_number 11
_symmetry_cell_setting 'monoclinic'
loop_
_space_group_symop_operation_xyz
x,y,z
-x,1/2+y,-z
-x,-y,-z
x,1/2-y,z
loop_
_atom_site_type_symbol
_atom_site_label
_atom_site_fract_x
_atom_site_fract_y
_atom_site_fract_z
Si Si1 0.783536 0.572648 0.048119
Si Si2 0.630924 0.424024 0.513604
Si Si3 0.150453 0.071457 0.727720
Si Si4 0.657346 0.426119 0.710394
Si Si5 0.563900 0.571503 0.123439
Si Si6 0.885253 0.570140 0.440082
Si Si7 0.072487 0.928191 0.120650
Si Si8 0.281131 0.430615 0.055483
O O1 0.793831 0.750000 0.023910
O O2 0.710711 0.524490 0.297256
O O3 0.875105 0.498301 0.889686
O O4 0.746975 0.520755 0.007026
O O5 0.655282 0.250000 0.445662
O O6 0.613747 0.444704 0.682513
O O7 0.540965 0.456850 0.641151
O O8 0.143975 0.250000 0.755201
O O9 0.103589 0.024619 0.712765
O O10 0.252064 0.020570 0.490466
O O11 0.114313 0.990039 0.915122
O O12 0.675738 0.250000 0.684601
O O13 0.600214 0.487281 0.936267
O O14 0.574998 0.750000 0.082242
O O15 0.623076 0.527046 0.101934
O O16 0.881432 0.750000 0.445328
O O17 0.793386 0.518663 0.694247
O O18 0.968725 0.529789 0.335948
O O19 0.080876 0.750000 0.104822
O O20 0.279323 0.250000 0.056664
#
# Coordination Sequence:
#
# PCOD9168098 Si02
#       8
#     4   4   4   4   4   4   4   4
#     4  11  23  38  59  82 110 152 197 240 281 334
#     4  10  22  38  58  85 118 152 186 232 288 338
#     4  11  20  35  61  87 113 152 191 225 278 347
#     4  11  21  34  55  87 123 152 181 230 284 335
#     4  10  20  38  63  85 112 153 192 231 282 342
#     4   9  19  36  60  86 114 149 186 232 288 338
#     4  11  22  37  58  85 118 150 184 236 290 336
#     4   9  19  38  60  83 110 146 197 242 280 331
#
# _framework density 19.753086
#
# number of rings (size 3 to 8) (size 9 to 14) (size 15 to 20)
#    0.000    1.750    2.500    2.250    0.000    2.000 
#    0.000    3.125    0.000    0.000    0.000    0.000 
#    0.000    0.000    0.000    0.000    0.000    0.000 
#
# Total GULP energy -178667.553419 kJ/mol
# GULP energy per Si atom -5583.361044 kJ/mol
# Density = 1.970813 g / cm^3
# Si number density = 19.753086 Si / 1000 Ang^3
#
#
#
# Elastic Constant Matrix: (Units=GPa)
#
#
# Indices 1 2 3 4 5 6 
#
# 1 144.1344 23.1157 9.4876 0.0000 -19.7361 0.0000
# 2 23.1157 37.3567 1.1477 0.0000 -10.2080 0.0000
# 3 9.4876 1.1477 12.1224 0.0000 -15.8058 0.0000
# 4 0.0000 0.0000 0.0000 14.3917 0.0000 -4.2750
# 5 -19.7361 -10.2080 -15.8058 0.0000 33.3158 0.0000
# 6 0.0000 0.0000 0.0000 -4.2750 0.0000 20.2271
#
#
#
# Elastic Compliance Matrix: (Units=1/GPa)
#
#
# Indices 1 2 3 4 5 6 
#
# 1 0.008129 -0.004462 -0.003785 0.000000 0.001653 0.000000
# 2 -0.004462 0.034423 0.027630 0.000000 0.021012 0.000000
# 3 -0.003785 0.027630 0.238456 0.000000 0.119353 0.000000
# 4 0.000000 0.000000 0.000000 0.074139 0.000000 0.015669
# 5 0.001653 0.021012 0.119353 0.000000 0.094057 0.000000
# 6 0.000000 0.000000 0.000000 0.015669 0.000000 0.052750
#
#
# Mechanical properties :
#
#
# Convention : Reuss Voigt Hill
#
# Bulk Modulus (GPa) = 3.12720 29.01282 16.07001
# Shear Modulus (GPa) = 8.77533 24.24442 16.50987
#
# Velocity S-wave (km/s) = 2.11001 3.50719 2.89418
# Velocity P-wave (km/s) = 2.74277 5.57854 4.39562
#
# Compressibility (1/GPa) = 0.31977460
#
# Stress axis : x y z
#
# Youngs Moduli (GPa) = 123.01563 29.05039 4.19364
#
# Poissons Ratio (x) = 0.12963 0.01587
# Poissons Ratio (y) = 0.54892 -0.11587
# Poissons Ratio (z) = 0.46557 -0.80266
#
# Static dielectric constant tensor:
#      x y z
#    x 1.726850 0.000000 -0.022390 
#    y 0.000000 1.662240 0.000000 
#    z -0.022390 0.000000 1.686110 
# 
# From -- ./inp_files/42891.got.cif
#   From: 2010.05.17/outbox.ucp.g08.bks.cvg/sg11_22_cif.got.tgz:42891.got - 2010.06.11 11:38:39.
