data_PCOD9168736
_publ_section_title
;
Structure prediction by ZEFSAII (Michael W. Deem and Ramdas Pophale) SiO2 
 PCOD9168736
Probable space group: C 2/M
;
_chemical_formula_sum "Si O2"
_cell_formula_units_Z 64
_cell_length_a 18.986300
_cell_length_b 21.039452
_cell_length_c 9.297700
_cell_angle_alpha 90.000000
_cell_angle_beta 101.795167
_cell_angle_gamma 90.000000
_cell_volume 3635.647789
_symmetry_space_group_name_H-M "C 2/M"
_symmetry_group_IT_number 12
_symmetry_cell_setting 'monoclinic'
loop_
_space_group_symop_operation_xyz
x,y,z
-x,y,-z
-x,-y,-z
x,-y,z
1/2+x,1/2+y,z
1/2-x,1/2+y,-z
1/2-x,1/2-y,-z
1/2+x,1/2-y,z
loop_
_atom_site_type_symbol
_atom_site_label
_atom_site_fract_x
_atom_site_fract_y
_atom_site_fract_z
Si Si1 0.330660 0.928401 0.532842
Si Si2 0.476226 0.207971 0.323832
Si Si3 0.719203 0.626276 0.285513
Si Si4 0.787987 0.427912 0.041495
Si Si5 0.569677 0.928569 0.702843
Si Si6 0.825903 0.252820 0.361266
Si Si7 0.297813 0.163441 0.775911
Si Si8 0.385539 0.728122 0.708317
O O1 0.254325 0.920313 0.417814
O O2 0.392670 0.918236 0.438015
O O3 0.330647 0.878781 0.661238
O O4 0.338012 0.000000 0.589639
O O5 0.500000 0.210212 0.500000
O O6 0.477576 0.133275 0.282928
O O7 0.394646 0.233170 0.290751
O O8 0.531336 0.252978 0.263427
O O9 0.730430 0.594855 0.135745
O O10 0.772947 0.687152 0.322582
O O11 0.640909 0.656371 0.276866
O O12 0.773498 0.500000 0.987250
O O13 0.863855 0.428456 0.158571
O O14 0.792389 0.378773 0.914211
O O15 0.537196 0.000000 0.690950
O O16 0.780017 0.191090 0.301044
O O17 0.851649 0.246295 0.537202
O O18 0.348238 0.225339 0.808271
#
# Coordination Sequence:
#
# PCOD9168736 Si02
#       8
#     8   8   8   8   8   8   8   8
#     4  10  16  27  52  76  97 131 171 207 248 299
#     4  10  18  31  50  77 103 135 171 207 253 304
#     4  10  16  33  52  73 101 130 171 212 258 293
#     4  10  21  34  52  76 105 137 172 209 252 306
#     4   9  18  34  51  71 105 142 173 203 240 299
#     4  10  17  31  53  75 104 133 163 217 261 298
#     4  11  19  32  50  75 106 131 166 219 260 294
#     4  10  19  30  52  78 103 130 169 219 251 300
#
# _framework density 17.603465
#
# number of rings (size 3 to 8) (size 9 to 14) (size 15 to 20)
#    0.000    2.000    5.000    3.000    0.000    2.250 
#    0.000    1.875    0.000    1.500    0.000    5.250 
#    0.000    0.000    0.000    0.000    0.000    0.000 
#
# Total GULP energy -178452.074774 kJ/mol
# GULP energy per Si atom -5576.627337 kJ/mol
# Density = 1.756340 g / cm^3
# Si number density = 17.603465 Si / 1000 Ang^3
#
#
#
# Elastic Constant Matrix: (Units=GPa)
#
#
# Indices 1 2 3 4 5 6 
#
# 1 71.1326 13.9131 -8.0886 0.0000 -3.0377 0.0000
# 2 13.9131 35.8386 1.5002 0.0000 5.0642 0.0000
# 3 -8.0886 1.5002 26.9975 0.0000 -0.2792 0.0000
# 4 0.0000 0.0000 0.0000 23.2515 0.0000 -3.4569
# 5 -3.0377 5.0642 -0.2792 0.0000 7.4232 0.0000
# 6 0.0000 0.0000 0.0000 -3.4569 0.0000 28.3339
#
#
#
# Elastic Compliance Matrix: (Units=1/GPa)
#
#
# Indices 1 2 3 4 5 6 
#
# 1 0.016960 -0.008669 0.005698 0.000000 0.013069 0.000000
# 2 -0.008669 0.035412 -0.004854 0.000000 -0.027889 0.000000
# 3 0.005698 -0.004854 0.039091 0.000000 0.007113 0.000000
# 4 0.000000 0.000000 0.000000 0.043802 0.000000 0.005344
# 5 0.013069 -0.027889 0.007113 0.000000 0.159354 0.000000
# 6 0.000000 0.000000 0.000000 0.005344 0.000000 0.035945
#
#
# Mechanical properties :
#
#
# Convention : Reuss Voigt Hill
#
# Bulk Modulus (GPa) = 13.19022 16.51314 14.85168
# Shear Modulus (GPa) = 13.45945 20.24466 16.85206
#
# Velocity S-wave (km/s) = 2.76812 3.39490 3.09741
# Velocity P-wave (km/s) = 4.21021 4.97676 4.60945
#
# Compressibility (1/GPa) = 0.07581377
#
# Stress axis : x y z
#
# Youngs Moduli (GPa) = 58.96242 28.23868 25.58135
#
# Poissons Ratio (x) = 0.24481 -0.14577
# Poissons Ratio (y) = 0.51116 0.12416
# Poissons Ratio (z) = -0.33598 0.13706
#
# Static dielectric constant tensor:
#      x y z
#    x 1.638870 0.000000 -0.000080 
#    y 0.000000 1.624400 0.000000 
#    z -0.000080 0.000000 1.605370 
# 
# From -- ./inp_files/89173.got.cif
#   From: 2010.05.17/outbox.cif.g08.bks.cpg/sg12_45_cif.got.tgz:89173.got - 2010.06.03 13:09:07.
