data_PCOD9168641
_publ_section_title
;
Structure prediction by ZEFSAII (Michael W. Deem and Ramdas Pophale) SiO2 
 PCOD9168641
Probable space group: C 2/M
;
_chemical_formula_sum "Si O2"
_cell_formula_units_Z 40
_cell_length_a 14.433570
_cell_length_b 13.222351
_cell_length_c 25.157740
_cell_angle_alpha 90.000000
_cell_angle_beta 20.529992
_cell_angle_gamma 90.000000
_cell_volume 1683.786084
_symmetry_space_group_name_H-M "C 2/M"
_symmetry_group_IT_number 12
_symmetry_cell_setting 'monoclinic'
loop_
_space_group_symop_operation_xyz
x,y,z
-x,y,-z
-x,-y,-z
x,-y,z
1/2+x,1/2+y,z
1/2-x,1/2+y,-z
1/2-x,1/2-y,-z
1/2+x,1/2-y,z
loop_
_atom_site_type_symbol
_atom_site_label
_atom_site_fract_x
_atom_site_fract_y
_atom_site_fract_z
Si Si1 0.635486 0.164530 0.985843
Si Si2 0.231548 0.106316 0.919203
Si Si3 0.169748 0.797703 0.303614
Si Si4 0.611304 0.822899 0.631192
Si Si5 0.288432 0.658976 0.339070
O O1 0.695305 0.284399 0.965016
O O2 0.925036 0.113827 0.830315
O O3 0.500000 0.155975 0.000000
O O4 0.409240 0.139618 0.149827
O O5 0.489587 0.111594 0.743292
O O6 0.223536 0.000000 0.954161
O O7 0.000000 0.103659 0.000000
O O8 0.238174 0.746922 0.322658
O O9 0.894521 0.857046 0.458174
O O10 0.094406 0.703597 0.304755
O O11 0.655252 0.713410 0.635167
O O12 0.000000 0.607660 0.500000
#
# Coordination Sequence:
#
# PCOD9168641 Si02
#       5
#     8   8   8   8   8
#     4  10  16  28  41  63  90 118 144 176 215 263
#     4   9  15  26  43  61  89 121 145 176 216 259
#     4  10  16  26  43  58  88 125 139 179 221 261
#     4   9  17  28  40  64  91 115 144 182 219 260
#     4   9  17  26  40  60  85 117 142 173 216 261
#
# _framework density 23.755987000000001
#
# number of rings (size 3 to 8) (size 9 to 14) (size 15 to 20)
#    0.000    2.600    6.000    0.600    0.000    0.000 
#    0.000    0.000    0.000   38.400    0.000    0.000 
#    0.000   53.600    0.000    3.200    0.000    0.200 
#
# Total GULP energy -111374.121817 kJ/mol
# GULP energy per Si atom -5568.706091 kJ/mol
# Density = 2.370192 g / cm^3
# Si number density = 23.755987 Si / 1000 Ang^3
#
#
#
# Elastic Constant Matrix: (Units=GPa)
#
#
# Indices 1 2 3 4 5 6 
#
# 1 83.0561 -3.3320 14.5484 -0.0078 -5.8769 0.0020
# 2 -3.3320 70.3109 10.2912 -0.0309 -4.5709 0.0074
# 3 14.5484 10.2912 253.6615 -0.1610 -6.8555 0.0548
# 4 -0.0078 -0.0309 -0.1610 -24.2957 0.0022 15.0351
# 5 -5.8769 -4.5709 -6.8555 0.0022 40.7082 0.0124
# 6 0.0020 0.0074 0.0548 15.0351 0.0124 -8.3164
#
#
#
# Elastic Compliance Matrix: (Units=1/GPa)
#
#
# Indices 1 2 3 4 5 6 
#
# 1 0.012317 0.000799 -0.000692 -0.000007 0.001751 -0.000011
# 2 0.000799 0.014453 -0.000588 0.000063 0.001639 0.000125
# 3 -0.000692 -0.000588 0.004020 0.000077 0.000511 0.000166
# 4 -0.000007 0.000063 0.000077 0.346477 -0.000190 0.626394
# 5 0.001751 0.001639 0.000511 -0.000190 0.025088 -0.000301
# 6 -0.000011 0.000125 0.000166 0.626394 -0.000301 1.012209
#
#
# Mechanical properties :
#
#
# Convention : Reuss Voigt Hill
#
# Bulk Modulus (GPa) = 33.52491 50.00486 41.76488
# Shear Modulus (GPa) = 3.50762 27.32061 15.41411
#
# Velocity S-wave (km/s) = 1.21644 3.39492 2.55002
# Velocity P-wave (km/s) = 4.01445 6.03841 5.12729
#
# Compressibility (1/GPa) = 0.02982857
#
# Stress axis : x y z
#
# Youngs Moduli (GPa) = 81.18758 69.18970 248.78116
#
# Poissons Ratio (x) = -0.05527 0.17203
# Poissons Ratio (y) = -0.06485 0.14625
# Poissons Ratio (z) = 0.05614 0.04067
#
# Static dielectric constant tensor:
#      x y z
#    x 1.882450 0.000000 -0.005470 
#    y 0.000000 1.874220 0.000030 
#    z -0.005470 0.000030 2.024400 
# 
# From -- ./inp_files/144409.got.cif
#   From: 2010.05.17/outbox.cif.g08.bks.cpg/sg12_73_cif.got.tgz:144409.got - 2010.06.03 13:09:07.
