data_PCOD9168340
_publ_section_title
;
Structure prediction by ZEFSAII (Michael W. Deem and Ramdas Pophale) SiO2 
 PCOD9168340
Probable space group: C 2/M
;
_chemical_formula_sum "Si O2"
_cell_formula_units_Z 44
_cell_length_a 13.134684
_cell_length_b 23.585445
_cell_length_c 11.558129
_cell_angle_alpha 90.000000
_cell_angle_beta 30.921476
_cell_angle_gamma 90.000000
_cell_volume 1839.917945
_symmetry_space_group_name_H-M "C 2/M"
_symmetry_group_IT_number 12
_symmetry_cell_setting 'monoclinic'
loop_
_space_group_symop_operation_xyz
x,y,z
-x,y,-z
-x,-y,-z
x,-y,z
1/2+x,1/2+y,z
1/2-x,1/2+y,-z
1/2-x,1/2-y,-z
1/2+x,1/2-y,z
loop_
_atom_site_type_symbol
_atom_site_label
_atom_site_fract_x
_atom_site_fract_y
_atom_site_fract_z
Si Si1 0.527565 0.086382 0.628499
Si Si2 0.665973 0.888622 0.936718
Si Si3 0.599455 0.764339 0.027255
Si Si4 0.016021 0.287409 0.355983
Si Si5 0.742398 0.000000 0.758493
Si Si6 0.696753 0.500000 0.889392
Si Si7 0.648305 0.500000 0.616429
O O1 0.570037 0.150005 0.548009
O O2 0.730454 0.052241 0.445617
O O3 0.438061 0.091669 0.844694
O O4 0.350325 0.052975 0.734525
O O5 0.727444 0.823391 0.896874
O O6 0.800388 0.940393 0.761986
O O7 0.500000 0.882253 0.000000
O O8 0.747076 0.711941 0.891814
O O9 0.500000 0.759515 0.000000
O O10 0.464362 0.766241 0.274917
O O11 0.000000 0.259313 0.500000
O O12 0.808216 0.000000 0.561921
O O13 0.500000 0.000000 0.000000
O O14 0.580412 0.500000 0.125100
O O15 0.500000 0.500000 0.000000
#
# Coordination Sequence:
#
# PCOD9168340 Si02
#       7
#     8   8   8   8   4   4   4
#     4  10  21  40  62  84 125 163 204 260 304 372
#     4   9  15  32  64  88 120 162 190 251 316 367
#     4   9  20  39  60  89 127 159 203 272 307 362
#     4  10  22  39  63  91 117 167 218 245 321 384
#     4  10  14  29  61  94 117 154 207 242 303 392
#     4  11  27  40  52  86 126 157 211 256 310 368
#     4  11  21  38  64  90 121 168 205 251 321 374
#
# _framework density 23.914109
#
# number of rings (size 3 to 8) (size 9 to 14) (size 15 to 20)
#    0.000    2.182    3.636    0.545    2.545    2.182 
#    0.000    7.273    0.000    0.000    0.000    0.000 
#    0.000    0.000    0.000    0.000    0.000    0.000 
#
# Total GULP energy -122498.563946 kJ/mol
# GULP energy per Si atom -5568.116543 kJ/mol
# Density = 2.385968 g / cm^3
# Si number density = 23.914109 Si / 1000 Ang^3
#
#
#
# Elastic Constant Matrix: (Units=GPa)
#
#
# Indices 1 2 3 4 5 6 
#
# 1 126.0139 1.8578 32.0698 -0.0023 43.3904 0.0025
# 2 1.8578 39.4205 5.7520 -0.0007 -11.3305 0.0007
# 3 32.0698 5.7520 118.4439 -0.0018 18.0977 0.0024
# 4 -0.0023 -0.0007 -0.0018 20.0189 0.0016 15.4492
# 5 43.3904 -11.3305 18.0977 0.0016 57.6018 -0.0017
# 6 0.0025 0.0007 0.0024 15.4492 -0.0017 29.5595
#
#
#
# Elastic Compliance Matrix: (Units=1/GPa)
#
#
# Indices 1 2 3 4 5 6 
#
# 1 0.011344 -0.002763 -0.001627 0.000005 -0.008577 -0.000004
# 2 -0.002763 0.028128 -0.001871 0.000000 0.008202 0.000000
# 3 -0.001627 -0.001871 0.009289 0.000002 -0.002061 -0.000002
# 4 0.000005 0.000000 0.000002 0.083721 -0.000008 -0.043757
# 5 -0.008577 0.008202 -0.002061 -0.000008 0.026083 0.000006
# 6 -0.000004 0.000000 -0.000002 -0.043757 0.000006 0.056699
#
#
# Mechanical properties :
#
#
# Convention : Reuss Voigt Hill
#
# Bulk Modulus (GPa) = 27.59376 40.35972 33.97674
# Shear Modulus (GPa) = 20.84500 37.71595 29.28047
#
# Velocity S-wave (km/s) = 2.95559 3.97563 3.50294
# Velocity P-wave (km/s) = 4.81779 6.16342 5.53168
#
# Compressibility (1/GPa) = 0.03624008
#
# Stress axis : x y z
#
# Youngs Moduli (GPa) = 88.15371 35.55152 107.65342
#
# Poissons Ratio (x) = 0.09822 0.17512
# Poissons Ratio (y) = 0.24354 0.20144
# Poissons Ratio (z) = 0.14340 0.06652
#
# Static dielectric constant tensor:
#      x y z
#    x 2.092230 0.000000 0.064330 
#    y 0.000000 1.955970 0.000000 
#    z 0.064330 0.000000 1.912320 
# 
# From -- ./inp_files/149414.got.cif
#   From: 2010.05.17/outbox.cif.g08.bks.cpg/sg12_75_cif.got.tgz:149414.got - 2010.06.03 13:09:07.
