data_PCOD9168051
_publ_section_title
;
Structure prediction by ZEFSAII (Michael W. Deem and Ramdas Pophale) SiO2 
 PCOD9168051
Probable space group: P 21/M
;
_chemical_formula_sum "Si O2"
_cell_formula_units_Z 32
_cell_length_a 27.000000
_cell_length_b 9.000000
_cell_length_c 21.000000
_cell_angle_alpha 90.000000
_cell_angle_beta 20.000000
_cell_angle_gamma 90.000000
_cell_volume 1745.328791
_symmetry_space_group_name_H-M "P 21/M"
_symmetry_group_IT_number 11
_symmetry_cell_setting 'monoclinic'
loop_
_space_group_symop_operation_xyz
x,y,z
-x,1/2+y,-z
-x,-y,-z
x,1/2-y,z
loop_
_atom_site_type_symbol
_atom_site_label
_atom_site_fract_x
_atom_site_fract_y
_atom_site_fract_z
Si Si1 0.145245 0.574134 0.176715
Si Si2 0.576342 0.077838 0.466441
Si Si3 0.680480 0.572774 0.533744
Si Si4 0.696207 0.427370 0.880639
Si Si5 0.404776 0.421503 0.804158
Si Si6 0.381622 0.925454 0.264157
Si Si7 0.845669 0.073301 0.571155
Si Si8 0.848513 0.571622 0.203370
O O1 0.143811 0.750000 0.166734
O O2 0.223718 0.545693 0.149655
O O3 0.984559 0.511098 0.376708
O O4 0.247461 0.491960 0.002636
O O5 0.611001 0.250000 0.411273
O O6 0.464877 0.073812 0.660103
O O7 0.500000 0.000000 0.500000
O O8 0.720568 0.992140 0.313771
O O9 0.675331 0.750000 0.545727
O O10 0.523649 0.513841 0.700232
O O11 0.703480 0.498700 0.574055
O O12 0.796319 0.534063 0.338678
O O13 0.672879 0.250000 0.902410
O O14 0.798116 0.475615 0.699114
O O15 0.540999 0.505359 0.066757
O O16 0.404310 0.250000 0.826317
O O17 0.393760 0.750000 0.260624
O O18 0.291045 0.950284 0.309611
O O19 0.877508 0.250000 0.534243
O O20 0.855551 0.750000 0.189984
O O21 0.000000 0.500000 0.000000
#
# Coordination Sequence:
#
# PCOD9168051 Si02
#       8
#     4   4   4   4   4   4   4   4
#     4  11  22  36  58  86 113 149 192 235 287 339
#     4  10  21  38  61  89 119 153 192 235 285 341
#     4  10  20  36  59  85 114 149 191 235 280 334
#     4  10  21  38  60  83 111 147 191 239 285 342
#     4  10  20  36  60  86 114 150 191 234 279 333
#     4  11  22  36  58  85 112 150 193 234 285 339
#     4  10  23  40  55  80 117 152 189 237 289 340
#     4  10  21  38  61  88 118 153 192 238 288 340
#
# _framework density 18.334654
#
# number of rings (size 3 to 8) (size 9 to 14) (size 15 to 20)
#    0.000    1.750    1.250    3.000    0.000    5.000 
#    2.250    0.000    0.000    0.000    0.000    0.000 
#    0.000    0.000    0.000    0.000    0.000    0.000 
#
# Total GULP energy -178735.296324 kJ/mol
# GULP energy per Si atom -5585.478010 kJ/mol
# Density = 1.829292 g / cm^3
# Si number density = 18.334654 Si / 1000 Ang^3
#
#
#
# Elastic Constant Matrix: (Units=GPa)
#
#
# Indices 1 2 3 4 5 6 
#
# 1 30.2267 14.0036 2.9253 0.0000 1.2208 0.0000
# 2 14.0036 32.1451 15.6461 0.0000 -9.8780 0.0000
# 3 2.9253 15.6461 92.6161 0.0000 -7.7969 0.0000
# 4 0.0000 0.0000 0.0000 35.7623 0.0000 -2.2853
# 5 1.2208 -9.8780 -7.7969 0.0000 15.1431 0.0000
# 6 0.0000 0.0000 0.0000 -2.2853 0.0000 23.1861
#
#
#
# Elastic Compliance Matrix: (Units=1/GPa)
#
#
# Indices 1 2 3 4 5 6 
#
# 1 0.046447 -0.027318 0.001393 0.000000 -0.020847 0.000000
# 2 -0.027318 0.056979 -0.005695 0.000000 0.036438 0.000000
# 3 0.001393 -0.005695 0.011909 0.000000 0.002304 0.000000
# 4 0.000000 0.000000 0.000000 0.028140 0.000000 0.002774
# 5 -0.020847 0.036438 0.002304 0.000000 0.092673 0.000000
# 6 0.000000 0.000000 0.000000 0.002774 0.000000 0.043403
#
#
# Mechanical properties :
#
#
# Convention : Reuss Voigt Hill
#
# Bulk Modulus (GPa) = 19.19610 24.45976 21.82793
# Shear Modulus (GPa) = 13.88289 22.97916 18.43103
#
# Velocity S-wave (km/s) = 2.75470 3.54406 3.17402
# Velocity P-wave (km/s) = 4.53987 5.48788 5.03623
#
# Compressibility (1/GPa) = 0.05209393
#
# Stress axis : x y z
#
# Youngs Moduli (GPa) = 21.53007 17.55038 83.96723
#
# Poissons Ratio (x) = 0.47944 -0.11696
# Poissons Ratio (y) = 0.58816 0.47822
# Poissons Ratio (z) = -0.02999 0.09996
#
# Static dielectric constant tensor:
#      x y z
#    x 1.637170 0.000000 0.025150 
#    y 0.000000 1.617000 0.000000 
#    z 0.025150 0.000000 1.600310 
# 
# From -- ./inp_files/66990.got.cif
#   From: 2010.05.17/outbox.ucp.g08.bks.cvg/sg11_34_cif.got.tgz:66990.got - 2010.06.11 11:38:39.
