data_PCOD9168159
_publ_section_title
;
Structure prediction by ZEFSAII (Michael W. Deem and Ramdas Pophale) SiO2 
 PCOD9168159
Probable space group: P 21/M
;
_chemical_formula_sum "Si O2"
_cell_formula_units_Z 32
_cell_length_a 24.000000
_cell_length_b 9.000000
_cell_length_c 15.000000
_cell_angle_alpha 90.000000
_cell_angle_beta 150.000000
_cell_angle_gamma 90.000000
_cell_volume 1620.000000
_symmetry_space_group_name_H-M "P 21/M"
_symmetry_group_IT_number 11
_symmetry_cell_setting 'monoclinic'
loop_
_space_group_symop_operation_xyz
x,y,z
-x,1/2+y,-z
-x,-y,-z
x,1/2-y,z
loop_
_atom_site_type_symbol
_atom_site_label
_atom_site_fract_x
_atom_site_fract_y
_atom_site_fract_z
Si Si1 0.214031 0.572462 0.514899
Si Si2 0.465717 0.428983 0.236125
Si Si3 0.321853 0.425652 0.381348
Si Si4 0.529468 0.428410 0.135030
Si Si5 0.111166 0.573129 0.761471
Si Si6 0.899733 0.924561 0.807502
Si Si7 0.869721 0.071103 0.407965
Si Si8 0.721228 0.929046 0.882041
O O1 0.198249 0.750000 0.485432
O O2 0.341082 0.537214 0.665068
O O3 0.129910 0.494554 0.329811
O O4 0.199636 0.532816 0.599611
O O5 0.463672 0.250000 0.231247
O O6 0.581439 0.483514 0.437409
O O7 0.459201 0.479562 0.123971
O O8 0.371931 0.478535 0.175791
O O9 0.350858 0.250000 0.421163
O O10 0.209018 0.442779 0.280901
O O11 0.305375 0.473613 0.255843
O O12 0.519271 0.250000 0.112399
O O13 0.500000 0.500000 0.000000
O O14 0.112717 0.750000 0.773128
O O15 0.170178 0.534101 0.747885
O O16 0.986505 0.512492 0.580582
O O17 0.166993 0.496945 0.923351
O O18 0.922121 0.750000 0.827476
O O19 0.000000 0.000000 0.000000
O O20 0.886760 0.250000 0.432505
O O21 0.728136 0.750000 0.892729
#
# Coordination Sequence:
#
# PCOD9168159 Si02
#       8
#     4   4   4   4   4   4   4   4
#     4  10  21  40  63  86 117 157 195 239 293 348
#     4  10  21  39  61  85 114 148 190 237 285 334
#     4  10  22  40  60  83 113 150 190 232 288 345
#     4  10  22  38  59  88 119 154 193 236 288 345
#     4  10  21  37  57  86 114 146 191 237 280 336
#     4  11  24  40  60  88 119 155 196 242 293 350
#     4   9  20  38  59  80 113 153 187 230 289 341
#     4  10  22  38  58  84 115 150 187 232 286 342
#
# _framework density 19.753086
#
# number of rings (size 3 to 8) (size 9 to 14) (size 15 to 20)
#    0.000    2.000    1.250    1.125    3.500    3.500 
#    0.000    0.000    0.000    0.000    0.000    0.000 
#    0.000    0.000    0.000    0.000    0.000    0.000 
#
# Total GULP energy -178614.182440 kJ/mol
# GULP energy per Si atom -5581.693201 kJ/mol
# Density = 1.970813 g / cm^3
# Si number density = 19.753086 Si / 1000 Ang^3
#
#
#
# Elastic Constant Matrix: (Units=GPa)
#
#
# Indices 1 2 3 4 5 6 
#
# 1 84.9274 8.0621 -4.1026 0.0000 -25.6935 0.0000
# 2 8.0621 -5.5546 3.6450 0.0000 -1.6721 0.0000
# 3 -4.1026 3.6450 52.5010 0.0000 -21.6531 0.0000
# 4 0.0000 0.0000 0.0000 28.8255 0.0000 -8.3717
# 5 -25.6935 -1.6721 -21.6531 0.0000 35.2333 0.0000
# 6 0.0000 0.0000 0.0000 -8.3717 0.0000 25.7269
#
#
#
# Elastic Compliance Matrix: (Units=1/GPa)
#
#
# Indices 1 2 3 4 5 6 
#
# 1 0.014795 0.020813 0.006119 0.000000 0.015538 0.000000
# 2 0.020813 -0.142876 0.020105 0.000000 0.020753 0.000000
# 3 0.006119 0.020105 0.027277 0.000000 0.022180 0.000000
# 4 0.000000 0.000000 0.000000 0.038312 0.000000 0.012467
# 5 0.015538 0.020753 0.022180 0.000000 0.054329 0.000000
# 6 0.000000 0.000000 0.000000 0.012467 0.000000 0.042927
#
#
# Mechanical properties :
#
#
# Convention : Reuss Voigt Hill
#
# Bulk Modulus (GPa) = -148.62472 16.34256 -66.14108
# Shear Modulus (GPa) = -81.23019 26.24176 -27.49422
#
# Velocity S-wave (km/s) = -6.41966 3.64880 -3.73486
# Velocity P-wave (km/s) = 11.41727 5.10324 7.22188
#
# Compressibility (1/GPa) = -0.00672836
#
# Stress axis : x y z
#
# Youngs Moduli (GPa) = 67.58899 -6.99906 36.66028
#
# Poissons Ratio (x) = 0.14567 -0.22434
# Poissons Ratio (y) = -1.40673 -0.73706
# Poissons Ratio (z) = -0.41361 0.14072
#
# Static dielectric constant tensor:
#      x y z
#    x 1.732060 0.000000 0.016000 
#    y 0.000000 1.658960 0.000000 
#    z 0.016000 0.000000 1.667460 
# 
# From -- ./inp_files/51694.got.cif
#   From: 2010.05.17/outbox.ucp.g08.bks.cvg/sg11_26_cif.got.tgz:51694.got - 2010.06.11 11:38:39.
