data_PCOD9168597
_publ_section_title
;
Structure prediction by ZEFSAII (Michael W. Deem and Ramdas Pophale) SiO2 
 PCOD9168597
Probable space group: C 2/M
;
_chemical_formula_sum "Si O2"
_cell_formula_units_Z 40
_cell_length_a 17.049975
_cell_length_b 26.348492
_cell_length_c 8.545840
_cell_angle_alpha 90.000000
_cell_angle_beta 23.076794
_cell_angle_gamma 90.000000
_cell_volume 1504.807838
_symmetry_space_group_name_H-M "C 2/M"
_symmetry_group_IT_number 12
_symmetry_cell_setting 'monoclinic'
loop_
_space_group_symop_operation_xyz
x,y,z
-x,y,-z
-x,-y,-z
x,-y,z
1/2+x,1/2+y,z
1/2-x,1/2+y,-z
1/2-x,1/2-y,-z
1/2+x,1/2-y,z
loop_
_atom_site_type_symbol
_atom_site_label
_atom_site_fract_x
_atom_site_fract_y
_atom_site_fract_z
Si Si1 0.216170 0.561206 0.759945
Si Si2 0.241601 0.396133 0.388702
Si Si3 0.243300 0.559181 0.058317
Si Si4 0.433707 0.792927 0.297294
Si Si5 0.682798 0.291983 0.250655
O O1 0.214793 0.500000 0.745611
O O2 0.316973 0.585368 0.420522
O O3 0.305537 0.572878 0.767356
O O4 0.986202 0.580831 0.186177
O O5 0.312315 0.413094 0.088348
O O6 0.236094 0.335160 0.396833
O O7 0.290349 0.500000 0.995403
O O8 0.000000 0.563734 0.500000
O O9 0.384580 0.741425 0.477112
O O10 0.500000 0.782846 0.000000
O O11 0.616467 0.818433 0.060454
O O12 0.500000 0.319330 0.500000
O O13 0.750000 0.250000 0.000000
#
# Coordination Sequence:
#
# PCOD9168597 Si02
#       5
#     8   8   8   8   8
#     4   9  15  24  37  60  99 136 164 198 257 309
#     4  10  16  25  41  67  97 131 167 208 252 305
#     4   8  14  22  35  57  91 136 164 192 246 307
#     4  11  20  35  54  79 104 137 176 220 265 318
#     4   9  21  38  55  74 101 138 174 215 270 319
#
# _framework density 26.581468000000001
#
# number of rings (size 3 to 8) (size 9 to 14) (size 15 to 20)
#    0.000    2.600    2.000    4.200    0.000    7.200 
#    0.000    0.000    0.000    0.000    0.000    0.000 
#    0.000    7.200    0.000   89.400    0.000   42.600 
#
# Total GULP energy -111905.528937 kJ/mol
# GULP energy per Si atom -5595.276447 kJ/mol
# Density = 2.652097 g / cm^3
# Si number density = 26.581468 Si / 1000 Ang^3
#
#
#
# Elastic Constant Matrix: (Units=GPa)
#
#
# Indices 1 2 3 4 5 6 
#
# 1 200.9261 50.0317 46.5691 -0.0013 35.4528 0.0009
# 2 50.0317 99.5992 16.8227 -0.0006 17.4819 0.0002
# 3 46.5691 16.8227 100.7715 0.0086 41.3897 -0.0046
# 4 -0.0013 -0.0006 0.0086 -6.6094 -0.0014 1.6597
# 5 35.4528 17.4819 41.3897 -0.0014 71.3738 0.0013
# 6 0.0009 0.0002 -0.0046 1.6597 0.0013 13.6329
#
#
#
# Elastic Compliance Matrix: (Units=1/GPa)
#
#
# Indices 1 2 3 4 5 6 
#
# 1 0.006314 -0.002605 -0.001912 -0.000003 -0.001389 0.000000
# 2 -0.002605 0.011630 -0.000130 0.000000 -0.001479 0.000000
# 3 -0.001912 -0.000130 0.013685 0.000020 -0.006954 0.000003
# 4 -0.000003 0.000000 0.000020 -0.146811 -0.000013 0.017873
# 5 -0.001389 -0.001479 -0.006954 -0.000013 0.019096 -0.000002
# 6 0.000000 0.000000 0.000003 0.017873 -0.000002 0.071176
#
#
# Mechanical properties :
#
#
# Convention : Reuss Voigt Hill
#
# Bulk Modulus (GPa) = 44.77337 69.79375 57.28356
# Shear Modulus (GPa) = -611.98301 34.87103 -288.55599
#
# Velocity S-wave (km/s) = -15.18977 3.62588 -10.43029
# Velocity P-wave (km/s) = 17.05164 6.62140 11.11115
#
# Compressibility (1/GPa) = 0.02233471
#
# Stress axis : x y z
#
# Youngs Moduli (GPa) = 158.37980 85.98181 73.07146
#
# Poissons Ratio (x) = 0.22397 0.13974
# Poissons Ratio (y) = 0.41255 0.00951
# Poissons Ratio (z) = 0.30288 0.01120
#
# Static dielectric constant tensor:
#      x y z
#    x 2.077540 0.000000 -0.104090 
#    y 0.000000 2.052550 0.000000 
#    z -0.104090 0.000000 2.094960 
# 
# From -- ./inp_files/80294.got.cif
#   From: 2010.05.17/outbox.cif.g08.bks.cpg/sg12_41_cif.got.tgz:80294.got - 2010.06.03 13:09:07.
