data_PCOD9168007
_publ_section_title
;
Structure prediction by ZEFSAII (Michael W. Deem and Ramdas Pophale) SiO2 
 PCOD9168007
Probable space group: P 21/M
;
_chemical_formula_sum "Si O2"
_cell_formula_units_Z 28
_cell_length_a 21.000000
_cell_length_b 9.000000
_cell_length_c 15.000000
_cell_angle_alpha 90.000000
_cell_angle_beta 150.000000
_cell_angle_gamma 90.000000
_cell_volume 1417.500000
_symmetry_space_group_name_H-M "P 21/M"
_symmetry_group_IT_number 11
_symmetry_cell_setting 'monoclinic'
loop_
_space_group_symop_operation_xyz
x,y,z
-x,1/2+y,-z
-x,-y,-z
x,1/2-y,z
loop_
_atom_site_type_symbol
_atom_site_label
_atom_site_fract_x
_atom_site_fract_y
_atom_site_fract_z
Si Si1 0.109145 0.920670 0.009922
Si Si2 0.848939 0.926663 0.410853
Si Si3 0.691442 0.927360 0.875751
Si Si4 0.435140 0.569885 0.655104
Si Si5 0.143299 0.574046 0.771974
Si Si6 0.146696 0.921898 0.268822
Si Si7 0.415547 0.071791 0.820040
O O1 0.107720 0.750000 0.978104
O O2 0.127237 0.925748 0.138509
O O3 0.227418 0.001200 0.105959
O O4 0.969656 0.991910 0.826070
O O5 0.838817 0.750000 0.377967
O O6 0.733697 0.962305 0.338579
O O7 0.994719 0.951902 0.618053
O O8 0.836127 0.019349 0.304174
O O9 0.695789 0.750000 0.872158
O O10 0.766587 0.981225 0.054444
O O11 0.543754 0.971486 0.714565
O O12 0.437937 0.750000 0.665064
O O13 0.290296 0.523055 0.458087
O O14 0.461087 0.497769 0.782335
O O15 0.168560 0.750000 0.809609
O O16 0.139727 0.750000 0.289111
O O17 0.429667 0.250000 0.835841
O O18 0.500000 0.000000 0.000000
#
# Coordination Sequence:
#
# PCOD9168007 Si02
#       7
#     4   4   4   4   4   4   4
#     4  10  21  38  63  91 120 152 193 243 293 351
#     4   9  20  37  54  77 110 148 189 240 295 345
#     4  11  23  38  57  84 119 157 193 239 294 346
#     4  10  23  41  60  85 119 157 199 244 291 350
#     4  10  20  35  56  82 112 146 193 243 289 345
#     4   9  20  41  64  89 119 154 194 240 295 352
#     4  11  23  38  57  82 115 155 198 244 293 345
#
# _framework density 19.753086
#
# number of rings (size 3 to 8) (size 9 to 14) (size 15 to 20)
#    0.000    2.000    0.000    2.571    2.000    8.000 
#    0.000    0.000    0.000    0.000    0.000    0.000 
#    0.000    0.000    0.000    0.000    0.000    0.000 
#
# Total GULP energy -156373.599385 kJ/mol
# GULP energy per Si atom -5584.771407 kJ/mol
# Density = 1.970813 g / cm^3
# Si number density = 19.753086 Si / 1000 Ang^3
#
#
#
# Elastic Constant Matrix: (Units=GPa)
#
#
# Indices 1 2 3 4 5 6 
#
# 1 106.8866 38.5573 19.2315 0.0000 40.3369 0.0000
# 2 38.5573 52.1767 24.4924 0.0000 19.1712 0.0000
# 3 19.2315 24.4924 67.0889 0.0000 23.9859 0.0000
# 4 0.0000 0.0000 0.0000 19.7772 0.0000 3.0825
# 5 40.3369 19.1712 23.9859 0.0000 32.8995 0.0000
# 6 0.0000 0.0000 0.0000 3.0825 0.0000 37.5024
#
#
#
# Elastic Compliance Matrix: (Units=1/GPa)
#
#
# Indices 1 2 3 4 5 6 
#
# 1 0.020962 -0.009303 0.006273 0.000000 -0.024853 0.000000
# 2 -0.009303 0.029918 -0.008251 0.000000 -0.000011 0.000000
# 3 0.006273 -0.008251 0.023197 0.000000 -0.019795 0.000000
# 4 0.000000 0.000000 0.000000 0.051220 0.000000 -0.004210
# 5 -0.024853 -0.000011 -0.019795 0.000000 0.075306 0.000000
# 6 0.000000 0.000000 0.000000 -0.004210 0.000000 0.027011
#
#
# Mechanical properties :
#
#
# Convention : Reuss Voigt Hill
#
# Bulk Modulus (GPa) = 19.41221 43.41274 31.41247
# Shear Modulus (GPa) = 18.70218 27.62722 23.16470
#
# Velocity S-wave (km/s) = 3.08035 3.74388 3.42820
# Velocity P-wave (km/s) = 4.74343 6.38077 5.62203
#
# Compressibility (1/GPa) = 0.05151398
#
# Stress axis : x y z
#
# Youngs Moduli (GPa) = 47.70494 33.42443 43.10902
#
# Poissons Ratio (x) = 0.31096 -0.27043
# Poissons Ratio (y) = 0.44382 0.35571
# Poissons Ratio (z) = -0.29926 0.27580
#
# Static dielectric constant tensor:
#      x y z
#    x 1.684770 0.000000 0.005700 
#    y 0.000000 1.664190 0.000000 
#    z 0.005700 0.000000 1.722130 
# 
# From -- ./inp_files/54596.got.cif
#   From: 2010.05.17/outbox.ucp.g08.bks.cvg/sg11_28_cif.got.tgz:54596.got - 2010.06.11 11:38:39.
