data_PCOD9168837
_publ_section_title
;
Structure prediction by ZEFSAII (Michael W. Deem and Ramdas Pophale) SiO2 
 PCOD9168837
Probable space group: C 2/M
;
_chemical_formula_sum "Si O2"
_cell_formula_units_Z 48
_cell_length_a 14.185717
_cell_length_b 19.366497
_cell_length_c 16.878598
_cell_angle_alpha 90.000000
_cell_angle_beta 27.485179
_cell_angle_gamma 90.000000
_cell_volume 2140.072371
_symmetry_space_group_name_H-M "C 2/M"
_symmetry_group_IT_number 12
_symmetry_cell_setting 'monoclinic'
loop_
_space_group_symop_operation_xyz
x,y,z
-x,y,-z
-x,-y,-z
x,-y,z
1/2+x,1/2+y,z
1/2-x,1/2+y,-z
1/2-x,1/2-y,-z
1/2+x,1/2-y,z
loop_
_atom_site_type_symbol
_atom_site_label
_atom_site_fract_x
_atom_site_fract_y
_atom_site_fract_z
Si Si1 0.676520 0.720449 0.257484
Si Si2 0.639215 0.868724 0.327646
Si Si3 0.029520 0.923612 0.072666
Si Si4 0.793892 0.695893 0.342653
Si Si5 0.689973 0.919533 0.545869
Si Si6 0.552398 0.331307 0.194546
O O1 0.734867 0.801020 0.215717
O O2 0.774980 0.687876 0.262329
O O3 0.430733 0.715716 0.454808
O O4 0.710743 0.686044 0.146634
O O5 0.500000 0.836681 0.500000
O O6 0.787240 0.916823 0.268537
O O7 0.508627 0.909381 0.361203
O O8 0.128050 0.868233 0.057792
O O9 0.110746 0.000000 0.026253
O O10 0.000000 0.913629 0.000000
O O11 0.848933 0.625724 0.346636
O O12 0.941897 0.759530 0.253816
O O13 0.883999 0.883155 0.358407
O O14 0.727806 0.000000 0.531818
#
# Coordination Sequence:
#
# PCOD9168837 Si02
#       6
#     8   8   8   8   8   8
#     4  10  16  29  52  80 100 136 176 212 258 307
#     4  12  18  32  58  82 104 132 178 224 257 309
#     4  11  24  38  51  77 115 142 165 213 274 315
#     4  10  17  31  49  76 113 136 167 218 268 301
#     4  11  20  29  49  82 108 134 176 218 262 310
#     4  11  18  32  54  73 104 141 178 212 257 315
#
# _framework density 22.429147
#
# number of rings (size 3 to 8) (size 9 to 14) (size 15 to 20)
#    0.000    1.167    8.333    2.000    0.000    0.667 
#    0.000    8.333    0.000    0.000    0.000    0.000 
#    0.000    4.667    0.000    0.000    0.000    0.000 
#
# Total GULP energy -133999.626450 kJ/mol
# GULP energy per Si atom -5583.317769 kJ/mol
# Density = 2.237810 g / cm^3
# Si number density = 22.429147 Si / 1000 Ang^3
#
#
#
# Elastic Constant Matrix: (Units=GPa)
#
#
# Indices 1 2 3 4 5 6 
#
# 1 151.6229 75.3627 23.5450 -0.0184 40.3842 0.0133
# 2 75.3627 163.9301 17.7086 -0.0422 27.6252 0.0438
# 3 23.5450 17.7086 27.9085 -0.0513 11.0890 0.0197
# 4 -0.0184 -0.0422 -0.0513 7.7649 0.0191 3.8944
# 5 40.3842 27.6252 11.0890 0.0191 32.8507 -0.0194
# 6 0.0133 0.0438 0.0197 3.8944 -0.0194 21.4276
#
#
#
# Elastic Compliance Matrix: (Units=1/GPa)
#
#
# Indices 1 2 3 4 5 6 
#
# 1 0.011435 -0.003150 -0.003598 0.000016 -0.010193 -0.000010
# 2 -0.003150 0.008125 -0.001526 0.000044 -0.002445 -0.000024
# 3 -0.003598 -0.001526 0.043388 0.000344 -0.008940 -0.000105
# 4 0.000016 0.000044 0.000344 0.141706 -0.000271 -0.025755
# 5 -0.010193 -0.002445 -0.008940 -0.000271 0.048045 0.000112
# 6 -0.000010 -0.000024 -0.000105 -0.025755 0.000112 0.051350
#
#
# Mechanical properties :
#
#
# Convention : Reuss Voigt Hill
#
# Bulk Modulus (GPa) = 21.55221 64.07713 42.81467
# Shear Modulus (GPa) = 14.87808 27.53165 21.20487
#
# Velocity S-wave (km/s) = 2.57833 3.50736 3.07810
# Velocity P-wave (km/s) = 4.30042 6.71065 5.63588
#
# Compressibility (1/GPa) = 0.04639896
#
# Stress axis : x y z
#
# Youngs Moduli (GPa) = 87.45163 123.07086 23.04787
#
# Poissons Ratio (x) = 0.38773 0.08292
# Poissons Ratio (y) = 0.27551 0.03518
# Poissons Ratio (z) = 0.31463 0.18785
#
# Static dielectric constant tensor:
#      x y z
#    x 1.841670 -0.000010 0.044270 
#    y -0.000010 1.784890 0.000080 
#    z 0.044270 0.000080 2.462870 
# 
# From -- ./inp_files/61687.got.cif
#   From: 2010.05.17/outbox.cif.g08.bks.cpg/sg12_31_cif.got.tgz:61687.got - 2010.06.03 13:09:07.
