data_PCOD9168985
_publ_section_title
;
Structure prediction by ZEFSAII (Michael W. Deem and Ramdas Pophale) SiO2 
 PCOD9168985
Probable space group: C 2/M
;
_chemical_formula_sum "Si O2"
_cell_formula_units_Z 56
_cell_length_a 8.985332
_cell_length_b 18.769146
_cell_length_c 24.199854
_cell_angle_alpha 90.000000
_cell_angle_beta 132.622389
_cell_angle_gamma 90.000000
_cell_volume 3003.104001
_symmetry_space_group_name_H-M "C 2/M"
_symmetry_group_IT_number 12
_symmetry_cell_setting 'monoclinic'
loop_
_space_group_symop_operation_xyz
x,y,z
-x,y,-z
-x,-y,-z
x,-y,z
1/2+x,1/2+y,z
1/2-x,1/2+y,-z
1/2-x,1/2-y,-z
1/2+x,1/2-y,z
loop_
_atom_site_type_symbol
_atom_site_label
_atom_site_fract_x
_atom_site_fract_y
_atom_site_fract_z
Si Si1 0.041839 0.234900 0.620862
Si Si2 0.488589 0.581318 0.737362
Si Si3 0.768384 0.306191 0.837904
Si Si4 0.018828 0.312033 0.278042
Si Si5 0.131904 0.209081 0.921829
Si Si6 0.839987 0.083712 0.827523
Si Si7 0.688780 0.848665 0.573444
O O1 0.011272 0.288550 0.665252
O O2 0.245740 0.187900 0.677918
O O3 0.081629 0.283190 0.578042
O O4 0.849222 0.183601 0.570705
O O5 0.515496 0.500000 0.729867
O O6 0.703941 0.620696 0.793987
O O7 0.406471 0.587528 0.779674
O O8 0.328023 0.614105 0.654524
O O9 0.578859 0.255710 0.776849
O O10 0.775281 0.309021 0.906120
O O11 0.962891 0.267531 0.863348
O O12 0.881385 0.379541 0.227312
O O13 0.998170 0.137016 0.898957
O O14 0.250000 0.250000 0.000000
O O15 0.844177 0.000000 0.844959
O O16 0.500000 0.890888 0.500000
#
# Coordination Sequence:
#
# PCOD9168985 Si02
#       7
#     8   8   8   8   8   8   8
#     4  10  18  31  52  78 104 132 178 224 262 311
#     4  10  19  33  53  76 103 139 184 220 261 320
#     4  10  18  32  56  76 101 134 175 220 255 305
#     4  10  16  31  56  76  98 133 176 224 259 302
#     4  10  20  33  54  81 106 137 173 213 266 321
#     4   9  18  33  55  79 103 139 179 217 263 318
#     4  11  21  33  51  79 111 141 172 222 278 317
#
# _framework density 18.647372000000001
#
# number of rings (size 3 to 8) (size 9 to 14) (size 15 to 20)
#    0.000    2.000    4.286    2.571    0.000    0.286 
#    0.000    1.429    0.000   10.286    0.000    2.000 
#    0.000    0.000    0.000    0.000    0.000    0.000 
#
# Total GULP energy -155956.477609 kJ/mol
# GULP energy per Si atom -5569.874200 kJ/mol
# Density = 1.860493 g / cm^3
# Si number density = 18.647372 Si / 1000 Ang^3
#
#
#
# Elastic Constant Matrix: (Units=GPa)
#
#
# Indices 1 2 3 4 5 6 
#
# 1 68.7707 12.5121 14.2735 0.0000 11.4242 0.0000
# 2 12.5121 102.2610 35.1338 0.0000 13.6085 0.0000
# 3 14.2735 35.1338 79.1262 0.0000 9.3524 0.0000
# 4 0.0000 0.0000 0.0000 8.9517 0.0000 0.1932
# 5 11.4242 13.6085 9.3524 0.0000 27.0774 0.0000
# 6 0.0000 0.0000 0.0000 0.1932 0.0000 16.7890
#
#
#
# Elastic Compliance Matrix: (Units=1/GPa)
#
#
# Indices 1 2 3 4 5 6 
#
# 1 0.016010 -0.000506 -0.001976 0.000000 -0.005818 0.000000
# 2 -0.000506 0.012033 -0.004756 0.000000 -0.004191 0.000000
# 3 -0.001976 -0.004756 0.015352 0.000000 -0.002079 0.000000
# 4 0.000000 0.000000 0.000000 0.111739 0.000000 -0.001286
# 5 -0.005818 -0.004191 -0.002079 0.000000 0.042210 0.000000
# 6 0.000000 0.000000 0.000000 -0.001286 0.000000 0.059578
#
#
# Mechanical properties :
#
#
# Convention : Reuss Voigt Hill
#
# Bulk Modulus (GPa) = 34.57947 41.55519 38.06733
# Shear Modulus (GPa) = 17.79134 23.11285 20.45209
#
# Velocity S-wave (km/s) = 3.09219 3.52443 3.31536
# Velocity P-wave (km/s) = 5.59759 6.23661 5.92572
#
# Compressibility (1/GPa) = 0.02891889
#
# Stress axis : x y z
#
# Youngs Moduli (GPa) = 62.46232 83.10754 65.13840
#
# Poissons Ratio (x) = 0.04204 0.12869
# Poissons Ratio (y) = 0.03159 0.30981
# Poissons Ratio (z) = 0.12341 0.39527
#
# Static dielectric constant tensor:
#      x y z
#    x 1.668670 0.000000 -0.015780 
#    y 0.000000 1.645140 0.000000 
#    z -0.015780 0.000000 1.725780 
# 
# From -- ./inp_files/333393.got.cif
#   From: 2010.05.17/outbox.cif.g08.bks.cpg/sg12_167_cif.got.tgz:333393.got - 2010.06.03 13:09:07.
