data_PCOD9168227
_publ_section_title
;
Structure prediction by ZEFSAII (Michael W. Deem and Ramdas Pophale) SiO2 
 PCOD9168227
Probable space group: P 21/M
;
_chemical_formula_sum "Si O2"
_cell_formula_units_Z 26
_cell_length_a 15.000000
_cell_length_b 15.000000
_cell_length_c 9.000000
_cell_angle_alpha 90.000000
_cell_angle_beta 140.000000
_cell_angle_gamma 90.000000
_cell_volume 1301.644910
_symmetry_space_group_name_H-M "P 21/M"
_symmetry_group_IT_number 11
_symmetry_cell_setting 'monoclinic'
loop_
_space_group_symop_operation_xyz
x,y,z
-x,1/2+y,-z
-x,-y,-z
x,1/2-y,z
loop_
_atom_site_type_symbol
_atom_site_label
_atom_site_fract_x
_atom_site_fract_y
_atom_site_fract_z
Si Si1 0.713682 0.957230 0.085794
Si Si2 0.498272 0.750000 0.551717
Si Si3 0.751404 0.144066 0.324778
Si Si4 0.653990 0.750000 0.425653
Si Si5 0.022444 0.057594 0.792936
Si Si6 0.823204 0.571881 0.704025
Si Si7 0.346337 0.250000 0.918313
Si Si8 0.406421 0.917940 0.585529
O O1 0.717399 0.853873 0.159944
O O2 0.849449 0.960585 0.153772
O O3 0.718923 0.052383 0.185443
O O4 0.561524 0.955965 0.812414
O O5 0.566804 0.750000 0.473047
O O6 0.414927 0.842523 0.468601
O O7 0.589295 0.750000 0.826581
O O8 0.740995 0.250000 0.260195
O O9 0.909975 0.126328 0.582018
O O10 0.648660 0.131652 0.335138
O O11 0.747655 0.661184 0.555803
O O12 0.591206 0.750000 0.174505
O O13 0.929400 0.971069 0.719623
O O14 0.090641 0.089039 0.035225
O O15 0.704728 0.496615 0.583574
#
# Coordination Sequence:
#
# PCOD9168227 Si02
#       8
#     4   2   4   2   4   4   2   4
#     4  11  23  42  70 101 137 178 236 288 348 416
#     4  10  22  40  68 100 134 184 232 275 361 413
#     4  11  23  40  65  96 137 185 226 282 352 415
#     4  12  24  40  65 101 135 181 233 280 342 422
#     4  10  23  43  66  96 132 186 232 281 348 416
#     4  10  23  44  67  96 139 178 231 288 350 410
#     4  10  22  40  67 101 139 177 229 289 343 413
#     4  10  21  44  68  95 134 180 224 292 342 416
#
# _framework density 19.974726
#
# number of rings (size 3 to 8) (size 9 to 14) (size 15 to 20)
#    0.000    1.538    0.769    4.615    2.154    3.692 
#    2.769    0.000    0.000    0.000    0.000    0.000 
#    0.000    0.000    0.000    0.000    0.000    0.000 
#
# Total GULP energy -144801.136437 kJ/mol
# GULP energy per Si atom -5569.274478 kJ/mol
# Density = 1.992926 g / cm^3
# Si number density = 19.974726 Si / 1000 Ang^3
#
#
#
# Elastic Constant Matrix: (Units=GPa)
#
#
# Indices 1 2 3 4 5 6 
#
# 1 150.3222 22.4583 15.5493 0.0000 11.7825 0.0000
# 2 22.4583 148.3591 20.9167 0.0000 2.9212 0.0000
# 3 15.5493 20.9167 72.6444 0.0000 16.9243 0.0000
# 4 0.0000 0.0000 0.0000 23.3982 0.0000 -1.0438
# 5 11.7825 2.9212 16.9243 0.0000 38.9180 0.0000
# 6 0.0000 0.0000 0.0000 -1.0438 0.0000 29.3631
#
#
#
# Elastic Compliance Matrix: (Units=1/GPa)
#
#
# Indices 1 2 3 4 5 6 
#
# 1 0.007008 -0.000908 -0.000846 0.000000 -0.001686 0.000000
# 2 -0.000908 0.007149 -0.002006 0.000000 0.000611 0.000000
# 3 -0.000846 -0.002006 0.016056 0.000000 -0.006576 0.000000
# 4 0.000000 0.000000 0.000000 0.042806 0.000000 0.001522
# 5 -0.001686 0.000611 -0.006576 0.000000 0.029019 0.000000
# 6 0.000000 0.000000 0.000000 0.001522 0.000000 0.034110
#
#
# Mechanical properties :
#
#
# Convention : Reuss Voigt Hill
#
# Bulk Modulus (GPa) = 44.06819 54.35271 49.21045
# Shear Modulus (GPa) = 33.06150 39.16262 36.11206
#
# Velocity S-wave (km/s) = 4.07279 4.43268 4.25654
# Velocity P-wave (km/s) = 6.65031 7.31218 6.98909
#
# Compressibility (1/GPa) = 0.02269211
#
# Stress axis : x y z
#
# Youngs Moduli (GPa) = 142.70030 139.88488 62.28066
#
# Poissons Ratio (x) = 0.12707 0.05267
# Poissons Ratio (y) = 0.12963 0.12495
# Poissons Ratio (z) = 0.12068 0.28064
#
# Static dielectric constant tensor:
#      x y z
#    x 1.720580 0.000000 -0.019320 
#    y 0.000000 1.729990 0.000000 
#    z -0.019320 0.000000 1.756990 
# 
# From -- ./inp_files/22467.got.cif
#   From: 2010.05.17/outbox.ucp.g08.bks.cvg/sg11_12_cif.got.tgz:22467.got - 2010.06.11 11:38:39.
