data_PCOD9168036
_publ_section_title
;
Structure prediction by ZEFSAII (Michael W. Deem and Ramdas Pophale) SiO2 
 PCOD9168036
Probable space group: P 21/M
;
_chemical_formula_sum "Si O2"
_cell_formula_units_Z 32
_cell_length_a 27.000000
_cell_length_b 9.000000
_cell_length_c 21.000000
_cell_angle_alpha 90.000000
_cell_angle_beta 160.000000
_cell_angle_gamma 90.000000
_cell_volume 1745.328791
_symmetry_space_group_name_H-M "P 21/M"
_symmetry_group_IT_number 11
_symmetry_cell_setting 'monoclinic'
loop_
_space_group_symop_operation_xyz
x,y,z
-x,1/2+y,-z
-x,-y,-z
x,1/2-y,z
loop_
_atom_site_type_symbol
_atom_site_label
_atom_site_fract_x
_atom_site_fract_y
_atom_site_fract_z
Si Si1 0.536119 0.071078 0.723853
Si Si2 0.015542 0.073519 0.666573
Si Si3 0.286580 0.574656 0.938282
Si Si4 0.451043 0.083830 0.032422
Si Si5 0.925214 0.072466 0.997883
Si Si6 0.838835 0.427864 0.036121
Si Si7 0.710903 0.918204 0.298179
Si Si8 0.771885 0.929357 0.698030
O O1 0.522701 0.250000 0.710313
O O2 0.379850 0.014296 0.513743
O O3 0.600127 0.026244 0.869694
O O4 0.668105 0.037050 0.835657
O O5 0.999376 0.250000 0.644236
O O6 0.139161 0.015752 0.768239
O O7 0.075430 0.018829 0.807242
O O8 0.865567 0.990511 0.473175
O O9 0.258320 0.750000 0.911750
O O10 0.360370 0.535312 0.961784
O O11 0.443499 0.250000 0.051040
O O12 0.614381 0.024689 0.225510
O O13 0.379051 0.091196 0.875932
O O14 0.912465 0.250000 0.973157
O O15 0.896324 0.039521 0.036039
O O16 0.088059 0.028583 0.174825
O O17 0.810536 0.992804 0.813777
O O18 0.854950 0.250000 0.068498
O O19 0.725196 0.750000 0.341032
O O20 0.766604 0.750000 0.694563
#
# Coordination Sequence:
#
# PCOD9168036 Si02
#       8
#     4   4   4   4   4   4   4   4
#     4   8  16  31  50  71  95 129 170 208 248 302
#     4  11  22  36  55  80 109 138 176 225 269 312
#     4  10  20  36  57  79 107 143 180 217 266 325
#     4  10  21  37  57  83 111 138 176 224 266 308
#     4   9  18  31  48  71  98 129 164 204 252 308
#     4   9  18  34  52  70  98 133 169 208 255 314
#     4  10  21  38  58  79 108 145 179 214 264 322
#     4   9  17  31  49  69  96 128 164 206 250 299
#
# _framework density 18.334654
#
# number of rings (size 3 to 8) (size 9 to 14) (size 15 to 20)
#    0.000    2.500    0.000    3.000    0.000    4.000 
#    0.000    5.625    0.000    0.000    0.000    0.000 
#    0.000    0.000    0.000    0.000    0.000    0.000 
#
# Total GULP energy -178351.957278 kJ/mol
# GULP energy per Si atom -5573.498665 kJ/mol
# Density = 1.829292 g / cm^3
# Si number density = 18.334654 Si / 1000 Ang^3
#
#
#
# Elastic Constant Matrix: (Units=GPa)
#
#
# Indices 1 2 3 4 5 6 
#
# 1 29.8764 2.0323 -11.1407 0.0000 7.7048 0.0000
# 2 2.0323 38.5986 26.4683 0.0000 2.9578 0.0000
# 3 -11.1407 26.4683 93.1671 0.0000 20.2123 0.0000
# 4 0.0000 0.0000 0.0000 25.3125 0.0000 -2.2363
# 5 7.7048 2.9578 20.2123 0.0000 5.1899 0.0000
# 6 0.0000 0.0000 0.0000 -2.2363 0.0000 26.6769
#
#
#
# Elastic Compliance Matrix: (Units=1/GPa)
#
#
# Indices 1 2 3 4 5 6 
#
# 1 -0.005742 0.010767 -0.027493 0.000000 0.109463 0.000000
# 2 0.010767 0.026439 0.003309 0.000000 -0.043941 0.000000
# 3 -0.027493 0.003309 -0.012509 0.000000 0.087648 0.000000
# 4 0.000000 0.000000 0.000000 0.039801 0.000000 0.003336
# 5 0.109463 -0.043941 0.087648 0.000000 -0.286133 0.000000
# 6 0.000000 0.000000 0.000000 0.003336 0.000000 0.037765
#
#
# Mechanical properties :
#
#
# Convention : Reuss Voigt Hill
#
# Bulk Modulus (GPa) = -53.62867 21.81797 -15.90535
# Shear Modulus (GPa) = -27.81452 21.05466 -3.37993
#
# Velocity S-wave (km/s) = -3.89915 3.39241 -1.35922
# Velocity P-wave (km/s) = 7.04163 5.22210 3.34023
#
# Compressibility (1/GPa) = -0.01864674
#
# Stress axis : x y z
#
# Youngs Moduli (GPa) = -174.14194 37.82332 -79.93982
#
# Poissons Ratio (x) = -0.40725 -2.19781
# Poissons Ratio (y) = 1.87504 0.26454
# Poissons Ratio (z) = -4.78773 -0.12517
#
# Static dielectric constant tensor:
#      x y z
#    x 1.644690 0.000000 0.006710 
#    y 0.000000 1.620710 0.000000 
#    z 0.006710 0.000000 1.609610 
# 
# From -- ./inp_files/67089.got.cif
#   From: 2010.05.17/outbox.ucp.g08.bks.cvg/sg11_34_cif.got.tgz:67089.got - 2010.06.11 11:38:39.
