data_PCOD9168235
_publ_section_title
;
Structure prediction by ZEFSAII (Michael W. Deem and Ramdas Pophale) SiO2 
 PCOD9168235
Probable space group: P 21/M
;
_chemical_formula_sum "Si O2"
_cell_formula_units_Z 32
_cell_length_a 12.000000
_cell_length_b 15.000000
_cell_length_c 9.000000
_cell_angle_alpha 90.000000
_cell_angle_beta 90.000000
_cell_angle_gamma 90.000000
_cell_volume 1620.000000
_symmetry_space_group_name_H-M "P 21/M"
_symmetry_group_IT_number 11
_symmetry_cell_setting 'monoclinic'
loop_
_space_group_symop_operation_xyz
x,y,z
-x,1/2+y,-z
-x,-y,-z
x,1/2-y,z
loop_
_atom_site_type_symbol
_atom_site_label
_atom_site_fract_x
_atom_site_fract_y
_atom_site_fract_z
Si Si1 0.386223 0.000097 0.407701
Si Si2 0.756647 0.845638 0.458080
Si Si3 0.784882 0.355027 0.963422
Si Si4 0.775677 0.646416 0.124064
Si Si5 0.000723 0.354797 0.408408
Si Si6 0.065165 0.522640 0.851389
Si Si7 0.380319 0.483229 0.065959
Si Si8 0.796780 0.354258 0.626804
O O1 0.303895 0.071070 0.476950
O O2 0.400137 0.031132 0.239179
O O3 0.500000 0.000000 0.500000
O O4 0.315696 0.908732 0.403156
O O5 0.724449 0.750000 0.526637
O O6 0.723153 0.842452 0.285998
O O7 0.888109 0.855837 0.491584
O O8 0.761866 0.250000 0.981245
O O9 0.682419 0.422714 0.956169
O O10 0.837511 0.367867 0.797722
O O11 0.855890 0.395026 0.098095
O O12 0.808606 0.750000 0.078896
O O13 0.868673 0.570816 0.165798
O O14 0.693816 0.595622 0.008802
O O15 0.991303 0.250000 0.355075
O O16 0.003935 0.431967 0.282346
O O17 0.894007 0.375774 0.510745
O O18 0.000000 0.500000 0.000000
O O19 0.500000 0.500000 0.000000
O O20 0.772453 0.250000 0.613070
#
# Coordination Sequence:
#
# PCOD9168235 Si02
#       8
#     4   4   4   4   4   4   4   4
#     4  11  23  39  62  90 123 161 201 258 306 364
#     4  10  23  41  63  91 123 162 205 256 314 364
#     4   9  20  39  60  85 118 154 199 249 300 361
#     4  10  23  41  59  85 121 162 206 252 302 364
#     4  10  22  39  63  93 125 159 204 257 307 365
#     4  11  24  36  56  88 121 164 199 243 299 359
#     4  10  22  40  62  89 120 158 206 248 308 367
#     4   9  20  39  63  89 117 157 203 250 303 360
#
# _framework density 19.753086
#
# number of rings (size 3 to 8) (size 9 to 14) (size 15 to 20)
#    0.000    2.000    0.000    1.875    7.000    4.500 
#    0.000    2.500    0.000    0.000    0.000    0.000 
#    0.000    0.000    0.000    0.000    0.000    0.000 
#
# Total GULP energy -178228.650382 kJ/mol
# GULP energy per Si atom -5569.645324 kJ/mol
# Density = 1.970813 g / cm^3
# Si number density = 19.753086 Si / 1000 Ang^3
#
#
#
# Elastic Constant Matrix: (Units=GPa)
#
#
# Indices 1 2 3 4 5 6 
#
# 1 47.5798 25.6521 27.9399 0.0000 10.8835 0.0000
# 2 25.6521 127.8238 45.9731 0.0000 2.7432 0.0000
# 3 27.9399 45.9731 81.4346 0.0000 11.2038 0.0000
# 4 0.0000 0.0000 0.0000 19.2828 0.0000 19.1439
# 5 10.8835 2.7432 11.2038 0.0000 35.3733 0.0000
# 6 0.0000 0.0000 0.0000 19.1439 0.0000 -9.7040
#
#
#
# Elastic Compliance Matrix: (Units=1/GPa)
#
#
# Indices 1 2 3 4 5 6 
#
# 1 0.028235 -0.002956 -0.007167 0.000000 -0.006188 0.000000
# 2 -0.002956 0.010163 -0.004956 0.000000 0.001691 0.000000
# 3 -0.007167 -0.004956 0.017963 0.000000 -0.003100 0.000000
# 4 0.000000 0.000000 0.000000 0.017529 0.000000 0.034580
# 5 -0.006188 0.001691 -0.003100 0.000000 0.031024 0.000000
# 6 0.000000 0.000000 0.000000 0.034580 0.000000 -0.034831
#
#
# Mechanical properties :
#
#
# Convention : Reuss Voigt Hill
#
# Bulk Modulus (GPa) = 38.16340 50.66317 44.41328
# Shear Modulus (GPa) = 45.88220 19.47530 32.67875
#
# Velocity S-wave (km/s) = 4.82476 3.14337 4.07180
# Velocity P-wave (km/s) = 7.09929 6.23524 6.68125
#
# Compressibility (1/GPa) = 0.02620311
#
# Stress axis : x y z
#
# Youngs Moduli (GPa) = 35.41682 98.40094 55.66974
#
# Poissons Ratio (x) = 0.29084 0.39901
# Poissons Ratio (y) = 0.10468 0.27588
# Poissons Ratio (z) = 0.25385 0.48764
#
# Static dielectric constant tensor:
#      x y z
#    x 1.707500 0.000000 -0.085870 
#    y 0.000000 1.810590 0.000000 
#    z -0.085870 0.000000 1.722720 
# 
# From -- ./inp_files/18067.got.cif
#   From: 2010.05.17/outbox.ucp.g08.bks.cvg/sg11_10_cif.got.tgz:18067.got - 2010.06.11 11:38:39.
