data_PCOD9168130
_publ_section_title
;
Structure prediction by ZEFSAII (Michael W. Deem and Ramdas Pophale) SiO2 
 PCOD9168130
Probable space group: P 21/M
;
_chemical_formula_sum "Si O2"
_cell_formula_units_Z 28
_cell_length_a 12.000000
_cell_length_b 9.000000
_cell_length_c 15.000000
_cell_angle_alpha 90.000000
_cell_angle_beta 60.000000
_cell_angle_gamma 90.000000
_cell_volume 1402.961154
_symmetry_space_group_name_H-M "P 21/M"
_symmetry_group_IT_number 11
_symmetry_cell_setting 'monoclinic'
loop_
_space_group_symop_operation_xyz
x,y,z
-x,1/2+y,-z
-x,-y,-z
x,1/2-y,z
loop_
_atom_site_type_symbol
_atom_site_label
_atom_site_fract_x
_atom_site_fract_y
_atom_site_fract_z
Si Si1 0.317249 0.920626 0.133390
Si Si2 0.931596 0.574753 0.749701
Si Si3 0.880383 0.073435 0.485140
Si Si4 0.946742 0.428940 0.112648
Si Si5 0.604293 0.580320 0.076679
Si Si6 0.347801 0.925268 0.766388
Si Si7 0.571600 0.429903 0.561362
O O1 0.298373 0.750000 0.111764
O O2 0.449059 0.923265 0.136075
O O3 0.190865 0.980125 0.232975
O O4 0.343855 0.029633 0.039859
O O5 0.899285 0.750000 0.759712
O O6 0.055480 0.554240 0.637949
O O7 0.964614 0.532572 0.838136
O O8 0.877418 0.250000 0.509586
O O9 0.723564 0.030351 0.532089
O O10 0.000000 0.000000 0.500000
O O11 0.948089 0.250000 0.101441
O O12 0.799335 0.468975 0.198854
O O13 0.000000 0.500000 0.000000
O O14 0.645295 0.750000 0.080126
O O15 0.649626 0.462109 0.130143
O O16 0.364950 0.750000 0.740580
O O17 0.466301 0.016747 0.676670
O O18 0.500000 0.500000 0.500000
O O19 0.573021 0.250000 0.550910
#
# Coordination Sequence:
#
# PCOD9168130 Si02
#       7
#     4   4   4   4   4   4   4
#     4  10  21  36  56  84 118 154 196 245 297 360
#     4  10  21  39  61  84 117 160 201 248 312 374
#     4  10  24  44  66  94 129 169 219 276 332 391
#     4  10  22  39  60  89 126 163 204 254 309 373
#     4  10  21  37  56  83 119 156 197 245 300 361
#     4  11  23  39  62  90 122 159 205 254 309 372
#     4  11  24  44  68  95 129 168 217 273 329 389
#
# _framework density 19.957787
#
# number of rings (size 3 to 8) (size 9 to 14) (size 15 to 20)
#    0.000    1.714    0.000    3.429    2.000    9.714 
#    0.000    1.429    0.000    0.000    0.000    0.000 
#    0.000    0.000    0.000    0.000    0.000    0.000 
#
# Total GULP energy -155990.485742 kJ/mol
# GULP energy per Si atom -5571.088776 kJ/mol
# Density = 1.991236 g / cm^3
# Si number density = 19.957787 Si / 1000 Ang^3
#
#
#
# Elastic Constant Matrix: (Units=GPa)
#
#
# Indices 1 2 3 4 5 6 
#
# 1 111.7079 33.2044 14.0248 0.0000 -23.9967 0.0000
# 2 33.2044 61.3015 11.8632 0.0000 -13.0210 0.0000
# 3 14.0248 11.8632 39.6082 0.0000 -11.8037 0.0000
# 4 0.0000 0.0000 0.0000 34.7367 0.0000 -1.8008
# 5 -23.9967 -13.0210 -11.8037 0.0000 46.7135 0.0000
# 6 0.0000 0.0000 0.0000 -1.8008 0.0000 35.4936
#
#
#
# Elastic Compliance Matrix: (Units=1/GPa)
#
#
# Indices 1 2 3 4 5 6 
#
# 1 0.011530 -0.005106 -0.001311 0.000000 0.004168 0.000000
# 2 -0.005106 0.020226 -0.003624 0.000000 0.002099 0.000000
# 3 -0.001311 -0.003624 0.028437 0.000000 0.005502 0.000000
# 4 0.000000 0.000000 0.000000 0.028864 0.000000 0.001464
# 5 0.004168 0.002099 0.005502 0.000000 0.025524 0.000000
# 6 0.000000 0.000000 0.000000 0.001464 0.000000 0.028248
#
#
# Mechanical properties :
#
#
# Convention : Reuss Voigt Hill
#
# Bulk Modulus (GPa) = 24.93193 36.75582 30.84388
# Shear Modulus (GPa) = 28.36389 33.62379 30.99384
#
# Velocity S-wave (km/s) = 3.77396 4.10902 3.94505
# Velocity P-wave (km/s) = 5.61336 6.40069 6.01991
#
# Compressibility (1/GPa) = 0.04010922
#
# Stress axis : x y z
#
# Youngs Moduli (GPa) = 86.73285 49.44191 35.16590
#
# Poissons Ratio (x) = 0.25245 0.04610
# Poissons Ratio (y) = 0.44286 0.12745
# Poissons Ratio (z) = 0.11371 0.17920
#
# Static dielectric constant tensor:
#      x y z
#    x 1.759980 0.000000 0.006910 
#    y 0.000000 1.686970 0.000000 
#    z 0.006910 0.000000 1.732020 
# 
# From -- ./inp_files/49181.got.cif
#   From: 2010.05.17/outbox.ucp.g08.bks.cvg/sg11_25_cif.got.tgz:49181.got - 2010.06.11 11:38:39.
