data_PCOD9168408
_publ_section_title
;
Structure prediction by ZEFSAII (Michael W. Deem and Ramdas Pophale) SiO2 
 PCOD9168408
Probable space group: C 2/M
;
_chemical_formula_sum "Si O2"
_cell_formula_units_Z 52
_cell_length_a 21.875011
_cell_length_b 7.459042
_cell_length_c 18.383076
_cell_angle_alpha 90.000000
_cell_angle_beta 133.312221
_cell_angle_gamma 90.000000
_cell_volume 2182.518823
_symmetry_space_group_name_H-M "C 2/M"
_symmetry_group_IT_number 12
_symmetry_cell_setting 'monoclinic'
loop_
_space_group_symop_operation_xyz
x,y,z
-x,y,-z
-x,-y,-z
x,-y,z
1/2+x,1/2+y,z
1/2-x,1/2+y,-z
1/2-x,1/2-y,-z
1/2+x,1/2-y,z
loop_
_atom_site_type_symbol
_atom_site_label
_atom_site_fract_x
_atom_site_fract_y
_atom_site_fract_z
Si Si1 0.906565 0.719767 0.441855
Si Si2 0.500000 0.763106 0.000000
Si Si3 0.560671 0.715662 0.805780
Si Si4 0.847851 0.779785 0.975386
Si Si5 0.326289 0.207786 0.231015
Si Si6 0.095301 0.208834 0.231012
Si Si7 0.268384 0.214234 0.431105
O O1 0.910694 0.500000 0.445021
O O2 0.848296 0.781017 0.327426
O O3 0.858353 0.779581 0.475062
O O4 0.000000 0.782209 0.500000
O O5 0.581452 0.808742 0.017454
O O6 0.556423 0.709577 0.118190
O O7 0.556821 0.500000 0.798697
O O8 0.592760 0.781398 0.754787
O O9 0.473228 0.784462 0.768097
O O10 0.630464 0.762041 0.923689
O O11 0.755841 0.720264 0.876278
O O12 0.858817 0.000000 0.976071
O O13 0.306094 0.000000 0.226476
O O14 0.188532 0.283125 0.319001
O O15 0.101762 0.000000 0.255366
O O16 0.250000 0.250000 0.500000
O O17 0.271869 0.000000 0.424367
#
# Coordination Sequence:
#
# PCOD9168408 Si02
#       7
#     8   4   8   8   8   8   8
#     4   9  19  34  52  75 101 132 172 216 258 298
#     4  10  15  26  50  76 103 132 167 214 265 310
#     4   9  18  31  47  72 105 134 160 202 257 309
#     4   9  16  26  44  72 100 128 164 206 251 301
#     4  10  19  31  50  73  99 130 171 210 248 301
#     4   9  17  29  49  77 104 132 172 218 262 305
#     4  10  21  37  57  80 108 139 177 223 266 313
#
# _framework density 23.825682
#
# number of rings (size 3 to 8) (size 9 to 14) (size 15 to 20)
#    0.000    2.615    0.000    3.692    2.154    2.462 
#    0.000    0.769    0.000    0.923    0.000   18.308 
#    0.000    0.000    0.000    0.000    0.000    0.000 
#
# Total GULP energy -144809.008931 kJ/mol
# GULP energy per Si atom -5569.577267 kJ/mol
# Density = 2.377145 g / cm^3
# Si number density = 23.825682 Si / 1000 Ang^3
#
#
#
# Elastic Constant Matrix: (Units=GPa)
#
#
# Indices 1 2 3 4 5 6 
#
# 1 162.8112 -4.7848 58.9123 0.0000 0.5093 0.0000
# 2 -4.7848 63.9988 3.7510 -0.0001 3.6033 -0.0002
# 3 58.9123 3.7510 71.2305 0.0000 18.6635 0.0000
# 4 0.0000 -0.0001 0.0000 -24.3004 0.0000 8.7211
# 5 0.5093 3.6033 18.6635 0.0000 39.3724 0.0000
# 6 0.0000 -0.0002 0.0000 8.7211 0.0000 -44.0666
#
#
#
# Elastic Compliance Matrix: (Units=1/GPa)
#
#
# Indices 1 2 3 4 5 6 
#
# 1 0.009354 0.000993 -0.008830 0.000000 0.003974 0.000000
# 2 0.000993 0.015828 -0.001452 0.000000 -0.000773 0.000000
# 3 -0.008830 -0.001452 0.024382 0.000000 -0.011310 0.000000
# 4 0.000000 0.000000 0.000000 -0.044298 0.000000 -0.008767
# 5 0.003974 -0.000773 -0.011310 0.000000 0.030779 0.000000
# 6 0.000000 0.000000 0.000000 -0.008767 0.000000 -0.024428
#
#
# Mechanical properties :
#
#
# Convention : Reuss Voigt Hill
#
# Bulk Modulus (GPa) = 32.27281 45.97750 39.12516
# Shear Modulus (GPa) = 123.38525 10.21188 66.79857
#
# Velocity S-wave (km/s) = 7.20410 2.07253 5.30068
# Velocity P-wave (km/s) = 9.09800 5.00665 7.34303
#
# Compressibility (1/GPa) = 0.03098583
#
# Stress axis : x y z
#
# Youngs Moduli (GPa) = 106.90843 63.17846 41.01447
#
# Poissons Ratio (x) = -0.06274 0.36214
# Poissons Ratio (y) = -0.10617 0.05957
# Poissons Ratio (z) = 0.94396 0.09176
#
# Static dielectric constant tensor:
#      x y z
#    x 1.885380 0.000000 0.033140 
#    y 0.000000 1.948850 0.000000 
#    z 0.033140 0.000000 1.881060 
# 
# From -- ./inp_files/282272.got.cif
#   From: 2010.05.17/outbox.cif.g08.bks.cpg/sg12_142_cif.got.tgz:282272.got - 2010.06.03 13:09:07.
