data_PCOD9168302
_publ_section_title
;
Structure prediction by ZEFSAII (Michael W. Deem and Ramdas Pophale) SiO2 
 PCOD9168302
Probable space group: C 2/M
;
_chemical_formula_sum "Si O2"
_cell_formula_units_Z 44
_cell_length_a 7.033905
_cell_length_b 24.805533
_cell_length_c 11.910310
_cell_angle_alpha 90.000000
_cell_angle_beta 63.821552
_cell_angle_gamma 90.000000
_cell_volume 1864.944839
_symmetry_space_group_name_H-M "C 2/M"
_symmetry_group_IT_number 12
_symmetry_cell_setting 'monoclinic'
loop_
_space_group_symop_operation_xyz
x,y,z
-x,y,-z
-x,-y,-z
x,-y,z
1/2+x,1/2+y,z
1/2-x,1/2+y,-z
1/2-x,1/2-y,-z
1/2+x,1/2-y,z
loop_
_atom_site_type_symbol
_atom_site_label
_atom_site_fract_x
_atom_site_fract_y
_atom_site_fract_z
Si Si1 0.705447 0.312909 0.522587
Si Si2 0.756619 0.500000 0.039704
Si Si3 0.985614 0.877160 0.236352
Si Si4 0.392625 0.887646 0.300620
Si Si5 0.120162 0.000000 0.716938
Si Si6 0.262759 0.000000 0.438255
Si Si7 0.794415 0.616540 0.970908
O O1 0.500000 0.323321 0.500000
O O2 0.750000 0.250000 0.500000
O O3 0.654235 0.334134 0.659973
O O4 0.873575 0.348832 0.412368
O O5 0.720865 0.554243 0.982272
O O6 0.633429 0.500000 0.188981
O O7 0.000000 0.500000 0.000000
O O8 0.189769 0.884662 0.267674
O O9 0.865940 0.935070 0.254846
O O10 0.097355 0.858310 0.090970
O O11 0.598969 0.870361 0.175253
O O12 0.367617 0.948075 0.354535
O O13 0.268188 0.000000 0.570545
O O14 0.000000 0.000000 0.500000
O O15 0.000000 0.619433 0.000000
#
# Coordination Sequence:
#
# PCOD9168302 Si02
#       7
#     8   4   8   8   4   4   8
#     4  10  20  33  48  65  88 118 153 187 223 261
#     4   8  13  18  27  48  84 119 140 158 212 272
#     4   9  15  26  39  61  88 115 143 179 221 270
#     4  10  16  24  39  62  87 115 146 180 221 266
#     4  10  14  20  34  59  88 116 138 174 220 274
#     4  12  15  18  34  60  91 116 143 178 223 269
#     4   8  14  21  34  54  84 115 142 173 216 264
#
# _framework density 23.593191999999998
#
# number of rings (size 3 to 8) (size 9 to 14) (size 15 to 20)
#    0.000    2.545    3.636    2.182    0.000    0.000 
#    0.000    0.909    0.000    0.000    0.000    2.545 
#    0.000    0.000    0.000    8.364    0.000    5.273 
#
# Total GULP energy -122493.675223 kJ/mol
# GULP energy per Si atom -5567.894328 kJ/mol
# Density = 2.353949 g / cm^3
# Si number density = 23.593192 Si / 1000 Ang^3
#
#
#
# Elastic Constant Matrix: (Units=GPa)
#
#
# Indices 1 2 3 4 5 6 
#
# 1 86.5691 2.5527 40.9761 0.0000 -9.2005 0.0000
# 2 2.5527 127.2648 95.1005 0.0000 -4.4005 0.0000
# 3 40.9761 95.1005 275.9485 0.0000 -16.0633 0.0000
# 4 0.0000 0.0000 0.0000 14.4751 0.0000 -10.7989
# 5 -9.2005 -4.4005 -16.0633 0.0000 33.4467 0.0000
# 6 0.0000 0.0000 0.0000 -10.7989 0.0000 11.4180
#
#
#
# Elastic Compliance Matrix: (Units=1/GPa)
#
#
# Indices 1 2 3 4 5 6 
#
# 1 0.012871 0.001544 -0.002289 0.000000 0.002644 0.000000
# 2 0.001544 0.010773 -0.003945 0.000000 -0.000053 0.000000
# 3 -0.002289 -0.003945 0.005408 0.000000 0.001448 0.000000
# 4 0.000000 0.000000 0.000000 0.234651 0.000000 0.221928
# 5 0.002644 -0.000053 0.001448 0.000000 0.031314 0.000000
# 6 0.000000 0.000000 0.000000 0.221928 0.000000 0.297476
#
#
# Mechanical properties :
#
#
# Convention : Reuss Voigt Hill
#
# Bulk Modulus (GPa) = 50.83771 85.22678 68.03225
# Shear Modulus (GPa) = 8.21787 35.27816 21.74802
#
# Velocity S-wave (km/s) = 1.86835 3.87107 3.03940
# Velocity P-wave (km/s) = 5.12335 7.49547 6.41992
#
# Compressibility (1/GPa) = 0.01967044
#
# Stress axis : x y z
#
# Youngs Moduli (GPa) = 77.69648 92.82649 184.92171
#
# Poissons Ratio (x) = -0.14333 0.42336
# Poissons Ratio (y) = -0.11997 0.72951
# Poissons Ratio (z) = 0.17788 0.36620
#
# Static dielectric constant tensor:
#      x y z
#    x 2.071400 0.000000 -0.002640 
#    y 0.000000 2.316410 0.000000 
#    z -0.002640 0.000000 1.904780 
# 
# From -- ./inp_files/207574.got.cif
#   From: 2010.05.17/outbox.cif.g08.bks.cpg/sg12_104_cif.got.tgz:207574.got - 2010.06.03 13:09:07.
