data_PCOD9168581
_publ_section_title
;
Structure prediction by ZEFSAII (Michael W. Deem and Ramdas Pophale) SiO2 
 PCOD9168581
Probable space group: C 2/M
;
_chemical_formula_sum "Si O2"
_cell_formula_units_Z 56
_cell_length_a 5.555077
_cell_length_b 18.472499
_cell_length_c 27.164459
_cell_angle_alpha 90.000000
_cell_angle_beta 65.651076
_cell_angle_gamma 90.000000
_cell_volume 2539.567441
_symmetry_space_group_name_H-M "C 2/M"
_symmetry_group_IT_number 12
_symmetry_cell_setting 'monoclinic'
loop_
_space_group_symop_operation_xyz
x,y,z
-x,y,-z
-x,-y,-z
x,-y,z
1/2+x,1/2+y,z
1/2-x,1/2+y,-z
1/2-x,1/2-y,-z
1/2+x,1/2-y,z
loop_
_atom_site_type_symbol
_atom_site_label
_atom_site_fract_x
_atom_site_fract_y
_atom_site_fract_z
Si Si1 0.292967 0.666038 0.978679
Si Si2 0.706382 0.833372 0.521635
Si Si3 0.684053 0.331733 0.308271
Si Si4 0.177454 0.000000 0.215595
Si Si5 0.353110 0.648674 0.146051
Si Si6 0.899767 0.665961 0.650006
Si Si7 0.725795 0.158307 0.814828
Si Si8 0.815538 0.500000 0.787057
O O1 0.431057 0.656758 0.914501
O O2 0.500000 0.633384 0.000000
O O3 0.250000 0.750000 0.000000
O O4 0.000000 0.633904 0.000000
O O5 0.500000 0.866089 0.500000
O O6 0.750000 0.750000 0.500000
O O7 0.572043 0.834013 0.586191
O O8 0.000000 0.865946 0.500000
O O9 0.391457 0.366200 0.335271
O O10 0.657615 0.249858 0.330950
O O11 0.752887 0.328557 0.245097
O O12 0.922183 0.364663 0.320411
O O13 0.252083 0.928281 0.179845
O O14 0.370350 0.000000 0.245745
O O15 0.864087 0.000000 0.246151
O O16 0.506760 0.683787 0.180137
O O17 0.266671 0.570158 0.174049
O O18 0.076091 0.677486 0.146365
#
# Coordination Sequence:
#
# PCOD9168581 Si02
#       8
#     8   8   8   4   8   8   8   4
#     4  10  21  38  53  69  95 126 152 185 231 269
#     4  10  16  25  41  58  77 117 161 190 223 262
#     4  10  18  30  43  62  93 125 150 177 229 273
#     4   8  16  30  48  71  94 112 148 191 228 258
#     4  10  19  35  53  72  92 115 153 190 225 273
#     4  10  19  30  40  60  96 127 148 190 227 264
#     4  10  19  32  52  73  91 122 154 187 223 272
#     4   8  16  30  52  73  92 112 138 189 236 264
#
# _framework density 22.050998
#
# number of rings (size 3 to 8) (size 9 to 14) (size 15 to 20)
#    0.000    2.286    0.000    6.000    0.000    0.000 
#    0.000   17.857    0.000    0.000    0.000    0.000 
#    0.000    0.000    0.000   47.571    0.000    0.000 
#
# Total GULP energy -155963.816659 kJ/mol
# GULP energy per Si atom -5570.136309 kJ/mol
# Density = 2.200081 g / cm^3
# Si number density = 22.050998 Si / 1000 Ang^3
#
#
#
# Elastic Constant Matrix: (Units=GPa)
#
#
# Indices 1 2 3 4 5 6 
#
# 1 237.6159 -12.2646 7.6901 0.0000 -6.1386 0.0000
# 2 -12.2646 58.7098 -16.4254 0.0000 1.0856 0.0000
# 3 7.6901 -16.4254 87.6013 0.0000 -6.7260 0.0000
# 4 0.0000 0.0000 0.0000 9.7586 0.0000 -14.7703
# 5 -6.1386 1.0856 -6.7260 0.0000 45.3369 0.0000
# 6 0.0000 0.0000 0.0000 -14.7703 0.0000 170.8865
#
#
#
# Elastic Compliance Matrix: (Units=1/GPa)
#
#
# Indices 1 2 3 4 5 6 
#
# 1 0.004271 0.000833 -0.000178 0.000000 0.000532 0.000000
# 2 0.000833 0.018138 0.003341 0.000000 0.000174 0.000000
# 3 -0.000178 0.003341 0.012188 0.000000 0.001704 0.000000
# 4 0.000000 0.000000 0.000000 0.117898 0.000000 0.010190
# 5 0.000532 0.000174 0.001704 0.000000 0.022378 0.000000
# 6 0.000000 0.000000 0.000000 0.010190 0.000000 0.006733
#
#
# Mechanical properties :
#
#
# Convention : Reuss Voigt Hill
#
# Bulk Modulus (GPa) = 23.48000 37.99191 30.73595
# Shear Modulus (GPa) = 26.62254 72.19152 49.40703
#
# Velocity S-wave (km/s) = 3.47842 5.72796 4.73861
# Velocity P-wave (km/s) = 5.17723 7.81105 6.62632
#
# Compressibility (1/GPa) = 0.04258944
#
# Stress axis : x y z
#
# Youngs Moduli (GPa) = 234.14006 55.13158 82.04577
#
# Poissons Ratio (x) = -0.04590 0.01460
# Poissons Ratio (y) = -0.19494 -0.27414
# Poissons Ratio (z) = 0.04167 -0.18421
#
# Static dielectric constant tensor:
#      x y z
#    x 1.974000 0.000000 0.006170 
#    y 0.000000 1.826460 0.000000 
#    z 0.006170 0.000000 1.769160 
# 
# From -- ./inp_files/331383.got.cif
#   From: 2010.05.17/outbox.cif.g08.bks.cpg/sg12_166_cif.got.tgz:331383.got - 2010.06.03 13:09:07.
