data_PCOD9168507
_publ_section_title
;
Structure prediction by ZEFSAII (Michael W. Deem and Ramdas Pophale) SiO2 
 PCOD9168507
Probable space group: C 2/M
;
_chemical_formula_sum "Si O2"
_cell_formula_units_Z 48
_cell_length_a 16.015995
_cell_length_b 8.467671
_cell_length_c 14.555422
_cell_angle_alpha 90.000000
_cell_angle_beta 97.192856
_cell_angle_gamma 90.000000
_cell_volume 1958.445201
_symmetry_space_group_name_H-M "C 2/M"
_symmetry_group_IT_number 12
_symmetry_cell_setting 'monoclinic'
loop_
_space_group_symop_operation_xyz
x,y,z
-x,y,-z
-x,-y,-z
x,-y,z
1/2+x,1/2+y,z
1/2-x,1/2+y,-z
1/2-x,1/2-y,-z
1/2+x,1/2-y,z
loop_
_atom_site_type_symbol
_atom_site_label
_atom_site_fract_x
_atom_site_fract_y
_atom_site_fract_z
Si Si1 0.296610 0.814323 0.208719
Si Si2 0.175731 0.311920 0.058240
Si Si3 0.664569 0.187518 0.445281
Si Si4 0.945115 0.187100 0.102247
Si Si5 0.918339 0.312903 0.383065
Si Si6 0.561810 0.685040 0.273119
O O1 0.206073 0.758080 0.159978
O O2 0.366074 0.719343 0.159532
O O3 0.328904 0.796892 0.317022
O O4 0.304044 0.000000 0.186597
O O5 0.177084 0.500000 0.061843
O O6 0.250000 0.250000 0.000000
O O7 0.089564 0.255462 0.998337
O O8 0.750000 0.250000 0.500000
O O9 0.595476 0.231108 0.513519
O O10 0.638780 0.246517 0.341628
O O11 0.668154 0.000000 0.442994
O O12 0.023517 0.253772 0.172663
O O13 0.956409 0.000000 0.092659
O O14 0.941933 0.500000 0.380450
O O15 0.984944 0.213981 0.334468
O O16 0.576486 0.500000 0.261040
#
# Coordination Sequence:
#
# PCOD9168507 Si02
#       6
#     8   8   8   8   8   8
#     4   9  15  25  41  62  91 125 159 194 236 283
#     4  10  16  22  35  59  92 126 158 192 234 281
#     4  11  23  38  54  73  99 130 166 206 250 299
#     4   9  16  26  40  62  93 126 159 194 234 282
#     4   9  19  34  52  74 100 132 167 204 246 294
#     4  10  20  33  52  77 102 130 166 206 247 293
#
# _framework density 24.509236999999999
#
# number of rings (size 3 to 8) (size 9 to 14) (size 15 to 20)
#    0.000    2.333    0.000    6.000    0.000    6.000 
#    0.000    0.000    0.000    0.000    0.000    1.167 
#    0.000    9.333    0.000    0.000    0.000    0.000 
#
# Total GULP energy -134173.124724 kJ/mol
# GULP energy per Si atom -5590.546864 kJ/mol
# Density = 2.445345 g / cm^3
# Si number density = 24.509237 Si / 1000 Ang^3
#
#
#
# Elastic Constant Matrix: (Units=GPa)
#
#
# Indices 1 2 3 4 5 6 
#
# 1 87.2634 2.7201 44.4005 0.0000 28.6697 0.0000
# 2 2.7201 65.0952 38.8772 0.0000 3.0783 0.0000
# 3 44.4005 38.8772 225.2959 0.0000 22.0312 0.0000
# 4 0.0000 0.0000 0.0000 34.3966 0.0000 17.2146
# 5 28.6697 3.0783 22.0312 0.0000 53.7014 0.0000
# 6 0.0000 0.0000 0.0000 17.2146 0.0000 12.4438
#
#
#
# Elastic Compliance Matrix: (Units=1/GPa)
#
#
# Indices 1 2 3 4 5 6 
#
# 1 0.014999 0.001182 -0.002469 0.000000 -0.007062 0.000000
# 2 0.001182 0.017223 -0.003174 0.000000 -0.000316 0.000000
# 3 -0.002469 -0.003174 0.005549 0.000000 -0.000776 0.000000
# 4 0.000000 0.000000 0.000000 0.094499 0.000000 -0.130728
# 5 -0.007062 -0.000316 -0.000776 0.000000 0.022729 0.000000
# 6 0.000000 0.000000 0.000000 -0.130728 0.000000 0.261208
#
#
# Mechanical properties :
#
#
# Convention : Reuss Voigt Hill
#
# Bulk Modulus (GPa) = 34.66353 61.07226 47.86789
# Shear Modulus (GPa) = 11.50096 39.55214 25.52655
#
# Velocity S-wave (km/s) = 2.16857 4.02153 3.23074
# Velocity P-wave (km/s) = 4.52150 6.82171 5.78704
#
# Compressibility (1/GPa) = 0.02884877
#
# Stress axis : x y z
#
# Youngs Moduli (GPa) = 66.66894 58.06067 180.21617
#
# Poissons Ratio (x) = -0.06863 0.44502
# Poissons Ratio (y) = -0.07880 0.57203
# Poissons Ratio (z) = 0.16463 0.18429
#
# Static dielectric constant tensor:
#      x y z
#    x 2.026790 0.000000 0.022930 
#    y 0.000000 1.847060 0.000000 
#    z 0.022930 0.000000 1.979100 
# 
# From -- ./inp_files/280539.got.cif
#   From: 2010.05.17/outbox.cif.g08.bks.cpg/sg12_141_cif.got.tgz:280539.got - 2010.06.03 13:09:07.
