data_PCOD9168131
_publ_section_title
;
Structure prediction by ZEFSAII (Michael W. Deem and Ramdas Pophale) SiO2 
 PCOD9168131
Probable space group: P 21/M
;
_chemical_formula_sum "Si O2"
_cell_formula_units_Z 32
_cell_length_a 24.000000
_cell_length_b 9.000000
_cell_length_c 15.000000
_cell_angle_alpha 90.000000
_cell_angle_beta 30.000000
_cell_angle_gamma 90.000000
_cell_volume 1620.000000
_symmetry_space_group_name_H-M "P 21/M"
_symmetry_group_IT_number 11
_symmetry_cell_setting 'monoclinic'
loop_
_space_group_symop_operation_xyz
x,y,z
-x,1/2+y,-z
-x,-y,-z
x,1/2-y,z
loop_
_atom_site_type_symbol
_atom_site_label
_atom_site_fract_x
_atom_site_fract_y
_atom_site_fract_z
Si Si1 0.161454 0.420804 0.208204
Si Si2 0.562062 0.571514 0.627203
Si Si3 0.432218 0.428771 0.177077
Si Si4 0.019004 0.071182 0.070063
Si Si5 0.664695 0.426318 0.161811
Si Si6 0.259359 0.572704 0.746510
Si Si7 0.102789 0.919093 0.464133
Si Si8 0.169155 0.075237 0.546197
O O1 0.191300 0.250000 0.189077
O O2 0.164685 0.529295 0.288748
O O3 0.030754 0.420260 0.363311
O O4 0.240315 0.482007 0.021332
O O5 0.581942 0.750000 0.599009
O O6 0.531551 0.530179 0.771814
O O7 0.455495 0.537655 0.713211
O O8 0.670865 0.493564 0.433458
O O9 0.441957 0.250000 0.154092
O O10 0.299991 0.466199 0.364105
O O11 0.500000 0.500000 0.000000
O O12 0.021727 0.250000 0.064834
O O13 0.915871 0.015499 0.273478
O O14 0.140469 0.006719 0.927914
O O15 0.000000 0.000000 0.000000
O O16 0.684948 0.250000 0.118938
O O17 0.671354 0.451761 0.258373
O O18 0.242447 0.750000 0.757529
O O19 0.135118 0.750000 0.443910
O O20 0.129746 0.038408 0.501595
O O21 0.160662 0.250000 0.580164
#
# Coordination Sequence:
#
# PCOD9168131 Si02
#       8
#     4   4   4   4   4   4   4   4
#     4  10  21  36  56  85 119 157 204 257 313 371
#     4  10  22  42  64  89 124 168 214 265 319 377
#     4  10  24  43  64  90 123 162 208 261 316 369
#     4  12  25  42  66  95 127 167 209 257 317 379
#     4  10  22  38  60  90 126 166 210 258 316 377
#     4  11  23  40  64  96 131 168 210 262 316 377
#     4  10  21  37  58  84 118 161 204 253 313 375
#     4  11  23  40  62  92 126 160 204 257 311 371
#
# _framework density 19.753086
#
# number of rings (size 3 to 8) (size 9 to 14) (size 15 to 20)
#    0.000    1.500    0.000    4.500    1.750    7.500 
#    0.000    0.000    0.000    0.000    0.000    0.000 
#    0.000    0.000    0.000    0.000    0.000    0.000 
#
# Total GULP energy -178769.940225 kJ/mol
# GULP energy per Si atom -5586.560632 kJ/mol
# Density = 1.970813 g / cm^3
# Si number density = 19.753086 Si / 1000 Ang^3
#
#
#
# Elastic Constant Matrix: (Units=GPa)
#
#
# Indices 1 2 3 4 5 6 
#
# 1 88.0468 30.3080 49.0759 0.0000 7.9386 0.0000
# 2 30.3080 88.3929 57.6749 0.0000 -1.7261 0.0000
# 3 49.0759 57.6749 133.7829 0.0000 17.0040 0.0000
# 4 0.0000 0.0000 0.0000 41.8827 0.0000 4.9940
# 5 7.9386 -1.7261 17.0040 0.0000 27.3042 0.0000
# 6 0.0000 0.0000 0.0000 4.9940 0.0000 25.7405
#
#
#
# Elastic Compliance Matrix: (Units=1/GPa)
#
#
# Indices 1 2 3 4 5 6 
#
# 1 0.014631 -0.002370 -0.004111 0.000000 -0.001844 0.000000
# 2 -0.002370 0.016977 -0.007247 0.000000 0.006276 0.000000
# 3 -0.004111 -0.007247 0.013046 0.000000 -0.007387 0.000000
# 4 0.000000 0.000000 0.000000 0.024442 0.000000 -0.004742
# 5 -0.001844 0.006276 -0.007387 0.000000 0.042158 0.000000
# 6 0.000000 0.000000 0.000000 -0.004742 0.000000 0.039769
#
#
# Mechanical properties :
#
#
# Convention : Reuss Voigt Hill
#
# Bulk Modulus (GPa) = 58.14810 64.92666 61.53738
# Shear Modulus (GPa) = 27.14261 30.52973 28.83617
#
# Velocity S-wave (km/s) = 3.71090 3.93564 3.82492
# Velocity P-wave (km/s) = 6.91827 7.32071 7.12233
#
# Compressibility (1/GPa) = 0.01719747
#
# Stress axis : x y z
#
# Youngs Moduli (GPa) = 68.34728 58.90330 76.65162
#
# Poissons Ratio (x) = 0.13962 0.31511
# Poissons Ratio (y) = 0.16201 0.55550
# Poissons Ratio (z) = 0.28097 0.42687
#
# Static dielectric constant tensor:
#      x y z
#    x 1.748020 0.000000 -0.014910 
#    y 0.000000 1.674660 0.000000 
#    z -0.014910 0.000000 1.675280 
# 
# From -- ./inp_files/55602.got.cif
#   From: 2010.05.17/outbox.ucp.g08.bks.cvg/sg11_28_cif.got.tgz:55602.got - 2010.06.11 11:38:39.
