data_PCOD9168950
_publ_section_title
;
Structure prediction by ZEFSAII (Michael W. Deem and Ramdas Pophale) SiO2 
 PCOD9168950
Probable space group: C 2/M
;
_chemical_formula_sum "Si O2"
_cell_formula_units_Z 48
_cell_length_a 14.356893
_cell_length_b 19.727839
_cell_length_c 8.088485
_cell_angle_alpha 90.000000
_cell_angle_beta 79.581381
_cell_angle_gamma 90.000000
_cell_volume 2253.134723
_symmetry_space_group_name_H-M "C 2/M"
_symmetry_group_IT_number 12
_symmetry_cell_setting 'monoclinic'
loop_
_space_group_symop_operation_xyz
x,y,z
-x,y,-z
-x,-y,-z
x,-y,z
1/2+x,1/2+y,z
1/2-x,1/2+y,-z
1/2-x,1/2-y,-z
1/2+x,1/2-y,z
loop_
_atom_site_type_symbol
_atom_site_label
_atom_site_fract_x
_atom_site_fract_y
_atom_site_fract_z
Si Si1 0.811042 0.000000 0.471600
Si Si2 0.973459 0.000000 0.196034
Si Si3 0.412494 0.145265 0.787820
Si Si4 0.378553 0.851321 0.191352
Si Si5 0.580713 0.383534 0.357924
Si Si6 0.287636 0.733777 0.802640
Si Si7 0.436326 0.000000 0.686338
Si Si8 0.140148 0.500000 0.722435
O O1 0.853420 0.066270 0.552660
O O2 0.862357 0.000000 0.278511
O O3 0.697734 0.000000 0.529411
O O4 0.022291 0.934736 0.261864
O O5 0.000000 0.000000 0.000000
O O6 0.526152 0.152115 0.729979
O O7 0.345451 0.200664 0.726104
O O8 0.385307 0.070210 0.738520
O O9 0.400787 0.154802 0.989099
O O10 0.305004 0.792815 0.262783
O O11 0.333629 0.926571 0.216262
O O12 0.500000 0.350275 0.500000
O O13 0.639848 0.329036 0.236039
O O14 0.250000 0.750000 0.000000
O O15 0.500000 0.000000 0.500000
O O16 0.526943 0.000000 0.782816
#
# Coordination Sequence:
#
# PCOD9168950 Si02
#       8
#     4   4   8   8   8   8   4   4
#     4   9  16  32  59  84 108 141 195 239 267 341
#     4   9  19  36  53  82 117 150 182 225 295 348
#     4   9  19  34  54  81 113 145 189 232 288 336
#     4   9  17  32  56  86 107 141 189 234 276 338
#     4   9  18  34  58  81 110 151 192 234 282 343
#     4  10  19  33  55  87 112 145 186 239 288 332
#     4  10  21  36  53  74 109 150 182 233 296 334
#     4  10  16  30  62  80 105 137 191 241 274 332
#
# _framework density 21.303653000000001
#
# number of rings (size 3 to 8) (size 9 to 14) (size 15 to 20)
#    0.000    2.667    1.667    1.500    0.000    2.667 
#    6.000    3.333    3.667    3.000    0.000    0.000 
#    0.000    0.000    0.000    0.000    0.000    0.000 
#
# Total GULP energy -133643.491740 kJ/mol
# GULP energy per Si atom -5568.478823 kJ/mol
# Density = 2.125516 g / cm^3
# Si number density = 21.303653 Si / 1000 Ang^3
#
#
#
# Elastic Constant Matrix: (Units=GPa)
#
#
# Indices 1 2 3 4 5 6 
#
# 1 69.7179 63.1613 16.0682 0.0000 -24.7517 0.0000
# 2 63.1613 155.9684 17.8164 0.0000 -19.3782 0.0000
# 3 16.0682 17.8164 64.4019 0.0000 -21.2053 0.0000
# 4 0.0000 0.0000 0.0000 1.7182 0.0000 -5.9790
# 5 -24.7517 -19.3782 -21.2053 0.0000 28.7561 0.0000
# 6 0.0000 0.0000 0.0000 -5.9790 0.0000 24.7257
#
#
#
# Elastic Compliance Matrix: (Units=1/GPa)
#
#
# Indices 1 2 3 4 5 6 
#
# 1 0.030242 -0.009887 0.002070 0.000000 0.020894 0.000000
# 2 -0.009887 0.010242 -0.001184 0.000000 -0.002481 0.000000
# 3 0.002070 -0.001184 0.020685 0.000000 0.016237 0.000000
# 4 0.000000 0.000000 0.000000 3.671390 0.000000 0.887782
# 5 0.020894 -0.002481 0.016237 0.000000 0.063061 0.000000
# 6 0.000000 0.000000 0.000000 0.887782 0.000000 0.255119
#
#
# Mechanical properties :
#
#
# Convention : Reuss Voigt Hill
#
# Bulk Modulus (GPa) = 23.16601 53.79777 38.48189
# Shear Modulus (GPa) = 1.22455 23.90949 12.56702
#
# Velocity S-wave (km/s) = 0.75898 3.35374 2.43142
# Velocity P-wave (km/s) = 3.41554 6.34857 5.09756
#
# Compressibility (1/GPa) = 0.04316668
#
# Stress axis : x y z
#
# Youngs Moduli (GPa) = 33.06676 97.63260 48.34443
#
# Poissons Ratio (x) = 0.96532 -0.10005
# Poissons Ratio (y) = 0.32694 0.05722
# Poissons Ratio (z) = -0.06843 0.11555
#
# Static dielectric constant tensor:
#      x y z
#    x 1.887250 0.000000 0.002530 
#    y 0.000000 1.758700 0.000000 
#    z 0.002530 0.000000 1.798310 
# 
# From -- ./inp_files/63418.got.cif
#   From: 2010.05.17/outbox.cif.g08.bks.cpg/sg12_32_cif.got.tgz:63418.got - 2010.06.03 13:09:07.
