data_PCOD9168869
_publ_section_title
;
Structure prediction by ZEFSAII (Michael W. Deem and Ramdas Pophale) SiO2 
 PCOD9168869
Probable space group: C 2/M
;
_chemical_formula_sum "Si O2"
_cell_formula_units_Z 56
_cell_length_a 26.647825
_cell_length_b 18.554265
_cell_length_c 18.025417
_cell_angle_alpha 90.000000
_cell_angle_beta 161.545722
_cell_angle_gamma 90.000000
_cell_volume 2821.175698
_symmetry_space_group_name_H-M "C 2/M"
_symmetry_group_IT_number 12
_symmetry_cell_setting 'monoclinic'
loop_
_space_group_symop_operation_xyz
x,y,z
-x,y,-z
-x,-y,-z
x,-y,z
1/2+x,1/2+y,z
1/2-x,1/2+y,-z
1/2-x,1/2-y,-z
1/2+x,1/2-y,z
loop_
_atom_site_type_symbol
_atom_site_label
_atom_site_fract_x
_atom_site_fract_y
_atom_site_fract_z
Si Si1 0.815581 0.358226 0.901353
Si Si2 0.178612 0.634231 0.249185
Si Si3 0.319495 0.198890 0.273012
Si Si4 0.307566 0.167090 0.574579
Si Si5 0.613559 0.419913 0.730862
Si Si6 0.384425 0.702893 0.148458
Si Si7 0.207952 0.707030 0.600518
O O1 0.760392 0.392360 0.745248
O O2 0.716595 0.284771 0.774073
O O3 0.782526 0.404815 0.927809
O O4 0.001351 0.339564 0.154098
O O5 0.251309 0.625271 0.433760
O O6 0.179749 0.722030 0.242033
O O7 0.000000 0.606125 0.000000
O O8 0.500000 0.187432 0.500000
O O9 0.292494 0.172766 0.318810
O O10 0.192248 0.173004 0.034408
O O11 0.250000 0.250000 0.500000
O O12 0.260128 0.153092 0.422696
O O13 0.500000 0.414328 0.500000
O O14 0.605498 0.500000 0.750129
O O15 0.579030 0.360812 0.743827
O O16 0.535732 0.754084 0.348326
O O17 0.250000 0.750000 0.000000
#
# Coordination Sequence:
#
# PCOD9168869 Si02
#       7
#     8   8   8   8   8   8   8
#     4  10  16  30  47  71 106 143 172 215 280 328
#     4   8  16  25  42  64  99 134 163 211 267 320
#     4  11  19  27  45  76 103 132 174 220 267 333
#     4   9  16  27  43  73 103 135 171 224 281 319
#     4  11  23  37  54  79 114 151 190 228 270 336
#     4  12  20  31  51  78 105 139 184 230 276 328
#     4  10  17  27  44  68 103 138 167 212 272 330
#
# _framework density 19.849881
#
# number of rings (size 3 to 8) (size 9 to 14) (size 15 to 20)
#    0.000    1.857    4.286    2.143    0.000    0.000 
#    0.000    0.000    0.000    4.286    0.000    5.000 
#    0.000    0.000    0.000   18.143    0.000    0.000 
#
# Total GULP energy -155923.921745 kJ/mol
# GULP energy per Si atom -5568.711491 kJ/mol
# Density = 1.980470 g / cm^3
# Si number density = 19.849881 Si / 1000 Ang^3
#
#
#
# Elastic Constant Matrix: (Units=GPa)
#
#
# Indices 1 2 3 4 5 6 
#
# 1 114.0208 -1.0799 11.7175 0.0000 -41.0974 0.0000
# 2 -1.0799 30.3530 -0.1933 0.0000 -5.6327 0.0000
# 3 11.7175 -0.1933 67.0515 0.0000 -4.8529 0.0000
# 4 0.0000 0.0000 0.0000 6.9501 0.0000 -2.4103
# 5 -41.0974 -5.6327 -4.8529 0.0000 44.5157 0.0000
# 6 0.0000 0.0000 0.0000 -2.4103 0.0000 11.8818
#
#
#
# Elastic Compliance Matrix: (Units=1/GPa)
#
#
# Indices 1 2 3 4 5 6 
#
# 1 0.013514 0.002824 -0.001436 0.000000 0.012677 0.000000
# 2 0.002824 0.034339 0.000109 0.000000 0.006964 0.000000
# 3 -0.001436 0.000109 0.015190 0.000000 0.000344 0.000000
# 4 0.000000 0.000000 0.000000 0.154770 0.000000 0.031396
# 5 0.012677 0.006964 0.000344 0.000000 0.035086 0.000000
# 6 0.000000 0.000000 0.000000 0.031396 0.000000 0.090531
#
#
# Mechanical properties :
#
#
# Convention : Reuss Voigt Hill
#
# Bulk Modulus (GPa) = 15.14268 25.81267 20.47768
# Shear Modulus (GPa) = 13.79507 26.06827 19.93167
#
# Velocity S-wave (km/s) = 2.63909 3.62784 3.17222
# Velocity P-wave (km/s) = 4.11480 5.52996 4.87401
#
# Compressibility (1/GPa) = 0.06603849
#
# Stress axis : x y z
#
# Youngs Moduli (GPa) = 73.99767 29.12126 65.83253
#
# Poissons Ratio (x) = -0.08224 0.09453
# Poissons Ratio (y) = -0.20898 -0.00721
# Poissons Ratio (z) = 0.10626 -0.00319
#
# Static dielectric constant tensor:
#      x y z
#    x 1.845320 0.000000 -0.006230 
#    y 0.000000 1.652500 0.000000 
#    z -0.006230 0.000000 1.779010 
# 
# From -- ./inp_files/293916.got.cif
#   From: 2010.05.17/outbox.cif.g08.bks.cpg/sg12_147_cif.got.tgz:293916.got - 2010.06.03 13:09:07.
