data_PCOD9168239
_publ_section_title
;
Structure prediction by ZEFSAII (Michael W. Deem and Ramdas Pophale) SiO2 
 PCOD9168239
Probable space group: P 21/M
;
_chemical_formula_sum "Si O2"
_cell_formula_units_Z 28
_cell_length_a 15.000000
_cell_length_b 9.000000
_cell_length_c 21.000000
_cell_angle_alpha 90.000000
_cell_angle_beta 150.000000
_cell_angle_gamma 90.000000
_cell_volume 1417.500000
_symmetry_space_group_name_H-M "P 21/M"
_symmetry_group_IT_number 11
_symmetry_cell_setting 'monoclinic'
loop_
_space_group_symop_operation_xyz
x,y,z
-x,1/2+y,-z
-x,-y,-z
x,1/2-y,z
loop_
_atom_site_type_symbol
_atom_site_label
_atom_site_fract_x
_atom_site_fract_y
_atom_site_fract_z
Si Si1 0.033283 0.576897 0.847924
Si Si2 0.511765 0.573197 0.320693
Si Si3 0.864213 0.928609 0.607676
Si Si4 0.040587 0.077167 0.593940
Si Si5 0.848486 0.923990 0.862853
Si Si6 0.611989 0.574611 0.882874
Si Si7 0.556176 0.576030 0.101635
O O1 0.089916 0.750000 0.874822
O O2 0.961422 0.521513 0.734071
O O3 0.881887 0.574221 0.807931
O O4 0.189767 0.490664 0.982589
O O5 0.523280 0.750000 0.317868
O O6 0.658220 0.532326 0.464988
O O7 0.324632 0.519204 0.230959
O O8 0.506744 0.498033 0.247159
O O9 0.878053 0.750000 0.617811
O O10 0.946713 0.990246 0.593421
O O11 0.982773 0.250000 0.553186
O O12 0.241756 0.078910 0.746534
O O13 0.000000 0.000000 0.500000
O O14 0.831547 0.750000 0.871136
O O15 0.000000 0.000000 0.000000
O O16 0.617590 0.750000 0.876467
O O17 0.531809 0.527859 0.900346
O O18 0.497618 0.750000 0.064303
O O19 0.500000 0.500000 0.000000
#
# Coordination Sequence:
#
# PCOD9168239 Si02
#       7
#     4   4   4   4   4   4   4
#     4  10  22  41  64  89 123 163 202 251 309 364
#     4  11  23  40  62  89 123 160 202 252 302 358
#     4  10  23  42  63  89 122 162 203 248 306 364
#     4  11  24  41  63  90 121 160 204 251 302 362
#     4  11  22  38  63  93 124 160 205 251 303 362
#     4  12  24  38  61  91 120 158 207 252 303 363
#     4  11  24  41  61  89 123 158 201 252 307 363
#
# _framework density 19.753086
#
# number of rings (size 3 to 8) (size 9 to 14) (size 15 to 20)
#    0.000    1.143    1.429    4.714    0.000   10.857 
#    0.000    0.000    0.000    0.000    0.000    0.000 
#    0.000    0.000    0.000    0.000    0.000    0.000 
#
# Total GULP energy -155968.468019 kJ/mol
# GULP energy per Si atom -5570.302429 kJ/mol
# Density = 1.970813 g / cm^3
# Si number density = 19.753086 Si / 1000 Ang^3
#
#
#
# Elastic Constant Matrix: (Units=GPa)
#
#
# Indices 1 2 3 4 5 6 
#
# 1 61.5400 -5.8102 16.2064 0.0000 -16.3519 0.0000
# 2 -5.8102 48.9743 26.3677 0.0000 -14.5749 0.0000
# 3 16.2064 26.3677 71.4869 0.0000 -25.7707 0.0000
# 4 0.0000 0.0000 0.0000 25.8609 0.0000 -6.5017
# 5 -16.3519 -14.5749 -25.7707 0.0000 37.0693 0.0000
# 6 0.0000 0.0000 0.0000 -6.5017 0.0000 31.9887
#
#
#
# Elastic Compliance Matrix: (Units=1/GPa)
#
#
# Indices 1 2 3 4 5 6 
#
# 1 0.020413 0.007300 -0.004056 0.000000 0.009055 0.000000
# 2 0.007300 0.028705 -0.009359 0.000000 0.008000 0.000000
# 3 -0.004056 -0.009359 0.021869 0.000000 0.009735 0.000000
# 4 0.000000 0.000000 0.000000 0.040751 0.000000 0.008283
# 5 0.009055 0.008000 0.009735 0.000000 0.040884 0.000000
# 6 0.000000 0.000000 0.000000 0.008283 0.000000 0.032944
#
#
# Mechanical properties :
#
#
# Convention : Reuss Voigt Hill
#
# Bulk Modulus (GPa) = 17.01884 28.39213 22.70548
# Shear Modulus (GPa) = 23.00110 28.66627 25.83368
#
# Velocity S-wave (km/s) = 3.41608 3.81363 3.62032
# Velocity P-wave (km/s) = 4.91873 5.81347 5.38472
#
# Compressibility (1/GPa) = 0.05875841
#
# Stress axis : x y z
#
# Youngs Moduli (GPa) = 48.98822 34.83773 45.72613
#
# Poissons Ratio (x) = -0.25433 0.18547
# Poissons Ratio (y) = -0.35763 0.42793
# Poissons Ratio (z) = 0.19870 0.32603
#
# Static dielectric constant tensor:
#      x y z
#    x 1.715660 0.000000 0.299520 
#    y 0.000000 1.675600 0.000000 
#    z 0.299520 0.000000 2.231580 
# 
# From -- ./inp_files/65466.got.cif
#   From: 2010.05.17/outbox.ucp.g08.bks.cvg/sg11_33_cif.got.tgz:65466.got - 2010.06.11 11:38:39.
