data_PCOD9168997
_publ_section_title
;
Structure prediction by ZEFSAII (Michael W. Deem and Ramdas Pophale) SiO2 
 PCOD9168997
Probable space group: C 2/M
;
_chemical_formula_sum "Si O2"
_cell_formula_units_Z 42
_cell_length_a 23.139525
_cell_length_b 18.953076
_cell_length_c 4.963659
_cell_angle_alpha 90.000000
_cell_angle_beta 71.957189
_cell_angle_gamma 90.000000
_cell_volume 2069.840290
_symmetry_space_group_name_H-M "C 2/M"
_symmetry_group_IT_number 12
_symmetry_cell_setting 'monoclinic'
loop_
_space_group_symop_operation_xyz
x,y,z
-x,y,-z
-x,-y,-z
x,-y,z
1/2+x,1/2+y,z
1/2-x,1/2+y,-z
1/2-x,1/2-y,-z
1/2+x,1/2-y,z
loop_
_atom_site_type_symbol
_atom_site_label
_atom_site_fract_x
_atom_site_fract_y
_atom_site_fract_z
Si Si1 0.825319 0.278179 0.682173
Si Si2 0.457876 0.240029 0.299684
Si Si3 0.000000 0.000000 0.500000
Si Si4 0.263964 0.158639 0.269301
Si Si5 0.656951 0.500000 0.903744
Si Si6 0.264380 0.500000 0.705172
Si Si7 0.562617 0.401596 0.768646
O O1 0.893705 0.291861 0.486068
O O2 0.801114 0.197167 0.689912
O O3 0.781739 0.323349 0.549046
O O4 0.811555 0.301613 0.005577
O O5 0.500000 0.246318 0.500000
O O6 0.438894 0.318363 0.232929
O O7 0.500000 0.208542 0.000000
O O8 0.051314 0.061744 0.498468
O O9 0.265995 0.075914 0.204735
O O10 0.716909 0.500000 0.633914
O O11 0.618072 0.433688 0.852555
O O12 0.677820 0.500000 0.178946
O O13 0.500000 0.427211 0.000000
#
# Coordination Sequence:
#
# PCOD9168997 Si02
#       7
#     8   8   2   8   4   4   8
#     4  10  21  40  60  87 116 160 190 246 296 350
#     4  11  22  36  57  86 115 151 200 244 283 349
#     4  10  16  32  44  62 104 156 190 216 260 308
#     4  10  22  39  63  83 119 151 202 242 300 349
#     4  11  24  32  53  77 119 152 195 233 278 335
#     4  12  24  39  57  91 109 148 195 254 293 353
#     4  10  22  32  48  71 114 162 195 227 266 324
#
# _framework density 20.291419999999999
#
# number of rings (size 3 to 8) (size 9 to 14) (size 15 to 20)
#    0.000    1.524    0.952    4.571    5.333    6.095 
#    0.000    0.000    0.000    0.000    0.000   13.333 
#    0.000    0.000    0.000    0.000    0.000    0.000 
#
# Total GULP energy -116975.825703 kJ/mol
# GULP energy per Si atom -5570.277414 kJ/mol
# Density = 2.024524 g / cm^3
# Si number density = 20.291420 Si / 1000 Ang^3
#
#
#
# Elastic Constant Matrix: (Units=GPa)
#
#
# Indices 1 2 3 4 5 6 
#
# 1 43.7204 9.7869 5.2173 0.0000 -11.0432 0.0000
# 2 9.7869 71.3370 -7.2312 0.0000 2.1322 0.0000
# 3 5.2173 -7.2312 79.4325 0.0000 -13.0097 0.0000
# 4 0.0000 0.0000 0.0000 13.8020 0.0000 -3.0123
# 5 -11.0432 2.1322 -13.0097 0.0000 40.9482 0.0000
# 6 0.0000 0.0000 0.0000 -3.0123 0.0000 10.0307
#
#
#
# Elastic Compliance Matrix: (Units=1/GPa)
#
#
# Indices 1 2 3 4 5 6 
#
# 1 0.025549 -0.003801 -0.000911 0.000000 0.006799 0.000000
# 2 -0.003801 0.014719 0.001367 0.000000 -0.001357 0.000000
# 3 -0.000911 0.001367 0.013420 0.000000 0.003947 0.000000
# 4 0.000000 0.000000 0.000000 0.077535 0.000000 0.023285
# 5 0.006799 -0.001357 0.003947 0.000000 0.027579 0.000000
# 6 0.000000 0.000000 0.000000 0.023285 0.000000 0.106686
#
#
# Mechanical properties :
#
#
# Convention : Reuss Voigt Hill
#
# Bulk Modulus (GPa) = 21.27661 23.33733 22.30697
# Shear Modulus (GPa) = 17.37056 25.40398 21.38727
#
# Velocity S-wave (km/s) = 2.92901 3.54214 3.25007
# Velocity P-wave (km/s) = 4.68478 5.31555 5.01010
#
# Compressibility (1/GPa) = 0.04699996
#
# Stress axis : x y z
#
# Youngs Moduli (GPa) = 39.13989 67.94145 74.51552
#
# Poissons Ratio (x) = 0.25823 0.06785
# Poissons Ratio (y) = 0.14876 -0.10189
# Poissons Ratio (z) = 0.03564 -0.09290
#
# Static dielectric constant tensor:
#      x y z
#    x 1.728280 0.000000 0.005120 
#    y 0.000000 1.714960 0.000000 
#    z 0.005120 0.000000 1.935290 
# 
# From -- ./inp_files/20383.got.cif
#   From: 2010.05.17/outbox.cif.g08.bks.cpg/sg12_11_cif.got.tgz:20383.got - 2010.06.03 13:09:07.
