data_PCOD9168082
_publ_section_title
;
Structure prediction by ZEFSAII (Michael W. Deem and Ramdas Pophale) SiO2 
 PCOD9168082
Probable space group: P 21/M
;
_chemical_formula_sum "Si O2"
_cell_formula_units_Z 28
_cell_length_a 21.000000
_cell_length_b 9.000000
_cell_length_c 15.000000
_cell_angle_alpha 90.000000
_cell_angle_beta 30.000000
_cell_angle_gamma 90.000000
_cell_volume 1417.500000
_symmetry_space_group_name_H-M "P 21/M"
_symmetry_group_IT_number 11
_symmetry_cell_setting 'monoclinic'
loop_
_space_group_symop_operation_xyz
x,y,z
-x,1/2+y,-z
-x,-y,-z
x,1/2-y,z
loop_
_atom_site_type_symbol
_atom_site_label
_atom_site_fract_x
_atom_site_fract_y
_atom_site_fract_z
Si Si1 0.452254 0.075831 0.966724
Si Si2 0.298040 0.581691 0.452996
Si Si3 0.809798 0.426720 0.725238
Si Si4 0.382888 0.923526 0.544970
Si Si5 0.887881 0.923931 0.444200
Si Si6 0.346649 0.575121 0.787403
Si Si7 0.134883 0.073590 0.161269
O O1 0.416004 0.250000 0.025704
O O2 0.560769 0.075545 0.760272
O O3 0.500000 0.000000 0.000000
O O4 0.334767 0.975482 0.080391
O O5 0.250307 0.750000 0.489973
O O6 0.301472 0.561579 0.554470
O O7 0.219123 0.457512 0.498448
O O8 0.827096 0.250000 0.702550
O O9 0.842764 0.497485 0.590156
O O10 0.880756 0.502495 0.721550
O O11 0.425623 0.750000 0.497523
O O12 0.314552 0.953880 0.721880
O O13 0.506395 0.026382 0.384940
O O14 0.908516 0.750000 0.433924
O O15 0.014398 0.005496 0.256888
O O16 0.331001 0.750000 0.825082
O O17 0.260806 0.482070 0.958922
O O18 0.132573 0.250000 0.170539
#
# Coordination Sequence:
#
# PCOD9168082 Si02
#       7
#     4   4   4   4   4   4   4
#     4  11  21  34  56  86 122 157 194 238 288 343
#     4  10  21  38  59  85 119 159 198 238 291 348
#     4  12  24  40  61  87 119 155 199 245 295 351
#     4   9  19  37  63  92 123 156 192 239 295 351
#     4  12  25  41  60  84 117 155 199 245 294 351
#     4  10  20  37  62  93 123 151 193 245 295 348
#     4  12  25  42  62  84 115 155 200 245 296 352
#
# _framework density 19.753086
#
# number of rings (size 3 to 8) (size 9 to 14) (size 15 to 20)
#    0.000    1.143    1.429    6.000    0.000    2.857 
#    0.000    0.714    0.000    0.000    0.000    0.000 
#    0.000    0.000    0.000    0.000    0.000    0.000 
#
# Total GULP energy -156438.835279 kJ/mol
# GULP energy per Si atom -5587.101260 kJ/mol
# Density = 1.970813 g / cm^3
# Si number density = 19.753086 Si / 1000 Ang^3
#
#
#
# Elastic Constant Matrix: (Units=GPa)
#
#
# Indices 1 2 3 4 5 6 
#
# 1 68.1223 36.9095 20.0552 0.0000 13.6750 0.0000
# 2 36.9095 155.9546 27.2753 0.0000 10.9641 0.0000
# 3 20.0552 27.2753 22.7592 0.0000 3.2515 0.0000
# 4 0.0000 0.0000 0.0000 23.4058 0.0000 -7.5382
# 5 13.6750 10.9641 3.2515 0.0000 27.4948 0.0000
# 6 0.0000 0.0000 0.0000 -7.5382 0.0000 25.8447
#
#
#
# Elastic Compliance Matrix: (Units=1/GPa)
#
#
# Indices 1 2 3 4 5 6 
#
# 1 0.022077 -0.001827 -0.016072 0.000000 -0.008351 0.000000
# 2 -0.001827 0.008387 -0.008232 0.000000 -0.001462 0.000000
# 3 -0.016072 -0.008232 0.067496 0.000000 0.003294 0.000000
# 4 0.000000 0.000000 0.000000 0.047154 0.000000 0.013753
# 5 -0.008351 -0.001462 0.003294 0.000000 0.040718 0.000000
# 6 0.000000 0.000000 0.000000 0.013753 0.000000 0.042704
#
#
# Mechanical properties :
#
#
# Convention : Reuss Voigt Hill
#
# Bulk Modulus (GPa) = 21.88279 46.14622 34.01451
# Shear Modulus (GPa) = 16.89012 26.18880 21.53946
#
# Velocity S-wave (km/s) = 2.92732 3.64511 3.30576
# Velocity P-wave (km/s) = 4.74635 6.41312 5.64162
#
# Compressibility (1/GPa) = 0.04569802
#
# Stress axis : x y z
#
# Youngs Moduli (GPa) = 45.29530 119.23028 14.81573
#
# Poissons Ratio (x) = 0.21784 0.23811
# Poissons Ratio (y) = 0.08276 0.12197
# Poissons Ratio (z) = 0.72797 0.98156
#
# Static dielectric constant tensor:
#      x y z
#    x 1.897190 0.000000 -0.136560 
#    y 0.000000 1.669340 0.000000 
#    z -0.136560 0.000000 1.757070 
# 
# From -- ./inp_files/37418.got.cif
#   From: 2010.05.17/outbox.ucp.g08.bks.cvg/sg11_19_cif.got.tgz:37418.got - 2010.06.11 11:38:39.
