data_PCOD9168466
_publ_section_title
;
Structure prediction by ZEFSAII (Michael W. Deem and Ramdas Pophale) SiO2 
 PCOD9168466
Probable space group: C 2/M
;
_chemical_formula_sum "Si O2"
_cell_formula_units_Z 36
_cell_length_a 14.839336
_cell_length_b 19.384012
_cell_length_c 8.534739
_cell_angle_alpha 90.000000
_cell_angle_beta 49.829812
_cell_angle_gamma 90.000000
_cell_volume 1875.930042
_symmetry_space_group_name_H-M "C 2/M"
_symmetry_group_IT_number 12
_symmetry_cell_setting 'monoclinic'
loop_
_space_group_symop_operation_xyz
x,y,z
-x,y,-z
-x,-y,-z
x,-y,z
1/2+x,1/2+y,z
1/2-x,1/2+y,-z
1/2-x,1/2-y,-z
1/2+x,1/2-y,z
loop_
_atom_site_type_symbol
_atom_site_label
_atom_site_fract_x
_atom_site_fract_y
_atom_site_fract_z
Si Si1 0.597164 0.315481 0.158323
Si Si2 0.000000 0.351146 0.500000
Si Si3 0.864874 0.686728 0.105563
Si Si4 0.135339 0.775374 0.481147
Si Si5 0.297053 0.081428 0.933253
O O1 0.639891 0.248214 0.017125
O O2 0.619837 0.303559 0.318026
O O3 0.454873 0.317197 0.306764
O O4 0.676388 0.379698 0.017896
O O5 0.078066 0.300655 0.524457
O O6 0.094148 0.395402 0.298265
O O7 0.827845 0.615192 0.066907
O O8 0.774389 0.710309 0.342805
O O9 0.000000 0.682012 0.000000
O O10 0.283843 0.000000 0.952130
#
# Coordination Sequence:
#
# PCOD9168466 Si02
#       5
#     8   4   8   8   8
#     4   9  17  34  52  72  98 128 176 210 236 281
#     4  10  15  32  56  76  95 122 176 220 237 276
#     4  11  20  32  51  78 106 133 160 203 254 301
#     4   9  16  31  57  74  94 123 182 218 231 277
#     4  11  20  33  53  77 103 130 165 207 252 296
#
# _framework density 19.190480000000001
#
# number of rings (size 3 to 8) (size 9 to 14) (size 15 to 20)
#    0.000    2.222    6.667    1.667    0.000    1.333 
#    0.000    8.889    0.000    0.667    0.000    0.000 
#    0.000    0.000    0.000    0.000    0.000    0.000 
#
# Total GULP energy -100294.941993 kJ/mol
# GULP energy per Si atom -5571.941222 kJ/mol
# Density = 1.914680 g / cm^3
# Si number density = 19.190480 Si / 1000 Ang^3
#
#
#
# Elastic Constant Matrix: (Units=GPa)
#
#
# Indices 1 2 3 4 5 6 
#
# 1 37.4937 17.8285 2.1582 0.0000 -25.8398 0.0000
# 2 17.8285 151.7333 52.2928 0.0000 -15.5290 0.0000
# 3 2.1582 52.2928 146.9078 0.0000 -33.1361 0.0000
# 4 0.0000 0.0000 0.0000 22.0084 0.0000 -1.8633
# 5 -25.8398 -15.5290 -33.1361 0.0000 39.3510 0.0000
# 6 0.0000 0.0000 0.0000 -1.8633 0.0000 14.0433
#
#
#
# Elastic Compliance Matrix: (Units=1/GPa)
#
#
# Indices 1 2 3 4 5 6 
#
# 1 0.063286 -0.006721 0.012638 0.000000 0.049547 0.000000
# 2 -0.006721 0.008251 -0.003826 0.000000 -0.004379 0.000000
# 3 0.012638 -0.003826 0.011745 0.000000 0.016679 0.000000
# 4 0.000000 0.000000 0.000000 0.045953 0.000000 0.006097
# 5 0.049547 -0.004379 0.016679 0.000000 0.070264 0.000000
# 6 0.000000 0.000000 0.000000 0.006097 0.000000 0.072017
#
#
# Mechanical properties :
#
#
# Convention : Reuss Voigt Hill
#
# Bulk Modulus (GPa) = 11.43315 53.41043 32.42179
# Shear Modulus (GPa) = 16.86405 32.67090 24.76748
#
# Velocity S-wave (km/s) = 2.96762 4.13056 3.59641
# Velocity P-wave (km/s) = 4.20869 7.11624 5.84610
#
# Compressibility (1/GPa) = 0.08746496
#
# Stress axis : x y z
#
# Youngs Moduli (GPa) = 15.80129 121.20406 85.14053
#
# Poissons Ratio (x) = 0.81459 -1.07602
# Poissons Ratio (y) = 0.10620 0.32573
# Poissons Ratio (z) = -0.19970 0.46370
#
# Static dielectric constant tensor:
#      x y z
#    x 1.855510 0.000000 -0.052530 
#    y 0.000000 1.613910 0.000000 
#    z -0.052530 0.000000 1.766100 
# 
# From -- ./inp_files/157065.got.cif
#   From: 2010.05.17/outbox.cif.g08.bks.cpg/sg12_79_cif.got.tgz:157065.got - 2010.06.03 13:09:07.
