data_PCOD9168936
_publ_section_title
;
Structure prediction by ZEFSAII (Michael W. Deem and Ramdas Pophale) SiO2 
 PCOD9168936
Probable space group: C 2/M
;
_chemical_formula_sum "Si O2"
_cell_formula_units_Z 30
_cell_length_a 14.735970
_cell_length_b 19.047776
_cell_length_c 7.312507
_cell_angle_alpha 90.000000
_cell_angle_beta 137.738004
_cell_angle_gamma 90.000000
_cell_volume 1380.370430
_symmetry_space_group_name_H-M "C 2/M"
_symmetry_group_IT_number 12
_symmetry_cell_setting 'monoclinic'
loop_
_space_group_symop_operation_xyz
x,y,z
-x,y,-z
-x,-y,-z
x,-y,z
1/2+x,1/2+y,z
1/2-x,1/2+y,-z
1/2-x,1/2-y,-z
1/2+x,1/2-y,z
loop_
_atom_site_type_symbol
_atom_site_label
_atom_site_fract_x
_atom_site_fract_y
_atom_site_fract_z
Si Si1 0.694557 0.584378 0.395321
Si Si2 0.907933 0.124177 0.144919
Si Si3 0.619345 0.199935 0.312652
Si Si4 0.000000 0.000000 0.500000
Si Si5 0.500000 0.249460 0.500000
O O1 0.687947 0.500000 0.404380
O O2 0.560901 0.614982 0.293152
O O3 0.826598 0.623338 0.663891
O O4 0.682088 0.608007 0.165092
O O5 0.897716 0.061192 0.271712
O O6 0.900300 0.197188 0.240923
O O7 0.750000 0.250000 0.500000
O O8 0.566697 0.204472 0.440729
O O9 0.500000 0.223771 0.000000
#
# Coordination Sequence:
#
# PCOD9168936 Si02
#       5
#     8   8   8   2   4
#     4  11  21  41  65  96 139 175 220 277 340 406
#     4  10  19  36  66 100 129 171 225 284 328 387
#     4  12  27  47  69 101 136 182 231 278 342 404
#     4  10  16  30  56 108 128 164 226 270 332 386
#     4  11  24  43  69  98 133 176 230 288 325 396
#
# _framework density 21.733298000000001
#
# number of rings (size 3 to 8) (size 9 to 14) (size 15 to 20)
#    0.000    1.067    5.333    2.400    0.000    4.800 
#    0.000    0.667    0.000    0.000    0.000    0.000 
#    0.000    0.000    0.000    0.000    0.000    0.000 
#
# Total GULP energy -83524.579710 kJ/mol
# GULP energy per Si atom -5568.305314 kJ/mol
# Density = 2.168383 g / cm^3
# Si number density = 21.733298 Si / 1000 Ang^3
#
#
#
# Elastic Constant Matrix: (Units=GPa)
#
#
# Indices 1 2 3 4 5 6 
#
# 1 85.6292 19.6163 33.9145 0.0000 -5.5573 0.0000
# 2 19.6163 83.6220 22.3487 0.0000 16.7252 0.0000
# 3 33.9145 22.3487 99.4426 0.0000 4.0113 0.0000
# 4 0.0000 0.0000 0.0000 22.8324 0.0000 -133.2399
# 5 -5.5573 16.7252 4.0113 0.0000 26.7248 0.0000
# 6 0.0000 0.0000 0.0000 -133.2399 0.0000 6091.5687
#
#
#
# Elastic Compliance Matrix: (Units=1/GPa)
#
#
# Indices 1 2 3 4 5 6 
#
# 1 0.014598 -0.003402 -0.004449 0.000000 0.005833 0.000000
# 2 -0.003402 0.015249 -0.001865 0.000000 -0.009971 0.000000
# 3 -0.004449 -0.001865 0.012056 0.000000 -0.001568 0.000000
# 4 0.000000 0.000000 0.000000 0.050206 0.000000 0.001098
# 5 0.005833 -0.009971 -0.001568 0.000000 0.045107 0.000000
# 6 0.000000 0.000000 0.000000 0.001098 0.000000 0.000188
#
#
# Mechanical properties :
#
#
# Convention : Reuss Voigt Hill
#
# Bulk Modulus (GPa) = 44.50118 46.71699 45.60908
# Shear Modulus (GPa) = 30.42718 1241.07945 635.75331
#
# Velocity S-wave (km/s) = 3.74575 23.92257 17.12192
# Velocity P-wave (km/s) = 6.26323 28.01062 20.29560
#
# Compressibility (1/GPa) = 0.02247132
#
# Stress axis : x y z
#
# Youngs Moduli (GPa) = 68.50077 65.57695 82.94741
#
# Poissons Ratio (x) = 0.22309 0.36907
# Poissons Ratio (y) = 0.23304 0.15467
# Poissons Ratio (z) = 0.30479 0.12228
#
# Static dielectric constant tensor:
#      x y z
#    x 1.854570 0.000000 -0.041760 
#    y 0.000000 1.812140 0.000000 
#    z -0.041760 0.000000 1.905910 
# 
# From -- ./inp_files/37619.got.cif
#   From: 2010.05.17/outbox.cif.g08.bks.cpg/sg12_19_cif.got.tgz:37619.got - 2010.06.03 13:09:07.
