data_PCOD9168556
_publ_section_title
;
Structure prediction by ZEFSAII (Michael W. Deem and Ramdas Pophale) SiO2 
 PCOD9168556
Probable space group: C 2/M
;
_chemical_formula_sum "Si O2"
_cell_formula_units_Z 56
_cell_length_a 33.243350
_cell_length_b 13.850027
_cell_length_c 7.850310
_cell_angle_alpha 90.000000
_cell_angle_beta 141.019610
_cell_angle_gamma 90.000000
_cell_volume 2273.685499
_symmetry_space_group_name_H-M "C 2/M"
_symmetry_group_IT_number 12
_symmetry_cell_setting 'monoclinic'
loop_
_space_group_symop_operation_xyz
x,y,z
-x,y,-z
-x,-y,-z
x,-y,z
1/2+x,1/2+y,z
1/2-x,1/2+y,-z
1/2-x,1/2-y,-z
1/2+x,1/2-y,z
loop_
_atom_site_type_symbol
_atom_site_label
_atom_site_fract_x
_atom_site_fract_y
_atom_site_fract_z
Si Si1 0.626222 0.258260 0.095790
Si Si2 0.532200 0.614989 0.935350
Si Si3 0.689270 0.707079 0.695095
Si Si4 0.598568 0.614131 0.675085
Si Si5 0.875668 0.390772 0.428900
Si Si6 0.709113 0.888187 0.197183
Si Si7 0.484405 0.105415 0.248241
O O1 0.602237 0.342223 0.142869
O O2 0.620380 0.316587 0.898279
O O3 0.567860 0.185789 0.937038
O O4 0.685526 0.186620 0.262656
O O5 0.538259 0.500000 0.966367
O O6 0.476324 0.633271 0.612516
O O7 0.500000 0.652801 0.000000
O O8 0.644139 0.641140 0.665649
O O9 0.650350 0.806392 0.536525
O O10 0.724575 0.649830 0.661534
O O11 0.750000 0.750000 0.000000
O O12 0.604693 0.500000 0.734349
O O13 0.863699 0.500000 0.450662
O O14 0.950509 0.376757 0.639337
O O15 0.841163 0.384599 0.128420
O O16 0.712409 0.000000 0.263061
O O17 0.500000 0.100953 0.500000
O O18 0.459480 0.000000 0.114109
#
# Coordination Sequence:
#
# PCOD9168556 Si02
#       7
#     8   8   8   8   8   8   8
#     4  12  19  31  53  81 107 134 177 222 267 314
#     4  10  23  40  55  75 107 144 179 219 273 330
#     4  10  17  31  45  74 112 147 166 217 266 320
#     4  11  21  33  54  82 108 138 179 227 266 308
#     4   9  16  25  39  63  99 139 171 203 252 311
#     4  10  19  29  44  73 111 144 173 209 263 321
#     4  10  16  24  42  71 104 132 163 209 259 308
#
# _framework density 24.629615000000001
#
# number of rings (size 3 to 8) (size 9 to 14) (size 15 to 20)
#    0.000    1.714    4.286    3.429    0.000    1.714 
#    0.000    0.000    0.000    2.571    0.000    0.000 
#    0.000    0.000    0.000    0.000    0.000    0.000 
#
# Total GULP energy -156608.858320 kJ/mol
# GULP energy per Si atom -5593.173511 kJ/mol
# Density = 2.457356 g / cm^3
# Si number density = 24.629615 Si / 1000 Ang^3
#
#
#
# Elastic Constant Matrix: (Units=GPa)
#
#
# Indices 1 2 3 4 5 6 
#
# 1 148.8587 64.0895 30.6012 0.0000 22.4957 0.0000
# 2 64.0895 151.2612 22.9093 0.0000 21.7455 0.0000
# 3 30.6012 22.9093 46.4694 0.0000 16.2369 0.0000
# 4 0.0000 0.0000 0.0000 1.5588 0.0000 1.5908
# 5 22.4957 21.7455 16.2369 0.0000 35.3238 0.0000
# 6 0.0000 0.0000 0.0000 1.5908 0.0000 37.5637
#
#
#
# Elastic Compliance Matrix: (Units=1/GPa)
#
#
# Indices 1 2 3 4 5 6 
#
# 1 0.009106 -0.002967 -0.003747 0.000000 -0.002250 0.000000
# 2 -0.002967 0.008452 -0.001257 0.000000 -0.002736 0.000000
# 3 -0.003747 -0.001257 0.028000 0.000000 -0.009710 0.000000
# 4 0.000000 0.000000 0.000000 0.670503 0.000000 -0.028395
# 5 -0.002250 -0.002736 -0.009710 0.000000 0.035890 0.000000
# 6 0.000000 0.000000 0.000000 -0.028395 0.000000 0.027824
#
#
# Mechanical properties :
#
#
# Convention : Reuss Voigt Hill
#
# Bulk Modulus (GPa) = 33.76748 64.64325 49.20537
# Shear Modulus (GPa) = 6.20664 30.15521 18.18093
#
# Velocity S-wave (km/s) = 1.58917 3.50286 2.71988
# Velocity P-wave (km/s) = 4.13608 6.53171 5.46673
#
# Compressibility (1/GPa) = 0.02961429
#
# Stress axis : x y z
#
# Youngs Moduli (GPa) = 109.82310 118.31677 35.71462
#
# Poissons Ratio (x) = 0.35105 0.13384
# Poissons Ratio (y) = 0.32585 0.04489
# Poissons Ratio (z) = 0.41155 0.14873
#
# Static dielectric constant tensor:
#      x y z
#    x 1.948450 0.000000 -0.072290 
#    y 0.000000 1.975590 0.000000 
#    z -0.072290 0.000000 2.121610 
# 
# From -- ./inp_files/111718.got.cif
#   From: 2010.05.17/outbox.cif.g08.bks.cpg/sg12_56_cif.got.tgz:111718.got - 2010.06.03 13:09:07.
