data_PCOD9168684
_publ_section_title
;
Structure prediction by ZEFSAII (Michael W. Deem and Ramdas Pophale) SiO2 
 PCOD9168684
Probable space group: C 2/M
;
_chemical_formula_sum "Si O2"
_cell_formula_units_Z 48
_cell_length_a 14.720576
_cell_length_b 31.114626
_cell_length_c 7.917947
_cell_angle_alpha 90.000000
_cell_angle_beta 39.786872
_cell_angle_gamma 90.000000
_cell_volume 2320.795778
_symmetry_space_group_name_H-M "C 2/M"
_symmetry_group_IT_number 12
_symmetry_cell_setting 'monoclinic'
loop_
_space_group_symop_operation_xyz
x,y,z
-x,y,-z
-x,-y,-z
x,-y,z
1/2+x,1/2+y,z
1/2-x,1/2+y,-z
1/2-x,1/2-y,-z
1/2+x,1/2-y,z
loop_
_atom_site_type_symbol
_atom_site_label
_atom_site_fract_x
_atom_site_fract_y
_atom_site_fract_z
Si Si1 0.383005 0.409078 0.545396
Si Si2 0.295019 0.165669 0.000441
Si Si3 0.642620 0.047035 0.681966
Si Si4 0.041445 0.165718 0.133294
Si Si5 0.079740 0.637614 0.702806
Si Si6 0.723742 0.291110 0.424278
O O1 0.500000 0.429626 0.500000
O O2 0.286508 0.374168 0.786525
O O3 0.277034 0.441658 0.607518
O O4 0.477025 0.380153 0.283428
O O5 0.289681 0.204851 0.143103
O O6 0.201966 0.171321 0.965883
O O7 0.459230 0.154164 0.750137
O O8 0.629161 0.089651 0.586868
O O9 0.658507 0.000000 0.579072
O O10 0.500000 0.045393 0.000000
O O11 0.942311 0.200506 0.367576
O O12 0.000000 0.171999 0.000000
O O13 0.206284 0.669932 0.566167
O O14 0.000000 0.634608 0.000000
O O15 0.750000 0.250000 0.500000
#
# Coordination Sequence:
#
# PCOD9168684 Si02
#       6
#     8   8   8   8   8   8
#     4   9  16  30  51  73 105 140 172 214 266 305
#     4   9  17  34  55  72 103 143 168 214 268 310
#     4  10  16  26  50  85 112 130 169 222 269 317
#     4  10  20  34  52  75 102 140 182 214 255 314
#     4   9  15  31  51  75 103 136 167 210 270 310
#     4  10  19  33  54  76 102 136 172 212 269 320
#
# _framework density 20.682561
#
# number of rings (size 3 to 8) (size 9 to 14) (size 15 to 20)
#    0.000    2.500    6.667    1.500    0.000    2.333 
#    0.000    5.833    0.000    0.500    0.000    1.167 
#    0.000    0.000    0.000    0.000    0.000    0.000 
#
# Total GULP energy -133697.149251 kJ/mol
# GULP energy per Si atom -5570.714552 kJ/mol
# Density = 2.063549 g / cm^3
# Si number density = 20.682561 Si / 1000 Ang^3
#
#
#
# Elastic Constant Matrix: (Units=GPa)
#
#
# Indices 1 2 3 4 5 6 
#
# 1 160.3153 30.9698 32.4832 0.0000 -33.8242 0.0000
# 2 30.9698 97.2506 0.7592 0.0000 -5.4378 0.0000
# 3 32.4832 0.7592 22.6717 0.0000 -10.9840 0.0000
# 4 0.0000 0.0000 0.0000 4.3918 0.0000 2.3478
# 5 -33.8242 -5.4378 -10.9840 0.0000 41.7905 0.0000
# 6 0.0000 0.0000 0.0000 2.3478 0.0000 15.3339
#
#
#
# Elastic Compliance Matrix: (Units=1/GPa)
#
#
# Indices 1 2 3 4 5 6 
#
# 1 0.010305 -0.002922 -0.012387 0.000000 0.004704 0.000000
# 2 -0.002922 0.011189 0.003863 0.000000 0.000106 0.000000
# 3 -0.012387 0.003863 0.065446 0.000000 0.007679 0.000000
# 4 0.000000 0.000000 0.000000 0.247998 0.000000 -0.037972
# 5 0.004704 0.000106 0.007679 0.000000 0.029768 0.000000
# 6 0.000000 0.000000 0.000000 -0.037972 0.000000 0.071029
#
#
# Mechanical properties :
#
#
# Convention : Reuss Voigt Hill
#
# Bulk Modulus (GPa) = 15.61323 45.40691 30.51007
# Shear Modulus (GPa) = 10.41718 26.70491 18.56105
#
# Velocity S-wave (km/s) = 2.24669 3.59720 2.99896
# Velocity P-wave (km/s) = 3.78095 6.26538 5.17448
#
# Compressibility (1/GPa) = 0.06404825
#
# Stress axis : x y z
#
# Youngs Moduli (GPa) = 97.04464 89.37382 15.27976
#
# Poissons Ratio (x) = 0.26113 0.18927
# Poissons Ratio (y) = 0.28354 -0.05903
# Poissons Ratio (z) = 1.20209 -0.34526
#
# Static dielectric constant tensor:
#      x y z
#    x 1.764720 0.000000 0.013310 
#    y 0.000000 1.768510 0.000000 
#    z 0.013310 0.000000 1.818010 
# 
# From -- ./inp_files/68050.got.cif
#   From: 2010.05.17/outbox.cif.g08.bks.cpg/sg12_35_cif.got.tgz:68050.got - 2010.06.03 13:09:07.
