data_PCOD9168373
_publ_section_title
;
Structure prediction by ZEFSAII (Michael W. Deem and Ramdas Pophale) SiO2 
 PCOD9168373
Probable space group: C 2/M
;
_chemical_formula_sum "Si O2"
_cell_formula_units_Z 44
_cell_length_a 7.174449
_cell_length_b 25.495598
_cell_length_c 14.265419
_cell_angle_alpha 90.000000
_cell_angle_beta 133.928471
_cell_angle_gamma 90.000000
_cell_volume 1879.296486
_symmetry_space_group_name_H-M "C 2/M"
_symmetry_group_IT_number 12
_symmetry_cell_setting 'monoclinic'
loop_
_space_group_symop_operation_xyz
x,y,z
-x,y,-z
-x,-y,-z
x,-y,z
1/2+x,1/2+y,z
1/2-x,1/2+y,-z
1/2-x,1/2-y,-z
1/2+x,1/2-y,z
loop_
_atom_site_type_symbol
_atom_site_label
_atom_site_fract_x
_atom_site_fract_y
_atom_site_fract_z
Si Si1 0.712678 0.000000 0.347467
Si Si2 0.336853 0.500000 0.037033
Si Si3 0.445193 0.385959 0.690494
Si Si4 0.750805 0.311357 0.522403
Si Si5 0.083734 0.000000 0.317621
Si Si6 0.229969 0.615881 0.017772
Si Si7 0.970314 0.614269 0.745238
O O1 0.556225 0.054623 0.306156
O O2 0.000000 0.000000 0.500000
O O3 0.805525 0.000000 0.272197
O O4 0.533602 0.500000 0.191064
O O5 0.500000 0.500000 0.000000
O O6 0.183544 0.553469 0.990880
O O7 0.284156 0.340063 0.588534
O O8 0.312092 0.442392 0.623269
O O9 0.714467 0.384757 0.724046
O O10 0.524022 0.380159 0.827035
O O11 0.500000 0.319943 0.500000
O O12 0.750000 0.250000 0.500000
O O13 0.955664 0.342845 0.657847
O O14 0.199305 0.629908 0.897825
O O15 0.000000 0.640312 0.000000
#
# Coordination Sequence:
#
# PCOD9168373 Si02
#       7
#     4   4   8   8   4   8   8
#     4  10  15  23  46  80 104 121 156 209 252 284
#     4  10  18  27  41  69 109 144 159 178 231 305
#     4   8  15  28  49  73  96 121 155 197 243 285
#     4  10  20  35  51  69  93 126 162 200 245 296
#     4   8  14  26  44  69  97 125 152 189 236 283
#     4   9  16  29  49  72  94 122 163 209 243 276
#     4   9  16  27  48  74  97 119 155 202 243 281
#
# _framework density 23.413018000000001
#
# number of rings (size 3 to 8) (size 9 to 14) (size 15 to 20)
#    0.000    2.909    0.000    4.636    0.000    1.455 
#    0.000    4.545    0.000    0.000    0.000    7.636 
#    0.000    0.000    0.000    0.000    0.000    0.000 
#
# Total GULP energy -122586.375646 kJ/mol
# GULP energy per Si atom -5572.107984 kJ/mol
# Density = 2.335973 g / cm^3
# Si number density = 23.413018 Si / 1000 Ang^3
#
#
#
# Elastic Constant Matrix: (Units=GPa)
#
#
# Indices 1 2 3 4 5 6 
#
# 1 78.5863 0.6806 32.1556 0.0000 -13.3579 0.0000
# 2 0.6806 165.0765 106.5028 0.0000 -14.1136 0.0000
# 3 32.1556 106.5028 210.7067 0.0000 -26.2712 0.0000
# 4 0.0000 0.0000 0.0000 3.6515 0.0000 -2.7214
# 5 -13.3579 -14.1136 -26.2712 0.0000 41.5008 0.0000
# 6 0.0000 0.0000 0.0000 -2.7214 0.0000 13.4620
#
#
#
# Elastic Compliance Matrix: (Units=1/GPa)
#
#
# Indices 1 2 3 4 5 6 
#
# 1 0.014460 0.002051 -0.002797 0.000000 0.003581 0.000000
# 2 0.002051 0.009282 -0.004917 0.000000 0.000704 0.000000
# 3 -0.002797 -0.004917 0.007966 0.000000 0.002470 0.000000
# 4 0.000000 0.000000 0.000000 0.322439 0.000000 0.065183
# 5 0.003581 0.000704 0.002470 0.000000 0.027052 0.000000
# 6 0.000000 0.000000 0.000000 0.065183 0.000000 0.087460
#
#
# Mechanical properties :
#
#
# Convention : Reuss Voigt Hill
#
# Bulk Modulus (GPa) = 49.06094 81.44973 65.25533
# Shear Modulus (GPa) = 10.27162 32.72490 21.49826
#
# Velocity S-wave (km/s) = 2.09682 3.74267 3.03350
# Velocity P-wave (km/s) = 5.18288 7.31714 6.34046
#
# Compressibility (1/GPa) = 0.02038281
#
# Stress axis : x y z
#
# Youngs Moduli (GPa) = 69.15484 107.73944 125.53457
#
# Poissons Ratio (x) = -0.22099 0.35112
# Poissons Ratio (y) = -0.14184 0.61721
# Poissons Ratio (z) = 0.19343 0.52972
#
# Static dielectric constant tensor:
#      x y z
#    x 2.054300 0.000000 -0.102040 
#    y 0.000000 1.878680 0.000000 
#    z -0.102040 0.000000 2.164420 
# 
# From -- ./inp_files/198636.got.cif
#   From: 2010.05.17/outbox.cif.g08.bks.cpg/sg12_100_cif.got.tgz:198636.got - 2010.06.03 13:09:07.
