data_PCOD9168200
_publ_section_title
;
Structure prediction by ZEFSAII (Michael W. Deem and Ramdas Pophale) SiO2 
 PCOD9168200
Probable space group: P 21/M
;
_chemical_formula_sum "Si O2"
_cell_formula_units_Z 28
_cell_length_a 12.000000
_cell_length_b 9.000000
_cell_length_c 15.000000
_cell_angle_alpha 90.000000
_cell_angle_beta 110.000000
_cell_angle_gamma 90.000000
_cell_volume 1522.302046
_symmetry_space_group_name_H-M "P 21/M"
_symmetry_group_IT_number 11
_symmetry_cell_setting 'monoclinic'
loop_
_space_group_symop_operation_xyz
x,y,z
-x,1/2+y,-z
-x,-y,-z
x,1/2-y,z
loop_
_atom_site_type_symbol
_atom_site_label
_atom_site_fract_x
_atom_site_fract_y
_atom_site_fract_z
Si Si1 0.188536 0.431248 0.343607
Si Si2 0.023416 0.571892 0.147338
Si Si3 0.457732 0.429627 0.082346
Si Si4 0.555200 0.070299 0.604903
Si Si5 0.192323 0.928186 0.019996
Si Si6 0.133546 0.569068 0.523365
Si Si7 0.622119 0.428560 0.301960
O O1 0.189149 0.250000 0.345015
O O2 0.083463 0.492030 0.249728
O O3 0.315221 0.496587 0.344777
O O4 0.174362 0.498255 0.439794
O O5 0.009386 0.750000 0.158741
O O6 0.118690 0.553071 0.092411
O O7 0.897617 0.501613 0.078570
O O8 0.446182 0.250000 0.072927
O O9 0.324453 0.498475 0.063310
O O10 0.560890 0.457539 0.186928
O O11 0.500000 0.500000 0.000000
O O12 0.565030 0.250000 0.601491
O O13 0.500000 0.000000 0.500000
O O14 0.463717 0.020719 0.656326
O O15 0.204411 0.750000 0.006629
O O16 0.124593 0.750000 0.515077
O O17 0.239409 0.538717 0.627480
O O18 0.000000 0.500000 0.500000
O O19 0.609459 0.250000 0.312794
#
# Coordination Sequence:
#
# PCOD9168200 Si02
#       7
#     4   4   4   4   4   4   4
#     4  12  24  39  61  92 127 165 208 254 309 371
#     4  10  21  38  63  93 125 163 204 253 311 371
#     4  11  24  42  64  90 122 164 214 263 315 373
#     4  12  23  37  62  94 128 163 204 254 312 374
#     4  10  21  39  62  91 125 161 204 256 315 374
#     4  11  24  43  64  87 122 164 210 258 309 370
#     4  10  23  43  66  91 123 164 209 261 315 371
#
# _framework density 18.393196
#
# number of rings (size 3 to 8) (size 9 to 14) (size 15 to 20)
#    0.000    1.143    1.429    5.143    0.000    6.857 
#    0.000    4.286    0.000    0.000    0.000    0.000 
#    0.000    0.000    0.000    0.000    0.000    0.000 
#
# Total GULP energy -156262.468301 kJ/mol
# GULP energy per Si atom -5580.802439 kJ/mol
# Density = 1.835133 g / cm^3
# Si number density = 18.393196 Si / 1000 Ang^3
#
#
#
# Elastic Constant Matrix: (Units=GPa)
#
#
# Indices 1 2 3 4 5 6 
#
# 1 125.2272 48.9267 48.6860 0.0000 28.1559 0.0000
# 2 48.9267 154.1862 64.0294 0.0000 13.9875 0.0000
# 3 48.6860 64.0294 159.9902 0.0000 31.9274 0.0000
# 4 0.0000 0.0000 0.0000 38.8643 0.0000 6.4314
# 5 28.1559 13.9875 31.9274 0.0000 41.8455 0.0000
# 6 0.0000 0.0000 0.0000 6.4314 0.0000 42.2792
#
#
#
# Elastic Compliance Matrix: (Units=1/GPa)
#
#
# Indices 1 2 3 4 5 6 
#
# 1 0.010597 -0.002376 -0.001191 0.000000 -0.005428 0.000000
# 2 -0.002376 0.008314 -0.002794 0.000000 0.000951 0.000000
# 3 -0.001191 -0.002794 0.008711 0.000000 -0.004911 0.000000
# 4 0.000000 0.000000 0.000000 0.026395 0.000000 -0.004015
# 5 -0.005428 0.000951 -0.004911 0.000000 0.030978 0.000000
# 6 0.000000 0.000000 0.000000 -0.004015 0.000000 0.024263
#
#
# Mechanical properties :
#
#
# Convention : Reuss Voigt Hill
#
# Bulk Modulus (GPa) = 67.11293 84.74309 75.92801
# Shear Modulus (GPa) = 39.38680 43.11523 41.25102
#
# Velocity S-wave (km/s) = 4.63252 4.84683 4.74089
# Velocity P-wave (km/s) = 8.07346 8.80315 8.44619
#
# Compressibility (1/GPa) = 0.01490026
#
# Stress axis : x y z
#
# Youngs Moduli (GPa) = 94.36644 120.28589 114.79707
#
# Poissons Ratio (x) = 0.28577 0.13670
# Poissons Ratio (y) = 0.22419 0.32075
# Poissons Ratio (z) = 0.11237 0.33608
#
# Static dielectric constant tensor:
#      x y z
#    x 1.645310 0.000000 -0.005170 
#    y 0.000000 1.619270 0.000000 
#    z -0.005170 0.000000 1.659060 
# 
# From -- ./inp_files/49029.got.cif
#   From: 2010.05.17/outbox.ucp.g08.bks.cvg/sg11_25_cif.got.tgz:49029.got - 2010.06.11 11:38:39.
