data_PCOD9168415
_publ_section_title
;
Structure prediction by ZEFSAII (Michael W. Deem and Ramdas Pophale) SiO2 
 PCOD9168415
Probable space group: C 2/M
;
_chemical_formula_sum "Si O2"
_cell_formula_units_Z 34
_cell_length_a 13.387763
_cell_length_b 10.170796
_cell_length_c 9.466756
_cell_angle_alpha 90.000000
_cell_angle_beta 93.008989
_cell_angle_gamma 90.000000
_cell_volume 1287.256142
_symmetry_space_group_name_H-M "C 2/M"
_symmetry_group_IT_number 12
_symmetry_cell_setting 'monoclinic'
loop_
_space_group_symop_operation_xyz
x,y,z
-x,y,-z
-x,-y,-z
x,-y,z
1/2+x,1/2+y,z
1/2-x,1/2+y,-z
1/2-x,1/2-y,-z
1/2+x,1/2-y,z
loop_
_atom_site_type_symbol
_atom_site_label
_atom_site_fract_x
_atom_site_fract_y
_atom_site_fract_z
Si Si1 0.138304 0.500000 0.888158
Si Si2 0.500000 0.500000 0.000000
Si Si3 0.130061 0.225761 0.477361
Si Si4 0.193990 0.000000 0.301888
Si Si5 0.086960 0.794799 0.798121
Si Si6 0.745645 0.000000 0.161316
Si Si7 0.643231 0.000000 0.443978
O O1 0.257552 0.500000 0.848306
O O2 0.092470 0.639093 0.833573
O O3 0.147626 0.500000 0.058192
O O4 0.509437 0.383109 0.878970
O O5 0.250000 0.250000 0.500000
O O6 0.131740 0.121801 0.353675
O O7 0.088379 0.186652 0.627292
O O8 0.086692 0.364533 0.425468
O O9 0.298176 0.000000 0.402695
O O10 0.189601 0.868217 0.857581
O O11 0.721997 0.000000 0.324229
#
# Coordination Sequence:
#
# PCOD9168415 Si02
#       7
#     4   2   8   4   8   4   4
#     4  12  21  30  54  86 117 140 172 239 287 337
#     4  10  26  38  56  72 110 170 180 234 258 316
#     4  10  15  27  53  76 106 131 171 243 261 315
#     4  10  15  27  46  77 108 132 173 213 285 312
#     4  11  20  37  52  81 116 146 197 213 276 338
#     4  11  20  31  51  85 126 145 158 221 307 352
#     4  10  15  28  47  78 111 131 173 209 291 316
#
# _framework density 26.412768
#
# number of rings (size 3 to 8) (size 9 to 14) (size 15 to 20)
#    0.000    1.412    9.412    1.412    0.000    0.471 
#    0.000    0.000    0.000    0.000    0.000   31.294 
#    0.000    0.000    0.000    0.000    0.000    0.000 
#
# Total GULP energy -94771.022822 kJ/mol
# GULP energy per Si atom -5574.766048 kJ/mol
# Density = 2.635265 g / cm^3
# Si number density = 26.412768 Si / 1000 Ang^3
#
#
#
# Elastic Constant Matrix: (Units=GPa)
#
#
# Indices 1 2 3 4 5 6 
#
# 1 62.5703 25.0881 19.3990 0.0000 -2.0284 0.0000
# 2 25.0881 257.3465 56.7428 0.0000 -16.0241 0.0000
# 3 19.3990 56.7428 124.2425 0.0000 1.0336 0.0000
# 4 0.0000 0.0000 0.0000 36.8999 0.0000 -17.4961
# 5 -2.0284 -16.0241 1.0336 0.0000 21.5218 0.0000
# 6 0.0000 0.0000 0.0000 -17.4961 0.0000 1.7282
#
#
#
# Elastic Compliance Matrix: (Units=1/GPa)
#
#
# Indices 1 2 3 4 5 6 
#
# 1 0.017138 -0.001140 -0.002163 0.000000 0.000871 0.000000
# 2 -0.001140 0.004647 -0.001973 0.000000 0.003447 0.000000
# 3 -0.002163 -0.001973 0.009305 0.000000 -0.002120 0.000000
# 4 0.000000 0.000000 0.000000 -0.007131 0.000000 -0.072196
# 5 0.000871 0.003447 -0.002120 0.000000 0.049215 0.000000
# 6 0.000000 0.000000 0.000000 -0.072196 0.000000 -0.152264
#
#
# Mechanical properties :
#
#
# Convention : Reuss Voigt Hill
#
# Bulk Modulus (GPa) = 48.68766 71.84657 60.26711
# Shear Modulus (GPa) = -81.04504 34.89195 -23.07654
#
# Velocity S-wave (km/s) = -5.54533 3.63854 -2.95903
# Velocity P-wave (km/s) = 4.74631 6.70167 3.34552
#
# Compressibility (1/GPa) = 0.02053909
#
# Stress axis : x y z
#
# Youngs Moduli (GPa) = 58.35093 215.21387 107.46803
#
# Poissons Ratio (x) = 0.24527 0.23241
# Poissons Ratio (y) = 0.06650 0.21202
# Poissons Ratio (z) = 0.12619 0.42458
#
# Static dielectric constant tensor:
#      x y z
#    x 2.176780 0.000000 -0.012150 
#    y 0.000000 2.046080 0.000000 
#    z -0.012150 0.000000 1.974660 
# 
# From -- ./inp_files/82794.got.cif
#   From: 2010.05.17/outbox.cif.g08.bks.cpg/sg12_42_cif.got.tgz:82794.got - 2010.06.03 13:09:07.
