data_PCOD9168083
_publ_section_title
;
Structure prediction by ZEFSAII (Michael W. Deem and Ramdas Pophale) SiO2 
 PCOD9168083
Probable space group: P 21/M
;
_chemical_formula_sum "Si O2"
_cell_formula_units_Z 28
_cell_length_a 15.000000
_cell_length_b 9.000000
_cell_length_c 12.000000
_cell_angle_alpha 90.000000
_cell_angle_beta 60.000000
_cell_angle_gamma 90.000000
_cell_volume 1402.961154
_symmetry_space_group_name_H-M "P 21/M"
_symmetry_group_IT_number 11
_symmetry_cell_setting 'monoclinic'
loop_
_space_group_symop_operation_xyz
x,y,z
-x,1/2+y,-z
-x,-y,-z
x,1/2-y,z
loop_
_atom_site_type_symbol
_atom_site_label
_atom_site_fract_x
_atom_site_fract_y
_atom_site_fract_z
Si Si1 0.941693 0.413663 0.751691
Si Si2 0.304505 0.425332 0.348471
Si Si3 0.497351 0.926461 0.622799
Si Si4 0.894369 0.082662 0.039476
Si Si5 0.914074 0.425581 0.471553
Si Si6 0.686789 0.571636 0.123193
Si Si7 0.289650 0.926655 0.134515
O O1 0.980883 0.250000 0.693115
O O2 0.832608 0.445841 0.761471
O O3 0.029292 0.534493 0.679869
O O4 0.904742 0.402943 0.900351
O O5 0.287842 0.250000 0.338967
O O6 0.392599 0.443907 0.385484
O O7 0.197187 0.499136 0.453473
O O8 0.341793 0.501634 0.209910
O O9 0.475339 0.750000 0.629320
O O10 0.500000 0.000000 0.500000
O O11 0.410658 0.006399 0.751016
O O12 0.887508 0.250000 0.091279
O O13 0.790226 0.988934 0.119890
O O14 0.000000 0.000000 0.000000
O O15 0.906160 0.250000 0.493440
O O16 0.000000 0.500000 0.500000
O O17 0.687271 0.750000 0.120686
O O18 0.686417 0.508022 0.996563
O O19 0.308691 0.750000 0.112313
#
# Coordination Sequence:
#
# PCOD9168083 Si02
#       7
#     4   4   4   4   4   4   4
#     4   9  19  35  55  83 121 162 201 249 305 364
#     4  11  24  41  64  93 126 166 214 265 319 384
#     4  11  26  48  70  93 124 165 216 269 321 379
#     4  10  21  38  61  90 125 162 208 260 312 372
#     4  12  23  35  57  88 126 166 204 250 307 373
#     4  11  23  41  67  94 126 168 210 259 320 378
#     4  10  20  37  63  94 128 162 203 256 314 376
#
# _framework density 19.957787
#
# number of rings (size 3 to 8) (size 9 to 14) (size 15 to 20)
#    0.000    1.429    1.429    5.143    0.000    6.857 
#    0.000    1.429    0.000    0.000    0.000    0.000 
#    0.000    0.000    0.000    0.000    0.000    0.000 
#
# Total GULP energy -156279.166864 kJ/mol
# GULP energy per Si atom -5581.398817 kJ/mol
# Density = 1.991236 g / cm^3
# Si number density = 19.957787 Si / 1000 Ang^3
#
#
#
# Elastic Constant Matrix: (Units=GPa)
#
#
# Indices 1 2 3 4 5 6 
#
# 1 93.3431 78.9306 42.7104 0.0000 -7.8340 0.0000
# 2 78.9306 194.8641 73.1178 0.0000 -14.1217 0.0000
# 3 42.7104 73.1178 94.2053 0.0000 -18.3779 0.0000
# 4 0.0000 0.0000 0.0000 37.1020 0.0000 -2.5481
# 5 -7.8340 -14.1217 -18.3779 0.0000 27.6300 0.0000
# 6 0.0000 0.0000 0.0000 -2.5481 0.0000 30.8974
#
#
#
# Elastic Compliance Matrix: (Units=1/GPa)
#
#
# Indices 1 2 3 4 5 6 
#
# 1 0.017008 -0.005637 -0.003398 0.000000 -0.000319 0.000000
# 2 -0.005637 0.009109 -0.004502 0.000000 0.000063 0.000000
# 3 -0.003398 -0.004502 0.017251 0.000000 0.008210 0.000000
# 4 0.000000 0.000000 0.000000 0.027106 0.000000 0.002235
# 5 -0.000319 0.000063 0.008210 0.000000 0.041595 0.000000
# 6 0.000000 0.000000 0.000000 0.002235 0.000000 0.032550
#
#
# Mechanical properties :
#
#
# Convention : Reuss Voigt Hill
#
# Bulk Modulus (GPa) = 61.37067 85.77001 73.57034
# Shear Modulus (GPa) = 28.22862 31.63612 29.93237
#
# Velocity S-wave (km/s) = 3.76495 3.98572 3.87691
# Velocity P-wave (km/s) = 7.05102 8.01563 7.54874
#
# Compressibility (1/GPa) = 0.01629443
#
# Stress axis : x y z
#
# Youngs Moduli (GPa) = 58.79570 109.78154 57.96609
#
# Poissons Ratio (x) = 0.61888 0.19696
# Poissons Ratio (y) = 0.33145 0.26096
# Poissons Ratio (z) = 0.19978 0.49422
#
# Static dielectric constant tensor:
#      x y z
#    x 1.763780 0.000000 0.065390 
#    y 0.000000 1.502610 0.000000 
#    z 0.065390 0.000000 1.781730 
# 
# From -- ./inp_files/37921.got.cif
#   From: 2010.05.17/outbox.ucp.g08.bks.cvg/sg11_19_cif.got.tgz:37921.got - 2010.06.11 11:38:39.
