data_PCOD9168226
_publ_section_title
;
Structure prediction by ZEFSAII (Michael W. Deem and Ramdas Pophale) SiO2 
 PCOD9168226
Probable space group: P 21/M
;
_chemical_formula_sum "Si O2"
_cell_formula_units_Z 30
_cell_length_a 15.000000
_cell_length_b 9.000000
_cell_length_c 12.000000
_cell_angle_alpha 90.000000
_cell_angle_beta 110.000000
_cell_angle_gamma 90.000000
_cell_volume 1522.302046
_symmetry_space_group_name_H-M "P 21/M"
_symmetry_group_IT_number 11
_symmetry_cell_setting 'monoclinic'
loop_
_space_group_symop_operation_xyz
x,y,z
-x,1/2+y,-z
-x,-y,-z
x,1/2-y,z
loop_
_atom_site_type_symbol
_atom_site_label
_atom_site_fract_x
_atom_site_fract_y
_atom_site_fract_z
Si Si1 0.300862 0.076421 0.097189
Si Si2 0.308155 0.076712 0.697245
Si Si3 0.649019 0.005259 0.528683
Si Si4 0.175440 0.423835 0.830590
Si Si5 0.484300 0.250000 0.434140
Si Si6 0.492551 0.927782 0.875924
Si Si7 0.814505 0.081939 0.763849
Si Si8 0.998960 0.074342 0.122171
O O1 0.291579 0.250000 0.125994
O O2 0.411205 0.033793 0.149584
O O3 0.235221 0.975912 0.144967
O O4 0.263578 0.064700 0.954745
O O5 0.323882 0.250000 0.732319
O O6 0.215833 0.029633 0.727898
O O7 0.305197 0.058791 0.564323
O O8 0.398970 0.986387 0.777807
O O9 0.567891 0.122097 0.461164
O O10 0.732741 0.074182 0.637254
O O11 0.596394 0.878770 0.576880
O O12 0.147353 0.250000 0.815698
O O13 0.090023 0.516749 0.845124
O O14 0.491144 0.750000 0.883825
O O15 0.500000 0.000000 0.000000
O O16 0.848680 0.250000 0.792340
O O17 0.903626 0.977345 0.778630
O O18 0.995902 0.250000 0.107919
O O19 0.000000 0.000000 0.000000
#
# Coordination Sequence:
#
# PCOD9168226 Si02
#       8
#     4   4   4   4   2   4   4   4
#     4  10  22  37  60  90 127 168 212 264 324 383
#     4  11  24  42  65  91 133 178 219 264 330 399
#     4  11  25  43  67 100 132 180 225 274 325 386
#     4  10  21  43  65  91 128 170 213 265 326 389
#     4  10  24  44  66  92 134 176 230 268 316 380
#     4  11  23  37  57  88 128 171 214 261 318 385
#     4  12  26  42  66  97 131 167 218 276 328 391
#     4  12  25  43  69  99 129 167 217 275 336 394
#
# _framework density 19.706996
#
# number of rings (size 3 to 8) (size 9 to 14) (size 15 to 20)
#    0.000    1.067    4.000    2.000    6.533    1.600 
#    0.000    0.667    0.000    0.000    0.000    0.000 
#    0.000    0.000    0.000    0.000    0.000    0.000 
#
# Total GULP energy -167150.601935 kJ/mol
# GULP energy per Si atom -5571.686731 kJ/mol
# Density = 1.966214 g / cm^3
# Si number density = 19.706996 Si / 1000 Ang^3
#
#
#
# Elastic Constant Matrix: (Units=GPa)
#
#
# Indices 1 2 3 4 5 6 
#
# 1 132.0867 58.0672 28.1419 0.0000 -2.9440 0.0000
# 2 58.0672 102.6402 6.4189 0.0000 0.2800 0.0000
# 3 28.1419 6.4189 55.8097 0.0000 -7.9963 0.0000
# 4 0.0000 0.0000 0.0000 8.3907 0.0000 2.2956
# 5 -2.9440 0.2800 -7.9963 0.0000 11.2829 0.0000
# 6 0.0000 0.0000 0.0000 2.2956 0.0000 33.3289
#
#
#
# Elastic Compliance Matrix: (Units=1/GPa)
#
#
# Indices 1 2 3 4 5 6 
#
# 1 0.011316 -0.006083 -0.005077 0.000000 -0.000495 0.000000
# 2 -0.006083 0.013097 0.001432 0.000000 -0.000897 0.000000
# 3 -0.005077 0.001432 0.022392 0.000000 0.014509 0.000000
# 4 0.000000 0.000000 0.000000 0.121469 0.000000 -0.008366
# 5 -0.000495 -0.000897 0.014509 0.000000 0.098806 0.000000
# 6 0.000000 0.000000 0.000000 -0.008366 0.000000 0.030580
#
#
# Mechanical properties :
#
#
# Convention : Reuss Voigt Hill
#
# Bulk Modulus (GPa) = 36.56351 52.86585 44.71468
# Shear Modulus (GPa) = 15.32658 23.79441 19.56050
#
# Velocity S-wave (km/s) = 2.79179 3.47855 3.15392
# Velocity P-wave (km/s) = 5.38386 6.55880 6.00016
#
# Compressibility (1/GPa) = 0.02734967
#
# Stress axis : x y z
#
# Youngs Moduli (GPa) = 88.37427 76.35425 44.65828
#
# Poissons Ratio (x) = 0.46444 0.22673
# Poissons Ratio (y) = 0.53756 -0.06397
# Poissons Ratio (z) = 0.44868 -0.10937
#
# Static dielectric constant tensor:
#      x y z
#    x 1.673450 0.000000 -0.004560 
#    y 0.000000 1.668160 0.000000 
#    z -0.004560 0.000000 1.720450 
# 
# From -- ./inp_files/38316.got.cif
#   From: 2010.05.17/outbox.ucp.g08.bks.cvg/sg11_20_cif.got.tgz:38316.got - 2010.06.11 11:38:39.
