data_PCOD9168461
_publ_section_title
;
Structure prediction by ZEFSAII (Michael W. Deem and Ramdas Pophale) SiO2 
 PCOD9168461
Probable space group: C 2/M
;
_chemical_formula_sum "Si O2"
_cell_formula_units_Z 48
_cell_length_a 18.277270
_cell_length_b 22.336819
_cell_length_c 9.140793
_cell_angle_alpha 90.000000
_cell_angle_beta 47.104690
_cell_angle_gamma 90.000000
_cell_volume 2733.899977
_symmetry_space_group_name_H-M "C 2/M"
_symmetry_group_IT_number 12
_symmetry_cell_setting 'monoclinic'
loop_
_space_group_symop_operation_xyz
x,y,z
-x,y,-z
-x,-y,-z
x,-y,z
1/2+x,1/2+y,z
1/2-x,1/2+y,-z
1/2-x,1/2-y,-z
1/2+x,1/2-y,z
loop_
_atom_site_type_symbol
_atom_site_label
_atom_site_fract_x
_atom_site_fract_y
_atom_site_fract_z
Si Si1 0.098458 0.646347 0.787599
Si Si2 0.109202 0.877394 0.924491
Si Si3 0.015212 0.135529 0.650404
Si Si4 0.705520 0.430982 0.530611
Si Si5 0.437120 0.770443 0.444578
Si Si6 0.218502 0.246803 0.714931
O O1 0.187549 0.599908 0.638042
O O2 0.070476 0.680548 0.673782
O O3 0.145731 0.697206 0.830068
O O4 0.000000 0.621722 0.000000
O O5 0.173570 0.924100 0.744318
O O6 0.162990 0.814201 0.827278
O O7 0.000000 0.873889 0.000000
O O8 0.079397 0.889800 0.131412
O O9 0.118546 0.105537 0.563562
O O10 0.020603 0.207162 0.672760
O O11 0.000000 0.127365 0.500000
O O12 0.705394 0.500000 0.487423
O O13 0.500000 0.789646 0.500000
O O14 0.324757 0.753565 0.649616
O O15 0.250000 0.250000 0.500000
#
# Coordination Sequence:
#
# PCOD9168461 Si02
#       6
#     8   8   8   8   8   8
#     4  11  20  36  57  79 111 148 185 226 272 319
#     4  10  18  33  58  83 108 143 183 225 272 334
#     4  10  21  37  55  87 121 139 170 229 290 336
#     4  11  22  38  58  79 104 149 199 229 264 325
#     4  10  19  34  56  86 117 140 172 220 281 337
#     4  10  15  31  57  81 112 143 174 222 274 329
#
# _framework density 17.557334999999998
#
# number of rings (size 3 to 8) (size 9 to 14) (size 15 to 20)
#    0.000    1.667    5.000    4.500    0.000    3.667 
#    3.000    2.500    0.000    0.500    0.000    0.000 
#    0.000    0.000    0.000    0.000    0.000    0.000 
#
# Total GULP energy -133784.492222 kJ/mol
# GULP energy per Si atom -5574.353843 kJ/mol
# Density = 1.751737 g / cm^3
# Si number density = 17.557335 Si / 1000 Ang^3
#
#
#
# Elastic Constant Matrix: (Units=GPa)
#
#
# Indices 1 2 3 4 5 6 
#
# 1 81.4417 27.1082 49.6531 0.0000 -3.2686 0.0000
# 2 27.1082 68.5465 29.6673 0.0000 1.9002 0.0000
# 3 49.6531 29.6673 109.5815 0.0000 -9.8786 0.0000
# 4 0.0000 0.0000 0.0000 -0.8398 0.0000 -0.6990
# 5 -3.2686 1.9002 -9.8786 0.0000 28.9198 0.0000
# 6 0.0000 0.0000 0.0000 -0.6990 0.0000 10.5331
#
#
#
# Elastic Compliance Matrix: (Units=1/GPa)
#
#
# Indices 1 2 3 4 5 6 
#
# 1 0.017903 -0.004034 -0.007030 0.000000 -0.000113 0.000000
# 2 -0.004034 0.017640 -0.003192 0.000000 -0.002705 0.000000
# 3 -0.007030 -0.003192 0.013539 0.000000 0.004040 0.000000
# 4 0.000000 0.000000 0.000000 -1.128418 0.000000 -0.074880
# 5 -0.000113 -0.002705 0.004040 0.000000 0.036123 0.000000
# 6 0.000000 0.000000 0.000000 -0.074880 0.000000 0.089970
#
#
# Mechanical properties :
#
#
# Convention : Reuss Voigt Hill
#
# Bulk Modulus (GPa) = 48.61304 52.49189 50.55247
# Shear Modulus (GPa) = -5.44738 17.93201 6.24231
#
# Velocity S-wave (km/s) = -1.76334 3.19931 1.88762
# Velocity P-wave (km/s) = 4.85824 6.60377 5.79708
#
# Compressibility (1/GPa) = 0.02057061
#
# Stress axis : x y z
#
# Youngs Moduli (GPa) = 55.85603 56.68777 73.85852
#
# Poissons Ratio (x) = 0.22870 0.51924
# Poissons Ratio (y) = 0.22534 0.23573
# Poissons Ratio (z) = 0.39268 0.18093
#
# Static dielectric constant tensor:
#      x y z
#    x 1.618930 0.000000 0.012570 
#    y 0.000000 1.588870 0.000000 
#    z 0.012570 0.000000 1.656220 
# 
# From -- ./inp_files/77258.got.cif
#   From: 2010.05.17/outbox.cif.g08.bks.cpg/sg12_39_cif.got.tgz:77258.got - 2010.06.03 13:09:07.
