data_PCOD9168839
_publ_section_title
;
Structure prediction by ZEFSAII (Michael W. Deem and Ramdas Pophale) SiO2 
 PCOD9168839
Probable space group: C 2/M
;
_chemical_formula_sum "Si O2"
_cell_formula_units_Z 48
_cell_length_a 20.507739
_cell_length_b 10.311726
_cell_length_c 9.257714
_cell_angle_alpha 90.000000
_cell_angle_beta 61.436545
_cell_angle_gamma 90.000000
_cell_volume 1719.451439
_symmetry_space_group_name_H-M "C 2/M"
_symmetry_group_IT_number 12
_symmetry_cell_setting 'monoclinic'
loop_
_space_group_symop_operation_xyz
x,y,z
-x,y,-z
-x,-y,-z
x,-y,z
1/2+x,1/2+y,z
1/2-x,1/2+y,-z
1/2-x,1/2-y,-z
1/2+x,1/2-y,z
loop_
_atom_site_type_symbol
_atom_site_label
_atom_site_fract_x
_atom_site_fract_y
_atom_site_fract_z
Si Si1 0.773029 0.282394 0.263424
Si Si2 0.112098 0.500000 0.585871
Si Si3 0.450202 0.295280 0.750486
Si Si4 0.309394 0.000000 0.016122
Si Si5 0.390585 0.709356 0.503857
Si Si6 0.223202 0.500000 0.279297
Si Si7 0.537484 0.000000 0.180126
Si Si8 0.587392 0.651987 0.901678
O O1 0.772978 0.375496 0.126267
O O2 0.696942 0.318916 0.429643
O O3 0.762766 0.135254 0.227466
O O4 0.858225 0.259971 0.230946
O O5 0.102786 0.366960 0.504805
O O6 0.200374 0.500000 0.479784
O O7 0.048753 0.500000 0.770355
O O8 0.537509 0.338825 0.662735
O O9 0.412107 0.334901 0.642025
O O10 0.453674 0.138622 0.751069
O O11 0.402045 0.341957 0.935470
O O12 0.317549 0.000000 0.835447
O O13 0.392263 0.000000 0.995795
O O14 0.594794 0.500000 0.849416
O O15 0.500000 0.692210 0.000000
#
# Coordination Sequence:
#
# PCOD9168839 Si02
#       8
#     8   4   8   4   8   4   4   8
#     4  11  22  37  56  87 118 154 195 240 295 351
#     4   8  16  27  50  81 119 145 186 215 269 365
#     4  10  19  37  57  88 120 151 185 236 288 354
#     4  12  22  29  52  90 126 144 179 246 311 350
#     4   9  19  33  58  90 121 150 182 229 301 355
#     4  10  20  33  53  81 115 159 193 230 283 358
#     4  10  16  29  52  83 116 149 170 227 297 340
#     4  11  25  43  61  79 108 158 212 248 277 339
#
# _framework density 27.915879
#
# number of rings (size 3 to 8) (size 9 to 14) (size 15 to 20)
#    0.000    1.833    2.500    3.000    2.333    3.667 
#    1.500    3.333    0.000    0.000    0.000    0.000 
#    0.000    0.000    0.000    0.000    0.000    0.000 
#
# Total GULP energy -133637.788746 kJ/mol
# GULP energy per Si atom -5568.241198 kJ/mol
# Density = 2.785234 g / cm^3
# Si number density = 27.915879 Si / 1000 Ang^3
#
#
#
# Elastic Constant Matrix: (Units=GPa)
#
#
# Indices 1 2 3 4 5 6 
#
# 1 95.4298 14.4417 27.2726 0.0000 -30.9947 0.0000
# 2 14.4417 98.0221 -19.3114 0.0000 -10.1037 0.0000
# 3 27.2726 -19.3114 126.2693 0.0000 -45.3187 0.0000
# 4 0.0000 0.0000 0.0000 12.3491 0.0000 -1.2737
# 5 -30.9947 -10.1037 -45.3187 0.0000 51.9293 0.0000
# 6 0.0000 0.0000 0.0000 -1.2737 0.0000 20.8721
#
#
#
# Elastic Compliance Matrix: (Units=1/GPa)
#
#
# Indices 1 2 3 4 5 6 
#
# 1 0.013140 -0.001282 -0.000450 0.000000 0.007201 0.000000
# 2 -0.001282 0.011628 0.003775 0.000000 0.004792 0.000000
# 3 -0.000450 0.003775 0.012757 0.000000 0.011599 0.000000
# 4 0.000000 0.000000 0.000000 0.081490 0.000000 0.004973
# 5 0.007201 0.004792 0.011599 0.000000 0.034610 0.000000
# 6 0.000000 0.000000 0.000000 0.004973 0.000000 0.048214
#
#
# Mechanical properties :
#
#
# Convention : Reuss Voigt Hill
#
# Bulk Modulus (GPa) = 24.03172 40.50302 32.26737
# Shear Modulus (GPa) = 23.62675 36.85133 30.23904
#
# Velocity S-wave (km/s) = 2.91237 3.63724 3.29480
# Velocity P-wave (km/s) = 4.46504 5.67272 5.10472
#
# Compressibility (1/GPa) = 0.04161166
#
# Stress axis : x y z
#
# Youngs Moduli (GPa) = 76.10180 85.99669 78.38772
#
# Poissons Ratio (x) = 0.11028 0.03526
# Poissons Ratio (y) = 0.09759 -0.29593
# Poissons Ratio (z) = 0.03423 -0.32465
#
# Static dielectric constant tensor:
#      x y z
#    x 2.478840 0.000000 -0.147680 
#    y 0.000000 2.099970 0.000000 
#    z -0.147680 0.000000 2.231970 
# 
# From -- ./inp_files/174443.got.cif
#   From: 2010.05.17/outbox.cif.g08.bks.cpg/sg12_88_cif.got.tgz:174443.got - 2010.06.03 13:09:07.
