data_PCOD9168346
_publ_section_title
;
Structure prediction by ZEFSAII (Michael W. Deem and Ramdas Pophale) SiO2 
 PCOD9168346
Probable space group: C 2/M
;
_chemical_formula_sum "Si O2"
_cell_formula_units_Z 48
_cell_length_a 18.293087
_cell_length_b 29.927990
_cell_length_c 9.269202
_cell_angle_alpha 90.000000
_cell_angle_beta 150.562744
_cell_angle_gamma 90.000000
_cell_volume 2494.043593
_symmetry_space_group_name_H-M "C 2/M"
_symmetry_group_IT_number 12
_symmetry_cell_setting 'monoclinic'
loop_
_space_group_symop_operation_xyz
x,y,z
-x,y,-z
-x,-y,-z
x,-y,z
1/2+x,1/2+y,z
1/2-x,1/2+y,-z
1/2-x,1/2-y,-z
1/2+x,1/2-y,z
loop_
_atom_site_type_symbol
_atom_site_label
_atom_site_fract_x
_atom_site_fract_y
_atom_site_fract_z
Si Si1 0.267705 0.596068 0.653671
Si Si2 0.333795 0.500000 0.790607
Si Si3 0.081589 0.098604 0.368586
Si Si4 0.590623 0.759360 0.294170
Si Si5 0.368886 0.167555 0.389264
Si Si6 0.035737 0.185247 0.716317
Si Si7 0.532933 0.500000 0.388834
O O1 0.243331 0.543601 0.596439
O O2 0.297201 0.612795 0.542395
O O3 0.153570 0.623201 0.552927
O O4 0.425252 0.597833 0.011212
O O5 0.500000 0.500000 0.000000
O O6 0.378188 0.500000 0.034225
O O7 0.105655 0.048119 0.469624
O O8 0.054810 0.138326 0.434690
O O9 0.750000 0.750000 0.500000
O O10 0.600953 0.793944 0.442467
O O11 0.518599 0.715129 0.242353
O O12 0.500000 0.775864 0.000000
O O13 0.500000 0.164071 0.500000
O O14 0.211114 0.177119 0.039653
O O15 0.000000 0.206946 0.500000
O O16 0.500000 0.500000 0.500000
#
# Coordination Sequence:
#
# PCOD9168346 Si02
#       7
#     8   4   8   8   8   8   4
#     4   9  16  32  57  84 115 155 202 245 297 362
#     4  10  14  30  57  86 112 156 203 250 294 356
#     4   9  16  30  54  83 118 151 194 245 300 351
#     4  12  25  43  67  90 115 158 210 256 315 372
#     4  11  25  42  60  88 128 164 200 256 314 369
#     4  11  24  39  61  89 121 160 202 254 304 363
#     4  10  16  24  46  86 124 147 180 247 308 353
#
# _framework density 19.245854999999999
#
# number of rings (size 3 to 8) (size 9 to 14) (size 15 to 20)
#    0.000    1.667    5.000    2.000    4.667    1.333 
#    0.000    0.417    0.000    0.000    0.000    0.583 
#    0.000    0.000    0.000    0.000    0.000    0.000 
#
# Total GULP energy -133792.012399 kJ/mol
# GULP energy per Si atom -5574.667183 kJ/mol
# Density = 1.920205 g / cm^3
# Si number density = 19.245855 Si / 1000 Ang^3
#
#
#
# Elastic Constant Matrix: (Units=GPa)
#
#
# Indices 1 2 3 4 5 6 
#
# 1 189.0196 61.4288 47.3900 0.0000 9.2446 0.0000
# 2 61.4288 98.1055 16.7726 0.0000 14.6316 0.0000
# 3 47.3900 16.7726 54.6511 0.0000 0.0279 0.0000
# 4 0.0000 0.0000 0.0000 12.6701 0.0000 -4.9451
# 5 9.2446 14.6316 0.0279 0.0000 35.6856 0.0000
# 6 0.0000 0.0000 0.0000 -4.9451 0.0000 30.0572
#
#
#
# Elastic Compliance Matrix: (Units=1/GPa)
#
#
# Indices 1 2 3 4 5 6 
#
# 1 0.008053 -0.003992 -0.005758 0.000000 -0.000445 0.000000
# 2 -0.003992 0.013477 -0.000673 0.000000 -0.004491 0.000000
# 3 -0.005758 -0.000673 0.023496 0.000000 0.001749 0.000000
# 4 0.000000 0.000000 0.000000 0.084342 0.000000 0.013876
# 5 -0.000445 -0.004491 0.001749 0.000000 0.029978 0.000000
# 6 0.000000 0.000000 0.000000 0.013876 0.000000 0.035553
#
#
# Mechanical properties :
#
#
# Convention : Reuss Voigt Hill
#
# Bulk Modulus (GPa) = 41.35240 65.88434 53.61837
# Shear Modulus (GPa) = 22.34096 30.09490 26.21793
#
# Velocity S-wave (km/s) = 3.41078 3.95866 3.69489
# Velocity P-wave (km/s) = 6.08640 7.42981 6.79140
#
# Compressibility (1/GPa) = 0.02418240
#
# Stress axis : x y z
#
# Youngs Moduli (GPa) = 124.17715 74.19884 42.56007
#
# Poissons Ratio (x) = 0.29617 0.24505
# Poissons Ratio (y) = 0.49567 0.02863
# Poissons Ratio (z) = 0.71498 0.04991
#
# Static dielectric constant tensor:
#      x y z
#    x 1.702080 0.000000 -0.050500 
#    y 0.000000 1.756630 0.000000 
#    z -0.050500 0.000000 1.639290 
# 
# From -- ./inp_files/80901.got.cif
#   From: 2010.05.17/outbox.cif.g08.bks.cpg/sg12_41_cif.got.tgz:80901.got - 2010.06.03 13:09:07.
