data_PCOD9168334
_publ_section_title
;
Structure prediction by ZEFSAII (Michael W. Deem and Ramdas Pophale) SiO2 
 PCOD9168334
Probable space group: C 2/M
;
_chemical_formula_sum "Si O2"
_cell_formula_units_Z 46
_cell_length_a 16.509053
_cell_length_b 20.464935
_cell_length_c 7.666257
_cell_angle_alpha 90.000000
_cell_angle_beta 45.392129
_cell_angle_gamma 90.000000
_cell_volume 1843.966149
_symmetry_space_group_name_H-M "C 2/M"
_symmetry_group_IT_number 12
_symmetry_cell_setting 'monoclinic'
loop_
_space_group_symop_operation_xyz
x,y,z
-x,y,-z
-x,-y,-z
x,-y,z
1/2+x,1/2+y,z
1/2-x,1/2+y,-z
1/2-x,1/2-y,-z
1/2+x,1/2-y,z
loop_
_atom_site_type_symbol
_atom_site_label
_atom_site_fract_x
_atom_site_fract_y
_atom_site_fract_z
Si Si1 0.522043 0.858122 0.674952
Si Si2 0.238829 0.358418 0.865011
Si Si3 0.861917 0.000000 0.208120
Si Si4 0.933345 0.783236 0.410493
Si Si5 0.222426 0.500000 0.772803
Si Si6 0.605378 0.612857 0.082283
Si Si7 0.477351 0.000000 0.321046
Si Si8 0.500000 0.500000 0.500000
O O1 0.500000 0.860471 0.500000
O O2 0.581182 0.790607 0.630295
O O3 0.574131 0.928873 0.642835
O O4 0.395165 0.851722 0.945420
O O5 0.311713 0.315257 0.625810
O O6 0.266841 0.434470 0.793246
O O7 0.292400 0.348493 0.974819
O O8 0.785128 0.000000 0.494872
O O9 0.837149 0.932166 0.148671
O O10 0.000000 0.000000 0.000000
O O11 0.000000 0.781650 0.500000
O O12 0.012249 0.832032 0.180736
O O13 0.090580 0.500000 0.028488
O O14 0.537898 0.558742 0.301841
O O15 0.500000 0.000000 0.500000
#
# Coordination Sequence:
#
# PCOD9168334 Si02
#       8
#     8   8   4   8   4   8   4   2
#     4   9  18  30  49  81 107 131 179 231 278 314
#     4  10  18  32  54  76 107 148 176 226 272 320
#     4  11  22  29  47  79 120 151 173 217 265 338
#     4   9  17  27  44  73 105 138 172 217 267 316
#     4  10  19  31  53  82 108 139 185 218 266 324
#     4  10  19  29  47  74 111 149 173 209 268 324
#     4   8  16  33  52  72  98 130 175 233 267 301
#     4  10  14  28  46  68 106 134 178 196 254 322
#
# _framework density 24.94623
#
# number of rings (size 3 to 8) (size 9 to 14) (size 15 to 20)
#    0.000    2.435    2.609    2.087    2.435    6.261 
#    0.000    0.000    0.000    4.174    0.000   53.565 
#    0.000    0.000    0.000    0.000    0.000    0.000 
#
# Total GULP energy -128164.585236 kJ/mol
# GULP energy per Si atom -5572.373271 kJ/mol
# Density = 2.488945 g / cm^3
# Si number density = 24.946230 Si / 1000 Ang^3
#
#
#
# Elastic Constant Matrix: (Units=GPa)
#
#
# Indices 1 2 3 4 5 6 
#
# 1 27.1936 3.9857 25.3924 0.0000 -14.9686 0.0000
# 2 3.9857 205.7996 31.7904 0.0000 -29.1701 0.0000
# 3 25.3924 31.7904 119.6472 0.0000 -8.8719 0.0000
# 4 0.0000 0.0000 0.0000 29.2332 0.0000 -2.8747
# 5 -14.9686 -29.1701 -8.8719 0.0000 28.0931 0.0000
# 6 0.0000 0.0000 0.0000 -2.8747 0.0000 5.2252
#
#
#
# Elastic Compliance Matrix: (Units=1/GPa)
#
#
# Indices 1 2 3 4 5 6 
#
# 1 0.070670 0.006421 -0.013739 0.000000 0.039982 0.000000
# 2 0.006421 0.006426 -0.002377 0.000000 0.009343 0.000000
# 3 -0.013739 -0.002377 0.011448 0.000000 -0.006174 0.000000
# 4 0.000000 0.000000 0.000000 0.036164 0.000000 0.019896
# 5 0.039982 0.009343 -0.006174 0.000000 0.064651 0.000000
# 6 0.000000 0.000000 0.000000 0.019896 0.000000 0.202326
#
#
# Mechanical properties :
#
#
# Convention : Reuss Voigt Hill
#
# Bulk Modulus (GPa) = 14.46094 52.77527 33.61810
# Shear Modulus (GPa) = 11.51737 31.94176 21.72956
#
# Velocity S-wave (km/s) = 2.15102 3.58218 2.95457
# Velocity P-wave (km/s) = 3.46102 6.18958 5.01446
#
# Compressibility (1/GPa) = 0.06915181
#
# Stress axis : x y z
#
# Youngs Moduli (GPa) = 14.15035 155.61149 87.35426
#
# Poissons Ratio (x) = -0.99915 1.20019
# Poissons Ratio (y) = -0.09086 0.20767
# Poissons Ratio (z) = 0.19442 0.36994
#
# Static dielectric constant tensor:
#      x y z
#    x 2.083230 0.000000 0.016590 
#    y 0.000000 2.019920 0.000000 
#    z 0.016590 0.000000 1.817500 
# 
# From -- ./inp_files/89479.got.cif
#   From: 2010.05.17/outbox.cif.g08.bks.cpg/sg12_45_cif.got.tgz:89479.got - 2010.06.03 13:09:07.
