data_PCOD9168651
_publ_section_title
;
Structure prediction by ZEFSAII (Michael W. Deem and Ramdas Pophale) SiO2 
 PCOD9168651
Probable space group: C 2/M
;
_chemical_formula_sum "Si O2"
_cell_formula_units_Z 28
_cell_length_a 5.321400
_cell_length_b 34.637080
_cell_length_c 9.788734
_cell_angle_alpha 90.000000
_cell_angle_beta 42.725937
_cell_angle_gamma 90.000000
_cell_volume 1224.161226
_symmetry_space_group_name_H-M "C 2/M"
_symmetry_group_IT_number 12
_symmetry_cell_setting 'monoclinic'
loop_
_space_group_symop_operation_xyz
x,y,z
-x,y,-z
-x,-y,-z
x,-y,z
1/2+x,1/2+y,z
1/2-x,1/2+y,-z
1/2-x,1/2-y,-z
1/2+x,1/2-y,z
loop_
_atom_site_type_symbol
_atom_site_label
_atom_site_fract_x
_atom_site_fract_y
_atom_site_fract_z
Si Si1 0.934793 0.457796 0.363759
Si Si2 0.993178 0.375734 0.775364
Si Si3 0.000000 0.724249 0.000000
Si Si4 0.504125 0.654225 0.228132
O O1 0.500000 0.458002 0.500000
O O2 0.084349 0.500000 0.260629
O O3 0.000000 0.454737 0.500000
O O4 0.091198 0.419383 0.232694
O O5 0.893300 0.348066 0.686549
O O6 0.398895 0.372577 0.682258
O O7 0.743507 0.361948 0.003192
O O8 0.687628 0.695567 0.188754
O O9 0.750000 0.750000 0.000000
#
# Coordination Sequence:
#
# PCOD9168651 Si02
#       4
#     8   8   4   8
#     4  10  20  32  47  67  90 119 157 199 232 259
#     4   9  16  31  45  62  94 122 147 188 226 265
#     4  10  16  26  44  70 101 120 139 176 224 276
#     4   9  18  29  46  69  94 120 147 181 223 276
#
# _framework density 22.872807000000002
#
# number of rings (size 3 to 8) (size 9 to 14) (size 15 to 20)
#    0.000    2.857    0.000    5.143    0.000    0.000 
#    0.000    5.714    0.000    0.000    0.000    0.000 
#    0.000  418.286    0.000    0.000    0.000    0.000 
#
# Total GULP energy -77976.881288 kJ/mol
# GULP energy per Si atom -5569.777235 kJ/mol
# Density = 2.282075 g / cm^3
# Si number density = 22.872807 Si / 1000 Ang^3
#
#
#
# Elastic Constant Matrix: (Units=GPa)
#
#
# Indices 1 2 3 4 5 6 
#
# 1 232.9304 53.5968 28.2491 0.0000 29.4716 0.0000
# 2 53.5968 158.4648 6.3929 0.0000 18.5657 0.0000
# 3 28.2491 6.3929 37.2569 0.0000 7.2306 0.0000
# 4 0.0000 0.0000 0.0000 25.0630 0.0000 4.6471
# 5 29.4716 18.5657 7.2306 0.0000 44.7583 0.0000
# 6 0.0000 0.0000 0.0000 4.6471 0.0000 48.5417
#
#
#
# Elastic Compliance Matrix: (Units=1/GPa)
#
#
# Indices 1 2 3 4 5 6 
#
# 1 0.005318 -0.001384 -0.003331 0.000000 -0.002389 0.000000
# 2 -0.001384 0.007007 0.000242 0.000000 -0.002034 0.000000
# 3 -0.003331 0.000242 0.029855 0.000000 -0.002730 0.000000
# 4 0.000000 0.000000 0.000000 0.040621 0.000000 -0.003889
# 5 -0.002389 -0.002034 -0.002730 0.000000 0.025200 0.000000
# 6 0.000000 0.000000 0.000000 -0.003889 0.000000 0.020973
#
#
# Mechanical properties :
#
#
# Convention : Reuss Voigt Hill
#
# Bulk Modulus (GPa) = 30.09026 67.23665 48.66346
# Shear Modulus (GPa) = 33.55745 46.36680 39.96213
#
# Velocity S-wave (km/s) = 3.83447 4.50728 4.18442
# Velocity P-wave (km/s) = 5.72610 7.51978 6.68339
#
# Compressibility (1/GPa) = 0.03323334
#
# Stress axis : x y z
#
# Youngs Moduli (GPa) = 188.04264 142.70769 33.49568
#
# Poissons Ratio (x) = 0.19756 0.11157
# Poissons Ratio (y) = 0.26032 -0.00811
# Poissons Ratio (z) = 0.62636 -0.03454
#
# Static dielectric constant tensor:
#      x y z
#    x 2.196680 0.000000 -0.287210 
#    y 0.000000 1.876430 0.000000 
#    z -0.287210 0.000000 2.089370 
# 
# From -- ./inp_files/115615.got.cif
#   From: 2010.05.17/outbox.cif.g08.bks.cpg/sg12_58_cif.got.tgz:115615.got - 2010.06.03 13:09:07.
