data_PCOD9168166
_publ_section_title
;
Structure prediction by ZEFSAII (Michael W. Deem and Ramdas Pophale) SiO2 
 PCOD9168166
Probable space group: P 21/M
;
_chemical_formula_sum "Si O2"
_cell_formula_units_Z 20
_cell_length_a 9.000000
_cell_length_b 9.000000
_cell_length_c 12.000000
_cell_angle_alpha 90.000000
_cell_angle_beta 90.000000
_cell_angle_gamma 90.000000
_cell_volume 972.000000
_symmetry_space_group_name_H-M "P 21/M"
_symmetry_group_IT_number 11
_symmetry_cell_setting 'monoclinic'
loop_
_space_group_symop_operation_xyz
x,y,z
-x,1/2+y,-z
-x,-y,-z
x,1/2-y,z
loop_
_atom_site_type_symbol
_atom_site_label
_atom_site_fract_x
_atom_site_fract_y
_atom_site_fract_z
Si Si1 0.686405 0.069678 0.769666
Si Si2 0.164882 0.929984 0.990885
Si Si3 0.940334 0.419687 0.609584
Si Si4 0.221928 0.078208 0.756641
Si Si5 0.547531 0.427165 0.381932
O O1 0.673898 0.250000 0.763767
O O2 0.795507 0.017388 0.669726
O O3 0.539089 0.989555 0.727384
O O4 0.745171 0.034989 0.894248
O O5 0.156753 0.750000 0.981731
O O6 0.232631 0.000151 0.877302
O O7 0.000000 0.000000 0.000000
O O8 0.910110 0.250000 0.575705
O O9 0.052539 0.414633 0.714573
O O10 0.000000 0.500000 0.500000
O O11 0.276725 0.250000 0.761214
O O12 0.291769 0.985151 0.654714
O O13 0.500000 0.500000 0.500000
O O14 0.536998 0.250000 0.390736
#
# Coordination Sequence:
#
# PCOD9168166 Si02
#       5
#     4   4   4   4   4
#     4  10  22  42  64  90 126 168 212 262 314 375
#     4  11  22  40  66  96 130 168 212 264 319 376
#     4  10  21  37  59  89 121 158 208 259 312 371
#     4  11  23  42  65  93 127 168 212 263 319 377
#     4  12  26  44  65  94 128 170 214 261 320 382
#
# _framework density 20.576132000000001
#
# number of rings (size 3 to 8) (size 9 to 14) (size 15 to 20)
#    0.000    1.200    2.000    4.200    0.000    8.000 
#    0.000    0.000    0.000    0.000    0.000    0.000 
#    0.000    0.000    0.000    0.000    0.000    0.000 
#
# Total GULP energy -111588.606041 kJ/mol
# GULP energy per Si atom -5579.430302 kJ/mol
# Density = 2.052930 g / cm^3
# Si number density = 20.576132 Si / 1000 Ang^3
#
#
#
# Elastic Constant Matrix: (Units=GPa)
#
#
# Indices 1 2 3 4 5 6 
#
# 1 36.8555 1.7093 3.6416 0.0000 4.1371 0.0000
# 2 1.7093 99.4343 50.8383 0.0000 3.5801 0.0000
# 3 3.6416 50.8383 141.4473 0.0000 -5.1634 0.0000
# 4 0.0000 0.0000 0.0000 46.1142 0.0000 -0.5226
# 5 4.1371 3.5801 -5.1634 0.0000 42.3138 0.0000
# 6 0.0000 0.0000 0.0000 -0.5226 0.0000 25.5681
#
#
#
# Elastic Compliance Matrix: (Units=1/GPa)
#
#
# Indices 1 2 3 4 5 6 
#
# 1 0.027526 0.000051 -0.000829 0.000000 -0.002797 0.000000
# 2 0.000051 0.012429 -0.004527 0.000000 -0.001609 0.000000
# 3 -0.000829 -0.004527 0.008774 0.000000 0.001535 0.000000
# 4 0.000000 0.000000 0.000000 0.021690 0.000000 0.000443
# 5 -0.002797 -0.001609 0.001535 0.000000 0.024230 0.000000
# 6 0.000000 0.000000 0.000000 0.000443 0.000000 0.039120
#
#
# Mechanical properties :
#
#
# Convention : Reuss Voigt Hill
#
# Bulk Modulus (GPa) = 26.23325 43.34616 34.78970
# Shear Modulus (GPa) = 31.82972 37.56908 34.69940
#
# Velocity S-wave (km/s) = 3.93736 4.27764 4.11102
# Velocity P-wave (km/s) = 5.78338 6.74608 6.28319
#
# Compressibility (1/GPa) = 0.03811957
#
# Stress axis : x y z
#
# Youngs Moduli (GPa) = 36.32864 80.46022 113.97006
#
# Poissons Ratio (x) = -0.00414 0.09451
# Poissons Ratio (y) = -0.00187 0.51595
# Poissons Ratio (z) = 0.03013 0.36425
#
# Static dielectric constant tensor:
#      x y z
#    x 1.806860 0.000000 -0.005180 
#    y 0.000000 1.706240 0.000000 
#    z -0.005180 0.000000 1.673120 
# 
# From -- ./inp_files/15877.got.cif
#   From: 2010.05.17/outbox.ucp.g08.bks.cvg/sg11_8_cif.got.tgz:15877.got - 2010.06.11 11:38:39.
