data_PCOD9168234
_publ_section_title
;
Structure prediction by ZEFSAII (Michael W. Deem and Ramdas Pophale) SiO2 
 PCOD9168234
Probable space group: P 21/M
;
_chemical_formula_sum "Si O2"
_cell_formula_units_Z 32
_cell_length_a 9.000000
_cell_length_b 15.000000
_cell_length_c 12.000000
_cell_angle_alpha 90.000000
_cell_angle_beta 90.000000
_cell_angle_gamma 90.000000
_cell_volume 1620.000000
_symmetry_space_group_name_H-M "P 21/M"
_symmetry_group_IT_number 11
_symmetry_cell_setting 'monoclinic'
loop_
_space_group_symop_operation_xyz
x,y,z
-x,1/2+y,-z
-x,-y,-z
x,1/2-y,z
loop_
_atom_site_type_symbol
_atom_site_label
_atom_site_fract_x
_atom_site_fract_y
_atom_site_fract_z
Si Si1 0.625660 0.510049 0.262350
Si Si2 0.355980 0.144886 0.940942
Si Si3 0.853476 0.454869 0.445536
Si Si4 0.720664 0.482657 0.678267
Si Si5 0.942927 0.853601 0.720202
Si Si6 0.836227 0.150438 0.868162
Si Si7 0.650791 0.146651 0.087443
Si Si8 0.948458 0.900537 0.975624
O O1 0.636917 0.591085 0.174447
O O2 0.748399 0.511332 0.360949
O O3 0.456091 0.507089 0.306595
O O4 0.654426 0.421780 0.188077
O O5 0.336937 0.250000 0.921664
O O6 0.503014 0.133705 0.014591
O O7 0.228218 0.106144 0.019371
O O8 0.756920 0.439011 0.557424
O O9 0.000000 0.500000 0.500000
O O10 0.924237 0.378466 0.365971
O O11 0.809581 0.576592 0.692249
O O12 0.787100 0.419205 0.775822
O O13 0.900793 0.750000 0.708190
O O14 0.989018 0.868788 0.850347
O O15 0.788208 0.250000 0.835930
O O16 0.771881 0.130159 0.991353
O O17 0.006097 0.149499 0.908612
O O18 0.661725 0.250000 0.123443
O O19 0.000000 0.000000 0.000000
#
# Coordination Sequence:
#
# PCOD9168234 Si02
#       8
#     4   4   4   4   4   4   4   4
#     4  12  23  40  69  94 130 177 213 264 330 385
#     4  11  23  38  60  99 137 167 206 256 327 405
#     4  10  25  46  64  91 123 169 227 278 319 376
#     4  11  24  42  66  92 129 170 224 272 323 383
#     4  11  23  43  67  94 131 171 219 275 329 386
#     4  11  22  38  60  93 131 171 214 265 324 389
#     4  10  22  39  62  98 136 166 208 261 324 398
#     4  12  22  37  62  95 132 168 209 268 327 395
#
# _framework density 19.753086
#
# number of rings (size 3 to 8) (size 9 to 14) (size 15 to 20)
#    0.000    1.000    2.500    4.875    1.750    3.500 
#    0.000    2.500    0.000    4.500    0.000    0.000 
#    0.000    0.000    0.000    0.000    0.000    0.000 
#
# Total GULP energy -178567.776866 kJ/mol
# GULP energy per Si atom -5580.243027 kJ/mol
# Density = 1.970813 g / cm^3
# Si number density = 19.753086 Si / 1000 Ang^3
#
#
#
# Elastic Constant Matrix: (Units=GPa)
#
#
# Indices 1 2 3 4 5 6 
#
# 1 51.1552 33.0042 28.4026 0.0000 6.5167 0.0000
# 2 33.0042 120.7367 48.4163 0.0000 6.9703 0.0000
# 3 28.4026 48.4163 124.0752 0.0000 1.8985 0.0000
# 4 0.0000 0.0000 0.0000 11.8228 0.0000 -2.7423
# 5 6.5167 6.9703 1.8985 0.0000 36.7299 0.0000
# 6 0.0000 0.0000 0.0000 -2.7423 0.0000 20.8373
#
#
#
# Elastic Compliance Matrix: (Units=1/GPa)
#
#
# Indices 1 2 3 4 5 6 
#
# 1 0.025435 -0.005272 -0.003715 0.000000 -0.003320 0.000000
# 2 -0.005272 0.011015 -0.003076 0.000000 -0.000996 0.000000
# 3 -0.003715 -0.003076 0.010099 0.000000 0.000721 0.000000
# 4 0.000000 0.000000 0.000000 0.087245 0.000000 0.011482
# 5 -0.003320 -0.000996 0.000721 0.000000 0.027967 0.000000
# 6 0.000000 0.000000 0.000000 0.011482 0.000000 0.049502
#
#
# Mechanical properties :
#
#
# Convention : Reuss Voigt Hill
#
# Bulk Modulus (GPa) = 44.59455 57.29033 50.94244
# Shear Modulus (GPa) = 20.58787 26.28762 23.43774
#
# Velocity S-wave (km/s) = 3.23191 3.65199 3.44835
# Velocity P-wave (km/s) = 6.04582 6.84462 6.45759
#
# Compressibility (1/GPa) = 0.02242427
#
# Stress axis : x y z
#
# Youngs Moduli (GPa) = 39.31621 90.78918 99.01720
#
# Poissons Ratio (x) = 0.47860 0.36780
# Poissons Ratio (y) = 0.20726 0.30459
# Poissons Ratio (z) = 0.14604 0.27928
#
# Static dielectric constant tensor:
#      x y z
#    x 1.895760 0.000000 -0.004090 
#    y 0.000000 1.747780 0.000000 
#    z -0.004090 0.000000 1.661780 
# 
# From -- ./inp_files/18080.got.cif
#   From: 2010.05.17/outbox.ucp.g08.bks.cvg/sg11_10_cif.got.tgz:18080.got - 2010.06.11 11:38:39.
