data_PCOD9168440
_publ_section_title
;
Structure prediction by ZEFSAII (Michael W. Deem and Ramdas Pophale) SiO2 
 PCOD9168440
Probable space group: C 2/M
;
_chemical_formula_sum "Si O2"
_cell_formula_units_Z 44
_cell_length_a 12.865243
_cell_length_b 27.137377
_cell_length_c 9.333650
_cell_angle_alpha 90.000000
_cell_angle_beta 144.963424
_cell_angle_gamma 90.000000
_cell_volume 1870.787016
_symmetry_space_group_name_H-M "C 2/M"
_symmetry_group_IT_number 12
_symmetry_cell_setting 'monoclinic'
loop_
_space_group_symop_operation_xyz
x,y,z
-x,y,-z
-x,-y,-z
x,-y,z
1/2+x,1/2+y,z
1/2-x,1/2+y,-z
1/2-x,1/2-y,-z
1/2+x,1/2-y,z
loop_
_atom_site_type_symbol
_atom_site_label
_atom_site_fract_x
_atom_site_fract_y
_atom_site_fract_z
Si Si1 0.713041 0.787915 0.762341
Si Si2 0.825753 0.684419 0.952684
Si Si3 0.202324 0.391056 0.653010
Si Si4 0.990970 0.413684 0.826761
Si Si5 0.000000 0.881463 0.500000
Si Si6 0.366278 0.556834 0.099745
O O1 0.500000 0.774812 0.500000
O O2 0.828222 0.738180 0.886526
O O3 0.757515 0.833478 0.708745
O O4 0.731100 0.807819 0.945468
O O5 0.673221 0.653054 0.701377
O O6 0.990839 0.646349 0.146130
O O7 0.000000 0.389662 0.500000
O O8 0.171124 0.419717 0.469387
O O9 0.335543 0.417894 0.912476
O O10 0.169600 0.436178 0.954479
O O11 0.000000 0.431571 0.000000
O O12 0.002715 0.914799 0.644076
O O13 0.411699 0.500000 0.137986
#
# Coordination Sequence:
#
# PCOD9168440 Si02
#       6
#     8   8   8   8   4   8
#     4  10  15  28  51  77  98 129 172 213 246 289
#     4  10  18  27  50  79 104 132 165 209 256 299
#     4   9  16  32  50  73  99 129 173 217 245 292
#     4  10  20  34  50  74 108 136 165 211 258 309
#     4  10  17  30  48  82 106 122 163 216 262 296
#     4  10  20  34  54  77 100 132 173 220 260 296
#
# _framework density 23.519513
#
# number of rings (size 3 to 8) (size 9 to 14) (size 15 to 20)
#    0.000    2.182    8.182    0.273    0.000    3.636 
#    0.000    0.909    0.000    4.364    0.000    6.364 
#    0.000    0.000    0.000    0.000    0.000    0.000 
#
# Total GULP energy -122881.982253 kJ/mol
# GULP energy per Si atom -5585.544648 kJ/mol
# Density = 2.346598 g / cm^3
# Si number density = 23.519513 Si / 1000 Ang^3
#
#
#
# Elastic Constant Matrix: (Units=GPa)
#
#
# Indices 1 2 3 4 5 6 
#
# 1 56.0323 7.8575 13.3553 0.0000 -3.8601 0.0000
# 2 7.8575 100.3906 44.8867 0.0000 -6.7300 0.0000
# 3 13.3553 44.8867 189.5522 0.0000 -18.5351 0.0000
# 4 0.0000 0.0000 0.0000 7.3523 0.0000 1.2653
# 5 -3.8601 -6.7300 -18.5351 0.0000 11.7690 0.0000
# 6 0.0000 0.0000 0.0000 1.2653 0.0000 -3.4413
#
#
#
# Elastic Compliance Matrix: (Units=1/GPa)
#
#
# Indices 1 2 3 4 5 6 
#
# 1 0.018434 -0.000846 -0.000655 0.000000 0.004530 0.000000
# 2 -0.000846 0.011248 -0.002367 0.000000 0.002427 0.000000
# 3 -0.000655 -0.002367 0.006772 0.000000 0.009096 0.000000
# 4 0.000000 0.000000 0.000000 0.127918 0.000000 0.047033
# 5 0.004530 0.002427 0.009096 0.000000 0.102169 0.000000
# 6 0.000000 0.000000 0.000000 0.047033 0.000000 -0.273293
#
#
# Mechanical properties :
#
#
# Convention : Reuss Voigt Hill
#
# Bulk Modulus (GPa) = 34.82217 53.13047 43.97632
# Shear Modulus (GPa) = 473.65579 21.79435 247.72507
#
# Velocity S-wave (km/s) = 14.20653 3.04739 10.27405
# Velocity P-wave (km/s) = 16.85048 5.91787 12.62853
#
# Compressibility (1/GPa) = 0.02871734
#
# Stress axis : x y z
#
# Youngs Moduli (GPa) = 54.24814 88.90294 147.67362
#
# Poissons Ratio (x) = 0.07522 0.09680
# Poissons Ratio (y) = 0.04590 0.34949
# Poissons Ratio (z) = 0.03556 0.21040
#
# Static dielectric constant tensor:
#      x y z
#    x 1.974730 0.000000 -0.011380 
#    y 0.000000 1.863580 0.000000 
#    z -0.011380 0.000000 1.918820 
# 
# From -- ./inp_files/79733.got.cif
#   From: 2010.05.17/outbox.cif.g08.bks.cpg/sg12_40_cif.got.tgz:79733.got - 2010.06.03 13:09:07.
