data_PCOD9168167
_publ_section_title
;
Structure prediction by ZEFSAII (Michael W. Deem and Ramdas Pophale) SiO2 
 PCOD9168167
Probable space group: P 21/M
;
_chemical_formula_sum "Si O2"
_cell_formula_units_Z 24
_cell_length_a 12.000000
_cell_length_b 15.000000
_cell_length_c 15.000000
_cell_angle_alpha 90.000000
_cell_angle_beta 150.000000
_cell_angle_gamma 90.000000
_cell_volume 1350.000000
_symmetry_space_group_name_H-M "P 21/M"
_symmetry_group_IT_number 11
_symmetry_cell_setting 'monoclinic'
loop_
_space_group_symop_operation_xyz
x,y,z
-x,1/2+y,-z
-x,-y,-z
x,1/2-y,z
loop_
_atom_site_type_symbol
_atom_site_label
_atom_site_fract_x
_atom_site_fract_y
_atom_site_fract_z
Si Si1 0.337308 0.517336 0.205114
Si Si2 0.944035 0.354817 0.423565
Si Si3 0.330770 0.358230 0.840015
Si Si4 0.911708 0.639427 0.857824
Si Si5 0.482075 0.035199 0.109299
Si Si6 0.248155 0.144230 0.457637
O O1 0.259666 0.432467 0.213135
O O2 0.399931 0.473478 0.153319
O O3 0.546420 0.574763 0.388597
O O4 0.144133 0.592095 0.050298
O O5 0.875286 0.250000 0.374703
O O6 0.109840 0.365961 0.624096
O O7 0.083336 0.371029 0.428445
O O8 0.728319 0.418688 0.277892
O O9 0.386031 0.250000 0.879610
O O10 0.499036 0.431847 0.912240
O O11 0.329089 0.401904 0.938584
O O12 0.900347 0.750000 0.869924
O O13 0.868210 0.633036 0.720347
O O14 0.316794 0.250000 0.511122
#
# Coordination Sequence:
#
# PCOD9168167 Si02
#       6
#     4   4   4   4   4   4
#     4  11  23  40  64  86 119 157 198 248 295 347
#     4  10  21  37  59  89 122 153 192 243 293 351
#     4  10  22  37  54  86 123 158 196 233 287 350
#     4  10  24  42  61  88 117 154 202 248 297 347
#     4  11  23  36  61  88 121 158 196 240 293 352
#     4  10  21  38  64  91 117 151 197 246 292 350
#
# _framework density 17.777778000000001
#
# number of rings (size 3 to 8) (size 9 to 14) (size 15 to 20)
#    0.000    1.667    1.667    2.000    4.667    2.000 
#    0.000    0.000    0.000    4.000    0.000    0.000 
#    0.000    0.000    0.000    0.000    0.000    0.000 
#
# Total GULP energy -133711.534789 kJ/mol
# GULP energy per Si atom -5571.313950 kJ/mol
# Density = 1.773731 g / cm^3
# Si number density = 17.777778 Si / 1000 Ang^3
#
#
#
# Elastic Constant Matrix: (Units=GPa)
#
#
# Indices 1 2 3 4 5 6 
#
# 1 94.2945 49.8507 34.5703 0.0000 -12.2021 0.0000
# 2 49.8507 158.2599 43.3985 0.0000 -1.9993 0.0000
# 3 34.5703 43.3985 86.3435 0.0000 -16.1285 0.0000
# 4 0.0000 0.0000 0.0000 46.3233 0.0000 -6.9984
# 5 -12.2021 -1.9993 -16.1285 0.0000 32.5716 0.0000
# 6 0.0000 0.0000 0.0000 -6.9984 0.0000 35.9463
#
#
#
# Elastic Compliance Matrix: (Units=1/GPa)
#
#
# Indices 1 2 3 4 5 6 
#
# 1 0.014093 -0.003509 -0.003232 0.000000 0.003464 0.000000
# 2 -0.003509 0.008271 -0.003199 0.000000 -0.002391 0.000000
# 3 -0.003232 -0.003199 0.015670 0.000000 0.006352 0.000000
# 4 0.000000 0.000000 0.000000 0.022242 0.000000 0.004330
# 5 0.003464 -0.002391 0.006352 0.000000 0.034998 0.000000
# 6 0.000000 0.000000 0.000000 0.004330 0.000000 0.028662
#
#
# Mechanical properties :
#
#
# Convention : Reuss Voigt Hill
#
# Bulk Modulus (GPa) = 55.08239 66.05966 60.57103
# Shear Modulus (GPa) = 33.36270 37.04014 35.20142
#
# Velocity S-wave (km/s) = 4.33673 4.56950 4.45464
# Velocity P-wave (km/s) = 7.49183 8.06720 7.78483
#
# Compressibility (1/GPa) = 0.01815462
#
# Stress axis : x y z
#
# Youngs Moduli (GPa) = 70.95485 120.90258 63.81626
#
# Poissons Ratio (x) = 0.42429 0.20624
# Poissons Ratio (y) = 0.24900 0.20414
# Poissons Ratio (z) = 0.22931 0.38675
#
# Static dielectric constant tensor:
#      x y z
#    x 1.622650 0.000000 -0.000410 
#    y 0.000000 1.620390 0.000000 
#    z -0.000410 0.000000 1.632520 
# 
# From -- ./inp_files/50425.got.cif
#   From: 2010.05.17/outbox.ucp.g08.bks.cvg/sg11_26_cif.got.tgz:50425.got - 2010.06.11 11:38:39.
