data_PCOD9168301
_publ_section_title
;
Structure prediction by ZEFSAII (Michael W. Deem and Ramdas Pophale) SiO2 
 PCOD9168301
Probable space group: C 2/M
;
_chemical_formula_sum "Si O2"
_cell_formula_units_Z 40
_cell_length_a 5.312885
_cell_length_b 14.420047
_cell_length_c 27.988332
_cell_angle_alpha 90.000000
_cell_angle_beta 61.216645
_cell_angle_gamma 90.000000
_cell_volume 1879.314946
_symmetry_space_group_name_H-M "C 2/M"
_symmetry_group_IT_number 12
_symmetry_cell_setting 'monoclinic'
loop_
_space_group_symop_operation_xyz
x,y,z
-x,y,-z
-x,-y,-z
x,-y,z
1/2+x,1/2+y,z
1/2-x,1/2+y,-z
1/2-x,1/2-y,-z
1/2+x,1/2-y,z
loop_
_atom_site_type_symbol
_atom_site_label
_atom_site_fract_x
_atom_site_fract_y
_atom_site_fract_z
Si Si1 0.166949 0.810062 0.853420
Si Si2 0.589804 0.886521 0.438848
Si Si3 0.741295 0.389169 0.378840
Si Si4 0.189368 0.143169 0.023901
Si Si5 0.150363 0.690500 0.261690
O O1 0.451505 0.770541 0.853410
O O2 0.258118 0.860183 0.795963
O O3 0.979938 0.858721 0.911007
O O4 0.500000 0.856467 0.500000
O O5 0.371512 0.856314 0.417454
O O6 0.916944 0.856763 0.398628
O O7 0.584585 0.000000 0.439374
O O8 0.724333 0.500000 0.383648
O O9 0.959637 0.363971 0.316924
O O10 0.500000 0.101302 0.000000
O O11 0.250000 0.250000 0.000000
O O12 0.000000 0.101116 0.000000
O O13 0.435822 0.728652 0.261707
#
# Coordination Sequence:
#
# PCOD9168301 Si02
#       5
#     8   8   8   8   8
#     4  10  16  25  37  57  83 118 149 179 227 275
#     4   9  17  30  52  78  97 116 153 204 243 272
#     4  10  19  33  53  74  96 124 160 195 233 283
#     4  10  14  20  34  53  79 109 138 184 226 270
#     4  10  21  33  48  67  98 133 158 192 233 287
#
# _framework density 21.284351000000001
#
# number of rings (size 3 to 8) (size 9 to 14) (size 15 to 20)
#    0.000    2.200    4.000    1.800    0.000    2.400 
#    0.000    0.000    0.000   12.000    0.000    0.000 
#    0.000    1.600    0.000    0.000    0.000    8.000 
#
# Total GULP energy -111568.970260 kJ/mol
# GULP energy per Si atom -5578.448513 kJ/mol
# Density = 2.123591 g / cm^3
# Si number density = 21.284351 Si / 1000 Ang^3
#
#
#
# Elastic Constant Matrix: (Units=GPa)
#
#
# Indices 1 2 3 4 5 6 
#
# 1 119.8715 -3.8682 -8.7369 0.0004 3.3290 -0.0001
# 2 -3.8682 47.2886 -7.8085 0.0001 2.8939 0.0000
# 3 -8.7369 -7.8085 102.4337 0.0001 -0.5259 0.0000
# 4 0.0004 0.0001 0.0001 132.4342 -0.0001 -41.6111
# 5 3.3290 2.8939 -0.5259 -0.0001 40.7100 0.0000
# 6 -0.0001 0.0000 0.0000 -41.6111 0.0000 3.6636
#
#
#
# Elastic Compliance Matrix: (Units=1/GPa)
#
#
# Indices 1 2 3 4 5 6 
#
# 1 0.008448 0.000866 0.000783 0.000000 -0.000742 0.000000
# 2 0.000866 0.021597 0.001712 0.000000 -0.001584 0.000000
# 3 0.000783 0.001712 0.009959 0.000000 -0.000057 0.000000
# 4 0.000000 0.000000 0.000000 -0.002940 0.000000 -0.033388
# 5 -0.000742 -0.001584 -0.000057 0.000000 0.024737 0.000000
# 6 0.000000 0.000000 0.000000 -0.033388 0.000000 -0.106262
#
#
# Mechanical properties :
#
#
# Convention : Reuss Voigt Hill
#
# Bulk Modulus (GPa) = 21.40162 25.41850 23.41006
# Shear Modulus (GPa) = -140.42320 54.69539 -42.86390
#
# Velocity S-wave (km/s) = -8.13130 5.07477 -4.49248
# Velocity P-wave (km/s) = 8.83632 6.80485 3.98589
#
# Compressibility (1/GPa) = 0.04672543
#
# Stress axis : x y z
#
# Youngs Moduli (GPa) = 118.37306 46.30233 100.40772
#
# Poissons Ratio (x) = -0.04008 -0.07859
# Poissons Ratio (y) = -0.10248 -0.17190
# Poissons Ratio (z) = -0.09265 -0.07927
#
# Static dielectric constant tensor:
#      x y z
#    x 1.758500 0.000000 -0.000390 
#    y 0.000000 1.768870 0.000000 
#    z -0.000390 0.000000 1.776540 
# 
# From -- ./inp_files/252814.got.cif
#   From: 2010.05.17/outbox.cif.g08.bks.cpg/sg12_127_cif.got.tgz:252814.got - 2010.06.03 13:09:07.
