data_PCOD9168181
_publ_section_title
;
Structure prediction by ZEFSAII (Michael W. Deem and Ramdas Pophale) SiO2 
 PCOD9168181
Probable space group: P 21/M
;
_chemical_formula_sum "Si O2"
_cell_formula_units_Z 28
_cell_length_a 15.000000
_cell_length_b 9.000000
_cell_length_c 21.000000
_cell_angle_alpha 90.000000
_cell_angle_beta 150.000000
_cell_angle_gamma 90.000000
_cell_volume 1417.500000
_symmetry_space_group_name_H-M "P 21/M"
_symmetry_group_IT_number 11
_symmetry_cell_setting 'monoclinic'
loop_
_space_group_symop_operation_xyz
x,y,z
-x,1/2+y,-z
-x,-y,-z
x,1/2-y,z
loop_
_atom_site_type_symbol
_atom_site_label
_atom_site_fract_x
_atom_site_fract_y
_atom_site_fract_z
Si Si1 0.359133 0.927269 0.004464
Si Si2 0.648722 0.071855 0.545479
Si Si3 0.028844 0.424991 0.189417
Si Si4 0.923294 0.571112 0.516328
Si Si5 0.825161 0.924454 0.863720
Si Si6 0.445691 0.429596 0.647740
Si Si7 0.719698 0.072432 0.192463
O O1 0.383008 0.750000 0.026731
O O2 0.305910 0.961612 0.898190
O O3 0.182640 0.967339 0.937562
O O4 0.556195 0.000481 0.131784
O O5 0.626753 0.250000 0.530309
O O6 0.500000 0.000000 0.500000
O O7 0.847320 0.025879 0.689682
O O8 0.614891 0.996751 0.456905
O O9 0.035618 0.250000 0.213243
O O10 0.130978 0.435011 0.184760
O O11 0.922368 0.750000 0.510814
O O12 0.719008 0.528390 0.407158
O O13 0.000000 0.500000 0.500000
O O14 0.078710 0.530268 0.663257
O O15 0.813197 0.750000 0.871977
O O16 0.645746 0.004538 0.778036
O O17 0.000000 0.000000 0.000000
O O18 0.457095 0.250000 0.653597
O O19 0.703526 0.250000 0.189816
#
# Coordination Sequence:
#
# PCOD9168181 Si02
#       7
#     4   4   4   4   4   4   4
#     4   9  18  34  58  84 113 149 188 237 295 353
#     4  12  23  36  60  92 124 157 196 246 304 361
#     4  10  21  38  59  85 118 156 199 245 298 359
#     4  10  23  41  62  87 118 159 203 251 301 356
#     4  11  24  41  61  85 118 159 204 250 301 361
#     4  11  23  42  65  89 122 161 202 251 309 365
#     4   9  18  35  56  82 115 149 188 238 296 351
#
# _framework density 19.753086
#
# number of rings (size 3 to 8) (size 9 to 14) (size 15 to 20)
#    0.000    1.714    1.429    3.000    0.000    6.286 
#    0.000    7.143    0.000    0.000    0.000    0.000 
#    0.000    0.000    0.000    0.000    0.000    0.000 
#
# Total GULP energy -156203.986836 kJ/mol
# GULP energy per Si atom -5578.713816 kJ/mol
# Density = 1.970813 g / cm^3
# Si number density = 19.753086 Si / 1000 Ang^3
#
#
#
# Elastic Constant Matrix: (Units=GPa)
#
#
# Indices 1 2 3 4 5 6 
#
# 1 119.9380 41.5578 45.9939 0.0000 46.9766 0.0000
# 2 41.5578 75.4671 48.2518 0.0000 16.9273 0.0000
# 3 45.9939 48.2518 115.2692 0.0000 38.5937 0.0000
# 4 0.0000 0.0000 0.0000 35.5536 0.0000 11.8873
# 5 46.9766 16.9273 38.5937 0.0000 47.2446 0.0000
# 6 0.0000 0.0000 0.0000 11.8873 0.0000 33.0779
#
#
#
# Elastic Compliance Matrix: (Units=1/GPa)
#
#
# Indices 1 2 3 4 5 6 
#
# 1 0.015602 -0.006098 0.001087 0.000000 -0.014217 0.000000
# 2 -0.006098 0.020482 -0.007865 0.000000 0.005149 0.000000
# 3 0.001087 -0.007865 0.015076 0.000000 -0.010578 0.000000
# 4 0.000000 0.000000 0.000000 0.031968 0.000000 -0.011488
# 5 -0.014217 0.005149 -0.010578 0.000000 0.042099 0.000000
# 6 0.000000 0.000000 0.000000 -0.011488 0.000000 0.034360
#
#
# Mechanical properties :
#
#
# Convention : Reuss Voigt Hill
#
# Bulk Modulus (GPa) = 39.35678 64.69793 52.02736
# Shear Modulus (GPa) = 25.79882 34.83327 30.31604
#
# Velocity S-wave (km/s) = 3.61787 4.20388 3.92184
# Velocity P-wave (km/s) = 6.11716 7.50919 6.84863
#
# Compressibility (1/GPa) = 0.02540858
#
# Stress axis : x y z
#
# Youngs Moduli (GPa) = 64.09459 48.82244 66.33265
#
# Poissons Ratio (x) = 0.29771 -0.07211
# Poissons Ratio (y) = 0.39084 0.52170
# Poissons Ratio (z) = -0.06968 0.38398
#
# Static dielectric constant tensor:
#      x y z
#    x 1.631500 0.000000 0.061990 
#    y 0.000000 1.666720 0.000000 
#    z 0.061990 0.000000 1.656820 
# 
# From -- ./inp_files/65448.got.cif
#   From: 2010.05.17/outbox.ucp.g08.bks.cvg/sg11_33_cif.got.tgz:65448.got - 2010.06.11 11:38:39.
