data_PCOD9168396
_publ_section_title
;
Structure prediction by ZEFSAII (Michael W. Deem and Ramdas Pophale) SiO2 
 PCOD9168396
Probable space group: C 2/M
;
_chemical_formula_sum "Si O2"
_cell_formula_units_Z 56
_cell_length_a 24.805371
_cell_length_b 19.714956
_cell_length_c 14.787839
_cell_angle_alpha 90.000000
_cell_angle_beta 154.561096
_cell_angle_gamma 90.000000
_cell_volume 3106.407028
_symmetry_space_group_name_H-M "C 2/M"
_symmetry_group_IT_number 12
_symmetry_cell_setting 'monoclinic'
loop_
_space_group_symop_operation_xyz
x,y,z
-x,y,-z
-x,-y,-z
x,-y,z
1/2+x,1/2+y,z
1/2-x,1/2+y,-z
1/2-x,1/2-y,-z
1/2+x,1/2-y,z
loop_
_atom_site_type_symbol
_atom_site_label
_atom_site_fract_x
_atom_site_fract_y
_atom_site_fract_z
Si Si1 0.986124 0.808152 0.226355
Si Si2 0.751767 0.716267 0.691691
Si Si3 0.893181 0.346983 0.056411
Si Si4 0.612912 0.079568 0.469368
Si Si5 0.883839 0.317407 0.373594
Si Si6 0.221921 0.830519 0.962472
Si Si7 0.880149 0.849215 0.872600
O O1 0.136355 0.811215 0.458792
O O2 0.949743 0.728168 0.164447
O O3 0.921265 0.836727 0.219964
O O4 0.925590 0.842201 0.045788
O O5 0.687506 0.761938 0.674644
O O6 0.840265 0.772933 0.780034
O O7 0.831378 0.660191 0.864533
O O8 0.009620 0.397942 0.239501
O O9 0.783882 0.360597 0.965912
O O10 0.569814 0.123525 0.490723
O O11 0.755285 0.106054 0.670627
O O12 0.611782 0.000000 0.481880
O O13 0.000000 0.283108 0.500000
O O14 0.799419 0.351023 0.168881
O O15 0.250000 0.750000 0.000000
O O16 0.000000 0.874259 0.000000
#
# Coordination Sequence:
#
# PCOD9168396 Si02
#       7
#     8   8   8   8   8   8   8
#     4  10  17  31  51  78 108 130 160 207 261 310
#     4  10  19  30  50  79 110 133 160 206 260 311
#     4  10  18  30  47  77 107 134 165 198 249 310
#     4  11  22  36  51  69 101 140 177 215 250 298
#     4  11  16  27  46  76 107 133 166 200 251 301
#     4  10  15  25  47  74 107 135 159 198 245 307
#     4  10  21  36  53  76 102 130 170 219 268 309
#
# _framework density 18.027256999999999
#
# number of rings (size 3 to 8) (size 9 to 14) (size 15 to 20)
#    0.000    1.714   10.000    0.857    0.000    1.143 
#    0.000    0.000    0.000    0.857    0.000    2.000 
#    0.000    0.000    0.000    0.000    0.000    0.000 
#
# Total GULP energy -155879.933616 kJ/mol
# GULP energy per Si atom -5567.140486 kJ/mol
# Density = 1.798623 g / cm^3
# Si number density = 18.027257 Si / 1000 Ang^3
#
#
#
# Elastic Constant Matrix: (Units=GPa)
#
#
# Indices 1 2 3 4 5 6 
#
# 1 31.1180 12.8519 7.5559 0.0000 12.7072 0.0000
# 2 12.8519 44.3148 24.5625 0.0000 -2.0937 0.0000
# 3 7.5559 24.5625 107.9038 0.0000 -2.7394 0.0000
# 4 0.0000 0.0000 0.0000 12.7874 0.0000 -1.8109
# 5 12.7072 -2.0937 -2.7394 0.0000 23.3149 0.0000
# 6 0.0000 0.0000 0.0000 -1.8109 0.0000 3.9788
#
#
#
# Elastic Compliance Matrix: (Units=1/GPa)
#
#
# Indices 1 2 3 4 5 6 
#
# 1 0.050669 -0.015671 -0.000720 0.000000 -0.029108 0.000000
# 2 -0.015671 0.030733 -0.005628 0.000000 0.010640 0.000000
# 3 -0.000720 -0.005628 0.010628 0.000000 0.001136 0.000000
# 4 0.000000 0.000000 0.000000 0.083589 0.000000 0.038044
# 5 -0.029108 0.010640 0.001136 0.000000 0.059844 0.000000
# 6 0.000000 0.000000 0.000000 0.038044 0.000000 0.268647
#
#
# Mechanical properties :
#
#
# Convention : Reuss Voigt Hill
#
# Bulk Modulus (GPa) = 20.83697 30.36413 25.60055
# Shear Modulus (GPa) = 8.86296 17.24065 13.05180
#
# Velocity S-wave (km/s) = 2.21971 3.09587 2.69365
# Velocity P-wave (km/s) = 4.26065 5.44603 4.88940
#
# Compressibility (1/GPa) = 0.04799163
#
# Stress axis : x y z
#
# Youngs Moduli (GPa) = 19.73596 32.53846 94.09155
#
# Poissons Ratio (x) = 0.50991 0.06773
# Poissons Ratio (y) = 0.30928 0.52958
# Poissons Ratio (z) = 0.01421 0.18314
#
# Static dielectric constant tensor:
#      x y z
#    x 1.691110 0.000000 -0.003390 
#    y 0.000000 1.581410 0.000000 
#    z -0.003390 0.000000 1.711600 
# 
# From -- ./inp_files/296932.got.cif
#   From: 2010.05.17/outbox.cif.g08.bks.cpg/sg12_149_cif.got.tgz:296932.got - 2010.06.03 13:09:07.
