data_PCOD9168021
_publ_section_title
;
Structure prediction by ZEFSAII (Michael W. Deem and Ramdas Pophale) SiO2 
 PCOD9168021
Probable space group: P 21/M
;
_chemical_formula_sum "Si O2"
_cell_formula_units_Z 32
_cell_length_a 12.000000
_cell_length_b 9.000000
_cell_length_c 15.000000
_cell_angle_alpha 90.000000
_cell_angle_beta 90.000000
_cell_angle_gamma 90.000000
_cell_volume 1620.000000
_symmetry_space_group_name_H-M "P 21/M"
_symmetry_group_IT_number 11
_symmetry_cell_setting 'monoclinic'
loop_
_space_group_symop_operation_xyz
x,y,z
-x,1/2+y,-z
-x,-y,-z
x,1/2-y,z
loop_
_atom_site_type_symbol
_atom_site_label
_atom_site_fract_x
_atom_site_fract_y
_atom_site_fract_z
Si Si1 0.412898 0.423933 0.564192
Si Si2 0.430529 0.424171 0.768667
Si Si3 0.191865 0.069902 0.836802
Si Si4 0.051710 0.573703 0.196660
Si Si5 0.053107 0.419006 0.364777
Si Si6 0.818720 0.926794 0.958718
Si Si7 0.435885 0.075540 0.081488
Si Si8 0.161896 0.078506 0.555648
O O1 0.500000 0.500000 0.500000
O O2 0.403744 0.250000 0.540122
O O3 0.454041 0.435606 0.665109
O O4 0.286188 0.483247 0.564371
O O5 0.435893 0.250000 0.794711
O O6 0.305044 0.478071 0.790215
O O7 0.514342 0.515041 0.827963
O O8 0.194238 0.250000 0.836495
O O9 0.076742 0.025095 0.792889
O O10 0.184173 0.022406 0.939269
O O11 0.058592 0.750000 0.195619
O O12 0.108643 0.507859 0.283984
O O13 0.096746 0.510503 0.104659
O O14 0.035376 0.250000 0.336510
O O15 0.130342 0.420178 0.451797
O O16 0.936808 0.490791 0.396600
O O17 0.841929 0.750000 0.957278
O O18 0.694892 0.953558 0.923086
O O19 0.452757 0.250000 0.072945
O O20 0.500000 0.000000 0.000000
O O21 0.161039 0.250000 0.589912
#
# Coordination Sequence:
#
# PCOD9168021 Si02
#       8
#     4   4   4   4   4   4   4   4
#     4  10  22  39  60  84 117 155 193 240 291 345
#     4  10  20  38  62  86 113 150 192 238 292 343
#     4   9  18  36  59  80 109 148 189 233 283 335
#     4  11  22  35  55  83 116 151 188 229 278 343
#     4  10  20  35  58  86 114 145 184 234 284 338
#     4  10  21  38  57  78 110 150 187 234 286 330
#     4  11  22  38  61  85 113 149 190 239 285 338
#     4   9  19  38  61  82 108 148 192 233 282 339
#
# _framework density 19.753086
#
# number of rings (size 3 to 8) (size 9 to 14) (size 15 to 20)
#    0.000    2.000    1.250    2.250    0.000    5.500 
#    0.000    6.875    0.000    0.000    0.000    0.000 
#    0.000    0.000    0.000    0.000    0.000    0.000 
#
# Total GULP energy -178561.183336 kJ/mol
# GULP energy per Si atom -5580.036979 kJ/mol
# Density = 1.970813 g / cm^3
# Si number density = 19.753086 Si / 1000 Ang^3
#
#
#
# Elastic Constant Matrix: (Units=GPa)
#
#
# Indices 1 2 3 4 5 6 
#
# 1 -8.6399 71.3172 52.1970 0.0000 30.7018 0.0000
# 2 71.3172 -126.4040 -54.2154 0.0000 19.6944 0.0000
# 3 52.1970 -54.2154 21.5391 0.0000 -2.5153 0.0000
# 4 0.0000 0.0000 0.0000 19.5635 0.0000 -4.9583
# 5 30.7018 19.6944 -2.5153 0.0000 1.0837 0.0000
# 6 0.0000 0.0000 0.0000 -4.9583 0.0000 25.1158
#
#
#
# Elastic Compliance Matrix: (Units=1/GPa)
#
#
# Indices 1 2 3 4 5 6 
#
# 1 -0.000672 0.000577 0.005594 0.000000 0.021533 0.000000
# 2 0.000577 -0.002540 -0.005910 0.000000 0.016112 0.000000
# 3 0.005594 -0.005910 0.016505 0.000000 -0.012757 0.000000
# 4 0.000000 0.000000 0.000000 0.053808 0.000000 0.010623
# 5 0.021533 0.016112 -0.012757 0.000000 -0.009679 0.000000
# 6 0.000000 0.000000 0.000000 0.010623 0.000000 0.041913
#
#
# Mechanical properties :
#
#
# Convention : Reuss Voigt Hill
#
# Bulk Modulus (GPa) = 72.39719 2.78807 37.59263
# Shear Modulus (GPa) = 48.34748 -3.03431 22.65658
#
# Velocity S-wave (km/s) = 4.95268 -1.24075 3.39040
# Velocity P-wave (km/s) = 8.33283 0.79880 5.86506
#
# Compressibility (1/GPa) = 0.01381269
#
# Stress axis : x y z
#
# Youngs Moduli (GPa) = -1488.72863 -393.63331 60.58886
#
# Poissons Ratio (x) = 0.22700 -0.33892
# Poissons Ratio (y) = 0.85851 0.35811
# Poissons Ratio (z) = 8.32771 -2.32654
#
# Static dielectric constant tensor:
#      x y z
#    x 1.627880 0.000000 -0.004120 
#    y 0.000000 1.708090 0.000000 
#    z -0.004120 0.000000 1.648740 
# 
# From -- ./inp_files/49281.got.cif
#   From: 2010.05.17/outbox.ucp.g08.bks.cvg/sg11_25_cif.got.tgz:49281.got - 2010.06.11 11:38:39.
