data_PCOD9168662
_publ_section_title
;
Structure prediction by ZEFSAII (Michael W. Deem and Ramdas Pophale) SiO2 
 PCOD9168662
Probable space group: C 2/M
;
_chemical_formula_sum "Si O2"
_cell_formula_units_Z 44
_cell_length_a 14.897406
_cell_length_b 13.057586
_cell_length_c 10.797566
_cell_angle_alpha 90.000000
_cell_angle_beta 114.240556
_cell_angle_gamma 90.000000
_cell_volume 1915.195726
_symmetry_space_group_name_H-M "C 2/M"
_symmetry_group_IT_number 12
_symmetry_cell_setting 'monoclinic'
loop_
_space_group_symop_operation_xyz
x,y,z
-x,y,-z
-x,-y,-z
x,-y,z
1/2+x,1/2+y,z
1/2-x,1/2+y,-z
1/2-x,1/2-y,-z
1/2+x,1/2-y,z
loop_
_atom_site_type_symbol
_atom_site_label
_atom_site_fract_x
_atom_site_fract_y
_atom_site_fract_z
Si Si1 0.014664 0.000000 0.657228
Si Si2 0.656631 0.775047 0.029023
Si Si3 0.219174 0.000000 0.673297
Si Si4 0.293262 0.727405 0.329285
Si Si5 0.386381 0.000000 0.959014
Si Si6 0.980225 0.214811 0.245465
Si Si7 0.590140 0.881988 0.451014
O O1 0.975755 0.104340 0.694592
O O2 0.000000 0.000000 0.500000
O O3 0.134357 0.000000 0.733515
O O4 0.694959 0.758531 0.190632
O O5 0.638428 0.894354 0.991081
O O6 0.750000 0.750000 0.000000
O O7 0.563685 0.718014 0.917183
O O8 0.208122 0.886522 0.610424
O O9 0.323197 0.000000 0.799060
O O10 0.386428 0.724520 0.286618
O O11 0.320816 0.818935 0.436145
O O12 0.500000 0.000000 0.000000
O O13 0.049326 0.310676 0.317470
O O14 0.500000 0.884732 0.500000
O O15 0.613366 0.000000 0.433790
#
# Coordination Sequence:
#
# PCOD9168662 Si02
#       7
#     4   8   4   8   4   8   8
#     4  10  16  26  46  72 103 140 178 233 283 343
#     4   9  18  31  48  75 109 138 179 236 285 318
#     4   8  14  26  46  64  94 124 175 223 252 311
#     4   8  14  26  38  61  91 132 166 207 271 323
#     4  10  20  34  54  80 112 154 191 226 283 350
#     4   9  16  25  40  65  97 133 171 222 280 315
#     4   9  16  24  35  58  95 135 168 207 269 338
#
# _framework density 22.974153000000001
#
# number of rings (size 3 to 8) (size 9 to 14) (size 15 to 20)
#    0.000    3.091    0.000    3.818    1.273    0.000 
#    6.545    0.000    0.000    0.000    0.000   14.000 
#    0.000    0.000    0.000    0.000    0.000    0.000 
#
# Total GULP energy -122773.655788 kJ/mol
# GULP energy per Si atom -5580.620718 kJ/mol
# Density = 2.292186 g / cm^3
# Si number density = 22.974153 Si / 1000 Ang^3
#
#
#
# Elastic Constant Matrix: (Units=GPa)
#
#
# Indices 1 2 3 4 5 6 
#
# 1 54.3470 42.7473 41.1279 0.0000 -4.2809 0.0000
# 2 42.7473 227.9176 81.4525 0.0000 24.3778 0.0000
# 3 41.1279 81.4525 124.1430 0.0000 35.7869 0.0000
# 4 0.0000 0.0000 0.0000 29.6543 0.0000 12.5439
# 5 -4.2809 24.3778 35.7869 0.0000 38.9434 0.0000
# 6 0.0000 0.0000 0.0000 12.5439 0.0000 13.1567
#
#
#
# Elastic Compliance Matrix: (Units=1/GPa)
#
#
# Indices 1 2 3 4 5 6 
#
# 1 0.033214 -0.003097 -0.014396 0.000000 0.018819 0.000000
# 2 -0.003097 0.006021 -0.002367 0.000000 -0.001935 0.000000
# 3 -0.014396 -0.002367 0.019598 0.000000 -0.018111 0.000000
# 4 0.000000 0.000000 0.000000 0.056514 0.000000 -0.053882
# 5 0.018819 -0.001935 -0.018111 0.000000 0.045601 0.000000
# 6 0.000000 0.000000 0.000000 -0.053882 0.000000 0.127378
#
#
# Mechanical properties :
#
#
# Convention : Reuss Voigt Hill
#
# Bulk Modulus (GPa) = 52.32248 81.89589 67.10919
# Shear Modulus (GPa) = 14.95134 32.42289 23.68711
#
# Velocity S-wave (km/s) = 2.55383 3.76077 3.21445
# Velocity P-wave (km/s) = 5.61426 7.38798 6.56133
#
# Compressibility (1/GPa) = 0.01911224
#
# Stress axis : x y z
#
# Youngs Moduli (GPa) = 30.10813 166.07837 51.02470
#
# Poissons Ratio (x) = 0.51441 0.73457
# Poissons Ratio (y) = 0.09326 0.12076
# Poissons Ratio (z) = 0.43345 0.39307
#
# Static dielectric constant tensor:
#      x y z
#    x 1.894540 0.000000 0.025560 
#    y 0.000000 1.853210 0.000000 
#    z 0.025560 0.000000 1.879040 
# 
# From -- ./inp_files/153834.got.cif
#   From: 2010.05.17/outbox.cif.g08.bks.cpg/sg12_77_cif.got.tgz:153834.got - 2010.06.03 13:09:07.
