data_PCOD9168568
_publ_section_title
;
Structure prediction by ZEFSAII (Michael W. Deem and Ramdas Pophale) SiO2 
 PCOD9168568
Probable space group: C 2/M
;
_chemical_formula_sum "Si O2"
_cell_formula_units_Z 56
_cell_length_a 5.571675
_cell_length_b 18.877696
_cell_length_c 25.509614
_cell_angle_alpha 90.000000
_cell_angle_beta 84.566964
_cell_angle_gamma 90.000000
_cell_volume 2671.057293
_symmetry_space_group_name_H-M "C 2/M"
_symmetry_group_IT_number 12
_symmetry_cell_setting 'monoclinic'
loop_
_space_group_symop_operation_xyz
x,y,z
-x,y,-z
-x,-y,-z
x,-y,z
1/2+x,1/2+y,z
1/2-x,1/2+y,-z
1/2-x,1/2-y,-z
1/2+x,1/2-y,z
loop_
_atom_site_type_symbol
_atom_site_label
_atom_site_fract_x
_atom_site_fract_y
_atom_site_fract_z
Si Si1 0.095765 0.874314 0.171696
Si Si2 0.380763 0.673044 0.714367
Si Si3 0.907007 0.244313 0.913765
Si Si4 0.888424 0.393621 0.859723
Si Si5 0.520991 0.794877 0.441446
Si Si6 0.398158 0.836373 0.673433
Si Si7 0.760280 0.580363 0.980704
O O1 0.089779 0.827831 0.118949
O O2 0.345013 0.917306 0.162723
O O3 0.115694 0.826244 0.222927
O O4 0.830321 0.908805 0.175349
O O5 0.382752 0.752265 0.689845
O O6 0.630872 0.636482 0.691921
O O7 0.132500 0.637560 0.700085
O O8 0.644849 0.251717 0.942790
O O9 0.916834 0.308514 0.870447
O O10 0.809117 0.422001 0.918009
O O11 0.500000 0.827818 0.500000
O O12 0.769519 0.748427 0.438120
O O13 0.550274 0.842063 0.389330
O O14 0.750394 0.500000 0.002997
O O15 0.500000 0.611499 0.000000
O O16 0.000000 0.614193 0.000000
#
# Coordination Sequence:
#
# PCOD9168568 Si02
#       7
#     8   8   8   8   8   8   8
#     4  10  19  28  43  64  90 121 138 163 198 249
#     4  10  18  23  36  51  79 102 137 168 208 246
#     4   8  16  25  39  57  85 110 138 150 182 224
#     4  10  19  31  48  68  89 108 139 162 197 251
#     4  10  16  25  33  43  63  96 137 188 244 263
#     4  10  17  24  33  51  72 100 139 187 217 247
#     4  10  21  38  59  76  88 105 131 171 217 246
#
# _framework density 20.965482000000002
#
# number of rings (size 3 to 8) (size 9 to 14) (size 15 to 20)
#    0.000    2.286    2.857    1.714   12.000    0.000 
#    0.000    0.000    0.000   23.143    0.000    0.000 
#    0.000    0.000    0.000    0.000    0.000    0.000 
#
# Total GULP energy -155984.290357 kJ/mol
# GULP energy per Si atom -5570.867513 kJ/mol
# Density = 2.091776 g / cm^3
# Si number density = 20.965482 Si / 1000 Ang^3
#
#
#
# Elastic Constant Matrix: (Units=GPa)
#
#
# Indices 1 2 3 4 5 6 
#
# 1 244.5893 6.0071 21.8281 0.0000 11.9772 0.0000
# 2 6.0071 33.7082 1.3673 0.0000 -2.9310 0.0000
# 3 21.8281 1.3673 85.6544 0.0000 4.2014 0.0000
# 4 0.0000 0.0000 0.0000 32.8971 0.0000 4.5759
# 5 11.9772 -2.9310 4.2014 0.0000 37.9483 0.0000
# 6 0.0000 0.0000 0.0000 4.5759 0.0000 -11.7686
#
#
#
# Elastic Compliance Matrix: (Units=1/GPa)
#
#
# Indices 1 2 3 4 5 6 
#
# 1 0.004263 -0.000832 -0.001009 0.000000 -0.001298 0.000000
# 2 -0.000832 0.030059 -0.000397 0.000000 0.002628 0.000000
# 3 -0.001009 -0.000397 0.011989 0.000000 -0.001039 0.000000
# 4 0.000000 0.000000 0.000000 0.028838 0.000000 0.011213
# 5 -0.001298 0.002628 -0.001039 0.000000 0.027079 0.000000
# 6 0.000000 0.000000 0.000000 0.011213 0.000000 -0.080612
#
#
# Mechanical properties :
#
#
# Convention : Reuss Voigt Hill
#
# Bulk Modulus (GPa) = 23.90303 46.92856 35.41580
# Shear Modulus (GPa) = 124.88354 34.13197 79.50776
#
# Velocity S-wave (km/s) = 7.72629 4.03924 6.16486
# Velocity P-wave (km/s) = 9.54044 6.64727 8.22211
#
# Compressibility (1/GPa) = 0.04183569
#
# Stress axis : x y z
#
# Youngs Moduli (GPa) = 234.60204 33.26769 83.40730
#
# Poissons Ratio (x) = 0.02766 0.08419
# Poissons Ratio (y) = 0.19508 0.03310
# Poissons Ratio (z) = 0.23679 0.01320
#
# Static dielectric constant tensor:
#      x y z
#    x 1.903650 0.000000 0.006430 
#    y 0.000000 1.772050 0.000000 
#    z 0.006430 0.000000 1.732450 
# 
# From -- ./inp_files/331184.got.cif
#   From: 2010.05.17/outbox.cif.g08.bks.cpg/sg12_166_cif.got.tgz:331184.got - 2010.06.03 13:09:07.
