data_PCOD9168040
_publ_section_title
;
Structure prediction by ZEFSAII (Michael W. Deem and Ramdas Pophale) SiO2 
 PCOD9168040
Probable space group: P 21/M
;
_chemical_formula_sum "Si O2"
_cell_formula_units_Z 32
_cell_length_a 15.000000
_cell_length_b 9.000000
_cell_length_c 27.000000
_cell_angle_alpha 90.000000
_cell_angle_beta 150.000000
_cell_angle_gamma 90.000000
_cell_volume 1822.500000
_symmetry_space_group_name_H-M "P 21/M"
_symmetry_group_IT_number 11
_symmetry_cell_setting 'monoclinic'
loop_
_space_group_symop_operation_xyz
x,y,z
-x,1/2+y,-z
-x,-y,-z
x,1/2-y,z
loop_
_atom_site_type_symbol
_atom_site_label
_atom_site_fract_x
_atom_site_fract_y
_atom_site_fract_z
Si Si1 0.165707 0.070187 0.947619
Si Si2 0.245649 0.930784 0.241737
Si Si3 0.780517 0.570333 0.507242
Si Si4 0.510718 0.569511 0.559850
Si Si5 0.173798 0.571352 0.739860
Si Si6 0.461505 0.931020 0.690263
Si Si7 0.698105 0.570041 0.096568
Si Si8 0.501360 0.569691 0.825605
O O1 0.173232 0.250000 0.952091
O O2 0.211540 0.028201 0.912777
O O3 0.962994 0.030266 0.863900
O O4 0.317146 0.017747 0.059413
O O5 0.264745 0.750000 0.251865
O O6 0.321656 0.002113 0.329109
O O7 0.369033 0.000993 0.257940
O O8 0.752178 0.750000 0.492969
O O9 0.656808 0.491832 0.489065
O O10 0.709334 0.500353 0.421140
O O11 0.985038 0.542818 0.621742
O O12 0.500000 0.500000 0.500000
O O13 0.514572 0.750000 0.560757
O O14 0.186047 0.750000 0.753930
O O15 0.200864 0.491765 0.806002
O O16 0.334759 0.526834 0.780365
O O17 0.459176 0.750000 0.684699
O O18 0.475410 0.971972 0.755300
O O19 0.688378 0.750000 0.094331
O O20 0.500000 0.500000 0.000000
O O21 0.506096 0.750000 0.827713
#
# Coordination Sequence:
#
# PCOD9168040 Si02
#       8
#     4   4   4   4   4   4   4   4
#     4   9  19  35  57  82 111 149 186 222 276 338
#     4  10  20  36  57  82 111 146 185 232 282 329
#     4  10  21  37  57  83 113 146 184 233 286 330
#     4  11  22  37  56  79 110 148 187 230 279 334
#     4  10  21  38  59  83 113 150 189 231 279 336
#     4  10  20  36  59  82 109 150 189 232 281 331
#     4  11  21  36  58  83 114 151 187 229 279 333
#     4   9  18  36  59  81 110 149 190 226 277 339
#
# _framework density 17.558299000000002
#
# number of rings (size 3 to 8) (size 9 to 14) (size 15 to 20)
#    0.000    2.000    1.250    4.125    1.750    2.000 
#    0.000    3.125    0.000    0.000    0.000    0.000 
#    0.000    0.000    0.000    0.000    0.000    0.000 
#
# Total GULP energy -178530.818872 kJ/mol
# GULP energy per Si atom -5579.088090 kJ/mol
# Density = 1.751834 g / cm^3
# Si number density = 17.558299 Si / 1000 Ang^3
#
#
#
# Elastic Constant Matrix: (Units=GPa)
#
#
# Indices 1 2 3 4 5 6 
#
# 1 101.2728 31.1653 80.4602 0.0000 -28.1371 0.0000
# 2 31.1653 89.0196 46.6900 0.0000 -6.5227 0.0000
# 3 80.4602 46.6900 184.9503 0.0000 -9.8133 0.0000
# 4 0.0000 0.0000 0.0000 31.5337 0.0000 -5.4127
# 5 -28.1371 -6.5227 -9.8133 0.0000 39.9614 0.0000
# 6 0.0000 0.0000 0.0000 -5.4127 0.0000 27.3418
#
#
#
# Elastic Compliance Matrix: (Units=1/GPa)
#
#
# Indices 1 2 3 4 5 6 
#
# 1 0.019644 -0.002149 -0.007384 0.000000 0.011667 0.000000
# 2 -0.002149 0.013253 -0.002407 0.000000 0.000059 0.000000
# 3 -0.007384 -0.002407 0.009048 0.000000 -0.003370 0.000000
# 4 0.000000 0.000000 0.000000 0.032828 0.000000 0.006499
# 5 0.011667 0.000059 -0.003370 0.000000 0.032421 0.000000
# 6 0.000000 0.000000 0.000000 0.006499 0.000000 0.037861
#
#
# Mechanical properties :
#
#
# Convention : Reuss Voigt Hill
#
# Bulk Modulus (GPa) = 55.36179 76.87484 66.11831
# Shear Modulus (GPa) = 28.57831 34.22918 31.40375
#
# Velocity S-wave (km/s) = 4.03876 4.42006 4.23370
# Velocity P-wave (km/s) = 7.30394 8.36223 7.85094
#
# Compressibility (1/GPa) = 0.01806300
#
# Stress axis : x y z
#
# Youngs Moduli (GPa) = 50.90597 75.45473 110.51932
#
# Poissons Ratio (x) = 0.16218 0.81610
# Poissons Ratio (y) = 0.10942 0.26607
# Poissons Ratio (z) = 0.37590 0.18165
#
# Static dielectric constant tensor:
#      x y z
#    x 1.593530 0.000000 0.006900 
#    y 0.000000 1.589890 0.000000 
#    z 0.006900 0.000000 1.609470 
# 
# From -- ./inp_files/71627.got.cif
#   From: 2010.05.17/outbox.ucp.g08.bks.cvg/sg11_36_cif.got.tgz:71627.got - 2010.06.11 11:38:39.
