data_PCOD9168786
_publ_section_title
;
Structure prediction by ZEFSAII (Michael W. Deem and Ramdas Pophale) SiO2 
 PCOD9168786
Probable space group: C 2/M
;
_chemical_formula_sum "Si O2"
_cell_formula_units_Z 64
_cell_length_a 23.471880
_cell_length_b 21.961528
_cell_length_c 11.797563
_cell_angle_alpha 90.000000
_cell_angle_beta 149.211871
_cell_angle_gamma 90.000000
_cell_volume 3112.849143
_symmetry_space_group_name_H-M "C 2/M"
_symmetry_group_IT_number 12
_symmetry_cell_setting 'monoclinic'
loop_
_space_group_symop_operation_xyz
x,y,z
-x,y,-z
-x,-y,-z
x,-y,z
1/2+x,1/2+y,z
1/2-x,1/2+y,-z
1/2-x,1/2-y,-z
1/2+x,1/2-y,z
loop_
_atom_site_type_symbol
_atom_site_label
_atom_site_fract_x
_atom_site_fract_y
_atom_site_fract_z
Si Si1 0.349409 0.361932 0.102153
Si Si2 0.972978 0.248055 0.326364
Si Si3 0.797160 0.225701 0.402366
Si Si4 0.440932 0.430606 0.613120
Si Si5 0.991379 0.392177 0.351563
Si Si6 0.732223 0.129532 0.672954
Si Si7 0.388285 0.356276 0.745699
Si Si8 0.271752 0.116256 0.868940
O O1 0.366309 0.290063 0.109897
O O2 0.469660 0.393509 0.308301
O O3 0.281674 0.369647 0.100195
O O4 0.288795 0.387129 0.888341
O O5 0.000000 0.229161 0.500000
O O6 0.077254 0.227302 0.431412
O O7 0.962325 0.320042 0.308458
O O8 0.764351 0.296431 0.336933
O O9 0.816304 0.195605 0.558241
O O10 0.725563 0.178053 0.203939
O O11 0.476292 0.500000 0.679861
O O12 0.432228 0.400132 0.721554
O O13 0.318873 0.424514 0.350187
O O14 0.106592 0.393919 0.478223
O O15 0.000000 0.412676 0.500000
O O16 0.888689 0.415336 0.100234
O O17 0.807070 0.109353 0.695003
O O18 0.500000 0.332625 0.000000
#
# Coordination Sequence:
#
# PCOD9168786 Si02
#       8
#     8   8   8   8   8   8   8   8
#     4  12  19  35  60  87 126 156 195 251 303 355
#     4  10  16  28  50  84 121 157 195 229 278 351
#     4  10  20  33  53  86 127 166 202 236 286 352
#     4  11  25  43  65  90 113 149 206 271 323 350
#     4  10  21  33  53  87 125 165 194 222 284 366
#     4  11  22  35  55  89 125 161 200 237 284 363
#     4  11  21  40  61  85 119 159 204 257 305 351
#     4  11  21  36  60  87 123 162 195 245 298 363
#
# _framework density 20.559941999999999
#
# number of rings (size 3 to 8) (size 9 to 14) (size 15 to 20)
#    0.000    1.250    6.250    1.500    0.000    3.250 
#    0.000    2.500    0.000    2.625    0.000    0.000 
#    0.000    0.000    0.000    0.000    0.000    0.000 
#
# Total GULP energy -178496.539516 kJ/mol
# GULP energy per Si atom -5578.016860 kJ/mol
# Density = 2.051315 g / cm^3
# Si number density = 20.559942 Si / 1000 Ang^3
#
#
#
# Elastic Constant Matrix: (Units=GPa)
#
#
# Indices 1 2 3 4 5 6 
#
# 1 107.1939 -13.4436 36.8182 0.0000 -0.6914 0.0000
# 2 -13.4436 19.2035 1.2010 0.0000 7.6125 0.0000
# 3 36.8182 1.2010 117.2409 0.0000 -14.1399 0.0000
# 4 0.0000 0.0000 0.0000 6.3864 0.0000 1.4620
# 5 -0.6914 7.6125 -14.1399 0.0000 26.5398 0.0000
# 6 0.0000 0.0000 0.0000 1.4620 0.0000 6.0121
#
#
#
# Elastic Compliance Matrix: (Units=1/GPa)
#
#
# Indices 1 2 3 4 5 6 
#
# 1 0.012246 0.010948 -0.004593 0.000000 -0.005269 0.000000
# 2 0.010948 0.069426 -0.006964 0.000000 -0.023339 0.000000
# 3 -0.004593 -0.006964 0.010975 0.000000 0.007725 0.000000
# 4 0.000000 0.000000 0.000000 0.165814 0.000000 -0.040322
# 5 -0.005269 -0.023339 0.007725 0.000000 0.048352 0.000000
# 6 0.000000 0.000000 0.000000 -0.040322 0.000000 0.176138
#
#
# Mechanical properties :
#
#
# Convention : Reuss Voigt Hill
#
# Bulk Modulus (GPa) = 10.93753 32.53219 21.73486
# Shear Modulus (GPa) = 9.71546 22.39183 16.05365
#
# Velocity S-wave (km/s) = 2.17616 3.30373 2.79735
# Velocity P-wave (km/s) = 3.41257 5.51455 4.58563
#
# Compressibility (1/GPa) = 0.09142835
#
# Stress axis : x y z
#
# Youngs Moduli (GPa) = 81.66181 14.40388 91.11685
#
# Poissons Ratio (x) = -0.15770 0.41852
# Poissons Ratio (y) = -0.89407 0.63456
# Poissons Ratio (z) = 0.37509 0.10031
#
# Static dielectric constant tensor:
#      x y z
#    x 1.889450 0.000000 0.115480 
#    y 0.000000 1.752650 0.000000 
#    z 0.115480 0.000000 1.888680 
# 
# From -- ./inp_files/178426.got.cif
#   From: 2010.05.17/outbox.cif.g08.bks.cpg/sg12_90_cif.got.tgz:178426.got - 2010.06.03 13:09:07.
