data_PCOD9168583
_publ_section_title
;
Structure prediction by ZEFSAII (Michael W. Deem and Ramdas Pophale) SiO2 
 PCOD9168583
Probable space group: C 2/M
;
_chemical_formula_sum "Si O2"
_cell_formula_units_Z 56
_cell_length_a 30.566851
_cell_length_b 7.505842
_cell_length_c 13.992371
_cell_angle_alpha 90.000000
_cell_angle_beta 103.910542
_cell_angle_gamma 90.000000
_cell_volume 3116.119116
_symmetry_space_group_name_H-M "C 2/M"
_symmetry_group_IT_number 12
_symmetry_cell_setting 'monoclinic'
loop_
_space_group_symop_operation_xyz
x,y,z
-x,y,-z
-x,-y,-z
x,-y,z
1/2+x,1/2+y,z
1/2-x,1/2+y,-z
1/2-x,1/2-y,-z
1/2+x,1/2-y,z
loop_
_atom_site_type_symbol
_atom_site_label
_atom_site_fract_x
_atom_site_fract_y
_atom_site_fract_z
Si Si1 0.451307 0.288921 0.368675
Si Si2 0.308008 0.784298 0.429259
Si Si3 0.731942 0.213159 0.885602
Si Si4 0.143869 0.713251 0.740789
Si Si5 0.861626 0.204638 0.645612
Si Si6 0.718228 0.718123 0.278389
Si Si7 0.948387 0.218566 0.585419
O O1 0.456278 0.500000 0.381748
O O2 0.408489 0.258596 0.279327
O O3 0.500649 0.225441 0.362369
O O4 0.441335 0.222182 0.471432
O O5 0.338064 0.728070 0.353805
O O6 0.329195 0.707280 0.535714
O O7 0.257192 0.731375 0.374854
O O8 0.309433 0.000000 0.436983
O O9 0.681100 0.278404 0.836098
O O10 0.764312 0.276692 0.816423
O O11 0.730746 0.000000 0.875122
O O12 0.750000 0.250000 0.000000
O O13 0.145998 0.500000 0.741814
O O14 0.830458 0.283146 0.712738
O O15 0.908722 0.283906 0.633658
O O16 0.871012 0.000000 0.677468
O O17 0.717230 0.500000 0.278073
O O18 0.945825 0.000000 0.584906
#
# Coordination Sequence:
#
# PCOD9168583 Si02
#       7
#     8   8   8   8   8   8   8
#     4   9  15  26  40  57  83 113 145 177 202 231
#     4   9  16  26  37  55  85 114 136 165 200 234
#     4   9  18  33  48  64  85 106 132 172 216 254
#     4   9  17  28  42  60  85 112 137 169 210 248
#     4  10  16  25  41  59  80 113 146 165 193 240
#     4   8  16  28  42  59  82 109 135 166 206 247
#     4   8  15  24  37  58  85 113 142 177 204 224
#
# _framework density 17.971071999999999
#
# number of rings (size 3 to 8) (size 9 to 14) (size 15 to 20)
#    0.000    3.143    1.429    3.000    0.000    0.571 
#    0.000    5.000    0.000    0.000    0.000    1.000 
#    0.000    8.000    0.000    0.000    0.000    0.000 
#
# Total GULP energy -155978.974561 kJ/mol
# GULP energy per Si atom -5570.677663 kJ/mol
# Density = 1.793017 g / cm^3
# Si number density = 17.971072 Si / 1000 Ang^3
#
#
#
# Elastic Constant Matrix: (Units=GPa)
#
#
# Indices 1 2 3 4 5 6 
#
# 1 191.5978 4.1378 63.0194 0.0000 3.2284 0.0000
# 2 4.1378 45.5613 -3.2599 0.0000 -1.5491 0.0000
# 3 63.0194 -3.2599 73.9340 0.0000 9.9332 0.0000
# 4 0.0000 0.0000 0.0000 -0.6169 0.0000 16.6804
# 5 3.2284 -1.5491 9.9332 0.0000 15.4344 0.0000
# 6 0.0000 0.0000 0.0000 16.6804 0.0000 1.0038
#
#
#
# Elastic Compliance Matrix: (Units=1/GPa)
#
#
# Indices 1 2 3 4 5 6 
#
# 1 0.007407 -0.001063 -0.006719 0.000000 0.002668 0.000000
# 2 -0.001063 0.022213 0.001703 0.000000 0.001356 0.000000
# 3 -0.006719 0.001703 0.020925 0.000000 -0.011891 0.000000
# 4 0.000000 0.000000 0.000000 -0.003600 0.000000 0.059818
# 5 0.002668 0.001356 -0.011891 0.000000 0.072021 0.000000
# 6 0.000000 0.000000 0.000000 0.059818 0.000000 0.002212
#
#
# Mechanical properties :
#
#
# Convention : Reuss Voigt Hill
#
# Bulk Modulus (GPa) = 26.04970 48.76530 37.40750
# Shear Modulus (GPa) = 34.21548 19.64396 26.92972
#
# Velocity S-wave (km/s) = 4.36813 3.30978 3.87525
# Velocity P-wave (km/s) = 6.32199 6.46533 6.39406
#
# Compressibility (1/GPa) = 0.03838816
#
# Stress axis : x y z
#
# Youngs Moduli (GPa) = 135.00243 45.01885 47.78883
#
# Poissons Ratio (x) = 0.04784 0.32110
# Poissons Ratio (y) = 0.14347 -0.08139
# Poissons Ratio (z) = 0.90710 -0.07667
#
# Static dielectric constant tensor:
#      x y z
#    x 1.684160 0.000000 0.006700 
#    y 0.000000 1.641320 0.000000 
#    z 0.006700 0.000000 1.592970 
# 
# From -- ./inp_files/181951.got.cif
#   From: 2010.05.17/outbox.cif.g08.bks.cpg/sg12_91_cif.got.tgz:181951.got - 2010.06.03 13:09:07.
