data_PCOD9168883
_publ_section_title
;
Structure prediction by ZEFSAII (Michael W. Deem and Ramdas Pophale) SiO2 
 PCOD9168883
Probable space group: C 2/M
;
_chemical_formula_sum "Si O2"
_cell_formula_units_Z 48
_cell_length_a 5.359242
_cell_length_b 29.062656
_cell_length_c 15.603913
_cell_angle_alpha 90.000000
_cell_angle_beta 117.171720
_cell_angle_gamma 90.000000
_cell_volume 2162.157909
_symmetry_space_group_name_H-M "C 2/M"
_symmetry_group_IT_number 12
_symmetry_cell_setting 'monoclinic'
loop_
_space_group_symop_operation_xyz
x,y,z
-x,y,-z
-x,-y,-z
x,-y,z
1/2+x,1/2+y,z
1/2-x,1/2+y,-z
1/2-x,1/2-y,-z
1/2+x,1/2-y,z
loop_
_atom_site_type_symbol
_atom_site_label
_atom_site_fract_x
_atom_site_fract_y
_atom_site_fract_z
Si Si1 0.811539 0.677715 0.548322
Si Si2 0.327631 0.944906 0.219673
Si Si3 0.700366 0.803095 0.959982
Si Si4 0.929262 0.721614 0.740110
Si Si5 0.820029 0.431372 0.551003
Si Si6 0.818885 0.443731 0.887192
O O1 0.500000 0.697904 0.500000
O O2 0.793319 0.623310 0.532588
O O3 0.000000 0.696143 0.500000
O O4 0.917710 0.686369 0.660414
O O5 0.503025 0.938002 0.334427
O O6 0.510317 0.926716 0.168916
O O7 0.005559 0.927468 0.167649
O O8 0.305805 0.000000 0.204586
O O9 0.575874 0.798940 0.846501
O O10 0.500000 0.824080 0.000000
O O11 0.750000 0.750000 0.000000
O O12 0.000000 0.826470 0.000000
O O13 0.129585 0.761068 0.729748
O O14 0.500000 0.449017 0.500000
O O15 0.000000 0.449740 0.500000
O O16 0.808135 0.500000 0.881988
O O17 0.000000 0.432643 0.000000
#
# Coordination Sequence:
#
# PCOD9168883 Si02
#       6
#     8   8   8   8   8   8
#     4  10  23  40  53  73 104 139 174 209 260 320
#     4  10  19  31  53  83 106 134 182 226 258 307
#     4  10  16  30  48  74 103 127 157 195 242 310
#     4  12  21  32  56  81 100 132 169 213 258 295
#     4  10  21  38  56  72 103 146 177 213 271 324
#     4   9  17  30  49  78 111 141 170 210 266 317
#
# _framework density 22.200046
#
# number of rings (size 3 to 8) (size 9 to 14) (size 15 to 20)
#    0.000    1.833    3.333    2.500    0.000    4.667 
#    0.000    0.000    0.000    3.000    0.000    0.000 
#    0.000    0.000    0.000    0.000    0.000    0.000 
#
# Total GULP energy -134001.173683 kJ/mol
# GULP energy per Si atom -5583.382237 kJ/mol
# Density = 2.214952 g / cm^3
# Si number density = 22.200046 Si / 1000 Ang^3
#
#
#
# Elastic Constant Matrix: (Units=GPa)
#
#
# Indices 1 2 3 4 5 6 
#
# 1 250.4419 14.1710 115.9814 0.0000 -11.3581 0.0000
# 2 14.1710 46.0083 -5.0206 0.0000 -2.0430 0.0000
# 3 115.9814 -5.0206 188.5536 0.0000 -19.1564 0.0000
# 4 0.0000 0.0000 0.0000 56.5004 0.0000 -4.6876
# 5 -11.3581 -2.0430 -19.1564 0.0000 46.0839 0.0000
# 6 0.0000 0.0000 0.0000 -4.6876 0.0000 -10.7183
#
#
#
# Elastic Compliance Matrix: (Units=1/GPa)
#
#
# Indices 1 2 3 4 5 6 
#
# 1 0.005795 -0.002190 -0.003641 0.000000 -0.000183 0.000000
# 2 -0.002190 0.022697 0.002087 0.000000 0.001334 0.000000
# 3 -0.003641 0.002087 0.007849 0.000000 0.002458 0.000000
# 4 0.000000 0.000000 0.000000 0.017079 0.000000 -0.007470
# 5 -0.000183 0.001334 0.002458 0.000000 0.022735 0.000000
# 6 0.000000 0.000000 0.000000 -0.007470 0.000000 -0.090032
#
#
# Mechanical properties :
#
#
# Convention : Reuss Voigt Hill
#
# Bulk Modulus (GPa) = 34.66046 81.69639 58.17842
# Shear Modulus (GPa) = 1548.19605 42.36469 795.28037
#
# Velocity S-wave (km/s) = 26.43668 4.37317 18.94759
# Velocity P-wave (km/s) = 30.78166 7.89806 22.47098
#
# Compressibility (1/GPa) = 0.02885132
#
# Stress axis : x y z
#
# Youngs Moduli (GPa) = 172.56346 44.05893 127.41019
#
# Poissons Ratio (x) = 0.09651 0.46395
# Poissons Ratio (y) = 0.37798 -0.26593
# Poissons Ratio (z) = 0.62838 -0.09196
#
# Static dielectric constant tensor:
#      x y z
#    x 1.868010 0.000000 -0.030130 
#    y 0.000000 1.828570 0.000000 
#    z -0.030130 0.000000 2.054790 
# 
# From -- ./inp_files/192656.got.cif
#   From: 2010.05.17/outbox.cif.g08.bks.cpg/sg12_97_cif.got.tgz:192656.got - 2010.06.03 13:09:07.
