data_PCOD9168649
_publ_section_title
;
Structure prediction by ZEFSAII (Michael W. Deem and Ramdas Pophale) SiO2 
 PCOD9168649
Probable space group: C 2/M
;
_chemical_formula_sum "Si O2"
_cell_formula_units_Z 52
_cell_length_a 5.228811
_cell_length_b 31.509160
_cell_length_c 14.614475
_cell_angle_alpha 90.000000
_cell_angle_beta 91.194550
_cell_angle_gamma 90.000000
_cell_volume 2407.291006
_symmetry_space_group_name_H-M "C 2/M"
_symmetry_group_IT_number 12
_symmetry_cell_setting 'monoclinic'
loop_
_space_group_symop_operation_xyz
x,y,z
-x,y,-z
-x,-y,-z
x,-y,z
1/2+x,1/2+y,z
1/2-x,1/2+y,-z
1/2-x,1/2-y,-z
1/2+x,1/2-y,z
loop_
_atom_site_type_symbol
_atom_site_label
_atom_site_fract_x
_atom_site_fract_y
_atom_site_fract_z
Si Si1 0.246189 0.544943 0.934935
Si Si2 0.572929 0.589918 0.609230
Si Si3 0.250050 0.500000 0.434808
Si Si4 0.725253 0.774826 0.626092
Si Si5 0.433202 0.128699 0.395929
Si Si6 0.246304 0.636009 0.936293
Si Si7 0.762378 0.725472 0.154054
O O1 0.243424 0.500000 0.882558
O O2 0.500000 0.544859 0.000000
O O3 0.243556 0.590304 0.886067
O O4 0.000000 0.544824 0.000000
O O5 0.500000 0.595052 0.500000
O O6 0.708379 0.543913 0.620072
O O7 0.293186 0.600016 0.647714
O O8 0.785981 0.623295 0.645826
O O9 0.500000 0.500000 0.500000
O O10 0.000000 0.500000 0.500000
O O11 0.495206 0.743689 0.596748
O O12 0.664801 0.823156 0.598999
O O13 0.731214 0.773626 0.736223
O O14 0.500000 0.114003 0.500000
O O15 0.241618 0.676782 0.873564
O O16 0.500000 0.637832 0.000000
O O17 0.000000 0.637680 0.000000
O O18 0.511738 0.750371 0.120166
#
# Coordination Sequence:
#
# PCOD9168649 Si02
#       7
#     8   8   4   8   8   8   8
#     4   8  14  25  41  64  93 119 146 185 225 267
#     4   9  17  28  44  70  98 123 151 192 238 289
#     4  10  16  26  44  68 100 130 154 184 236 294
#     4  10  21  36  51  67  92 126 166 202 243 298
#     4  10  19  31  48  71  96 120 160 207 248 285
#     4  10  19  30  48  74  99 124 159 195 239 287
#     4  10  21  35  49  68  97 128 163 199 238 293
#
# _framework density 21.601046
#
# number of rings (size 3 to 8) (size 9 to 14) (size 15 to 20)
#    0.000    2.462    0.000    4.154    0.000    2.462 
#    0.000    0.000    0.000    0.000    4.000    0.000 
#    4.615    0.000    0.000    0.000    0.000    0.000 
#
# Total GULP energy -144915.343068 kJ/mol
# GULP energy per Si atom -5573.667041 kJ/mol
# Density = 2.155188 g / cm^3
# Si number density = 21.601046 Si / 1000 Ang^3
#
#
#
# Elastic Constant Matrix: (Units=GPa)
#
#
# Indices 1 2 3 4 5 6 
#
# 1 208.2295 74.5282 22.6195 0.0000 42.7350 0.0000
# 2 74.5282 205.8778 28.9866 0.0000 22.1633 0.0000
# 3 22.6195 28.9866 29.5390 0.0000 -1.6185 0.0000
# 4 0.0000 0.0000 0.0000 -271.4983 0.0000 -28.6713
# 5 42.7350 22.1633 -1.6185 0.0000 -6.9130 0.0000
# 6 0.0000 0.0000 0.0000 -28.6713 0.0000 32.8615
#
#
#
# Elastic Compliance Matrix: (Units=1/GPa)
#
#
# Indices 1 2 3 4 5 6 
#
# 1 0.003229 -0.002522 0.000645 0.000000 0.011724 0.000000
# 2 -0.002522 0.005845 -0.003586 0.000000 0.003991 0.000000
# 3 0.000645 -0.003586 0.036006 0.000000 -0.015944 0.000000
# 4 0.000000 0.000000 0.000000 -0.003373 0.000000 -0.002942
# 5 0.011724 0.003991 -0.015944 0.000000 -0.055649 0.000000
# 6 0.000000 0.000000 0.000000 -0.002942 0.000000 0.027863
#
#
# Mechanical properties :
#
#
# Convention : Reuss Voigt Hill
#
# Bulk Modulus (GPa) = 29.28022 77.32388 53.30205
# Shear Modulus (GPa) = 137.99517 -27.94247 55.02635
#
# Velocity S-wave (km/s) = 8.00139 -3.60053 5.05265
# Velocity P-wave (km/s) = 9.94723 4.31150 7.66604
#
# Compressibility (1/GPa) = 0.03415274
#
# Stress axis : x y z
#
# Youngs Moduli (GPa) = 309.71492 171.07543 27.77339
#
# Poissons Ratio (x) = 0.43140 -0.01790
# Poissons Ratio (y) = 0.78101 0.09961
# Poissons Ratio (z) = -0.19962 0.61354
#
# Static dielectric constant tensor:
#      x y z
#    x 1.809550 0.000000 -0.014940 
#    y 0.000000 1.845300 0.000000 
#    z -0.014940 0.000000 1.621720 
# 
# From -- ./inp_files/253488.got.cif
#   From: 2010.05.17/outbox.cif.g08.bks.cpg/sg12_127_cif.got.tgz:253488.got - 2010.06.03 13:09:07.
