data_PCOD9168426
_publ_section_title
;
Structure prediction by ZEFSAII (Michael W. Deem and Ramdas Pophale) SiO2 
 PCOD9168426
Probable space group: C 2/M
;
_chemical_formula_sum "Si O2"
_cell_formula_units_Z 48
_cell_length_a 24.328910
_cell_length_b 28.253040
_cell_length_c 10.422358
_cell_angle_alpha 90.000000
_cell_angle_beta 158.916842
_cell_angle_gamma 90.000000
_cell_volume 2577.041956
_symmetry_space_group_name_H-M "C 2/M"
_symmetry_group_IT_number 12
_symmetry_cell_setting 'monoclinic'
loop_
_space_group_symop_operation_xyz
x,y,z
-x,y,-z
-x,-y,-z
x,-y,z
1/2+x,1/2+y,z
1/2-x,1/2+y,-z
1/2-x,1/2-y,-z
1/2+x,1/2-y,z
loop_
_atom_site_type_symbol
_atom_site_label
_atom_site_fract_x
_atom_site_fract_y
_atom_site_fract_z
Si Si1 0.874195 0.052170 0.113651
Si Si2 0.784757 0.814813 0.273878
Si Si3 0.017877 0.733668 0.848653
Si Si4 0.734565 0.687094 0.319212
Si Si5 0.181058 0.150380 0.924722
Si Si6 0.018812 0.106536 0.898135
O O1 0.771520 0.097060 0.932226
O O2 0.000000 0.048857 0.500000
O O3 0.955517 0.068879 0.159024
O O4 0.803875 0.000000 0.946385
O O5 0.744950 0.830948 0.043504
O O6 0.883846 0.856791 0.559000
O O7 0.897755 0.769174 0.516007
O O8 0.631988 0.798794 0.014466
O O9 0.908963 0.701399 0.696886
O O10 0.131641 0.772150 0.158324
O O11 0.698975 0.682393 0.088954
O O12 0.673003 0.638383 0.240658
O O13 0.000000 0.148888 0.500000
O O14 0.000000 0.087112 0.000000
#
# Coordination Sequence:
#
# PCOD9168426 Si02
#       6
#     8   8   8   8   8   8
#     4   9  16  30  53  78  99 122 152 195 250 301
#     4  10  18  31  43  69  97 135 168 205 239 278
#     4   9  18  29  46  66  97 134 176 204 234 279
#     4   9  18  30  43  68  95 133 168 205 241 276
#     4  10  15  28  46  67 102 125 156 198 251 291
#     4  10  19  33  50  71 102 129 158 203 245 286
#
# _framework density 18.626006
#
# number of rings (size 3 to 8) (size 9 to 14) (size 15 to 20)
#    0.000    2.500    6.667    0.000    0.000    5.000 
#    0.000   14.167    0.000    0.000    0.000   14.000 
#    0.000    6.667    0.000    0.000    0.000    0.000 
#
# Total GULP energy -133613.370902 kJ/mol
# GULP energy per Si atom -5567.223788 kJ/mol
# Density = 1.858361 g / cm^3
# Si number density = 18.626006 Si / 1000 Ang^3
#
#
#
# Elastic Constant Matrix: (Units=GPa)
#
#
# Indices 1 2 3 4 5 6 
#
# 1 78.6026 17.6329 41.8976 0.0000 -10.1458 0.0000
# 2 17.6329 71.7810 36.3239 0.0000 -0.7851 0.0000
# 3 41.8976 36.3239 61.7671 0.0000 12.6130 -0.0001
# 4 0.0000 0.0000 0.0000 -8.2754 0.0000 74.2858
# 5 -10.1458 -0.7851 12.6130 0.0000 37.8304 0.0000
# 6 0.0000 0.0000 -0.0001 74.2858 0.0000 -360.1162
#
#
#
# Elastic Compliance Matrix: (Units=1/GPa)
#
#
# Indices 1 2 3 4 5 6 
#
# 1 0.026593 0.006226 -0.024876 0.000000 0.015555 0.000000
# 2 0.006226 0.022071 -0.018926 0.000000 0.008438 0.000000
# 3 -0.024876 -0.018926 0.048970 0.000000 -0.023392 0.000000
# 4 0.000000 0.000000 0.000000 0.141873 0.000000 0.029266
# 5 0.015555 0.008438 -0.023392 0.000000 0.038580 0.000000
# 6 0.000000 0.000000 0.000000 0.029266 0.000000 0.003260
#
#
# Mechanical properties :
#
#
# Convention : Reuss Voigt Hill
#
# Bulk Modulus (GPa) = 44.47928 44.87327 44.67627
# Shear Modulus (GPa) = 13.73645 -58.35914 -22.31135
#
# Velocity S-wave (km/s) = 2.71862 -5.60358 -3.46477
# Velocity P-wave (km/s) = 5.81262 4.20984 2.83406
#
# Compressibility (1/GPa) = 0.02248238
#
# Stress axis : x y z
#
# Youngs Moduli (GPa) = 37.60352 45.30756 20.42050
#
# Poissons Ratio (x) = -0.28208 0.50799
# Poissons Ratio (y) = -0.23412 0.38648
# Poissons Ratio (z) = 0.93544 0.85748
#
# Static dielectric constant tensor:
#      x y z
#    x 1.693390 0.000000 -0.018790 
#    y 0.000000 1.666240 0.000000 
#    z -0.018790 0.000000 1.674100 
# 
# From -- ./inp_files/124860.got.cif
#   From: 2010.05.17/outbox.cif.g08.bks.cpg/sg12_63_cif.got.tgz:124860.got - 2010.06.03 13:09:07.
