data_PCOD9168233
_publ_section_title
;
Structure prediction by ZEFSAII (Michael W. Deem and Ramdas Pophale) SiO2 
 PCOD9168233
Probable space group: P 21/M
;
_chemical_formula_sum "Si O2"
_cell_formula_units_Z 28
_cell_length_a 12.000000
_cell_length_b 9.000000
_cell_length_c 15.000000
_cell_angle_alpha 90.000000
_cell_angle_beta 60.000000
_cell_angle_gamma 90.000000
_cell_volume 1402.961154
_symmetry_space_group_name_H-M "P 21/M"
_symmetry_group_IT_number 11
_symmetry_cell_setting 'monoclinic'
loop_
_space_group_symop_operation_xyz
x,y,z
-x,1/2+y,-z
-x,-y,-z
x,1/2-y,z
loop_
_atom_site_type_symbol
_atom_site_label
_atom_site_fract_x
_atom_site_fract_y
_atom_site_fract_z
Si Si1 0.358935 0.926678 0.529415
Si Si2 0.391754 0.922888 0.838295
Si Si3 0.009454 0.424373 0.092974
Si Si4 0.233218 0.074223 0.746663
Si Si5 0.684284 0.575124 0.751482
Si Si6 0.143743 0.926709 0.458173
Si Si7 0.300876 0.421140 0.045585
O O1 0.380907 0.750000 0.508727
O O2 0.253205 0.971005 0.492209
O O3 0.500000 0.000000 0.500000
O O4 0.285430 0.970923 0.648034
O O5 0.358247 0.750000 0.837438
O O6 0.543848 0.941950 0.763216
O O7 0.307324 0.026053 0.807546
O O8 0.368556 0.969366 0.949605
O O9 0.969690 0.250000 0.104365
O O10 0.914309 0.526934 0.186783
O O11 0.151065 0.426940 0.077843
O O12 0.000000 0.500000 0.000000
O O13 0.249996 0.250000 0.724575
O O14 0.721181 0.750000 0.728019
O O15 0.782407 0.470343 0.661576
O O16 0.679677 0.542602 0.858718
O O17 0.124780 0.750000 0.477368
O O18 0.000000 0.000000 0.500000
O O19 0.344998 0.250000 0.013881
#
# Coordination Sequence:
#
# PCOD9168233 Si02
#       7
#     4   4   4   4   4   4   4
#     4  11  25  46  71 100 132 169 218 275 332 390
#     4  11  22  38  63  94 129 167 209 259 312 375
#     4  11  22  38  60  89 126 165 208 258 314 375
#     4  12  25  40  63  93 128 168 211 260 316 380
#     4  10  23  42  64  92 126 165 209 259 315 375
#     4  11  26  46  69  97 130 170 216 271 328 388
#     4  10  22  39  61  89 126 167 206 255 313 374
#
# _framework density 19.957787
#
# number of rings (size 3 to 8) (size 9 to 14) (size 15 to 20)
#    0.000    1.143    1.429    4.286    2.000    6.857 
#    0.000    0.000    0.000    0.000    0.000    0.000 
#    0.000    0.000    0.000    0.000    0.000    0.000 
#
# Total GULP energy -156144.349838 kJ/mol
# GULP energy per Si atom -5576.583923 kJ/mol
# Density = 1.991236 g / cm^3
# Si number density = 19.957787 Si / 1000 Ang^3
#
#
#
# Elastic Constant Matrix: (Units=GPa)
#
#
# Indices 1 2 3 4 5 6 
#
# 1 108.4550 31.7804 14.2592 0.0000 -2.4307 0.0000
# 2 31.7804 53.5642 -1.9868 0.0000 -0.3387 0.0000
# 3 14.2592 -1.9868 55.9953 0.0000 -5.6486 0.0000
# 4 0.0000 0.0000 0.0000 30.3155 0.0000 3.4920
# 5 -2.4307 -0.3387 -5.6486 0.0000 32.1674 0.0000
# 6 0.0000 0.0000 0.0000 3.4920 0.0000 31.7378
#
#
#
# Elastic Compliance Matrix: (Units=1/GPa)
#
#
# Indices 1 2 3 4 5 6 
#
# 1 0.011720 -0.007071 -0.003210 0.000000 0.000247 0.000000
# 2 -0.007071 0.022963 0.002633 0.000000 0.000170 0.000000
# 3 -0.003210 0.002633 0.019086 0.000000 0.003137 0.000000
# 4 0.000000 0.000000 0.000000 0.033410 0.000000 -0.003676
# 5 0.000247 0.000170 0.003137 0.000000 0.031659 0.000000
# 6 0.000000 0.000000 0.000000 -0.003676 0.000000 0.031913
#
#
# Mechanical properties :
#
#
# Convention : Reuss Voigt Hill
#
# Bulk Modulus (GPa) = 25.99342 34.01334 30.00338
# Shear Modulus (GPa) = 27.95285 30.44160 29.19723
#
# Velocity S-wave (km/s) = 3.74652 3.90974 3.82900
# Velocity P-wave (km/s) = 5.63628 6.12055 5.88340
#
# Compressibility (1/GPa) = 0.03847128
#
# Stress axis : x y z
#
# Youngs Moduli (GPa) = 85.32324 43.54760 52.39441
#
# Poissons Ratio (x) = 0.30794 0.16821
# Poissons Ratio (y) = 0.60334 -0.13793
# Poissons Ratio (z) = 0.27393 -0.11464
#
# Static dielectric constant tensor:
#      x y z
#    x 1.072220 0.000000 2.040020 
#    y 0.000000 1.692470 0.000000 
#    z 2.040020 0.000000 -4.739280 
# 
# From -- ./inp_files/49140.got.cif
#   From: 2010.05.17/outbox.ucp.g08.bks.cvg/sg11_25_cif.got.tgz:49140.got - 2010.06.11 11:38:39.
