data_PCOD9168934
_publ_section_title
;
Structure prediction by ZEFSAII (Michael W. Deem and Ramdas Pophale) SiO2 
 PCOD9168934
Probable space group: C 2/M
;
_chemical_formula_sum "Si O2"
_cell_formula_units_Z 32
_cell_length_a 20.825876
_cell_length_b 11.104141
_cell_length_c 16.483340
_cell_angle_alpha 90.000000
_cell_angle_beta 159.294457
_cell_angle_gamma 90.000000
_cell_volume 1347.730782
_symmetry_space_group_name_H-M "C 2/M"
_symmetry_group_IT_number 12
_symmetry_cell_setting 'monoclinic'
loop_
_space_group_symop_operation_xyz
x,y,z
-x,y,-z
-x,-y,-z
x,-y,z
1/2+x,1/2+y,z
1/2-x,1/2+y,-z
1/2-x,1/2-y,-z
1/2+x,1/2-y,z
loop_
_atom_site_type_symbol
_atom_site_label
_atom_site_fract_x
_atom_site_fract_y
_atom_site_fract_z
Si Si1 0.712128 0.000000 0.224523
Si Si2 0.293659 0.500000 0.720635
Si Si3 0.892372 0.242309 0.096696
Si Si4 0.707605 0.742146 0.209561
Si Si5 0.002395 0.500000 0.183917
Si Si6 0.882281 0.000000 0.635854
O O1 0.798570 0.130908 0.340625
O O2 0.500000 0.000000 0.000000
O O3 0.674352 0.000000 0.081765
O O4 0.206757 0.622872 0.650758
O O5 0.318331 0.500000 0.654053
O O6 0.500000 0.500000 0.000000
O O7 0.996572 0.370415 0.219997
O O8 0.010646 0.122843 0.250143
O O9 0.750000 0.250000 0.000000
O O10 0.811189 0.229141 0.909505
O O11 0.500000 0.749002 0.000000
O O12 0.195448 0.500000 0.365318
#
# Coordination Sequence:
#
# PCOD9168934 Si02
#       6
#     4   4   8   8   4   4
#     4   8  16  29  51  76 104 136 188 238 253 327
#     4  10  16  30  55  83 101 144 198 229 261 334
#     4  11  21  36  58  85 116 153 190 240 285 346
#     4   9  15  30  51  81 101 138 201 225 258 329
#     4  10  23  36  54  91 114 151 189 239 302 329
#     4  12  21  37  58  87 122 146 191 247 283 350
#
# _framework density 23.743614000000001
#
# number of rings (size 3 to 8) (size 9 to 14) (size 15 to 20)
#    0.000    2.000    5.000    1.500    0.000    0.000 
#    0.000    0.000    0.000    3.000    0.000   17.500 
#    0.000    0.000    0.000    0.000    0.000    0.000 
#
# Total GULP energy -89328.837354 kJ/mol
# GULP energy per Si atom -5583.052335 kJ/mol
# Density = 2.368957 g / cm^3
# Si number density = 23.743614 Si / 1000 Ang^3
#
#
#
# Elastic Constant Matrix: (Units=GPa)
#
#
# Indices 1 2 3 4 5 6 
#
# 1 146.4656 51.4713 31.6125 0.0000 -7.3651 -0.0002
# 2 51.4713 318.8024 41.0355 0.0003 13.4890 -0.0007
# 3 31.6125 41.0355 27.9778 0.0005 -18.6960 -0.0011
# 4 0.0000 0.0003 0.0005 -245.2152 0.0001 575.5839
# 5 -7.3651 13.4890 -18.6960 0.0001 28.7257 -0.0003
# 6 -0.0002 -0.0007 -0.0011 575.5839 -0.0003-1218.6591
#
#
#
# Elastic Compliance Matrix: (Units=1/GPa)
#
#
# Indices 1 2 3 4 5 6 
#
# 1 0.010700 0.002035 -0.024563 0.000000 -0.014199 0.000000
# 2 0.002035 0.006818 -0.024934 0.000000 -0.018908 0.000000
# 3 -0.024563 -0.024934 0.183484 0.000000 0.124830 0.000000
# 4 0.000000 0.000000 0.000000 0.037540 0.000000 0.017730
# 5 -0.014199 -0.018908 0.124830 0.000000 0.121295 0.000000
# 6 0.000000 0.000000 0.000000 0.017730 0.000000 0.007554
#
#
# Mechanical properties :
#
#
# Convention : Reuss Voigt Hill
#
# Bulk Modulus (GPa) = 9.42700 82.38716 45.90708
# Shear Modulus (GPa) = 10.04674 -262.42129 -126.18727
#
# Velocity S-wave (km/s) = 2.05926 -10.52439 -7.29802
# Velocity P-wave (km/s) = 3.10371 10.62590 7.18599
#
# Compressibility (1/GPa) = 0.10607830
#
# Stress axis : x y z
#
# Youngs Moduli (GPa) = 93.45790 146.67909 5.45006
#
# Poissons Ratio (x) = -0.29848 0.13387
# Poissons Ratio (y) = -0.19018 0.13589
# Poissons Ratio (z) = 2.29561 3.65725
#
# Static dielectric constant tensor:
#      x y z
#    x 1.968000 0.000000 -0.080510 
#    y 0.000000 1.980600 0.000000 
#    z -0.080510 0.000000 1.945810 
# 
# From -- ./inp_files/223991.got.cif
#   From: 2010.05.17/outbox.cif.g08.bks.cpg/sg12_112_cif.got.tgz:223991.got - 2010.06.03 13:09:07.
