data_PCOD9168729
_publ_section_title
;
Structure prediction by ZEFSAII (Michael W. Deem and Ramdas Pophale) SiO2 
 PCOD9168729
Probable space group: C 2/M
;
_chemical_formula_sum "Si O2"
_cell_formula_units_Z 56
_cell_length_a 13.675001
_cell_length_b 31.591086
_cell_length_c 8.139007
_cell_angle_alpha 90.000000
_cell_angle_beta 114.996047
_cell_angle_gamma 90.000000
_cell_volume 3186.786927
_symmetry_space_group_name_H-M "C 2/M"
_symmetry_group_IT_number 12
_symmetry_cell_setting 'monoclinic'
loop_
_space_group_symop_operation_xyz
x,y,z
-x,y,-z
-x,-y,-z
x,-y,z
1/2+x,1/2+y,z
1/2-x,1/2+y,-z
1/2-x,1/2-y,-z
1/2+x,1/2-y,z
loop_
_atom_site_type_symbol
_atom_site_label
_atom_site_fract_x
_atom_site_fract_y
_atom_site_fract_z
Si Si1 0.291694 0.704545 0.417925
Si Si2 0.048753 0.818153 0.195558
Si Si3 0.551058 0.452416 0.771248
Si Si4 0.353339 0.631845 0.226886
Si Si5 0.872310 0.710364 0.419806
Si Si6 0.671764 0.452195 0.213265
Si Si7 0.250895 0.367555 0.812107
O O1 0.384189 0.707822 0.624240
O O2 0.309392 0.660327 0.341424
O O3 0.179344 0.704722 0.435001
O O4 0.314122 0.745693 0.321538
O O5 0.134751 0.851018 0.180367
O O6 0.955189 0.842694 0.224266
O O7 0.000000 0.795273 0.000000
O O8 0.565637 0.500000 0.717118
O O9 0.603107 0.414905 0.703460
O O10 0.425300 0.445625 0.725568
O O11 0.612081 0.450420 0.992146
O O12 0.266521 0.629409 0.018477
O O13 0.833366 0.668677 0.295265
O O14 0.000000 0.714751 0.500000
O O15 0.713545 0.500000 0.263687
O O16 0.758087 0.414415 0.270656
#
# Coordination Sequence:
#
# PCOD9168729 Si02
#       7
#     8   8   8   8   8   8   8
#     4  10  21  34  52  73  93 127 162 200 256 299
#     4   9  16  28  47  71  98 129 163 192 231 293
#     4   8  13  21  40  71 108 140 160 190 238 292
#     4  10  16  27  48  75 105 128 162 199 239 294
#     4  10  21  38  51  65  94 127 166 206 249 299
#     4   8  12  22  41  70 104 136 170 196 227 289
#     4   9  17  28  47  73  97 134 168 198 240 288
#
# _framework density 17.572558000000001
#
# number of rings (size 3 to 8) (size 9 to 14) (size 15 to 20)
#    0.000    2.857    1.429    2.143    0.000    0.571 
#    0.000    3.571    0.000    5.571    0.000    0.000 
#    0.000    4.571    0.000    0.000    0.000    0.000 
#
# Total GULP energy -155919.870434 kJ/mol
# GULP energy per Si atom -5568.566801 kJ/mol
# Density = 1.753256 g / cm^3
# Si number density = 17.572558 Si / 1000 Ang^3
#
#
#
# Elastic Constant Matrix: (Units=GPa)
#
#
# Indices 1 2 3 4 5 6 
#
# 1 79.4453 37.6272 16.1926 0.0000 -1.2056 0.0000
# 2 37.6272 145.0702 40.1695 0.0000 -6.5278 0.0000
# 3 16.1926 40.1695 36.0136 0.0000 -4.6371 0.0000
# 4 0.0000 0.0000 0.0000 -92.2891 0.0000 -111.5223
# 5 -1.2056 -6.5278 -4.6371 0.0000 9.1393 0.0000
# 6 0.0000 0.0000 0.0000 -111.5223 0.0000 -74.8252
#
#
#
# Elastic Compliance Matrix: (Units=1/GPa)
#
#
# Indices 1 2 3 4 5 6 
#
# 1 0.014664 -0.002888 -0.003625 0.000000 -0.001968 0.000000
# 2 -0.002888 0.010564 -0.010230 0.000000 0.001974 0.000000
# 3 -0.003625 -0.010230 0.042588 0.000000 0.013823 0.000000
# 4 0.000000 0.000000 0.000000 0.013527 0.000000 -0.020161
# 5 -0.001968 0.001974 0.013823 0.000000 0.117581 0.000000
# 6 0.000000 0.000000 0.000000 -0.020161 0.000000 0.016684
#
#
# Mechanical properties :
#
#
# Convention : Reuss Voigt Hill
#
# Bulk Modulus (GPa) = 29.13019 49.83416 39.48218
# Shear Modulus (GPa) = 19.19111 -20.49233 -0.65061
#
# Velocity S-wave (km/s) = 3.30829 -3.41861 -0.60914
# Velocity P-wave (km/s) = 5.58624 3.58304 4.69277
#
# Compressibility (1/GPa) = 0.03432865
#
# Stress axis : x y z
#
# Youngs Moduli (GPa) = 68.19304 94.66257 23.48093
#
# Poissons Ratio (x) = 0.27341 0.08512
# Poissons Ratio (y) = 0.19696 0.24021
# Poissons Ratio (z) = 0.24722 0.96841
#
# Static dielectric constant tensor:
#      x y z
#    x 1.568680 0.000000 -0.016310 
#    y 0.000000 1.663240 0.000000 
#    z -0.016310 0.000000 1.657380 
# 
# From -- ./inp_files/67670.got.cif
#   From: 2010.05.17/outbox.cif.g08.bks.cpg/sg12_34_cif.got.tgz:67670.got - 2010.06.03 13:09:07.
