data_PCOD9168285
_publ_section_title
;
Structure prediction by ZEFSAII (Michael W. Deem and Ramdas Pophale) SiO2 
 PCOD9168285
Probable space group: C 2/M
;
_chemical_formula_sum "Si O2"
_cell_formula_units_Z 48
_cell_length_a 11.025470
_cell_length_b 24.801256
_cell_length_c 10.411681
_cell_angle_alpha 90.000000
_cell_angle_beta 37.009005
_cell_angle_gamma 90.000000
_cell_volume 1713.741171
_symmetry_space_group_name_H-M "C 2/M"
_symmetry_group_IT_number 12
_symmetry_cell_setting 'monoclinic'
loop_
_space_group_symop_operation_xyz
x,y,z
-x,y,-z
-x,-y,-z
x,-y,z
1/2+x,1/2+y,z
1/2-x,1/2+y,-z
1/2-x,1/2-y,-z
1/2+x,1/2-y,z
loop_
_atom_site_type_symbol
_atom_site_label
_atom_site_fract_x
_atom_site_fract_y
_atom_site_fract_z
Si Si1 0.769794 0.057959 0.031824
Si Si2 0.761674 0.346792 0.428236
Si Si3 0.146713 0.439935 0.497720
Si Si4 0.235559 0.558017 0.770843
Si Si5 0.766341 0.673660 0.917452
Si Si6 0.264524 0.783147 0.195428
O O1 0.524078 0.056840 0.246728
O O2 0.814844 0.115412 0.054618
O O3 0.830691 0.000000 0.035754
O O4 0.830758 0.060238 0.831721
O O5 0.721461 0.387069 0.583940
O O6 0.720746 0.390502 0.350112
O O7 0.687624 0.294831 0.406211
O O8 0.992090 0.330697 0.268006
O O9 0.239323 0.500000 0.409954
O O10 0.000000 0.432843 0.500000
O O11 0.286438 0.500000 0.668727
O O12 0.000000 0.559045 0.000000
O O13 0.731677 0.720494 0.845080
O O14 0.682531 0.688955 0.131937
O O15 0.500000 0.801471 0.000000
#
# Coordination Sequence:
#
# PCOD9168285 Si02
#       6
#     8   8   8   8   8   8
#     4   9  15  22  35  52  71  92 116 142 173 215
#     4  10  15  24  36  51  73  96 120 143 171 212
#     4   9  16  23  33  52  76  99 117 137 174 218
#     4  10  13  17  32  54  72  86 106 138 173 212
#     4   9  15  23  35  53  73  90 116 146 177 213
#     4   9  16  24  35  52  72  94 117 147 177 209
#
# _framework density 28.008897999999999
#
# number of rings (size 3 to 8) (size 9 to 14) (size 15 to 20)
#    0.000    2.667    5.000    1.000    0.000    0.000 
#    0.000    0.000    0.000    4.500    0.000    0.000 
#    0.000    0.000    0.000    0.000    0.000  243.833 
#
# Total GULP energy -133810.081481 kJ/mol
# GULP energy per Si atom -5575.420062 kJ/mol
# Density = 2.794515 g / cm^3
# Si number density = 28.008898 Si / 1000 Ang^3
#
#
#
# Elastic Constant Matrix: (Units=GPa)
#
#
# Indices 1 2 3 4 5 6 
#
# 1 119.5804 45.6554 34.8918 0.0000 15.8633 0.0000
# 2 45.6554 233.0626 7.4972 0.0000 35.1536 0.0000
# 3 34.8918 7.4972 80.5578 0.0000 0.2277 0.0000
# 4 0.0000 0.0000 0.0000 -5.3046 0.0000 27.6793
# 5 15.8633 35.1536 0.2277 0.0000 54.8106 0.0000
# 6 0.0000 0.0000 0.0000 27.6793 0.0000 38.8215
#
#
#
# Elastic Compliance Matrix: (Units=1/GPa)
#
#
# Indices 1 2 3 4 5 6 
#
# 1 0.010531 -0.001621 -0.004405 0.000000 -0.001990 0.000000
# 2 -0.001621 0.005015 0.000243 0.000000 -0.002748 0.000000
# 3 -0.004405 0.000243 0.014296 0.000000 0.001059 0.000000
# 4 0.000000 0.000000 0.000000 -0.039937 0.000000 0.028474
# 5 -0.001990 -0.002748 0.001059 0.000000 0.020579 0.000000
# 6 0.000000 0.000000 0.000000 0.028474 0.000000 0.005457
#
#
# Mechanical properties :
#
#
# Convention : Reuss Voigt Hill
#
# Bulk Modulus (GPa) = 54.71611 67.69886 61.20748
# Shear Modulus (GPa) = 148.82041 40.67591 94.74816
#
# Velocity S-wave (km/s) = 7.29716 3.81497 5.82248
# Velocity P-wave (km/s) = 9.51713 6.60517 8.19158
#
# Compressibility (1/GPa) = 0.01827615
#
# Stress axis : x y z
#
# Youngs Moduli (GPa) = 94.96068 199.40353 69.95159
#
# Poissons Ratio (x) = 0.32325 0.30811
# Poissons Ratio (y) = 0.15394 -0.01701
# Poissons Ratio (z) = 0.41827 -0.04849
#
# Static dielectric constant tensor:
#      x y z
#    x 2.205670 0.000000 -0.016700 
#    y 0.000000 2.212070 0.000000 
#    z -0.016700 0.000000 2.370030 
# 
# From -- ./inp_files/134530.got.cif
#   From: 2010.05.17/outbox.cif.g08.bks.cpg/sg12_68_cif.got.tgz:134530.got - 2010.06.03 13:09:07.
