data_PCOD9168123
_publ_section_title
;
Structure prediction by ZEFSAII (Michael W. Deem and Ramdas Pophale) SiO2 
 PCOD9168123
Probable space group: P 21/M
;
_chemical_formula_sum "Si O2"
_cell_formula_units_Z 28
_cell_length_a 27.000000
_cell_length_b 9.000000
_cell_length_c 12.000000
_cell_angle_alpha 90.000000
_cell_angle_beta 150.000000
_cell_angle_gamma 90.000000
_cell_volume 1458.000000
_symmetry_space_group_name_H-M "P 21/M"
_symmetry_group_IT_number 11
_symmetry_cell_setting 'monoclinic'
loop_
_space_group_symop_operation_xyz
x,y,z
-x,1/2+y,-z
-x,-y,-z
x,1/2-y,z
loop_
_atom_site_type_symbol
_atom_site_label
_atom_site_fract_x
_atom_site_fract_y
_atom_site_fract_z
Si Si1 0.057579 0.424149 0.949974
Si Si2 0.378134 0.573444 0.519162
Si Si3 0.737314 0.573491 0.517384
Si Si4 0.542804 0.427650 0.696873
Si Si5 0.146630 0.072253 0.459683
Si Si6 0.756308 0.573050 0.125933
Si Si7 0.801430 0.573983 0.962964
O O1 0.034942 0.250000 0.912710
O O2 0.958550 0.510759 0.784227
O O3 0.155594 0.450010 0.214634
O O4 0.097706 0.462375 0.904764
O O5 0.389878 0.750000 0.536930
O O6 0.343493 0.518496 0.573046
O O7 0.475093 0.490547 0.664198
O O8 0.288564 0.519950 0.263775
O O9 0.715066 0.750000 0.480931
O O10 0.760973 0.527354 0.437845
O O11 0.500000 0.500000 0.500000
O O12 0.536079 0.250000 0.676518
O O13 0.654649 0.482610 0.929771
O O14 0.140957 0.250000 0.440671
O O15 0.171681 0.028474 0.633988
O O16 0.733750 0.750000 0.094071
O O17 0.805467 0.552208 0.101722
O O18 0.780502 0.750000 0.899417
#
# Coordination Sequence:
#
# PCOD9168123 Si02
#       7
#     4   4   4   4   4   4   4
#     4   9  18  32  53  79 108 148 191 232 278 325
#     4  11  21  34  57  87 111 138 183 231 277 326
#     4   9  19  37  57  79 111 148 188 233 279 321
#     4  12  23  37  59  86 113 143 180 222 273 329
#     4  10  21  36  55  80 111 150 190 231 277 326
#     4  10  21  37  56  80 113 149 186 227 276 331
#     4   9  18  34  54  78 112 148 181 226 281 327
#
# _framework density 19.20439
#
# number of rings (size 3 to 8) (size 9 to 14) (size 15 to 20)
#    0.000    2.000    1.429    3.857    0.000    4.000 
#    0.000    0.714    0.000    0.000    0.000    0.000 
#    0.000    0.000    0.000    0.000    0.000    0.000 
#
# Total GULP energy -156273.224786 kJ/mol
# GULP energy per Si atom -5581.186599 kJ/mol
# Density = 1.916068 g / cm^3
# Si number density = 19.204390 Si / 1000 Ang^3
#
#
#
# Elastic Constant Matrix: (Units=GPa)
#
#
# Indices 1 2 3 4 5 6 
#
# 1 94.5050 30.1969 -4.8538 0.0000 7.7473 0.0000
# 2 30.1969 58.7373 4.1840 0.0000 2.2788 0.0000
# 3 -4.8538 4.1840 4.2961 0.0000 3.7688 0.0000
# 4 0.0000 0.0000 0.0000 21.4492 0.0000 9.3625
# 5 7.7473 2.2788 3.7688 0.0000 21.3223 0.0000
# 6 0.0000 0.0000 0.0000 9.3625 0.0000 26.5715
#
#
#
# Elastic Compliance Matrix: (Units=1/GPa)
#
#
# Indices 1 2 3 4 5 6 
#
# 1 0.017403 -0.011437 0.041750 0.000000 -0.012480 0.000000
# 2 -0.011437 0.025846 -0.046530 0.000000 0.009618 0.000000
# 3 0.041750 -0.046530 0.395533 0.000000 -0.080109 0.000000
# 4 0.000000 0.000000 0.000000 0.055096 0.000000 -0.019413
# 5 -0.012480 0.009618 -0.080109 0.000000 0.064566 0.000000
# 6 0.000000 0.000000 0.000000 -0.019413 0.000000 0.044474
#
#
# Mechanical properties :
#
#
# Convention : Reuss Voigt Hill
#
# Bulk Modulus (GPa) = 2.46095 24.06581 13.26338
# Shear Modulus (GPa) = 6.48675 22.40268 14.44472
#
# Velocity S-wave (km/s) = 1.83986 3.41917 2.74552
# Velocity P-wave (km/s) = 2.40783 5.30530 4.11970
#
# Compressibility (1/GPa) = 0.40634760
#
# Stress axis : x y z
#
# Youngs Moduli (GPa) = 57.46071 38.69085 2.52823
#
# Poissons Ratio (x) = 0.44250 -0.10555
# Poissons Ratio (y) = 0.65716 0.11764
# Poissons Ratio (z) = -2.39896 1.80030
#
# Static dielectric constant tensor:
#      x y z
#    x 1.730550 0.000000 -0.038180 
#    y 0.000000 1.641480 0.000000 
#    z -0.038180 0.000000 1.638340 
# 
# From -- ./inp_files/44663.got.cif
#   From: 2010.05.17/outbox.ucp.g08.bks.cvg/sg11_23_cif.got.tgz:44663.got - 2010.06.11 11:38:39.
