data_PCOD9168444
_publ_section_title
;
Structure prediction by ZEFSAII (Michael W. Deem and Ramdas Pophale) SiO2 
 PCOD9168444
Probable space group: C 2/M
;
_chemical_formula_sum "Si O2"
_cell_formula_units_Z 64
_cell_length_a 12.088471
_cell_length_b 15.264660
_cell_length_c 17.827806
_cell_angle_alpha 90.000000
_cell_angle_beta 105.974407
_cell_angle_gamma 90.000000
_cell_volume 3162.668144
_symmetry_space_group_name_H-M "C 2/M"
_symmetry_group_IT_number 12
_symmetry_cell_setting 'monoclinic'
loop_
_space_group_symop_operation_xyz
x,y,z
-x,y,-z
-x,-y,-z
x,-y,z
1/2+x,1/2+y,z
1/2-x,1/2+y,-z
1/2-x,1/2-y,-z
1/2+x,1/2-y,z
loop_
_atom_site_type_symbol
_atom_site_label
_atom_site_fract_x
_atom_site_fract_y
_atom_site_fract_z
Si Si1 0.477120 0.831739 0.582028
Si Si2 0.298330 0.155477 0.292010
Si Si3 0.125303 0.605923 0.854462
Si Si4 0.868352 0.601051 0.821742
Si Si5 0.584022 0.354727 0.355225
Si Si6 0.167183 0.860876 0.677538
Si Si7 0.859846 0.398951 0.979336
Si Si8 0.731114 0.646338 0.520117
O O1 0.500000 0.801966 0.500000
O O2 0.590358 0.876498 0.638524
O O3 0.443361 0.747874 0.627921
O O4 0.361063 0.888024 0.553404
O O5 0.307337 0.129759 0.207582
O O6 0.176047 0.134763 0.306516
O O7 0.313994 0.259124 0.301039
O O8 0.125443 0.500000 0.857900
O O9 0.168035 0.639320 0.943857
O O10 0.992310 0.637906 0.820814
O O11 0.892840 0.500000 0.845874
O O12 0.775378 0.598873 0.739516
O O13 0.823258 0.640982 0.892266
O O14 0.457421 0.392184 0.318556
O O15 0.650916 0.390693 0.440391
O O16 0.172098 0.866001 0.588890
O O17 0.818840 0.500000 0.974794
O O18 0.000000 0.398963 0.000000
O O19 0.750000 0.750000 0.500000
#
# Coordination Sequence:
#
# PCOD9168444 Si02
#       8
#     8   8   8   8   8   8   8   8
#     4  10  16  26  44  68  96 125 170 213 243 273
#     4  11  19  29  46  73 104 128 162 203 248 292
#     4   9  18  32  54  78  98 124 161 207 250 291
#     4   9  18  34  55  77  99 124 162 207 250 292
#     4  10  18  28  41  67 100 134 163 199 240 281
#     4  11  20  29  48  76 100 129 170 207 242 290
#     4   7  12  28  53  76  94 119 159 203 245 291
#     4  10  15  29  44  68  96 127 173 210 237 273
#
# _framework density 20.236077999999999
#
# number of rings (size 3 to 8) (size 9 to 14) (size 15 to 20)
#    0.000    2.375    3.750    4.875    1.750    0.000 
#    0.000    1.250    0.000    3.375    0.000    2.625 
#    0.000    0.000    0.000    0.000    0.000    0.000 
#
# Total GULP energy -178164.244090 kJ/mol
# GULP energy per Si atom -5567.632628 kJ/mol
# Density = 2.019002 g / cm^3
# Si number density = 20.236078 Si / 1000 Ang^3
#
#
#
# Elastic Constant Matrix: (Units=GPa)
#
#
# Indices 1 2 3 4 5 6 
#
# 1 113.9947 8.1678 48.3859 0.0000 -26.6591 0.0000
# 2 8.1678 7.9062 8.3346 0.0000 -3.1804 0.0000
# 3 48.3859 8.3346 131.1345 0.0000 -45.7457 0.0000
# 4 0.0000 0.0000 0.0000 17.4628 0.0000 -12.0819
# 5 -26.6591 -3.1804 -45.7457 0.0000 33.4661 0.0000
# 6 0.0000 0.0000 0.0000 -12.0819 0.0000 130.8217
#
#
#
# Elastic Compliance Matrix: (Units=1/GPa)
#
#
# Indices 1 2 3 4 5 6 
#
# 1 0.011446 -0.007670 -0.001547 0.000000 0.006274 0.000000
# 2 -0.007670 0.140783 -0.006847 0.000000 -0.002090 0.000000
# 3 -0.001547 -0.006847 0.015244 0.000000 0.018954 0.000000
# 4 0.000000 0.000000 0.000000 0.061173 0.000000 0.005650
# 5 0.006274 -0.002090 0.018954 0.000000 0.060589 0.000000
# 6 0.000000 0.000000 0.000000 0.005650 0.000000 0.008166
#
#
# Mechanical properties :
#
#
# Convention : Reuss Voigt Hill
#
# Bulk Modulus (GPa) = 7.38848 42.53465 24.96157
# Shear Modulus (GPa) = 13.34601 48.89326 31.11964
#
# Velocity S-wave (km/s) = 2.57089 4.92076 3.92577
# Velocity P-wave (km/s) = 3.53153 7.30411 5.73680
#
# Compressibility (1/GPa) = 0.13534577
#
# Stress axis : x y z
#
# Youngs Moduli (GPa) = 87.36804 7.10312 65.60013
#
# Poissons Ratio (x) = 0.05448 0.10149
# Poissons Ratio (y) = 0.67008 0.44915
# Poissons Ratio (z) = 0.13517 0.04863
#
# Static dielectric constant tensor:
#      x y z
#    x 1.774400 0.000000 0.007820 
#    y 0.000000 1.731430 0.000000 
#    z 0.007820 0.000000 1.859380 
# 
# From -- ./inp_files/263947.got.cif
#   From: 2010.05.17/outbox.cif.g08.bks.cpg/sg12_132_cif.got.tgz:263947.got - 2010.06.03 13:09:07.
