data_PCOD9168031
_publ_section_title
;
Structure prediction by ZEFSAII (Michael W. Deem and Ramdas Pophale) SiO2 
 PCOD9168031
Probable space group: P 21/M
;
_chemical_formula_sum "Si O2"
_cell_formula_units_Z 28
_cell_length_a 15.000000
_cell_length_b 9.000000
_cell_length_c 12.000000
_cell_angle_alpha 90.000000
_cell_angle_beta 60.000000
_cell_angle_gamma 90.000000
_cell_volume 1402.961154
_symmetry_space_group_name_H-M "P 21/M"
_symmetry_group_IT_number 11
_symmetry_cell_setting 'monoclinic'
loop_
_space_group_symop_operation_xyz
x,y,z
-x,1/2+y,-z
-x,-y,-z
x,1/2-y,z
loop_
_atom_site_type_symbol
_atom_site_label
_atom_site_fract_x
_atom_site_fract_y
_atom_site_fract_z
Si Si1 0.878509 0.916703 0.462105
Si Si2 0.446591 0.428600 0.795775
Si Si3 0.113894 0.571985 0.918762
Si Si4 0.645944 0.930032 0.584746
Si Si5 0.680643 0.429434 0.329213
Si Si6 0.076400 0.083349 0.304102
Si Si7 0.246709 0.071298 0.033631
O O1 0.870196 0.750000 0.422624
O O2 0.763367 0.979212 0.536414
O O3 0.910748 0.911780 0.571485
O O4 0.973253 0.994278 0.341231
O O5 0.456553 0.250000 0.779596
O O6 0.558600 0.503133 0.719651
O O7 0.382724 0.497237 0.732079
O O8 0.367957 0.463688 0.946911
O O9 0.102055 0.750000 0.929100
O O10 0.196225 0.538305 0.766561
O O11 0.180145 0.512610 0.981908
O O12 0.000000 0.500000 0.000000
O O13 0.639252 0.750000 0.590441
O O14 0.633892 0.997073 0.468828
O O15 0.668728 0.250000 0.336843
O O16 0.058216 0.250000 0.273860
O O17 0.184575 0.033474 0.184379
O O18 0.240443 0.250000 0.018819
#
# Coordination Sequence:
#
# PCOD9168031 Si02
#       7
#     4   4   4   4   4   4   4
#     4   9  20  36  54  80 108 137 173 217 266 314
#     4  10  20  36  55  77 106 139 178 218 260 314
#     4  10  21  34  50  75 108 140 174 215 257 312
#     4  11  22  35  53  77 108 141 177 218 263 311
#     4  10  21  36  53  75 104 141 180 215 260 309
#     4   9  18  36  59  79 105 137 173 217 266 318
#     4   9  19  35  56  78 102 138 176 215 266 313
#
# _framework density 19.957787
#
# number of rings (size 3 to 8) (size 9 to 14) (size 15 to 20)
#    0.000    2.286    0.000    2.143    2.000    4.000 
#    0.000    0.714    0.000    0.000    0.000    0.000 
#    0.000    0.000    0.000    0.000    0.000    0.000 
#
# Total GULP energy -155992.334890 kJ/mol
# GULP energy per Si atom -5571.154818 kJ/mol
# Density = 1.991236 g / cm^3
# Si number density = 19.957787 Si / 1000 Ang^3
#
#
#
# Elastic Constant Matrix: (Units=GPa)
#
#
# Indices 1 2 3 4 5 6 
#
# 1 52.3621 14.4089 10.6366 0.0000 -37.5762 0.0000
# 2 14.4089 50.8503 32.7238 0.0000 -21.2394 0.0000
# 3 10.6366 32.7238 102.9961 0.0000 -48.5888 0.0000
# 4 0.0000 0.0000 0.0000 23.1463 0.0000 -16.7189
# 5 -37.5762 -21.2394 -48.5888 0.0000 40.6603 0.0000
# 6 0.0000 0.0000 0.0000 -16.7189 0.0000 26.9289
#
#
#
# Elastic Compliance Matrix: (Units=1/GPa)
#
#
# Indices 1 2 3 4 5 6 
#
# 1 -0.117646 0.001161 -0.089909 0.000000 -0.215558 0.000000
# 2 0.001161 0.025925 -0.003351 0.000000 0.010610 0.000000
# 3 -0.089909 -0.003351 -0.045764 0.000000 -0.139528 0.000000
# 4 0.000000 0.000000 0.000000 0.078331 0.000000 0.048632
# 5 -0.215558 0.010610 -0.139528 0.000000 -0.335806 0.000000
# 6 0.000000 0.000000 0.000000 0.048632 0.000000 0.067328
#
#
# Mechanical properties :
#
#
# Convention : Reuss Voigt Hill
#
# Bulk Modulus (GPa) = -3.10863 35.74968 16.32053
# Shear Modulus (GPa) = -19.94739 28.04306 4.04784
#
# Velocity S-wave (km/s) = -3.16488 3.75256 1.42569
# Velocity P-wave (km/s) = 3.86216 6.06029 3.30233
#
# Compressibility (1/GPa) = -0.32168511
#
# Stress axis : x y z
#
# Youngs Moduli (GPa) = -8.50004 38.57278 -21.85142
#
# Poissons Ratio (x) = -0.04477 -1.96465
# Poissons Ratio (y) = 0.00987 -0.07323
# Poissons Ratio (z) = -0.76423 0.12927
#
# Static dielectric constant tensor:
#      x y z
#    x 1.722860 0.000000 -0.014030 
#    y 0.000000 1.704290 0.000000 
#    z -0.014030 0.000000 1.774660 
# 
# From -- ./inp_files/37400.got.cif
#   From: 2010.05.17/outbox.ucp.g08.bks.cvg/sg11_19_cif.got.tgz:37400.got - 2010.06.11 11:38:39.
