data_PCOD9168860
_publ_section_title
;
Structure prediction by ZEFSAII (Michael W. Deem and Ramdas Pophale) SiO2 
 PCOD9168860
Probable space group: C 2/M
;
_chemical_formula_sum "Si O2"
_cell_formula_units_Z 44
_cell_length_a 20.811388
_cell_length_b 8.051268
_cell_length_c 15.413310
_cell_angle_alpha 90.000000
_cell_angle_beta 97.098169
_cell_angle_gamma 90.000000
_cell_volume 2562.830832
_symmetry_space_group_name_H-M "C 2/M"
_symmetry_group_IT_number 12
_symmetry_cell_setting 'monoclinic'
loop_
_space_group_symop_operation_xyz
x,y,z
-x,y,-z
-x,-y,-z
x,-y,z
1/2+x,1/2+y,z
1/2-x,1/2+y,-z
1/2-x,1/2-y,-z
1/2+x,1/2-y,z
loop_
_atom_site_type_symbol
_atom_site_label
_atom_site_fract_x
_atom_site_fract_y
_atom_site_fract_z
Si Si1 0.349023 0.811444 0.957230
Si Si2 0.599792 0.805263 0.731018
Si Si3 0.578242 0.820283 0.522871
Si Si4 0.009048 0.000000 0.757208
Si Si5 0.440313 0.500000 0.560417
Si Si6 0.561546 0.500000 0.073479
Si Si7 0.282140 0.805044 0.131520
O O1 0.397145 0.665900 0.938171
O O2 0.283428 0.796961 0.889518
O O3 0.374789 0.000000 0.956493
O O4 0.325130 0.779069 0.051997
O O5 0.594142 0.789592 0.626227
O O6 0.552777 0.666765 0.763500
O O7 0.671479 0.772023 0.779626
O O8 0.584200 0.000000 0.749887
O O9 0.500000 0.831079 0.500000
O O10 0.598426 0.666580 0.467409
O O11 0.604864 0.000000 0.501820
O O12 0.963322 0.000000 0.832379
O O13 0.969621 0.000000 0.660517
O O14 0.500000 0.500000 0.500000
O O15 0.500000 0.500000 0.000000
O O16 0.263954 0.000000 0.128874
#
# Coordination Sequence:
#
# PCOD9168860 Si02
#       7
#     8   8   8   4   4   4   8
#     4  10  21  38  56  77 106 141 180 222 267 306
#     4  10  19  30  49  82 111 134 175 218 268 320
#     4   9  15  26  44  68 109 135 158 216 268 311
#     4  12  22  32  52  78 112 150 176 207 270 327
#     4  10  16  30  46  70 108 136 174 218 254 313
#     4  12  26  40  54  76 114 152 177 213 256 329
#     4   9  18  34  58  81 105 134 175 233 269 302
#
# _framework density 17.168514999999999
#
# number of rings (size 3 to 8) (size 9 to 14) (size 15 to 20)
#    0.000    2.000    4.545    1.091    2.545    1.091 
#    0.000    0.000    0.000    0.000    0.000    1.273 
#    0.000    0.000    0.000    0.000    0.000    0.000 
#
# Total GULP energy -122596.858833 kJ/mol
# GULP energy per Si atom -5572.584492 kJ/mol
# Density = 1.712944 g / cm^3
# Si number density = 17.168515 Si / 1000 Ang^3
#
#
#
# Elastic Constant Matrix: (Units=GPa)
#
#
# Indices 1 2 3 4 5 6 
#
# 1 55.6805 54.3297 42.2924 0.0000 12.2366 0.0000
# 2 54.3297 142.3909 31.1587 0.0000 0.3789 0.0000
# 3 42.2924 31.1587 98.6982 0.0000 26.8183 0.0000
# 4 0.0000 0.0000 0.0000 20.0471 0.0000 2.6645
# 5 12.2366 0.3789 26.8183 0.0000 23.5402 0.0000
# 6 0.0000 0.0000 0.0000 2.6645 0.0000 23.1850
#
#
#
# Elastic Compliance Matrix: (Units=1/GPa)
#
#
# Indices 1 2 3 4 5 6 
#
# 1 0.041285 -0.013282 -0.011188 0.000000 -0.008501 0.000000
# 2 -0.013282 0.012053 0.000091 0.000000 0.006606 0.000000
# 3 -0.011188 0.000091 0.019288 0.000000 -0.016160 0.000000
# 4 0.000000 0.000000 0.000000 0.050656 0.000000 -0.005822
# 5 -0.008501 0.006606 -0.016160 0.000000 0.065204 0.000000
# 6 0.000000 0.000000 0.000000 -0.005822 0.000000 0.043800
#
#
# Mechanical properties :
#
#
# Convention : Reuss Voigt Hill
#
# Bulk Modulus (GPa) = 41.89467 61.37010 51.63239
# Shear Modulus (GPa) = 17.30105 24.62040 20.96073
#
# Velocity S-wave (km/s) = 3.17790 3.79098 3.49790
# Velocity P-wave (km/s) = 6.15796 7.41522 6.81564
#
# Compressibility (1/GPa) = 0.02386938
#
# Stress axis : x y z
#
# Youngs Moduli (GPa) = 24.22186 82.96649 51.84524
#
# Poissons Ratio (x) = 1.10193 0.58004
# Poissons Ratio (y) = 0.32171 -0.00472
# Poissons Ratio (z) = 0.27099 -0.00755
#
# Static dielectric constant tensor:
#      x y z
#    x 1.671070 0.000000 0.006460 
#    y 0.000000 1.679490 0.000000 
#    z 0.006460 0.000000 1.573230 
# 
# From -- ./inp_files/221099.got.cif
#   From: 2010.05.17/outbox.cif.g08.bks.cpg/sg12_111_cif.got.tgz:221099.got - 2010.06.03 13:09:07.
