data_PCOD9168540
_publ_section_title
;
Structure prediction by ZEFSAII (Michael W. Deem and Ramdas Pophale) SiO2 
 PCOD9168540
Probable space group: C 2/M
;
_chemical_formula_sum "Si O2"
_cell_formula_units_Z 48
_cell_length_a 12.883337
_cell_length_b 18.820318
_cell_length_c 8.849289
_cell_angle_alpha 90.000000
_cell_angle_beta 86.802387
_cell_angle_gamma 90.000000
_cell_volume 2142.333200
_symmetry_space_group_name_H-M "C 2/M"
_symmetry_group_IT_number 12
_symmetry_cell_setting 'monoclinic'
loop_
_space_group_symop_operation_xyz
x,y,z
-x,y,-z
-x,-y,-z
x,-y,z
1/2+x,1/2+y,z
1/2-x,1/2+y,-z
1/2-x,1/2-y,-z
1/2+x,1/2-y,z
loop_
_atom_site_type_symbol
_atom_site_label
_atom_site_fract_x
_atom_site_fract_y
_atom_site_fract_z
Si Si1 0.885454 0.160076 0.202187
Si Si2 0.922661 0.678350 0.149111
Si Si3 0.269939 0.081205 0.984448
Si Si4 0.068613 0.420130 0.312296
Si Si5 0.739154 0.416037 0.523165
Si Si6 0.561873 0.581261 0.333622
O O1 0.881194 0.244297 0.192003
O O2 0.832566 0.121562 0.063976
O O3 0.818242 0.132612 0.349812
O O4 0.002049 0.133528 0.227150
O O5 0.989145 0.640830 0.274380
O O6 0.832971 0.625386 0.102119
O O7 0.000000 0.687282 0.000000
O O8 0.347881 0.078553 0.832837
O O9 0.249246 0.000000 0.030671
O O10 0.022884 0.500000 0.320292
O O11 0.138698 0.407445 0.455246
O O12 0.717829 0.500000 0.558211
O O13 0.680534 0.402253 0.370432
O O14 0.500000 0.583954 0.500000
O O15 0.553200 0.500000 0.280328
#
# Coordination Sequence:
#
# PCOD9168540 Si02
#       6
#     8   8   8   8   8   8
#     4  10  16  24  39  61  84 102 123 157 200 236
#     4  10  19  27  36  56  86 111 128 152 191 234
#     4   9  16  27  43  57  71 100 139 171 193 217
#     4   8  14  26  42  58  77 101 129 162 197 229
#     4   8  14  26  46  65  77  95 127 166 199 227
#     4   8  13  23  41  62  79  96 124 163 199 228
#
# _framework density 22.405477999999999
#
# number of rings (size 3 to 8) (size 9 to 14) (size 15 to 20)
#    0.000    3.167    0.000    4.500    0.000    2.000 
#    0.000    0.833    0.000    4.500    0.000    0.000 
#    0.000   24.000    0.000    0.000    0.000    0.500 
#
# Total GULP energy -134046.591601 kJ/mol
# GULP energy per Si atom -5585.274650 kJ/mol
# Density = 2.235448 g / cm^3
# Si number density = 22.405478 Si / 1000 Ang^3
#
#
#
# Elastic Constant Matrix: (Units=GPa)
#
#
# Indices 1 2 3 4 5 6 
#
# 1 61.4830 92.2283 80.3172 0.0000 38.2346 0.0000
# 2 92.2283 174.8684 42.2027 0.0000 43.1619 0.0000
# 3 80.3172 42.2027 19.7183 0.0000 9.5531 0.0000
# 4 0.0000 0.0000 0.0000 3.2704 0.0000 2.9851
# 5 38.2346 43.1619 9.5531 0.0000 73.5742 0.0000
# 6 0.0000 0.0000 0.0000 2.9851 0.0000 13.7972
#
#
#
# Elastic Compliance Matrix: (Units=1/GPa)
#
#
# Indices 1 2 3 4 5 6 
#
# 1 -0.002877 -0.002966 0.017607 0.000000 0.000949 0.000000
# 2 -0.002966 0.009919 -0.007550 0.000000 -0.003297 0.000000
# 3 0.017607 -0.007550 -0.002731 0.000000 -0.004367 0.000000
# 4 0.000000 0.000000 0.000000 0.381016 0.000000 -0.082436
# 5 0.000949 -0.003297 -0.004367 0.000000 0.015600 0.000000
# 6 0.000000 0.000000 0.000000 -0.082436 0.000000 0.090314
#
#
# Mechanical properties :
#
#
# Convention : Reuss Voigt Hill
#
# Bulk Modulus (GPa) = 54.07069 76.17400 65.12234
# Shear Modulus (GPa) = 10.34718 20.88313 15.61515
#
# Velocity S-wave (km/s) = 2.15132 3.05627 2.64282
# Velocity P-wave (km/s) = 5.50964 6.82101 6.20009
#
# Compressibility (1/GPa) = 0.01849431
#
# Stress axis : x y z
#
# Youngs Moduli (GPa) = -347.59077 100.81819 -366.22998
#
# Poissons Ratio (x) = 0.29905 6.44832
# Poissons Ratio (y) = -1.03104 -2.76489
# Poissons Ratio (z) = 6.12013 0.76114
#
# Static dielectric constant tensor:
#      x y z
#    x 1.892620 0.000000 -0.024940 
#    y 0.000000 1.735210 0.000000 
#    z -0.024940 0.000000 1.865200 
# 
# From -- ./inp_files/143100.got.cif
#   From: 2010.05.17/outbox.cif.g08.bks.cpg/sg12_72_cif.got.tgz:143100.got - 2010.06.03 13:09:07.
