data_PCOD9168798
_publ_section_title
;
Structure prediction by ZEFSAII (Michael W. Deem and Ramdas Pophale) SiO2 
 PCOD9168798
Probable space group: C 2/M
;
_chemical_formula_sum "Si O2"
_cell_formula_units_Z 36
_cell_length_a 21.622648
_cell_length_b 14.781375
_cell_length_c 8.915488
_cell_angle_alpha 90.000000
_cell_angle_beta 138.675040
_cell_angle_gamma 90.000000
_cell_volume 1881.607893
_symmetry_space_group_name_H-M "C 2/M"
_symmetry_group_IT_number 12
_symmetry_cell_setting 'monoclinic'
loop_
_space_group_symop_operation_xyz
x,y,z
-x,y,-z
-x,-y,-z
x,-y,z
1/2+x,1/2+y,z
1/2-x,1/2+y,-z
1/2-x,1/2-y,-z
1/2+x,1/2-y,z
loop_
_atom_site_type_symbol
_atom_site_label
_atom_site_fract_x
_atom_site_fract_y
_atom_site_fract_z
Si Si1 0.684201 0.690671 0.163684
Si Si2 0.265378 0.000000 0.236038
Si Si3 0.625945 0.205071 0.334742
Si Si4 0.095625 0.500000 0.772189
Si Si5 0.454774 0.192575 0.251595
Si Si6 0.605648 0.000000 0.253164
O O1 0.703931 0.586827 0.163227
O O2 0.626866 0.718872 0.208501
O O3 0.787816 0.725214 0.396295
O O4 0.628496 0.737218 0.927936
O O5 0.310163 0.000000 0.153693
O O6 0.360707 0.000000 0.511086
O O7 0.534357 0.202261 0.270351
O O8 0.639922 0.104604 0.283752
O O9 0.088457 0.592890 0.846798
O O10 0.000000 0.500000 0.500000
O O11 0.500000 0.200038 0.500000
O O12 0.500000 0.000000 0.000000
#
# Coordination Sequence:
#
# PCOD9168798 Si02
#       6
#     8   4   8   4   8   4
#     4  10  21  38  57  80 115 153 190 234 277 335
#     4  10  22  38  54  79 116 157 191 225 279 336
#     4  10  21  35  56  86 116 147 186 233 290 342
#     4  10  20  34  57  87 114 138 176 239 302 339
#     4  11  21  35  59  87 113 148 187 235 293 341
#     4  10  16  28  54  82 109 133 172 236 288 329
#
# _framework density 19.132573000000001
#
# number of rings (size 3 to 8) (size 9 to 14) (size 15 to 20)
#    0.000    1.778    0.000    8.000    0.000    4.444 
#    0.000    3.889    0.000    0.000    0.000    0.000 
#    0.000    0.000    0.000    0.000    0.000    0.000 
#
# Total GULP energy -100234.955734 kJ/mol
# GULP energy per Si atom -5568.608652 kJ/mol
# Density = 1.908903 g / cm^3
# Si number density = 19.132573 Si / 1000 Ang^3
#
#
#
# Elastic Constant Matrix: (Units=GPa)
#
#
# Indices 1 2 3 4 5 6 
#
# 1 121.5123 75.0120 25.8494 0.0000 6.8608 0.0000
# 2 75.0120 110.7738 62.0406 0.0000 12.7688 0.0000
# 3 25.8494 62.0406 125.4705 0.0000 -1.8841 0.0000
# 4 0.0000 0.0000 0.0000 12.2481 0.0000 -0.9629
# 5 6.8608 12.7688 -1.8841 0.0000 14.1420 0.0000
# 6 0.0000 0.0000 0.0000 -0.9629 0.0000 28.0386
#
#
#
# Elastic Compliance Matrix: (Units=1/GPa)
#
#
# Indices 1 2 3 4 5 6 
#
# 1 0.014957 -0.012359 0.003094 0.000000 0.004315 0.000000
# 2 -0.012359 0.025182 -0.010177 0.000000 -0.018098 0.000000
# 3 0.003094 -0.010177 0.012505 0.000000 0.009354 0.000000
# 4 0.000000 0.000000 0.000000 0.081867 0.000000 0.002811
# 5 0.004315 -0.018098 0.009354 0.000000 0.086205 0.000000
# 6 0.000000 0.000000 0.000000 0.002811 0.000000 0.035762
#
#
# Mechanical properties :
#
#
# Convention : Reuss Voigt Hill
#
# Bulk Modulus (GPa) = 72.66866 75.95118 74.30992
# Shear Modulus (GPa) = 16.66954 23.87603 20.27278
#
# Velocity S-wave (km/s) = 2.95492 3.53643 3.25867
# Velocity P-wave (km/s) = 7.05026 7.51390 7.28577
#
# Compressibility (1/GPa) = 0.01376109
#
# Stress axis : x y z
#
# Youngs Moduli (GPa) = 66.85818 39.71029 79.96584
#
# Poissons Ratio (x) = 0.49077 -0.24744
# Poissons Ratio (y) = 0.82628 0.81384
# Poissons Ratio (z) = -0.20688 0.40415
#
# Static dielectric constant tensor:
#      x y z
#    x 1.699560 0.000000 -0.036540 
#    y 0.000000 1.723620 0.000000 
#    z -0.036540 0.000000 1.692540 
# 
# From -- ./inp_files/86468.got.cif
#   From: 2010.05.17/outbox.cif.g08.bks.cpg/sg12_44_cif.got.tgz:86468.got - 2010.06.03 13:09:07.
