data_PCOD9168766
_publ_section_title
;
Structure prediction by ZEFSAII (Michael W. Deem and Ramdas Pophale) SiO2 
 PCOD9168766
Probable space group: C 2/M
;
_chemical_formula_sum "Si O2"
_cell_formula_units_Z 48
_cell_length_a 20.905433
_cell_length_b 28.186829
_cell_length_c 10.445758
_cell_angle_alpha 90.000000
_cell_angle_beta 27.852162
_cell_angle_gamma 90.000000
_cell_volume 2875.679823
_symmetry_space_group_name_H-M "C 2/M"
_symmetry_group_IT_number 12
_symmetry_cell_setting 'monoclinic'
loop_
_space_group_symop_operation_xyz
x,y,z
-x,y,-z
-x,-y,-z
x,-y,z
1/2+x,1/2+y,z
1/2-x,1/2+y,-z
1/2-x,1/2-y,-z
1/2+x,1/2-y,z
loop_
_atom_site_type_symbol
_atom_site_label
_atom_site_fract_x
_atom_site_fract_y
_atom_site_fract_z
Si Si1 0.150636 0.187128 0.273262
Si Si2 0.307272 0.899124 0.096093
Si Si3 0.635106 0.881769 0.507872
Si Si4 0.665406 0.945986 0.689818
Si Si5 0.834047 0.553328 0.783078
Si Si6 0.359118 0.796365 0.673619
O O1 0.225219 0.149829 0.232364
O O2 0.138938 0.240011 0.352319
O O3 0.000000 0.170858 0.500000
O O4 0.240284 0.192359 0.985557
O O5 0.276413 0.929577 0.276586
O O6 0.470390 0.888592 0.807050
O O7 0.279462 0.927341 0.014032
O O8 0.692851 0.906094 0.533763
O O9 0.693065 0.911958 0.286200
O O10 0.656608 0.827575 0.426094
O O11 0.706663 0.000000 0.581781
O O12 0.500000 0.947455 0.000000
O O13 0.787099 0.500000 0.840836
O O14 0.000000 0.552149 0.500000
O O15 0.500000 0.809451 0.500000
#
# Coordination Sequence:
#
# PCOD9168766 Si02
#       6
#     8   8   8   8   8   8
#     4  10  20  30  50  76 103 131 166 207 252 299
#     4  10  17  30  46  71 103 132 160 201 258 297
#     4  10  16  28  48  73 100 128 164 206 250 293
#     4   9  18  29  46  74 106 133 160 204 257 300
#     4   9  15  23  42  69  93 118 159 207 242 282
#     4  10  17  32  51  76 101 128 167 212 253 289
#
# _framework density 16.691706
#
# number of rings (size 3 to 8) (size 9 to 14) (size 15 to 20)
#    0.000    2.333    3.333    1.500    0.000    4.000 
#    0.000    0.833    0.000    3.000    0.000    1.167 
#    0.000    0.000    0.000    0.000    0.000    0.000 
#
# Total GULP energy -133668.364766 kJ/mol
# GULP energy per Si atom -5569.515199 kJ/mol
# Density = 1.665372 g / cm^3
# Si number density = 16.691706 Si / 1000 Ang^3
#
#
#
# Elastic Constant Matrix: (Units=GPa)
#
#
# Indices 1 2 3 4 5 6 
#
# 1 71.6233 42.4317 26.8749 -0.0003 20.7428 0.0003
# 2 42.4317 103.0125 15.5768 0.0001 14.3995 0.0000
# 3 26.8749 15.5768 39.3180 -0.0013 4.1688 0.0003
# 4 -0.0003 0.0001 -0.0013 13.3497 0.0007 1.9774
# 5 20.7428 14.3995 4.1688 0.0007 19.3774 -0.0003
# 6 0.0003 0.0000 0.0003 1.9774 -0.0003 24.7870
#
#
#
# Elastic Compliance Matrix: (Units=1/GPa)
#
#
# Indices 1 2 3 4 5 6 
#
# 1 0.031318 -0.007004 -0.015994 0.000001 -0.024879 -0.000001
# 2 -0.007004 0.012897 -0.000103 0.000000 -0.002064 0.000000
# 3 -0.015994 -0.000103 0.035391 0.000003 0.009584 0.000000
# 4 0.000001 0.000000 0.000003 0.075804 -0.000004 -0.006047
# 5 -0.024879 -0.002064 0.009584 -0.000004 0.077710 0.000001
# 6 -0.000001 0.000000 0.000000 -0.006047 0.000001 0.040826
#
#
# Mechanical properties :
#
#
# Convention : Reuss Voigt Hill
#
# Bulk Modulus (GPa) = 29.93723 42.63560 36.28642
# Shear Modulus (GPa) = 15.09288 20.10751 17.60019
#
# Velocity S-wave (km/s) = 3.01028 3.47456 3.25072
# Velocity P-wave (km/s) = 5.48240 6.45718 5.98965
#
# Compressibility (1/GPa) = 0.03340322
#
# Stress axis : x y z
#
# Youngs Moduli (GPa) = 31.93073 77.53957 28.25606
#
# Poissons Ratio (x) = 0.54308 0.45192
# Poissons Ratio (y) = 0.22364 0.00291
# Poissons Ratio (z) = 0.51070 0.00800
#
# Static dielectric constant tensor:
#      x y z
#    x 1.552460 0.000000 0.001040 
#    y 0.000000 1.596960 0.000000 
#    z 0.001040 0.000000 1.563770 
# 
# From -- ./inp_files/67419.got.cif
#   From: 2010.05.17/outbox.cif.g08.bks.cpg/sg12_34_cif.got.tgz:67419.got - 2010.06.03 13:09:07.
