data_PCOD9168944
_publ_section_title
;
Structure prediction by ZEFSAII (Michael W. Deem and Ramdas Pophale) SiO2 
 PCOD9168944
Probable space group: C 2/M
;
_chemical_formula_sum "Si O2"
_cell_formula_units_Z 56
_cell_length_a 16.478202
_cell_length_b 16.327365
_cell_length_c 19.607293
_cell_angle_alpha 90.000000
_cell_angle_beta 32.712178
_cell_angle_gamma 90.000000
_cell_volume 2850.849608
_symmetry_space_group_name_H-M "C 2/M"
_symmetry_group_IT_number 12
_symmetry_cell_setting 'monoclinic'
loop_
_space_group_symop_operation_xyz
x,y,z
-x,y,-z
-x,-y,-z
x,-y,z
1/2+x,1/2+y,z
1/2-x,1/2+y,-z
1/2-x,1/2-y,-z
1/2+x,1/2-y,z
loop_
_atom_site_type_symbol
_atom_site_label
_atom_site_fract_x
_atom_site_fract_y
_atom_site_fract_z
Si Si1 0.180271 0.326024 0.091422
Si Si2 0.440838 0.306024 0.729452
Si Si3 0.819303 0.747058 0.526953
Si Si4 0.004226 0.849580 0.078099
Si Si5 0.096713 0.326799 0.792492
Si Si6 0.177282 0.408079 0.863218
Si Si7 0.164302 0.905214 0.673153
O O1 0.088682 0.282298 0.216641
O O2 0.053379 0.366495 0.134010
O O3 0.250000 0.250000 0.000000
O O4 0.326800 0.370263 0.015920
O O5 0.522664 0.290521 0.599306
O O6 0.280423 0.347134 0.832059
O O7 0.538333 0.361931 0.712877
O O8 0.750000 0.750000 0.500000
O O9 0.709131 0.794768 0.655222
O O10 0.809120 0.653051 0.558998
O O11 0.960531 0.754068 0.125224
O O12 0.893561 0.896848 0.208071
O O13 0.000000 0.863384 0.000000
O O14 0.187899 0.386433 0.776457
O O15 0.223774 0.500000 0.846333
O O16 0.000000 0.399344 0.000000
O O17 0.184768 0.000000 0.640960
#
# Coordination Sequence:
#
# PCOD9168944 Si02
#       7
#     8   8   8   8   8   8   8
#     4  10  16  30  57  82 109 147 198 244 275 336
#     4  11  19  37  60  85 115 158 205 235 281 355
#     4   9  18  36  59  81 109 148 206 243 276 339
#     4  10  19  32  54  85 114 152 200 247 292 338
#     4  10  18  35  54  80 117 151 202 241 279 340
#     4  11  24  37  55  89 130 158 184 236 304 358
#     4  10  20  35  58  85 116 150 191 248 306 347
#
# _framework density 19.643267000000002
#
# number of rings (size 3 to 8) (size 9 to 14) (size 15 to 20)
#    0.000    1.857    5.714    3.429    0.000    0.857 
#    0.000    4.286    0.000    0.857    0.000   13.000 
#    0.000    0.571    0.000    0.000    0.000    0.000 
#
# Total GULP energy -156011.621714 kJ/mol
# GULP energy per Si atom -5571.843633 kJ/mol
# Density = 1.959856 g / cm^3
# Si number density = 19.643267 Si / 1000 Ang^3
#
#
#
# Elastic Constant Matrix: (Units=GPa)
#
#
# Indices 1 2 3 4 5 6 
#
# 1 56.4531 0.3852 14.9144 0.0012 10.9642 -0.0007
# 2 0.3852 44.5823 22.3853 0.0024 3.8665 -0.0014
# 3 14.9144 22.3853 92.9109 0.0022 23.1285 -0.0015
# 4 0.0012 0.0024 0.0022 12.3125 -0.0016 0.1190
# 5 10.9642 3.8665 23.1285 -0.0016 28.5030 0.0009
# 6 -0.0007 -0.0014 -0.0015 0.1190 0.0009 15.5028
#
#
#
# Elastic Compliance Matrix: (Units=1/GPa)
#
#
# Indices 1 2 3 4 5 6 
#
# 1 0.019393 0.001323 -0.001917 -0.000003 -0.006083 0.000001
# 2 0.001323 0.025691 -0.006777 -0.000004 0.001505 0.000002
# 3 -0.001917 -0.006777 0.015402 -0.000003 -0.010841 0.000001
# 4 -0.000003 -0.000004 -0.000003 0.081224 0.000008 -0.000623
# 5 -0.006083 0.001505 -0.010841 0.000008 0.046017 -0.000004
# 6 0.000001 0.000002 0.000001 -0.000623 -0.000004 0.064509
#
#
# Mechanical properties :
#
#
# Convention : Reuss Voigt Hill
#
# Bulk Modulus (GPa) = 21.86104 29.92399 25.89251
# Shear Modulus (GPa) = 17.71618 21.68107 19.69863
#
# Velocity S-wave (km/s) = 3.00642 3.32586 3.17017
# Velocity P-wave (km/s) = 4.81711 5.47862 5.15848
#
# Compressibility (1/GPa) = 0.04574349
#
# Stress axis : x y z
#
# Youngs Moduli (GPa) = 51.56541 38.92376 64.92538
#
# Poissons Ratio (x) = -0.05149 0.12448
# Poissons Ratio (y) = -0.06821 0.43999
# Poissons Ratio (z) = 0.09887 0.26378
#
# Static dielectric constant tensor:
#      x y z
#    x 1.741460 0.000000 -0.002210 
#    y 0.000000 1.704720 0.000000 
#    z -0.002210 0.000000 1.793000 
# 
# From -- ./inp_files/271379.got.cif
#   From: 2010.05.17/outbox.cif.g08.bks.cpg/sg12_136_cif.got.tgz:271379.got - 2010.06.03 13:09:07.
