data_PCOD9168231
_publ_section_title
;
Structure prediction by ZEFSAII (Michael W. Deem and Ramdas Pophale) SiO2 
 PCOD9168231
Probable space group: P 21/M
;
_chemical_formula_sum "Si O2"
_cell_formula_units_Z 32
_cell_length_a 21.000000
_cell_length_b 9.000000
_cell_length_c 27.000000
_cell_angle_alpha 90.000000
_cell_angle_beta 20.000000
_cell_angle_gamma 90.000000
_cell_volume 1745.328791
_symmetry_space_group_name_H-M "P 21/M"
_symmetry_group_IT_number 11
_symmetry_cell_setting 'monoclinic'
loop_
_space_group_symop_operation_xyz
x,y,z
-x,1/2+y,-z
-x,-y,-z
x,1/2-y,z
loop_
_atom_site_type_symbol
_atom_site_label
_atom_site_fract_x
_atom_site_fract_y
_atom_site_fract_z
Si Si1 0.246347 0.572253 0.163333
Si Si2 0.400595 0.927031 0.147272
Si Si3 0.399742 0.072325 0.792599
Si Si4 0.608632 0.571437 0.087621
Si Si5 0.009958 0.929046 0.047621
Si Si6 0.620563 0.575177 0.544714
Si Si7 0.643000 0.074860 0.356742
Si Si8 0.029138 0.926199 0.226002
O O1 0.292166 0.750000 0.127455
O O2 0.238248 0.528615 0.227240
O O3 0.077266 0.551432 0.249211
O O4 0.412010 0.476110 0.018401
O O5 0.386611 0.750000 0.161612
O O6 0.446037 0.983630 0.169014
O O7 0.372555 0.250000 0.806107
O O8 0.553536 0.014902 0.641513
O O9 0.444157 0.041127 0.817426
O O10 0.207536 0.985659 0.923233
O O11 0.627677 0.750000 0.068657
O O12 0.807473 0.503227 0.925134
O O13 0.001443 0.750000 0.051367
O O14 0.839971 0.991565 0.205411
O O15 0.000000 0.000000 0.000000
O O16 0.644450 0.750000 0.540182
O O17 0.459318 0.565301 0.621640
O O18 0.815339 0.524174 0.377490
O O19 0.670576 0.250000 0.348300
O O20 0.500000 0.000000 0.500000
O O21 0.039343 0.750000 0.207644
#
# Coordination Sequence:
#
# PCOD9168231 Si02
#       8
#     4   4   4   4   4   4   4   4
#     4   8  13  23  43  70  99 133 169 209 258 310
#     4   8  13  24  43  68 101 134 166 210 260 306
#     4  11  23  38  57  80 106 142 183 221 264 319
#     4   9  19  33  50  78 108 136 175 219 263 313
#     4  12  24  41  63  85 109 140 179 223 268 321
#     4  10  22  39  56  76 106 143 179 218 266 319
#     4  11  24  41  60  85 113 143 179 222 269 318
#     4   9  18  32  51  78 107 136 176 219 264 318
#
# _framework density 18.334654
#
# number of rings (size 3 to 8) (size 9 to 14) (size 15 to 20)
#    0.000    2.250    1.250    1.875    1.750    2.000 
#    0.000    0.000    0.000    0.750    0.000    0.000 
#    0.000    0.000    0.000    0.000    0.000    0.125 
#
# Total GULP energy -178244.725729 kJ/mol
# GULP energy per Si atom -5570.147679 kJ/mol
# Density = 1.829292 g / cm^3
# Si number density = 18.334654 Si / 1000 Ang^3
#
#
#
# Elastic Constant Matrix: (Units=GPa)
#
#
# Indices 1 2 3 4 5 6 
#
# 1 60.2128 16.0878 -10.2405 0.0000 23.4742 0.0000
# 2 16.0878 61.7656 13.2975 0.0000 18.1978 0.0000
# 3 -10.2405 13.2975 38.4610 0.0000 21.5457 0.0000
# 4 0.0000 0.0000 0.0000 28.8489 0.0000 5.1237
# 5 23.4742 18.1978 21.5457 0.0000 26.8874 0.0000
# 6 0.0000 0.0000 0.0000 5.1237 0.0000 21.6526
#
#
#
# Elastic Compliance Matrix: (Units=1/GPa)
#
#
# Indices 1 2 3 4 5 6 
#
# 1 -6.715339 -0.212347 -9.217031 0.000000 13.392505 0.000000
# 2 -0.212347 0.013540 -0.290226 0.000000 0.408795 0.000000
# 3 -9.217031 -0.290226-12.603436 0.000000 18.342972 0.000000
# 4 0.000000 0.000000 0.000000 0.036184 0.000000 -0.008562
# 5 13.392505 0.408795 18.342972 0.000000-26.630735 0.000000
# 6 0.000000 0.000000 0.000000 -0.008562 0.000000 0.048210
#
#
# Mechanical properties :
#
#
# Convention : Reuss Voigt Hill
#
# Bulk Modulus (GPa) = -0.02581 22.08099 11.02759
# Shear Modulus (GPa) = -0.12714 24.89741 12.38514
#
# Velocity S-wave (km/s) = -0.26362 3.68903 2.60187
# Velocity P-wave (km/s) = 0.32675 5.49679 3.87994
#
# Compressibility (1/GPa) = -38.74444502
#
# Stress axis : x y z
#
# Youngs Moduli (GPa) = -0.14891 73.85495 -0.07934
#
# Poissons Ratio (x) = 15.68291 -0.73131
# Poissons Ratio (y) = -0.03162 -0.02303
# Poissons Ratio (z) = -1.37253 21.43464
#
# Static dielectric constant tensor:
#      x y z
#    x 1.724560 0.000000 -0.024120 
#    y 0.000000 1.626620 0.000000 
#    z -0.024120 0.000000 1.587020 
# 
# From -- ./inp_files/72033.got.cif
#   From: 2010.05.17/outbox.ucp.g08.bks.cvg/sg11_37_cif.got.tgz:72033.got - 2010.06.11 11:38:39.
