data_PCOD9168148
_publ_section_title
;
Structure prediction by ZEFSAII (Michael W. Deem and Ramdas Pophale) SiO2 
 PCOD9168148
Probable space group: P 21/M
;
_chemical_formula_sum "Si O2"
_cell_formula_units_Z 28
_cell_length_a 15.000000
_cell_length_b 9.000000
_cell_length_c 21.000000
_cell_angle_alpha 90.000000
_cell_angle_beta 150.000000
_cell_angle_gamma 90.000000
_cell_volume 1417.500000
_symmetry_space_group_name_H-M "P 21/M"
_symmetry_group_IT_number 11
_symmetry_cell_setting 'monoclinic'
loop_
_space_group_symop_operation_xyz
x,y,z
-x,1/2+y,-z
-x,-y,-z
x,1/2-y,z
loop_
_atom_site_type_symbol
_atom_site_label
_atom_site_fract_x
_atom_site_fract_y
_atom_site_fract_z
Si Si1 0.341052 0.075119 0.742095
Si Si2 0.857656 0.569684 0.257002
Si Si3 0.254303 0.923154 0.054941
Si Si4 0.315700 0.072730 0.365590
Si Si5 0.036726 0.427455 0.812273
Si Si6 0.369803 0.427768 0.252939
Si Si7 0.236954 0.571812 0.548735
O O1 0.294965 0.250000 0.709417
O O2 0.281614 0.020086 0.775108
O O3 0.549935 0.061855 0.855907
O O4 0.244788 0.991201 0.624900
O O5 0.848767 0.750000 0.250762
O O6 0.846581 0.522266 0.176685
O O7 0.055221 0.524757 0.402455
O O8 0.202800 0.750000 0.022545
O O9 0.268504 0.984669 0.135023
O O10 0.125454 0.019140 0.931972
O O11 0.319137 0.250000 0.375930
O O12 0.298404 0.041684 0.279198
O O13 0.500000 0.000000 0.500000
O O14 0.157257 0.000827 0.307773
O O15 0.019228 0.250000 0.799368
O O16 0.357304 0.250000 0.234010
O O17 0.579898 0.469684 0.374500
O O18 0.234427 0.750000 0.550124
#
# Coordination Sequence:
#
# PCOD9168148 Si02
#       7
#     4   4   4   4   4   4   4
#     4   9  18  33  53  78 109 143 180 224 274 326
#     4   9  18  33  53  77 108 147 184 222 273 328
#     4  10  21  37  56  81 111 142 183 234 280 323
#     4  11  23  40  62  88 116 144 178 221 271 326
#     4  11  23  39  58  79 108 148 189 228 272 325
#     4   9  19  36  58  81 108 146 184 220 268 329
#     4   9  16  30  53  80 108 137 176 221 267 326
#
# _framework density 19.753086
#
# number of rings (size 3 to 8) (size 9 to 14) (size 15 to 20)
#    0.000    2.286    0.000    2.571    0.000    5.143 
#    0.000    5.714    0.000    0.000    0.000    0.000 
#    0.000    0.000    0.000    0.000    0.000    0.000 
#
# Total GULP energy -156289.189868 kJ/mol
# GULP energy per Si atom -5581.756781 kJ/mol
# Density = 1.970813 g / cm^3
# Si number density = 19.753086 Si / 1000 Ang^3
#
#
#
# Elastic Constant Matrix: (Units=GPa)
#
#
# Indices 1 2 3 4 5 6 
#
# 1 94.6887 30.1369 -1.7075 0.0000 -16.0232 0.0000
# 2 30.1369 36.4739 17.6966 0.0000 -8.1248 0.0000
# 3 -1.7075 17.6966 26.7001 0.0000 -17.5302 0.0000
# 4 0.0000 0.0000 0.0000 25.4846 0.0000 -2.0480
# 5 -16.0232 -8.1248 -17.5302 0.0000 13.9183 0.0000
# 6 0.0000 0.0000 0.0000 -2.0480 0.0000 28.2411
#
#
#
# Elastic Compliance Matrix: (Units=1/GPa)
#
#
# Indices 1 2 3 4 5 6 
#
# 1 -0.005330 0.015207 -0.049811 0.000000 -0.059997 0.000000
# 2 0.015207 0.007435 0.060028 0.000000 0.097453 0.000000
# 3 -0.049811 0.060028 -0.116505 0.000000 -0.169042 0.000000
# 4 0.000000 0.000000 0.000000 0.039469 0.000000 0.002862
# 5 -0.059997 0.097453 -0.169042 0.000000 -0.153244 0.000000
# 6 0.000000 0.000000 0.000000 0.002862 0.000000 0.035617
#
#
# Mechanical properties :
#
#
# Convention : Reuss Voigt Hill
#
# Bulk Modulus (GPa) = -15.73530 27.79054 6.02762
# Shear Modulus (GPa) = -18.89731 20.97791 1.04030
#
# Velocity S-wave (km/s) = -3.09637 3.26238 0.72649
# Velocity P-wave (km/s) = 4.55705 5.31887 1.93954
#
# Compressibility (1/GPa) = -0.06355138
#
# Stress axis : x y z
#
# Youngs Moduli (GPa) = -187.61920 134.49056 -8.58335
#
# Poissons Ratio (x) = -2.04520 -0.42755
# Poissons Ratio (y) = 2.85313 0.51524
# Poissons Ratio (z) = -9.34559 -8.07324
#
# Static dielectric constant tensor:
#      x y z
#    x 1.702120 0.000000 0.028360 
#    y 0.000000 1.666930 0.000000 
#    z 0.028360 0.000000 1.765080 
# 
# From -- ./inp_files/37801.got.cif
#   From: 2010.05.17/outbox.ucp.g08.bks.cvg/sg11_19_cif.got.tgz:37801.got - 2010.06.11 11:38:39.
