data_PCOD9168882
_publ_section_title
;
Structure prediction by ZEFSAII (Michael W. Deem and Ramdas Pophale) SiO2 
 PCOD9168882
Probable space group: C 2/M
;
_chemical_formula_sum "Si O2"
_cell_formula_units_Z 48
_cell_length_a 16.354862
_cell_length_b 14.962031
_cell_length_c 12.196577
_cell_angle_alpha 90.000000
_cell_angle_beta 129.340188
_cell_angle_gamma 90.000000
_cell_volume 2308.219904
_symmetry_space_group_name_H-M "C 2/M"
_symmetry_group_IT_number 12
_symmetry_cell_setting 'monoclinic'
loop_
_space_group_symop_operation_xyz
x,y,z
-x,y,-z
-x,-y,-z
x,-y,z
1/2+x,1/2+y,z
1/2-x,1/2+y,-z
1/2-x,1/2-y,-z
1/2+x,1/2-y,z
loop_
_atom_site_type_symbol
_atom_site_label
_atom_site_fract_x
_atom_site_fract_y
_atom_site_fract_z
Si Si1 0.881316 0.831046 0.526088
Si Si2 0.888779 0.596616 0.339139
Si Si3 0.300349 0.869485 0.484136
Si Si4 0.669804 0.891694 0.074937
Si Si5 0.446670 0.897504 0.807026
Si Si6 0.881730 0.198328 0.271959
O O1 0.805068 0.889470 0.537019
O O2 0.826357 0.734444 0.488306
O O3 0.881929 0.844748 0.395922
O O4 0.001333 0.826136 0.671064
O O5 0.886112 0.500000 0.276241
O O6 0.804268 0.592781 0.366073
O O7 0.875884 0.693480 0.273131
O O8 0.000000 0.601511 0.500000
O O9 0.396640 0.896256 0.645389
O O10 0.635018 0.862442 0.170075
O O11 0.777180 0.843479 0.130617
O O12 0.685260 0.000000 0.083781
O O13 0.565503 0.862204 0.918624
O O14 0.458658 0.000000 0.849976
#
# Coordination Sequence:
#
# PCOD9168882 Si02
#       6
#     8   8   8   8   8   8
#     4   9  18  27  48  72 101 127 158 198 246 304
#     4  10  19  31  50  74 100 131 163 207 254 286
#     4  10  16  30  48  74 100 125 160 206 246 291
#     4   9  18  31  48  70 101 132 161 197 242 295
#     4   9  17  29  47  73  97 124 164 203 240 287
#     4  10  16  34  48  71 105 131 161 199 250 300
#
# _framework density 20.795245000000001
#
# number of rings (size 3 to 8) (size 9 to 14) (size 15 to 20)
#    0.000    2.500    5.000    1.500    0.000    0.000 
#    0.000    4.167    0.000    0.000    0.000    2.333 
#    0.000    0.000    0.000    0.000    0.000    0.000 
#
# Total GULP energy -133643.283053 kJ/mol
# GULP energy per Si atom -5568.470127 kJ/mol
# Density = 2.074791 g / cm^3
# Si number density = 20.795245 Si / 1000 Ang^3
#
#
#
# Elastic Constant Matrix: (Units=GPa)
#
#
# Indices 1 2 3 4 5 6 
#
# 1 99.0165 11.3670 27.5409 0.0000 25.3327 0.0000
# 2 11.3670 61.3205 16.6545 0.0000 17.2469 0.0000
# 3 27.5409 16.6545 61.1666 0.0000 25.2653 0.0000
# 4 0.0000 0.0000 0.0000 16.3693 0.0000 11.8315
# 5 25.3327 17.2469 25.2653 0.0000 41.0759 0.0000
# 6 0.0000 0.0000 0.0000 11.8315 0.0000 10.2550
#
#
#
# Elastic Compliance Matrix: (Units=1/GPa)
#
#
# Indices 1 2 3 4 5 6 
#
# 1 0.012462 0.000200 -0.003293 0.000000 -0.005744 0.000000
# 2 0.000200 0.018773 -0.002540 0.000000 -0.006443 0.000000
# 3 -0.003293 -0.002540 0.023117 0.000000 -0.011122 0.000000
# 4 0.000000 0.000000 0.000000 0.367802 0.000000 -0.424345
# 5 -0.005744 -0.006443 -0.011122 0.000000 0.037434 0.000000
# 6 0.000000 0.000000 0.000000 -0.424345 0.000000 0.587093
#
#
# Mechanical properties :
#
#
# Convention : Reuss Voigt Hill
#
# Bulk Modulus (GPa) = 23.20968 36.95868 30.08418
# Shear Modulus (GPa) = 4.66284 24.60279 14.63281
#
# Velocity S-wave (km/s) = 1.49904 3.44335 2.65554
# Velocity P-wave (km/s) = 3.76583 5.79829 4.88884
#
# Compressibility (1/GPa) = 0.04308546
#
# Stress axis : x y z
#
# Youngs Moduli (GPa) = 80.24485 53.26859 43.25832
#
# Poissons Ratio (x) = -0.01065 0.14244
# Poissons Ratio (y) = -0.01604 0.10988
# Poissons Ratio (z) = 0.26423 0.13531
#
# Static dielectric constant tensor:
#      x y z
#    x 1.860050 0.000000 -0.013680 
#    y 0.000000 1.797460 0.000000 
#    z -0.013680 0.000000 1.762480 
# 
# From -- ./inp_files/214992.got.cif
#   From: 2010.05.17/outbox.cif.g08.bks.cpg/sg12_108_cif.got.tgz:214992.got - 2010.06.03 13:09:07.
