data_PCOD9168273
_publ_section_title
;
Structure prediction by ZEFSAII (Michael W. Deem and Ramdas Pophale) SiO2 
 PCOD9168273
Probable space group: P 21/M
;
_chemical_formula_sum "Si O2"
_cell_formula_units_Z 32
_cell_length_a 9.000000
_cell_length_b 24.000000
_cell_length_c 15.000000
_cell_angle_alpha 90.000000
_cell_angle_beta 150.000000
_cell_angle_gamma 90.000000
_cell_volume 1620.000000
_symmetry_space_group_name_H-M "P 21/M"
_symmetry_group_IT_number 11
_symmetry_cell_setting 'monoclinic'
loop_
_space_group_symop_operation_xyz
x,y,z
-x,1/2+y,-z
-x,-y,-z
x,1/2-y,z
loop_
_atom_site_type_symbol
_atom_site_label
_atom_site_fract_x
_atom_site_fract_y
_atom_site_fract_z
Si Si1 0.128264 0.872005 0.652711
Si Si2 0.776852 0.604954 0.289274
Si Si3 0.151200 0.620492 0.299379
Si Si4 0.220822 0.182854 0.367542
Si Si5 0.998814 0.947758 0.063661
Si Si6 0.245716 0.188313 0.045179
Si Si7 0.402963 0.982109 0.850297
Si Si8 0.870711 0.349700 0.008398
O O1 0.167804 0.931926 0.722797
O O2 0.961028 0.881672 0.473202
O O3 0.946567 0.833648 0.627622
O O4 0.444076 0.844846 0.788840
O O5 0.689969 0.539588 0.244475
O O6 0.476557 0.642704 0.143506
O O7 0.973434 0.611723 0.300276
O O8 0.461535 0.652001 0.472523
O O9 0.194349 0.567078 0.254049
O O10 0.944772 0.659216 0.130693
O O11 0.250543 0.250000 0.377170
O O12 0.035459 0.159392 0.187301
O O13 0.062833 0.902186 0.021138
O O14 0.680013 0.954627 0.944157
O O15 0.000000 0.000000 0.000000
O O16 0.325971 0.250000 0.058885
O O17 0.036375 0.191826 0.024659
O O18 0.500000 0.000000 0.000000
#
# Coordination Sequence:
#
# PCOD9168273 Si02
#       8
#     4   4   4   4   4   4   4   4
#     4  12  25  43  68 101 133 178 226 280 334 410
#     4  12  25  43  68  98 140 179 221 271 338 412
#     4  11  24  44  67  98 135 177 224 280 340 405
#     4  12  27  47  68  97 134 179 235 293 342 397
#     4  11  22  40  71 103 137 180 217 274 338 412
#     4  11  22  43  68  94 129 172 224 286 344 394
#     4  12  22  43  69 100 140 181 216 270 342 408
#     4  11  23  43  69  97 134 176 227 279 335 407
#
# _framework density 19.753086
#
# number of rings (size 3 to 8) (size 9 to 14) (size 15 to 20)
#    0.000    0.500    5.000    5.250    0.000    0.000 
#    0.000    6.875    0.000    0.000    0.000    0.000 
#    0.000    0.000    0.000    0.000    0.000    0.000 
#
# Total GULP energy -178144.044556 kJ/mol
# GULP energy per Si atom -5567.001392 kJ/mol
# Density = 1.970813 g / cm^3
# Si number density = 19.753086 Si / 1000 Ang^3
#
#
#
# Elastic Constant Matrix: (Units=GPa)
#
#
# Indices 1 2 3 4 5 6 
#
# 1 139.1757 47.3277 36.3628 0.0000 -11.0404 0.0000
# 2 47.3277 40.1784 53.2665 0.0000 -0.1755 0.0000
# 3 36.3628 53.2665 126.3942 0.0000 -4.8836 0.0000
# 4 0.0000 0.0000 0.0000 -96.5721 0.0000 31.9532
# 5 -11.0404 -0.1755 -4.8836 0.0000 43.0417 0.0000
# 6 0.0000 0.0000 0.0000 31.9532 0.0000 21.3441
#
#
#
# Elastic Compliance Matrix: (Units=1/GPa)
#
#
# Indices 1 2 3 4 5 6 
#
# 1 0.014933 -0.027439 0.007444 0.000000 0.004563 0.000000
# 2 -0.027439 0.107084 -0.037655 0.000000 -0.010874 0.000000
# 3 0.007444 -0.037655 0.021803 0.000000 0.004230 0.000000
# 4 0.000000 0.000000 0.000000 -0.006925 0.000000 0.010367
# 5 0.004563 -0.010874 0.004230 0.000000 0.024839 0.000000
# 6 0.000000 0.000000 0.000000 0.010367 0.000000 0.031332
#
#
# Mechanical properties :
#
#
# Convention : Reuss Voigt Hill
#
# Bulk Modulus (GPa) = 35.06347 64.40694 49.73521
# Shear Modulus (GPa) = 15.72958 4.81546 10.27252
#
# Velocity S-wave (km/s) = 2.82496 1.56305 2.28293
# Velocity P-wave (km/s) = 5.33197 5.99452 5.67293
#
# Compressibility (1/GPa) = 0.02851971
#
# Stress axis : x y z
#
# Youngs Moduli (GPa) = 66.96508 9.33846 45.86630
#
# Poissons Ratio (x) = 0.25624 -0.34142
# Poissons Ratio (y) = 1.83747 1.72708
# Poissons Ratio (z) = -0.49848 0.35164
#
# Static dielectric constant tensor:
#      x y z
#    x 1.686020 0.000000 0.014060 
#    y 0.000000 1.695710 0.000000 
#    z 0.014060 0.000000 1.710830 
# 
# From -- ./inp_files/48456.got.cif
#   From: 2010.05.17/outbox.ucp.g08.bks.cvg/sg11_25_cif.got.tgz:48456.got - 2010.06.11 11:38:39.
