data_PCOD9168229
_publ_section_title
;
Structure prediction by ZEFSAII (Michael W. Deem and Ramdas Pophale) SiO2 
 PCOD9168229
Probable space group: P 21/M
;
_chemical_formula_sum "Si O2"
_cell_formula_units_Z 32
_cell_length_a 27.000000
_cell_length_b 9.000000
_cell_length_c 21.000000
_cell_angle_alpha 90.000000
_cell_angle_beta 160.000000
_cell_angle_gamma 90.000000
_cell_volume 1745.328791
_symmetry_space_group_name_H-M "P 21/M"
_symmetry_group_IT_number 11
_symmetry_cell_setting 'monoclinic'
loop_
_space_group_symop_operation_xyz
x,y,z
-x,1/2+y,-z
-x,-y,-z
x,1/2-y,z
loop_
_atom_site_type_symbol
_atom_site_label
_atom_site_fract_x
_atom_site_fract_y
_atom_site_fract_z
Si Si1 0.739580 0.071401 0.667807
Si Si2 0.552962 0.071381 0.000038
Si Si3 0.400880 0.426004 0.258161
Si Si4 0.894214 0.929153 0.734289
Si Si5 0.391400 0.070190 0.680817
Si Si6 0.812238 0.926863 0.888119
Si Si7 0.686701 0.428882 0.970267
Si Si8 0.853203 0.429336 0.296723
O O1 0.752552 0.250000 0.676043
O O2 0.569234 0.028766 0.458308
O O3 0.830879 0.985399 0.725042
O O4 0.797039 0.018377 0.805122
O O5 0.551231 0.250000 0.001693
O O6 0.714586 0.029583 0.172816
O O7 0.439648 0.024785 0.808875
O O8 0.500000 0.000000 0.000000
O O9 0.396053 0.250000 0.240342
O O10 0.329298 0.452913 0.240007
O O11 0.303070 0.506118 0.087299
O O12 0.910802 0.750000 0.753817
O O13 0.766750 0.975914 0.531874
O O14 0.045060 0.010913 0.904904
O O15 0.392275 0.250000 0.679078
O O16 0.526201 0.021888 0.799834
O O17 0.826047 0.750000 0.892964
O O18 0.687920 0.250000 0.969799
O O19 0.803780 0.473397 0.165219
O O20 0.866125 0.250000 0.312993
O O21 0.000000 0.500000 0.500000
#
# Coordination Sequence:
#
# PCOD9168229 Si02
#       8
#     4   4   4   4   4   4   4   4
#     4  11  22  38  60  84 107 139 184 228 270 326
#     4   9  18  35  56  81 111 143 181 224 267 318
#     4  10  22  38  57  82 112 142 178 227 277 320
#     4  11  21  37  60  83 107 144 185 225 274 322
#     4   8  16  33  57  80 105 139 181 225 265 313
#     4  11  24  40  54  78 115 148 177 222 276 325
#     4   9  17  34  59  82 105 142 187 226 265 320
#     4   9  19  35  56  82 113 145 182 224 267 320
#
# _framework density 18.334654
#
# number of rings (size 3 to 8) (size 9 to 14) (size 15 to 20)
#    0.000    2.250    1.250    3.375    0.000    2.500 
#    2.250    3.125    0.000    0.000    0.000    0.000 
#    0.000    0.000    0.000    0.000    0.000    0.000 
#
# Total GULP energy -178445.489430 kJ/mol
# GULP energy per Si atom -5576.421545 kJ/mol
# Density = 1.829292 g / cm^3
# Si number density = 18.334654 Si / 1000 Ang^3
#
#
#
# Elastic Constant Matrix: (Units=GPa)
#
#
# Indices 1 2 3 4 5 6 
#
# 1 47.5208 8.8487 10.9766 0.0000 -10.2566 0.0000
# 2 8.8487 14.0323 9.8460 0.0000 2.3906 0.0000
# 3 10.9766 9.8460 89.8011 0.0000 -15.1248 0.0000
# 4 0.0000 0.0000 0.0000 31.3155 0.0000 -0.9981
# 5 -10.2566 2.3906 -15.1248 0.0000 21.2786 0.0000
# 6 0.0000 0.0000 0.0000 -0.9981 0.0000 26.5142
#
#
#
# Elastic Compliance Matrix: (Units=1/GPa)
#
#
# Indices 1 2 3 4 5 6 
#
# 1 0.028579 -0.022391 0.001937 0.000000 0.017668 0.000000
# 2 -0.022391 0.100341 -0.013611 0.000000 -0.031740 0.000000
# 3 0.001937 -0.013611 0.014548 0.000000 0.012803 0.000000
# 4 0.000000 0.000000 0.000000 0.031971 0.000000 0.001204
# 5 0.017668 -0.031740 0.012803 0.000000 0.068178 0.000000
# 6 0.000000 0.000000 0.000000 0.001204 0.000000 0.037761
#
#
# Mechanical properties :
#
#
# Convention : Reuss Voigt Hill
#
# Bulk Modulus (GPa) = 13.27328 23.41075 18.34202
# Shear Modulus (GPa) = 13.34689 23.93383 18.64036
#
# Velocity S-wave (km/s) = 2.70100 3.61693 3.19199
# Velocity P-wave (km/s) = 4.12097 5.49902 4.85910
#
# Compressibility (1/GPa) = 0.07533931
#
# Stress axis : x y z
#
# Youngs Moduli (GPa) = 34.99128 9.96601 68.73981
#
# Poissons Ratio (x) = 0.22315 -0.13318
# Poissons Ratio (y) = 0.78349 0.93559
# Poissons Ratio (z) = -0.06780 0.13564
#
# Static dielectric constant tensor:
#      x y z
#    x 1.647840 0.000000 -0.017260 
#    y 0.000000 1.609650 0.000000 
#    z -0.017260 0.000000 1.635070 
# 
# From -- ./inp_files/67256.got.cif
#   From: 2010.05.17/outbox.ucp.g08.bks.cvg/sg11_34_cif.got.tgz:67256.got - 2010.06.11 11:38:39.
