data_PCOD9168983
_publ_section_title
;
Structure prediction by ZEFSAII (Michael W. Deem and Ramdas Pophale) SiO2 
 PCOD9168983
Probable space group: C 2/M
;
_chemical_formula_sum "Si O2"
_cell_formula_units_Z 56
_cell_length_a 19.345113
_cell_length_b 11.481729
_cell_length_c 20.045160
_cell_angle_alpha 90.000000
_cell_angle_beta 49.611212
_cell_angle_gamma 90.000000
_cell_volume 3391.190279
_symmetry_space_group_name_H-M "C 2/M"
_symmetry_group_IT_number 12
_symmetry_cell_setting 'monoclinic'
loop_
_space_group_symop_operation_xyz
x,y,z
-x,y,-z
-x,-y,-z
x,-y,z
1/2+x,1/2+y,z
1/2-x,1/2+y,-z
1/2-x,1/2-y,-z
1/2+x,1/2-y,z
loop_
_atom_site_type_symbol
_atom_site_label
_atom_site_fract_x
_atom_site_fract_y
_atom_site_fract_z
Si Si1 0.498389 0.000000 0.619667
Si Si2 0.143608 0.500000 0.413252
Si Si3 0.050425 0.736323 0.280737
Si Si4 0.243780 0.785438 0.697639
Si Si5 0.256305 0.140742 0.844907
Si Si6 0.917123 0.861479 0.599405
Si Si7 0.064884 0.140591 0.019256
Si Si8 0.950912 0.141582 0.222275
O O1 0.581079 0.000000 0.516753
O O2 0.413421 0.000000 0.620657
O O3 0.494344 0.115051 0.667181
O O4 0.205552 0.387964 0.372740
O O5 0.150127 0.700270 0.191815
O O6 0.064084 0.810273 0.339408
O O7 0.994468 0.810000 0.262566
O O8 0.240087 0.821967 0.778075
O O9 0.315052 0.679922 0.644915
O O10 0.141549 0.788179 0.735273
O O11 0.265374 0.000000 0.841378
O O12 0.168246 0.177914 0.942060
O O13 0.000000 0.817769 0.500000
O O14 0.920509 0.000000 0.597424
O O15 0.019978 0.166335 0.118143
O O16 0.066662 0.000000 0.012526
O O17 0.000000 0.183726 0.000000
O O18 0.935130 0.000000 0.233648
#
# Coordination Sequence:
#
# PCOD9168983 Si02
#       8
#     4   4   8   8   8   8   8   8
#     4  11  20  34  56  87 105 136 185 235 278 322
#     4  11  18  32  62  84 103 127 192 239 268 318
#     4  11  21  35  56  79 114 148 177 226 281 328
#     4  11  18  33  58  82 104 144 181 229 271 317
#     4  10  16  31  55  85 108 136 183 227 269 318
#     4  10  21  38  57  80 108 143 184 224 270 331
#     4   9  17  29  54  83 111 137 179 232 271 317
#     4  11  22  36  53  82 115 148 183 226 277 327
#
# _framework density 16.513376000000001
#
# number of rings (size 3 to 8) (size 9 to 14) (size 15 to 20)
#    0.000    1.571    6.429    1.286    0.000    0.571 
#    1.286    2.857    0.000    0.000    1.857    4.500 
#    0.000    0.000    0.000    0.000    0.000    0.000 
#
# Total GULP energy -156056.007492 kJ/mol
# GULP energy per Si atom -5573.428839 kJ/mol
# Density = 1.647579 g / cm^3
# Si number density = 16.513376 Si / 1000 Ang^3
#
#
#
# Elastic Constant Matrix: (Units=GPa)
#
#
# Indices 1 2 3 4 5 6 
#
# 1 94.0060 26.9689 49.7251 0.0000 -8.2167 0.0000
# 2 26.9689 59.7422 32.5921 0.0000 -3.3579 0.0000
# 3 49.7251 32.5921 113.3924 0.0000 -20.5897 0.0000
# 4 0.0000 0.0000 0.0000 13.8550 0.0000 -6.6726
# 5 -8.2167 -3.3579 -20.5897 0.0000 25.8018 0.0000
# 6 0.0000 0.0000 0.0000 -6.6726 0.0000 44.4206
#
#
#
# Elastic Compliance Matrix: (Units=1/GPa)
#
#
# Indices 1 2 3 4 5 6 
#
# 1 0.014491 -0.003641 -0.005328 0.000000 -0.000111 0.000000
# 2 -0.003641 0.020884 -0.004822 0.000000 -0.002289 0.000000
# 3 -0.005328 -0.004822 0.014173 0.000000 0.008986 0.000000
# 4 0.000000 0.000000 0.000000 0.077805 0.000000 0.011687
# 5 -0.000111 -0.002289 0.008986 0.000000 0.045594 0.000000
# 6 0.000000 0.000000 0.000000 0.011687 0.000000 0.024268
#
#
# Mechanical properties :
#
#
# Convention : Reuss Voigt Hill
#
# Bulk Modulus (GPa) = 45.52469 53.96808 49.74639
# Shear Modulus (GPa) = 21.54073 27.33909 24.43991
#
# Velocity S-wave (km/s) = 3.61562 4.07329 3.85126
# Velocity P-wave (km/s) = 6.71257 7.40774 7.06870
#
# Compressibility (1/GPa) = 0.02196610
#
# Stress axis : x y z
#
# Youngs Moduli (GPa) = 69.00906 47.88369 70.55682
#
# Poissons Ratio (x) = 0.17434 0.37594
# Poissons Ratio (y) = 0.25126 0.34020
# Poissons Ratio (z) = 0.36770 0.23088
#
# Static dielectric constant tensor:
#      x y z
#    x 1.563790 0.000000 -0.022890 
#    y 0.000000 1.624150 0.000000 
#    z -0.022890 0.000000 1.562350 
# 
# From -- ./inp_files/282835.got.cif
#   From: 2010.05.17/outbox.cif.g08.bks.cpg/sg12_142_cif.got.tgz:282835.got - 2010.06.03 13:09:07.
