data_PCOD9168503
_publ_section_title
;
Structure prediction by ZEFSAII (Michael W. Deem and Ramdas Pophale) SiO2 
 PCOD9168503
Probable space group: C 2/M
;
_chemical_formula_sum "Si O2"
_cell_formula_units_Z 36
_cell_length_a 5.550894
_cell_length_b 14.330533
_cell_length_c 20.247339
_cell_angle_alpha 90.000000
_cell_angle_beta 97.878740
_cell_angle_gamma 90.000000
_cell_volume 1595.416913
_symmetry_space_group_name_H-M "C 2/M"
_symmetry_group_IT_number 12
_symmetry_cell_setting 'monoclinic'
loop_
_space_group_symop_operation_xyz
x,y,z
-x,y,-z
-x,-y,-z
x,-y,z
1/2+x,1/2+y,z
1/2-x,1/2+y,-z
1/2-x,1/2-y,-z
1/2+x,1/2-y,z
loop_
_atom_site_type_symbol
_atom_site_label
_atom_site_fract_x
_atom_site_fract_y
_atom_site_fract_z
Si Si1 0.331161 0.635308 0.662045
Si Si2 0.142847 0.343779 0.285971
Si Si3 0.229461 0.000000 0.458921
Si Si4 0.539178 0.636064 0.077858
Si Si5 0.434842 0.845548 0.870190
O O1 0.598859 0.606309 0.696575
O O2 0.335781 0.747681 0.671190
O O3 0.294557 0.590830 0.589095
O O4 0.098097 0.606328 0.696630
O O5 0.103938 0.320766 0.207831
O O6 0.500000 0.000000 0.500000
O O7 0.000000 0.000000 0.500000
O O8 0.544797 0.748466 0.088907
O O9 0.305757 0.605202 0.111239
O O10 0.806059 0.605179 0.111154
O O11 0.500000 0.614348 0.000000
#
# Coordination Sequence:
#
# PCOD9168503 Si02
#       5
#     8   8   4   8   8
#     4  10  20  37  58  80 107 136 174 213 260 316
#     4  10  19  35  57  82 104 140 180 223 268 302
#     4  12  26  44  60  82 112 144 167 204 265 322
#     4  10  16  22  33  58  98 145 172 199 254 319
#     4  10  16  25  41  63  95 135 172 213 256 305
#
# _framework density 22.564634000000002
#
# number of rings (size 3 to 8) (size 9 to 14) (size 15 to 20)
#    0.000    1.778    0.000   11.333    0.000    0.000 
#    0.000   13.333    0.000    0.000    0.000    0.000 
#    0.000    0.000    0.000  563.000    0.000    0.000 
#
# Total GULP energy -100459.488822 kJ/mol
# GULP energy per Si atom -5581.082712 kJ/mol
# Density = 2.251328 g / cm^3
# Si number density = 22.564634 Si / 1000 Ang^3
#
#
#
# Elastic Constant Matrix: (Units=GPa)
#
#
# Indices 1 2 3 4 5 6 
#
# 1 299.1527 25.0002 73.1264 0.0000 0.3240 0.0000
# 2 25.0002 114.3892 35.5830 0.0000 -0.0286 0.0000
# 3 73.1264 35.5830 160.3642 0.0000 0.0189 0.0000
# 4 0.0000 0.0000 0.0000 -131.6018 0.0000 0.3576
# 5 0.3240 -0.0286 0.0189 0.0000 53.4771 0.0000
# 6 0.0000 0.0000 0.0000 0.3576 0.0000 -15.8917
#
#
#
# Elastic Compliance Matrix: (Units=1/GPa)
#
#
# Indices 1 2 3 4 5 6 
#
# 1 0.003772 -0.000311 -0.001651 0.000000 -0.000022 0.000000
# 2 -0.000311 0.009416 -0.001948 0.000000 0.000008 0.000000
# 3 -0.001651 -0.001948 0.007421 0.000000 0.000006 0.000000
# 4 0.000000 0.000000 0.000000 -0.007599 0.000000 -0.000171
# 5 -0.000022 0.000008 0.000006 0.000000 0.018700 0.000000
# 6 0.000000 0.000000 0.000000 -0.000171 0.000000 -0.062930
#
#
# Mechanical properties :
#
#
# Convention : Reuss Voigt Hill
#
# Bulk Modulus (GPa) = 78.18649 93.48061 85.83355
# Shear Modulus (GPa) = -261.26838 10.54315 -125.36261
#
# Velocity S-wave (km/s) = -10.77209 2.16392 -7.46175
# Velocity P-wave (km/s) = 10.95409 6.91095 6.00961
#
# Compressibility (1/GPa) = 0.01278993
#
# Stress axis : x y z
#
# Youngs Moduli (GPa) = 265.08205 106.20408 134.75426
#
# Poissons Ratio (x) = 0.03301 0.22251
# Poissons Ratio (y) = 0.08239 0.26244
# Poissons Ratio (z) = 0.43772 0.20684
#
# Static dielectric constant tensor:
#      x y z
#    x 1.923070 0.000000 0.000570 
#    y 0.000000 1.834710 0.000000 
#    z 0.000570 0.000000 1.750470 
# 
# From -- ./inp_files/252503.got.cif
#   From: 2010.05.17/outbox.cif.g08.bks.cpg/sg12_127_cif.got.tgz:252503.got - 2010.06.03 13:09:07.
