data_PCOD9168589
_publ_section_title
;
Structure prediction by ZEFSAII (Michael W. Deem and Ramdas Pophale) SiO2 
 PCOD9168589
Probable space group: C 2/M
;
_chemical_formula_sum "Si O2"
_cell_formula_units_Z 56
_cell_length_a 5.321540
_cell_length_b 14.723490
_cell_length_c 35.746091
_cell_angle_alpha 90.000000
_cell_angle_beta 107.378784
_cell_angle_gamma 90.000000
_cell_volume 2672.912757
_symmetry_space_group_name_H-M "C 2/M"
_symmetry_group_IT_number 12
_symmetry_cell_setting 'monoclinic'
loop_
_space_group_symop_operation_xyz
x,y,z
-x,y,-z
-x,-y,-z
x,-y,z
1/2+x,1/2+y,z
1/2-x,1/2+y,-z
1/2-x,1/2-y,-z
1/2+x,1/2-y,z
loop_
_atom_site_type_symbol
_atom_site_label
_atom_site_fract_x
_atom_site_fract_y
_atom_site_fract_z
Si Si1 0.158296 0.154517 0.045158
Si Si2 0.548406 0.609362 0.752339
Si Si3 0.298673 0.308584 0.375244
Si Si4 0.864463 0.189724 0.458627
Si Si5 0.777579 0.638990 0.922858
Si Si6 0.819063 0.189146 0.161791
Si Si7 0.461510 0.890998 0.708822
O O1 0.225518 0.252716 0.066569
O O2 0.437264 0.107885 0.051142
O O3 0.969303 0.103312 0.065334
O O4 0.000000 0.169983 0.000000
O O5 0.547241 0.500000 0.750585
O O6 0.599283 0.638165 0.796984
O O7 0.780308 0.641651 0.735155
O O8 0.261767 0.641861 0.725809
O O9 0.581747 0.269712 0.374927
O O10 0.331328 0.357702 0.416962
O O11 0.172867 0.363912 0.335922
O O12 0.581895 0.230827 0.458756
O O13 0.000000 0.140685 0.500000
O O14 0.747118 0.628440 0.877274
O O15 0.561914 0.248061 0.159872
O O16 0.469909 0.000000 0.711273
#
# Coordination Sequence:
#
# PCOD9168589 Si02
#       7
#     8   8   8   8   8   8   8
#     4  10  16  25  41  61  97 132 150 177 233 289
#     4  10  23  39  54  71  97 133 170 201 244 307
#     4  10  19  30  51  77 102 127 165 214 246 289
#     4   8  14  25  41  66  98 130 159 193 242 291
#     4  10  16  27  38  63  95 122 148 188 231 279
#     4  12  21  34  52  75 101 129 156 207 252 282
#     4  10  21  38  53  70  98 131 164 205 253 300
#
# _framework density 20.950928999999999
#
# number of rings (size 3 to 8) (size 9 to 14) (size 15 to 20)
#    0.000    2.000    2.857    3.857    0.000    3.429 
#    0.000    0.000    0.000    0.429    0.000    0.000 
#    0.000   21.143    0.000    0.000    0.000    2.286 
#
# Total GULP energy -156219.941016 kJ/mol
# GULP energy per Si atom -5579.283608 kJ/mol
# Density = 2.090324 g / cm^3
# Si number density = 20.950929 Si / 1000 Ang^3
#
#
#
# Elastic Constant Matrix: (Units=GPa)
#
#
# Indices 1 2 3 4 5 6 
#
# 1 128.9451 1.0920 -23.8574 0.0000 -2.3277 0.0000
# 2 1.0920 37.5991 -3.8440 0.0000 -1.8621 0.0000
# 3 -23.8574 -3.8440 113.9008 0.0000 0.7533 0.0000
# 4 0.0000 0.0000 0.0000 -79.9623 0.0000 -20.2786
# 5 -2.3277 -1.8621 0.7533 0.0000 38.7706 0.0000
# 6 0.0000 0.0000 0.0000 -20.2786 0.0000 -14.1445
#
#
#
# Elastic Compliance Matrix: (Units=1/GPa)
#
#
# Indices 1 2 3 4 5 6 
#
# 1 0.008076 -0.000040 0.001687 0.000000 0.000450 0.000000
# 2 -0.000040 0.026751 0.000886 0.000000 0.001265 0.000000
# 3 0.001687 0.000886 0.009163 0.000000 -0.000034 0.000000
# 4 0.000000 0.000000 0.000000 -0.019651 0.000000 0.028173
# 5 0.000450 0.001265 -0.000034 0.000000 0.025881 0.000000
# 6 0.000000 0.000000 0.000000 0.028173 0.000000 -0.111089
#
#
# Mechanical properties :
#
#
# Convention : Reuss Voigt Hill
#
# Bulk Modulus (GPa) = 20.38448 25.24735 22.81592
# Shear Modulus (GPa) = -100.83936 9.40305 -45.71816
#
# Velocity S-wave (km/s) = -6.94519 2.12082 -4.67642
# Velocity P-wave (km/s) = 7.38671 4.25136 4.27139
#
# Compressibility (1/GPa) = 0.04905692
#
# Stress axis : x y z
#
# Youngs Moduli (GPa) = 123.82559 37.38209 109.13327
#
# Poissons Ratio (x) = 0.00149 -0.18413
# Poissons Ratio (y) = 0.00492 -0.09670
# Poissons Ratio (z) = -0.20892 -0.03312
#
# Static dielectric constant tensor:
#      x y z
#    x 1.786510 0.000000 -0.003000 
#    y 0.000000 1.742890 0.000000 
#    z -0.003000 0.000000 1.762170 
# 
# From -- ./inp_files/371565.got.cif
#   From: 2010.05.17/outbox.cif.g08.bks.cpg/sg12_186_cif.got.tgz:371565.got - 2010.06.03 13:09:07.
