data_PCOD9168920
_publ_section_title
;
Structure prediction by ZEFSAII (Michael W. Deem and Ramdas Pophale) SiO2 
 PCOD9168920
Probable space group: C 2/M
;
_chemical_formula_sum "Si O2"
_cell_formula_units_Z 48
_cell_length_a 14.822379
_cell_length_b 20.723639
_cell_length_c 8.087035
_cell_angle_alpha 90.000000
_cell_angle_beta 98.582309
_cell_angle_gamma 90.000000
_cell_volume 2456.307945
_symmetry_space_group_name_H-M "C 2/M"
_symmetry_group_IT_number 12
_symmetry_cell_setting 'monoclinic'
loop_
_space_group_symop_operation_xyz
x,y,z
-x,y,-z
-x,-y,-z
x,-y,z
1/2+x,1/2+y,z
1/2-x,1/2+y,-z
1/2-x,1/2-y,-z
1/2+x,1/2-y,z
loop_
_atom_site_type_symbol
_atom_site_label
_atom_site_fract_x
_atom_site_fract_y
_atom_site_fract_z
Si Si1 0.410125 0.575299 0.584243
Si Si2 0.273301 0.770924 0.243415
Si Si3 0.414342 0.315473 0.856687
Si Si4 0.044673 0.428194 0.329711
Si Si5 0.264961 0.143421 0.578719
Si Si6 0.519055 0.795025 0.703823
O O1 0.500000 0.586391 0.500000
O O2 0.403928 0.500000 0.624467
O O3 0.411763 0.620920 0.743834
O O4 0.323202 0.598593 0.456857
O O5 0.189285 0.799681 0.113342
O O6 0.272435 0.815949 0.409388
O O7 0.248893 0.698067 0.287439
O O8 0.379041 0.773493 0.222062
O O9 0.444702 0.254008 0.754498
O O10 0.500000 0.322959 0.000000
O O11 0.040790 0.500000 0.254702
O O12 0.147024 0.401189 0.375173
O O13 0.000000 0.433093 0.500000
O O14 0.993122 0.367822 0.233605
O O15 0.500000 0.795026 0.500000
#
# Coordination Sequence:
#
# PCOD9168920 Si02
#       6
#     8   8   8   8   8   8
#     4  10  21  36  56  82 109 140 179 224 274 328
#     4  10  18  30  53  78 106 139 183 218 273 316
#     4  11  23  36  53  79 110 148 186 223 266 320
#     4  10  18  28  48  81 111 134 167 221 285 330
#     4  10  16  30  52  82 106 133 171 231 275 321
#     4  11  18  35  56  80 107 141 177 235 278 326
#
# _framework density 19.541525
#
# number of rings (size 3 to 8) (size 9 to 14) (size 15 to 20)
#    0.000    1.667    5.000    4.000    0.000    1.000 
#    0.000    0.000    0.000    0.500    0.000    0.000 
#    0.000    0.000    0.000    0.000    0.000    0.000 
#
# Total GULP energy -133869.876720 kJ/mol
# GULP energy per Si atom -5577.911530 kJ/mol
# Density = 1.949705 g / cm^3
# Si number density = 19.541525 Si / 1000 Ang^3
#
#
#
# Elastic Constant Matrix: (Units=GPa)
#
#
# Indices 1 2 3 4 5 6 
#
# 1 146.6909 45.2969 18.4001 0.0000 34.8423 0.0000
# 2 45.2969 101.9558 16.2553 0.0000 2.8131 0.0000
# 3 18.4001 16.2553 42.4049 0.0000 25.3785 0.0000
# 4 0.0000 0.0000 0.0000 -12.8617 0.0000 -12.0257
# 5 34.8423 2.8131 25.3785 0.0000 23.9492 0.0000
# 6 0.0000 0.0000 0.0000 -12.0257 0.0000 51.9779
#
#
#
# Elastic Compliance Matrix: (Units=1/GPa)
#
#
# Indices 1 2 3 4 5 6 
#
# 1 0.026439 -0.016711 0.045870 0.000000 -0.085109 0.000000
# 2 -0.016711 0.021641 -0.038473 0.000000 0.062540 0.000000
# 3 0.045870 -0.038473 0.152160 0.000000 -0.223455 0.000000
# 4 0.000000 0.000000 0.000000 -0.063922 0.000000 -0.014789
# 5 -0.085109 0.062540 -0.223455 0.000000 0.395020 0.000000
# 6 0.000000 0.000000 0.000000 -0.014789 0.000000 0.015817
#
#
# Mechanical properties :
#
#
# Convention : Reuss Voigt Hill
#
# Bulk Modulus (GPa) = 5.50630 50.10625 27.80627
# Shear Modulus (GPa) = 7.98312 26.68635 17.33473
#
# Velocity S-wave (km/s) = 2.02338 3.69944 2.98161
# Velocity P-wave (km/s) = 2.87796 6.62906 5.11014
#
# Compressibility (1/GPa) = 0.18161028
#
# Stress axis : x y z
#
# Youngs Moduli (GPa) = 37.82306 46.20843 6.57203
#
# Poissons Ratio (x) = 0.77220 -0.30146
# Poissons Ratio (y) = 0.63207 0.25285
# Poissons Ratio (z) = -1.73493 1.77778
#
# Static dielectric constant tensor:
#      x y z
#    x 1.697230 0.000000 0.007200 
#    y 0.000000 1.670570 0.000000 
#    z 0.007200 0.000000 1.714910 
# 
# From -- ./inp_files/63572.got.cif
#   From: 2010.05.17/outbox.cif.g08.bks.cpg/sg12_32_cif.got.tgz:63572.got - 2010.06.03 13:09:07.
