data_PCOD9168941
_publ_section_title
;
Structure prediction by ZEFSAII (Michael W. Deem and Ramdas Pophale) SiO2 
 PCOD9168941
Probable space group: C 2/M
;
_chemical_formula_sum "Si O2"
_cell_formula_units_Z 44
_cell_length_a 27.555850
_cell_length_b 12.332004
_cell_length_c 13.180346
_cell_angle_alpha 90.000000
_cell_angle_beta 29.297437
_cell_angle_gamma 90.000000
_cell_volume 2191.735045
_symmetry_space_group_name_H-M "C 2/M"
_symmetry_group_IT_number 12
_symmetry_cell_setting 'monoclinic'
loop_
_space_group_symop_operation_xyz
x,y,z
-x,y,-z
-x,-y,-z
x,-y,z
1/2+x,1/2+y,z
1/2-x,1/2+y,-z
1/2-x,1/2-y,-z
1/2+x,1/2-y,z
loop_
_atom_site_type_symbol
_atom_site_label
_atom_site_fract_x
_atom_site_fract_y
_atom_site_fract_z
Si Si1 0.884581 0.500000 0.239731
Si Si2 0.431531 0.000000 0.724130
Si Si3 0.277797 0.124527 0.272888
Si Si4 0.391128 0.780785 0.878842
Si Si5 0.871628 0.261538 0.547258
Si Si6 0.879087 0.876378 0.729861
Si Si7 0.122027 0.500000 0.507708
O O1 0.831638 0.602450 0.281301
O O2 0.872075 0.500000 0.382113
O O3 0.000000 0.500000 0.000000
O O4 0.500000 0.000000 0.500000
O O5 0.375716 0.113080 0.835495
O O6 0.506656 0.000000 0.683273
O O7 0.176583 0.191779 0.455201
O O8 0.262262 0.000000 0.262892
O O9 0.345478 0.189989 0.070200
O O10 0.509475 0.764713 0.675739
O O11 0.354187 0.678456 0.882311
O O12 0.844240 0.197713 0.699911
O O13 0.836823 0.386303 0.608604
O O14 0.000000 0.875925 0.500000
O O15 0.845902 0.000000 0.782323
#
# Coordination Sequence:
#
# PCOD9168941 Si02
#       7
#     4   4   8   8   8   8   4
#     4  10  20  38  62  89 114 144 199 252 296 344
#     4  10  16  30  56  86 112 143 195 238 287 345
#     4  10  22  38  59  87 114 154 196 245 292 347
#     4  10  18  34  57  84 118 159 194 238 298 342
#     4  10  20  36  57  85 119 152 198 244 289 353
#     4   9  18  32  53  83 120 160 194 233 292 354
#     4  10  20  34  56  83 115 151 187 242 299 331
#
# _framework density 20.075419
#
# number of rings (size 3 to 8) (size 9 to 14) (size 15 to 20)
#    0.545    1.636    0.909    5.455    0.000    2.182 
#    1.636    0.000    0.000    0.000    0.000    1.909 
#    0.000    0.000    0.000    0.000    0.000    0.000 
#
# Total GULP energy -122730.578048 kJ/mol
# GULP energy per Si atom -5578.662639 kJ/mol
# Density = 2.002973 g / cm^3
# Si number density = 20.075419 Si / 1000 Ang^3
#
#
#
# Elastic Constant Matrix: (Units=GPa)
#
#
# Indices 1 2 3 4 5 6 
#
# 1 120.2196 69.5472 20.1717 0.0000 5.7202 0.0000
# 2 69.5472 161.7434 31.6662 0.0000 4.7329 0.0000
# 3 20.1717 31.6662 51.5149 0.0000 0.3650 0.0000
# 4 0.0000 0.0000 0.0000 21.8370 0.0000 -3.4399
# 5 5.7202 4.7329 0.3650 0.0000 30.8290 0.0000
# 6 0.0000 0.0000 0.0000 -3.4399 0.0000 35.4207
#
#
#
# Elastic Compliance Matrix: (Units=1/GPa)
#
#
# Indices 1 2 3 4 5 6 
#
# 1 0.011248 -0.004474 -0.001644 0.000000 -0.001381 0.000000
# 2 -0.004474 0.008841 -0.003679 0.000000 -0.000484 0.000000
# 3 -0.001644 -0.003679 0.022313 0.000000 0.000606 0.000000
# 4 0.000000 0.000000 0.000000 0.046505 0.000000 0.004516
# 5 -0.001381 -0.000484 0.000606 0.000000 0.032760 0.000000
# 6 0.000000 0.000000 0.000000 0.004516 0.000000 0.028671
#
#
# Mechanical properties :
#
#
# Convention : Reuss Voigt Hill
#
# Bulk Modulus (GPa) = 43.84681 64.02757 53.93719
# Shear Modulus (GPa) = 28.16334 31.75684 29.96009
#
# Velocity S-wave (km/s) = 3.74956 3.98160 3.86732
# Velocity P-wave (km/s) = 6.37449 7.28699 6.84596
#
# Compressibility (1/GPa) = 0.02280668
#
# Stress axis : x y z
#
# Youngs Moduli (GPa) = 88.90464 113.11065 44.81689
#
# Poissons Ratio (x) = 0.50607 0.07369
# Poissons Ratio (y) = 0.39777 0.16489
# Poissons Ratio (z) = 0.14619 0.41615
#
# Static dielectric constant tensor:
#      x y z
#    x 1.725200 0.000000 -0.049490 
#    y 0.000000 1.731460 0.000000 
#    z -0.049490 0.000000 1.733660 
# 
# From -- ./inp_files/250493.got.cif
#   From: 2010.05.17/outbox.cif.g08.bks.cpg/sg12_126_cif.got.tgz:250493.got - 2010.06.03 13:09:07.
