data_PCOD9168452
_publ_section_title
;
Structure prediction by ZEFSAII (Michael W. Deem and Ramdas Pophale) SiO2 
 PCOD9168452
Probable space group: C 2/M
;
_chemical_formula_sum "Si O2"
_cell_formula_units_Z 36
_cell_length_a 10.045342
_cell_length_b 28.322558
_cell_length_c 11.698560
_cell_angle_alpha 90.000000
_cell_angle_beta 40.858917
_cell_angle_gamma 90.000000
_cell_volume 2177.405260
_symmetry_space_group_name_H-M "C 2/M"
_symmetry_group_IT_number 12
_symmetry_cell_setting 'monoclinic'
loop_
_space_group_symop_operation_xyz
x,y,z
-x,y,-z
-x,-y,-z
x,-y,z
1/2+x,1/2+y,z
1/2-x,1/2+y,-z
1/2-x,1/2-y,-z
1/2+x,1/2-y,z
loop_
_atom_site_type_symbol
_atom_site_label
_atom_site_fract_x
_atom_site_fract_y
_atom_site_fract_z
Si Si1 0.973975 0.230025 0.385838
Si Si2 0.937134 0.054064 0.175341
Si Si3 0.500000 0.903143 0.500000
Si Si4 0.439746 0.349370 0.853689
Si Si5 0.671721 0.169497 0.233374
O O1 0.750000 0.250000 0.500000
O O2 0.000000 0.215179 0.500000
O O3 0.038537 0.187085 0.262873
O O4 0.112238 0.276350 0.281613
O O5 0.698449 0.065073 0.350885
O O6 0.049085 0.094636 0.175314
O O7 0.983620 0.000000 0.173708
O O8 0.000000 0.061072 0.000000
O O9 0.499690 0.866451 0.607701
O O10 0.636398 0.339766 0.807537
O O11 0.242897 0.340358 0.059166
#
# Coordination Sequence:
#
# PCOD9168452 Si02
#       5
#     8   8   4   8   8
#     4  12  21  34  53  77 109 147 180 215 263 324
#     4  10  18  30  50  76 105 138 178 224 273 312
#     4  10  15  30  48  74 110 136 171 218 272 312
#     4  10  19  34  51  75 112 138 179 223 268 312
#     4  10  18  33  51  76 108 144 170 221 264 320
#
# _framework density 16.533441
#
# number of rings (size 3 to 8) (size 9 to 14) (size 15 to 20)
#    0.000    1.556    7.778    2.333    0.000    0.000 
#    0.000    0.000    0.000    0.667    0.000    0.000 
#    0.000    3.556    0.000    0.000    0.000    0.000 
#
# Total GULP energy -100247.963263 kJ/mol
# GULP energy per Si atom -5569.331292 kJ/mol
# Density = 1.649581 g / cm^3
# Si number density = 16.533441 Si / 1000 Ang^3
#
#
#
# Elastic Constant Matrix: (Units=GPa)
#
#
# Indices 1 2 3 4 5 6 
#
# 1 26.8066 17.5200 26.1869 0.0000 13.2368 0.0000
# 2 17.5200 161.3724 57.6798 0.0000 15.2897 0.0000
# 3 26.1869 57.6798 132.3300 0.0000 5.5238 0.0000
# 4 0.0000 0.0000 0.0000 30.6402 0.0000 1.9441
# 5 13.2368 15.2897 5.5238 0.0000 18.6876 0.0000
# 6 0.0000 0.0000 0.0000 1.9441 0.0000 11.7637
#
#
#
# Elastic Compliance Matrix: (Units=1/GPa)
#
#
# Indices 1 2 3 4 5 6 
#
# 1 0.073581 0.001371 -0.013098 0.000000 -0.049369 0.000000
# 2 0.001371 0.007885 -0.003441 0.000000 -0.006405 0.000000
# 3 -0.013098 -0.003441 0.011283 0.000000 0.008757 0.000000
# 4 0.000000 0.000000 0.000000 0.032983 0.000000 -0.005451
# 5 -0.049369 -0.006405 0.008757 0.000000 0.091133 0.000000
# 6 0.000000 0.000000 0.000000 -0.005451 0.000000 0.085908
#
#
# Mechanical properties :
#
#
# Convention : Reuss Voigt Hill
#
# Bulk Modulus (GPa) = 16.02220 58.14249 37.08234
# Shear Modulus (GPa) = 14.12780 26.82646 20.47713
#
# Velocity S-wave (km/s) = 2.92635 4.03247 3.52309
# Velocity P-wave (km/s) = 4.59672 7.54480 6.24715
#
# Compressibility (1/GPa) = 0.06241341
#
# Stress axis : x y z
#
# Youngs Moduli (GPa) = 13.59041 126.82815 88.62962
#
# Poissons Ratio (x) = -0.17382 1.16084
# Poissons Ratio (y) = -0.01863 0.30494
# Poissons Ratio (z) = 0.17800 0.43637
#
# Static dielectric constant tensor:
#      x y z
#    x 1.505520 0.000000 -0.070130 
#    y 0.000000 1.587700 0.000000 
#    z -0.070130 0.000000 1.562930 
# 
# From -- ./inp_files/41340.got.cif
#   From: 2010.05.17/outbox.cif.g08.bks.cpg/sg12_21_cif.got.tgz:41340.got - 2010.06.03 13:09:07.
