data_PCOD9168516
_publ_section_title
;
Structure prediction by ZEFSAII (Michael W. Deem and Ramdas Pophale) SiO2 
 PCOD9168516
Probable space group: C 2/M
;
_chemical_formula_sum "Si O2"
_cell_formula_units_Z 64
_cell_length_a 25.771467
_cell_length_b 8.617776
_cell_length_c 18.614844
_cell_angle_alpha 90.000000
_cell_angle_beta 87.349925
_cell_angle_gamma 90.000000
_cell_volume 4129.800143
_symmetry_space_group_name_H-M "C 2/M"
_symmetry_group_IT_number 12
_symmetry_cell_setting 'monoclinic'
loop_
_space_group_symop_operation_xyz
x,y,z
-x,y,-z
-x,-y,-z
x,-y,z
1/2+x,1/2+y,z
1/2-x,1/2+y,-z
1/2-x,1/2-y,-z
1/2+x,1/2-y,z
loop_
_atom_site_type_symbol
_atom_site_label
_atom_site_fract_x
_atom_site_fract_y
_atom_site_fract_z
Si Si1 0.005823 0.321727 0.912893
Si Si2 0.884584 0.812639 0.072535
Si Si3 0.694410 0.314756 0.652911
Si Si4 0.311705 0.684733 0.640999
Si Si5 0.690776 0.815335 0.505193
Si Si6 0.299104 0.311465 0.189262
Si Si7 0.604076 0.314916 0.094191
Si Si8 0.320824 0.185782 0.789823
O O1 0.004072 0.500000 0.889312
O O2 0.062003 0.247902 0.896114
O O3 0.955808 0.230518 0.887688
O O4 0.000000 0.318713 0.000000
O O5 0.835219 0.758506 0.121785
O O6 0.885967 0.000000 0.073207
O O7 0.883045 0.765143 0.988838
O O8 0.690466 0.500000 0.645803
O O9 0.755211 0.266939 0.648729
O O10 0.669695 0.236263 0.584352
O O11 0.677373 0.267615 0.734241
O O12 0.305245 0.500000 0.638763
O O13 0.335369 0.743767 0.564220
O O14 0.337956 0.736536 0.713517
O O15 0.750000 0.750000 0.500000
O O16 0.692317 0.000000 0.499983
O O17 0.298423 0.500000 0.187873
O O18 0.238774 0.262486 0.189756
O O19 0.610048 0.500000 0.098137
O O20 0.641886 0.234324 0.148178
O O21 0.320443 0.000000 0.780847
#
# Coordination Sequence:
#
# PCOD9168516 Si02
#       8
#     8   8   8   8   8   8   8   8
#     4   9  17  30  47  66  85 106 137 180 227 266
#     4   9  17  31  48  65  86 113 146 182 219 260
#     4   9  15  25  39  56  80 111 144 175 211 253
#     4  10  17  26  39  56  79 108 143 179 214 253
#     4  10  16  23  36  55  78 106 141 177 213 251
#     4   8  16  29  44  61  86 120 150 177 214 258
#     4  10  19  30  46  66  86 112 146 183 221 260
#     4  10  19  31  44  60  87 120 149 178 215 259
#
# _framework density 15.497119
#
# number of rings (size 3 to 8) (size 9 to 14) (size 15 to 20)
#    0.000    2.625    0.000    6.000    0.000    2.500 
#    0.000    3.750    0.000    0.000    0.000    0.000 
#    0.000    1.000    0.000   10.750    0.000    6.250 
#
# Total GULP energy -178140.807741 kJ/mol
# GULP energy per Si atom -5566.900242 kJ/mol
# Density = 1.546185 g / cm^3
# Si number density = 15.497119 Si / 1000 Ang^3
#
#
#
# Elastic Constant Matrix: (Units=GPa)
#
#
# Indices 1 2 3 4 5 6 
#
# 1 51.2478 11.8685 39.6094 0.0000 10.8168 0.0000
# 2 11.8685 51.5884 24.0571 0.0000 4.7806 0.0000
# 3 39.6094 24.0571 102.6744 0.0000 16.0256 0.0000
# 4 0.0000 0.0000 0.0000 23.1051 0.0000 6.7377
# 5 10.8168 4.7806 16.0256 0.0000 2.2147 0.0000
# 6 0.0000 0.0000 0.0000 6.7377 0.0000 16.2842
#
#
#
# Elastic Compliance Matrix: (Units=1/GPa)
#
#
# Indices 1 2 3 4 5 6 
#
# 1 0.009663 -0.003733 -0.025152 0.000000 0.142866 0.000000
# 2 -0.003733 0.021595 -0.006260 0.000000 0.016914 0.000000
# 3 -0.025152 -0.006260 0.002889 0.000000 0.115452 0.000000
# 4 0.000000 0.000000 0.000000 0.049219 0.000000 -0.020365
# 5 0.142866 0.016914 0.115452 0.000000 -1.118192 0.000000
# 6 0.000000 0.000000 0.000000 -0.020365 0.000000 0.069835
#
#
# Mechanical properties :
#
#
# Convention : Reuss Voigt Hill
#
# Bulk Modulus (GPa) = -27.66826 39.62006 5.97590
# Shear Modulus (GPa) = -5.51420 16.98583 5.73581
#
# Velocity S-wave (km/s) = -1.88837 3.31428 1.92594
# Velocity P-wave (km/s) = 4.75890 6.34567 2.96819
#
# Compressibility (1/GPa) = -0.03614250
#
# Stress axis : x y z
#
# Youngs Moduli (GPa) = 103.49141 46.30767 346.12322
#
# Poissons Ratio (x) = 0.17287 8.70561
# Poissons Ratio (y) = 0.38635 2.16658
# Poissons Ratio (z) = 2.60299 0.28987
#
# Static dielectric constant tensor:
#      x y z
#    x 1.487810 0.000000 -0.002670 
#    y 0.000000 1.519360 0.000000 
#    z -0.002670 0.000000 1.575940 
# 
# From -- ./inp_files/291552.got.cif
#   From: 2010.05.17/outbox.cif.g08.bks.cpg/sg12_146_cif.got.tgz:291552.got - 2010.06.03 13:09:07.
