data_PCOD9168438
_publ_section_title
;
Structure prediction by ZEFSAII (Michael W. Deem and Ramdas Pophale) SiO2 
 PCOD9168438
Probable space group: C 2/M
;
_chemical_formula_sum "Si O2"
_cell_formula_units_Z 48
_cell_length_a 28.297584
_cell_length_b 13.789579
_cell_length_c 9.440208
_cell_angle_alpha 90.000000
_cell_angle_beta 56.128424
_cell_angle_gamma 90.000000
_cell_volume 3058.518754
_symmetry_space_group_name_H-M "C 2/M"
_symmetry_group_IT_number 12
_symmetry_cell_setting 'monoclinic'
loop_
_space_group_symop_operation_xyz
x,y,z
-x,y,-z
-x,-y,-z
x,-y,z
1/2+x,1/2+y,z
1/2-x,1/2+y,-z
1/2-x,1/2-y,-z
1/2+x,1/2-y,z
loop_
_atom_site_type_symbol
_atom_site_label
_atom_site_fract_x
_atom_site_fract_y
_atom_site_fract_z
Si Si1 0.505900 0.611270 0.818361
Si Si2 0.310619 0.111153 0.530913
Si Si3 0.377107 0.299386 0.359162
Si Si4 0.268847 0.715266 0.121873
Si Si5 0.379472 0.383078 0.036271
Si Si6 0.239036 0.889717 0.364962
O O1 0.518371 0.500000 0.757599
O O2 0.559958 0.676212 0.690980
O O3 0.500000 0.612783 0.000000
O O4 0.442819 0.637821 0.871490
O O5 0.359302 0.188012 0.409925
O O6 0.278289 0.146633 0.725481
O O7 0.264165 0.117747 0.481755
O O8 0.329385 0.000000 0.509563
O O9 0.374831 0.333631 0.199029
O O10 0.327190 0.360310 0.518844
O O11 0.328545 0.659081 0.028078
O O12 0.270952 0.810983 0.216765
O O13 0.250000 0.750000 0.000000
O O14 0.374809 0.500000 0.061270
O O15 0.246357 0.000000 0.304296
#
# Coordination Sequence:
#
# PCOD9168438 Si02
#       6
#     8   8   8   8   8   8
#     4   8  15  24  43  74 100 124 153 193 244 290
#     4  10  19  32  51  71  95 129 165 204 245 283
#     4  10  15  28  49  74  97 124 158 199 241 287
#     4  11  21  32  47  71 100 131 161 196 244 294
#     4  10  17  29  48  72 103 130 156 194 243 292
#     4  10  18  30  49  70  94 126 163 203 243 284
#
# _framework density 15.693872000000001
#
# number of rings (size 3 to 8) (size 9 to 14) (size 15 to 20)
#    0.000    2.167    3.333    4.000    0.000    1.333 
#    0.000    0.000    0.000    9.500    0.000   11.667 
#    0.000    0.000    0.000    0.000    0.000    0.000 
#
# Total GULP energy -133733.470595 kJ/mol
# GULP energy per Si atom -5572.227941 kJ/mol
# Density = 1.565815 g / cm^3
# Si number density = 15.693872 Si / 1000 Ang^3
#
#
#
# Elastic Constant Matrix: (Units=GPa)
#
#
# Indices 1 2 3 4 5 6 
#
# 1 98.2279 55.0746 44.8336 0.0000 -25.4647 0.0000
# 2 55.0746 130.5394 39.6494 0.0000 -22.2662 0.0000
# 3 44.8336 39.6494 40.7361 0.0000 -8.5960 0.0000
# 4 0.0000 0.0000 0.0000 12.4510 0.0000 -5.6310
# 5 -25.4647 -22.2662 -8.5960 0.0000 30.6773 0.0000
# 6 0.0000 0.0000 0.0000 -5.6310 0.0000 23.7158
#
#
#
# Elastic Compliance Matrix: (Units=1/GPa)
#
#
# Indices 1 2 3 4 5 6 
#
# 1 0.025096 -0.001098 -0.023726 0.000000 0.013386 0.000000
# 2 -0.001098 0.011778 -0.009187 0.000000 0.005063 0.000000
# 3 -0.023726 -0.009187 0.057436 0.000000 -0.010269 0.000000
# 4 0.000000 0.000000 0.000000 0.089976 0.000000 0.021364
# 5 0.013386 0.005063 -0.010269 0.000000 0.044506 0.000000
# 6 0.000000 0.000000 0.000000 0.021364 0.000000 0.047238
#
#
# Mechanical properties :
#
#
# Convention : Reuss Voigt Hill
#
# Bulk Modulus (GPa) = 38.04168 60.95762 49.49965
# Shear Modulus (GPa) = 14.17175 22.03189 18.10182
#
# Velocity S-wave (km/s) = 3.00828 3.75087 3.39991
# Velocity P-wave (km/s) = 6.02982 7.59504 6.85724
#
# Compressibility (1/GPa) = 0.02628696
#
# Stress axis : x y z
#
# Youngs Moduli (GPa) = 39.84767 84.90659 17.41073
#
# Poissons Ratio (x) = 0.09323 0.41309
# Poissons Ratio (y) = 0.04375 0.15995
# Poissons Ratio (z) = 0.94544 0.78001
#
# Static dielectric constant tensor:
#      x y z
#    x 1.538010 0.000000 -0.005950 
#    y 0.000000 1.525160 0.000000 
#    z -0.005950 0.000000 1.518940 
# 
# From -- ./inp_files/85691.got.cif
#   From: 2010.05.17/outbox.cif.g08.bks.cpg/sg12_43_cif.got.tgz:85691.got - 2010.06.03 13:09:07.
