data_PCOD9168604
_publ_section_title
;
Structure prediction by ZEFSAII (Michael W. Deem and Ramdas Pophale) SiO2 
 PCOD9168604
Probable space group: C 2/M
;
_chemical_formula_sum "Si O2"
_cell_formula_units_Z 56
_cell_length_a 7.241727
_cell_length_b 22.557877
_cell_length_c 17.280193
_cell_angle_alpha 90.000000
_cell_angle_beta 62.541779
_cell_angle_gamma 90.000000
_cell_volume 2504.855006
_symmetry_space_group_name_H-M "C 2/M"
_symmetry_group_IT_number 12
_symmetry_cell_setting 'monoclinic'
loop_
_space_group_symop_operation_xyz
x,y,z
-x,y,-z
-x,-y,-z
x,-y,z
1/2+x,1/2+y,z
1/2-x,1/2+y,-z
1/2-x,1/2-y,-z
1/2+x,1/2-y,z
loop_
_atom_site_type_symbol
_atom_site_label
_atom_site_fract_x
_atom_site_fract_y
_atom_site_fract_z
Si Si1 0.871879 0.733018 0.099553
Si Si2 0.607582 0.570202 0.672939
Si Si3 0.436897 0.661198 0.177602
Si Si4 0.268700 0.571849 0.516522
Si Si5 0.131128 0.431393 0.701590
Si Si6 0.982269 0.390911 0.886007
Si Si7 0.340527 0.433763 0.932083
O O1 0.660200 0.695761 0.131348
O O2 0.024277 0.678972 0.095173
O O3 0.806592 0.783324 0.173510
O O4 0.000000 0.757244 0.000000
O O5 0.646224 0.500000 0.688003
O O6 0.614735 0.621582 0.736854
O O7 0.749944 0.585622 0.570438
O O8 0.371201 0.570646 0.684497
O O9 0.471928 0.611593 0.106313
O O10 0.500000 0.589993 0.500000
O O11 0.263031 0.500000 0.520708
O O12 0.122058 0.591915 0.615452
O O13 0.068319 0.500000 0.713980
O O14 0.999231 0.399045 0.791706
O O15 0.190450 0.419223 0.886943
O O16 0.803832 0.424227 0.966624
O O17 0.415768 0.500000 0.911368
#
# Coordination Sequence:
#
# PCOD9168604 Si02
#       7
#     8   8   8   8   8   8   8
#     4  11  21  35  48  67  94 127 171 195 227 272
#     4   9  15  26  45  72  94 117 156 198 241 284
#     4  11  21  32  51  71  93 127 161 199 232 277
#     4   7  12  20  35  63  97 121 140 184 248 291
#     4   9  13  21  39  67  97 121 144 192 250 283
#     4  10  16  25  42  67  92 119 151 196 238 271
#     4  10  17  26  42  68  92 115 151 199 240 275
#
# _framework density 22.356584999999999
#
# number of rings (size 3 to 8) (size 9 to 14) (size 15 to 20)
#    0.000    2.429    5.714    4.286    0.000    0.000 
#    0.000    0.000    0.000    2.571    0.000    0.000 
#    0.000    0.000    0.000    5.143    0.286    0.000 
#
# Total GULP energy -156130.416519 kJ/mol
# GULP energy per Si atom -5576.086304 kJ/mol
# Density = 2.230570 g / cm^3
# Si number density = 22.356585 Si / 1000 Ang^3
#
#
#
# Elastic Constant Matrix: (Units=GPa)
#
#
# Indices 1 2 3 4 5 6 
#
# 1 53.0908 8.9863 17.8576 0.0000 12.0375 0.0000
# 2 8.9863 136.1431 51.1516 0.0000 11.4355 0.0000
# 3 17.8576 51.1516 199.0451 0.0000 7.0307 0.0000
# 4 0.0000 0.0000 0.0000 10.2005 0.0000 -6.3507
# 5 12.0375 11.4355 7.0307 0.0000 23.4751 0.0000
# 6 0.0000 0.0000 0.0000 -6.3507 0.0000 -2.8529
#
#
#
# Elastic Compliance Matrix: (Units=1/GPa)
#
#
# Indices 1 2 3 4 5 6 
#
# 1 0.021793 0.000061 -0.001592 0.000000 -0.010728 0.000000
# 2 0.000061 0.008403 -0.002041 0.000000 -0.003513 0.000000
# 3 -0.001592 -0.002041 0.005687 0.000000 0.000107 0.000000
# 4 0.000000 0.000000 0.000000 0.041089 0.000000 -0.091465
# 5 -0.010728 -0.003513 0.000107 0.000000 0.049779 0.000000
# 6 0.000000 0.000000 0.000000 -0.091465 0.000000 -0.146912
#
#
# Mechanical properties :
#
#
# Convention : Reuss Voigt Hill
#
# Bulk Modulus (GPa) = 34.79491 60.47445 47.63468
# Shear Modulus (GPa) = -1455.07676 26.85009 -714.11333
#
# Velocity S-wave (km/s) = -25.53942 3.46929 -17.89171
# Velocity P-wave (km/s) = 29.22474 6.56937 20.13615
#
# Compressibility (1/GPa) = 0.02873984
#
# Stress axis : x y z
#
# Youngs Moduli (GPa) = 45.88579 119.00396 175.82470
#
# Poissons Ratio (x) = -0.00722 0.27989
# Poissons Ratio (y) = -0.00279 0.35883
# Poissons Ratio (z) = 0.07304 0.24286
#
# Static dielectric constant tensor:
#      x y z
#    x 2.002430 0.000000 0.038740 
#    y 0.000000 1.793330 0.000000 
#    z 0.038740 0.000000 1.853450 
# 
# From -- ./inp_files/264607.got.cif
#   From: 2010.05.17/outbox.cif.g08.bks.cpg/sg12_133_cif.got.tgz:264607.got - 2010.06.03 13:09:07.
