data_PCOD9168502
_publ_section_title
;
Structure prediction by ZEFSAII (Michael W. Deem and Ramdas Pophale) SiO2 
 PCOD9168502
Probable space group: C 2/M
;
_chemical_formula_sum "Si O2"
_cell_formula_units_Z 56
_cell_length_a 15.704358
_cell_length_b 8.090385
_cell_length_c 23.124045
_cell_angle_alpha 90.000000
_cell_angle_beta 46.196696
_cell_angle_gamma 90.000000
_cell_volume 2120.421071
_symmetry_space_group_name_H-M "C 2/M"
_symmetry_group_IT_number 12
_symmetry_cell_setting 'monoclinic'
loop_
_space_group_symop_operation_xyz
x,y,z
-x,y,-z
-x,-y,-z
x,-y,z
1/2+x,1/2+y,z
1/2-x,1/2+y,-z
1/2-x,1/2-y,-z
1/2+x,1/2-y,z
loop_
_atom_site_type_symbol
_atom_site_label
_atom_site_fract_x
_atom_site_fract_y
_atom_site_fract_z
Si Si1 0.624769 0.189514 0.014474
Si Si2 0.048024 0.191708 0.168117
Si Si3 0.287814 0.191733 0.264731
Si Si4 0.252269 0.198831 0.408013
Si Si5 0.633162 0.311400 0.887778
Si Si6 0.483454 0.804951 0.444465
Si Si7 0.471282 0.801271 0.699762
O O1 0.634117 0.263393 0.074597
O O2 0.482189 0.200792 0.069925
O O3 0.661676 0.000000 0.996256
O O4 0.672712 0.279544 0.934676
O O5 0.928449 0.295160 0.214011
O O6 0.085522 0.223780 0.216379
O O7 0.017214 0.000000 0.176702
O O8 0.232804 0.258524 0.350374
O O9 0.278745 0.281600 0.207150
O O10 0.259363 0.000000 0.271005
O O11 0.158426 0.286063 0.493253
O O12 0.388295 0.231164 0.357837
O O13 0.236026 0.000000 0.417270
O O14 0.592986 0.500000 0.902723
O O15 0.500000 0.725605 0.500000
O O16 0.546706 0.737320 0.357370
O O17 0.510841 0.000000 0.433868
O O18 0.453534 0.000000 0.709976
#
# Coordination Sequence:
#
# PCOD9168502 Si02
#       7
#     8   8   8   8   8   8   8
#     4  10  16  23  34  50  79 119 153 183 226 274
#     4  10  17  25  39  61  85 112 151 193 230 269
#     4   9  16  27  40  58  85 117 152 187 229 276
#     4   9  18  31  49  70  92 122 157 194 232 275
#     4  10  16  22  33  53  81 114 152 190 226 266
#     4  10  21  35  51  71  95 122 152 190 235 282
#     4   9  18  33  49  67  93 123 156 191 232 281
#
# _framework density 26.409849000000001
#
# number of rings (size 3 to 8) (size 9 to 14) (size 15 to 20)
#    0.000    2.429    0.000    8.143    0.000    3.714 
#    0.000    0.000    0.000    0.000    0.000    0.000 
#    0.000    1.143    0.000    3.429    0.000   12.143 
#
# Total GULP energy -156642.138477 kJ/mol
# GULP energy per Si atom -5594.362088 kJ/mol
# Density = 2.634974 g / cm^3
# Si number density = 26.409849 Si / 1000 Ang^3
#
#
#
# Elastic Constant Matrix: (Units=GPa)
#
#
# Indices 1 2 3 4 5 6 
#
# 1 89.7255 8.1337 32.4800 0.0000 37.2632 0.0001
# 2 8.1337 78.1229 11.0598 0.0001 13.7126 0.0003
# 3 32.4800 11.0598 240.5408 0.0000 35.6860 0.0000
# 4 0.0000 0.0001 0.0000 36.1441 0.0000 -2.8113
# 5 37.2632 13.7126 35.6860 0.0000 67.1542 0.0000
# 6 0.0001 0.0003 0.0000 -2.8113 0.0000 -39.5083
#
#
#
# Elastic Compliance Matrix: (Units=1/GPa)
#
#
# Indices 1 2 3 4 5 6 
#
# 1 0.014637 -0.000060 -0.000836 0.000000 -0.007665 0.000000
# 2 -0.000060 0.013288 -0.000223 0.000000 -0.002562 0.000000
# 3 -0.000836 -0.000223 0.004565 0.000000 -0.001916 0.000000
# 4 0.000000 0.000000 0.000000 0.027515 0.000000 -0.001958
# 5 -0.007665 -0.002562 -0.001916 0.000000 0.020686 0.000000
# 6 0.000000 0.000000 0.000000 -0.001958 0.000000 -0.025172
#
#
# Mechanical properties :
#
#
# Convention : Reuss Voigt Hill
#
# Bulk Modulus (GPa) = 33.05736 56.85955 44.95846
# Shear Modulus (GPa) = 73.70307 36.53904 55.12106
#
# Velocity S-wave (km/s) = 5.28848 3.72363 4.57348
# Velocity P-wave (km/s) = 7.05938 6.32958 6.70442
#
# Compressibility (1/GPa) = 0.03025045
#
# Stress axis : x y z
#
# Youngs Moduli (GPa) = 68.32188 75.25720 219.06974
#
# Poissons Ratio (x) = 0.00452 0.18324
# Poissons Ratio (y) = 0.00410 0.04881
# Poissons Ratio (z) = 0.05715 0.01677
#
# Static dielectric constant tensor:
#      x y z
#    x 2.265700 0.000000 -0.018500 
#    y 0.000000 1.869210 0.000000 
#    z -0.018500 0.000000 2.082600 
# 
# From -- ./inp_files/345485.got.cif
#   From: 2010.05.17/outbox.cif.g08.bks.cpg/sg12_173_cif.got.tgz:345485.got - 2010.06.03 13:09:07.
