data_PCOD9168654
_publ_section_title
;
Structure prediction by ZEFSAII (Michael W. Deem and Ramdas Pophale) SiO2 
 PCOD9168654
Probable space group: C 2/M
;
_chemical_formula_sum "Si O2"
_cell_formula_units_Z 48
_cell_length_a 18.240910
_cell_length_b 20.003686
_cell_length_c 12.435637
_cell_angle_alpha 90.000000
_cell_angle_beta 44.326644
_cell_angle_gamma 90.000000
_cell_volume 3170.627041
_symmetry_space_group_name_H-M "C 2/M"
_symmetry_group_IT_number 12
_symmetry_cell_setting 'monoclinic'
loop_
_space_group_symop_operation_xyz
x,y,z
-x,y,-z
-x,-y,-z
x,-y,z
1/2+x,1/2+y,z
1/2-x,1/2+y,-z
1/2-x,1/2-y,-z
1/2+x,1/2-y,z
loop_
_atom_site_type_symbol
_atom_site_label
_atom_site_fract_x
_atom_site_fract_y
_atom_site_fract_z
Si Si1 0.110993 0.853173 0.947315
Si Si2 0.731686 0.352663 0.485907
Si Si3 0.500000 0.733104 0.500000
Si Si4 0.219425 0.269919 0.355556
Si Si5 0.481429 0.357632 0.728853
Si Si6 0.216832 0.000000 0.522129
Si Si7 0.999875 0.000000 0.627887
Si Si8 0.126675 0.000000 0.860935
O O1 0.191921 0.801160 0.812278
O O2 0.155067 0.928954 0.884847
O O3 0.085669 0.838265 0.097645
O O4 0.000000 0.850276 0.000000
O O5 0.779745 0.313171 0.535817
O O6 0.744536 0.306168 0.367372
O O7 0.604741 0.357117 0.633955
O O8 0.771999 0.428835 0.443690
O O9 0.605241 0.772049 0.421471
O O10 0.526642 0.687958 0.367875
O O11 0.451949 0.432716 0.725671
O O12 0.119661 0.000000 0.542018
O O13 0.169715 0.000000 0.693317
O O14 0.000000 0.000000 0.500000
O O15 0.000000 0.000000 0.000000
#
# Coordination Sequence:
#
# PCOD9168654 Si02
#       8
#     8   8   4   8   8   4   4   4
#     4  11  18  30  51  76 101 125 162 207 250 288
#     4   9  17  31  51  71  99 125 168 203 239 292
#     4  10  22  33  46  65 104 138 168 196 238 290
#     4  10  19  32  48  73 102 132 162 205 241 291
#     4  10  18  31  47  74 101 131 160 197 248 304
#     4  10  16  28  48  74  91 126 162 206 245 286
#     4  10  16  26  46  72 104 133 152 187 251 318
#     4  10  16  26  44  77 101 119 150 205 250 291
#
# _framework density 15.138961
#
# number of rings (size 3 to 8) (size 9 to 14) (size 15 to 20)
#    0.000    2.000    4.167    3.500    0.000    0.667 
#    0.000    0.000    0.000    2.000    0.000    0.583 
#    0.000    0.000    0.000    0.000    0.000    0.000 
#
# Total GULP energy -133648.238393 kJ/mol
# GULP energy per Si atom -5568.676600 kJ/mol
# Density = 1.510450 g / cm^3
# Si number density = 15.138961 Si / 1000 Ang^3
#
#
#
# Elastic Constant Matrix: (Units=GPa)
#
#
# Indices 1 2 3 4 5 6 
#
# 1 82.4949 26.8856 33.5881 0.0000 8.2179 0.0000
# 2 26.8856 105.7511 49.7263 0.0000 -4.3365 0.0000
# 3 33.5881 49.7263 93.8315 0.0000 11.5724 0.0000
# 4 0.0000 0.0000 0.0000 24.8928 0.0000 2.1634
# 5 8.2179 -4.3365 11.5724 0.0000 20.0886 0.0000
# 6 0.0000 0.0000 0.0000 2.1634 0.0000 13.4892
#
#
#
# Elastic Compliance Matrix: (Units=1/GPa)
#
#
# Indices 1 2 3 4 5 6 
#
# 1 0.014744 -0.002280 -0.003514 0.000000 -0.004499 0.000000
# 2 -0.002280 0.013954 -0.007605 0.000000 0.008326 0.000000
# 3 -0.003514 -0.007605 0.017193 0.000000 -0.010108 0.000000
# 4 0.000000 0.000000 0.000000 0.040740 0.000000 -0.006534
# 5 -0.004499 0.008326 -0.010108 0.000000 0.059240 0.000000
# 6 0.000000 0.000000 0.000000 -0.006534 0.000000 0.075181
#
#
# Mechanical properties :
#
#
# Convention : Reuss Voigt Hill
#
# Bulk Modulus (GPa) = 52.38346 55.83083 54.10714
# Shear Modulus (GPa) = 19.66831 23.15263 21.41047
#
# Velocity S-wave (km/s) = 3.60833 3.91492 3.76475
# Velocity P-wave (km/s) = 7.21366 7.57591 7.39701
#
# Compressibility (1/GPa) = 0.01909000
#
# Stress axis : x y z
#
# Youngs Moduli (GPa) = 67.82283 71.66652 58.16477
#
# Poissons Ratio (x) = 0.16343 0.20442
# Poissons Ratio (y) = 0.15467 0.44236
# Poissons Ratio (z) = 0.23836 0.54504
#
# Static dielectric constant tensor:
#      x y z
#    x 1.502340 0.000000 0.018980 
#    y 0.000000 1.548440 0.000000 
#    z 0.018980 0.000000 1.489380 
# 
# From -- ./inp_files/157703.got.cif
#   From: 2010.05.17/outbox.cif.g08.bks.cpg/sg12_79_cif.got.tgz:157703.got - 2010.06.03 13:09:07.
