data_PCOD9168351
_publ_section_title
;
Structure prediction by ZEFSAII (Michael W. Deem and Ramdas Pophale) SiO2 
 PCOD9168351
Probable space group: C 2/M
;
_chemical_formula_sum "Si O2"
_cell_formula_units_Z 46
_cell_length_a 17.295543
_cell_length_b 19.706423
_cell_length_c 13.988777
_cell_angle_alpha 90.000000
_cell_angle_beta 30.449423
_cell_angle_gamma 90.000000
_cell_volume 2416.234817
_symmetry_space_group_name_H-M "C 2/M"
_symmetry_group_IT_number 12
_symmetry_cell_setting 'monoclinic'
loop_
_space_group_symop_operation_xyz
x,y,z
-x,y,-z
-x,-y,-z
x,-y,z
1/2+x,1/2+y,z
1/2-x,1/2+y,-z
1/2-x,1/2-y,-z
1/2+x,1/2-y,z
loop_
_atom_site_type_symbol
_atom_site_label
_atom_site_fract_x
_atom_site_fract_y
_atom_site_fract_z
Si Si1 0.286625 0.389523 0.120556
Si Si2 0.914464 0.139193 0.301592
Si Si3 0.324253 0.278734 0.221155
Si Si4 0.946881 0.500000 0.665749
Si Si5 0.349096 0.639715 0.596645
Si Si6 0.673812 0.000000 0.777099
Si Si7 0.242281 0.500000 0.479685
Si Si8 0.500000 0.500000 0.000000
O O1 0.233978 0.330781 0.248706
O O2 0.154894 0.432919 0.211522
O O3 0.407570 0.360169 0.915725
O O4 0.383813 0.441309 0.081735
O O5 0.828666 0.193694 0.325531
O O6 0.892080 0.143760 0.438469
O O7 0.846187 0.065217 0.347967
O O8 0.260231 0.204126 0.273744
O O9 0.500000 0.281873 0.000000
O O10 0.000000 0.500000 0.500000
O O11 0.095266 0.500000 0.571359
O O12 0.500000 0.644336 0.500000
O O13 0.262623 0.568880 0.711363
O O14 0.685734 0.000000 0.648983
O O15 0.500000 0.000000 0.000000
#
# Coordination Sequence:
#
# PCOD9168351 Si02
#       8
#     8   8   8   4   8   4   4   2
#     4  10  20  33  58  85 120 157 189 220 283 351
#     4  10  20  38  60  80 113 158 194 227 282 357
#     4  10  20  37  59  84 115 154 191 223 289 356
#     4  11  22  29  50  93 128 143 174 233 290 342
#     4  11  24  40  60  86 111 146 198 253 291 330
#     4  10  23  44  64  76 103 152 201 247 291 338
#     4  10  21  34  56  86 113 148 193 233 286 341
#     4  10  14  32  58  84 114 152 188 216 262 346
#
# _framework density 19.037884999999999
#
# number of rings (size 3 to 8) (size 9 to 14) (size 15 to 20)
#    0.000    1.739    2.609    3.391    2.435    3.478 
#    0.000    3.478    0.000    0.000    0.000    0.000 
#    0.000    0.000    0.000    0.000    0.000    0.000 
#
# Total GULP energy -128177.748584 kJ/mol
# GULP energy per Si atom -5572.945591 kJ/mol
# Density = 1.899455 g / cm^3
# Si number density = 19.037885 Si / 1000 Ang^3
#
#
#
# Elastic Constant Matrix: (Units=GPa)
#
#
# Indices 1 2 3 4 5 6 
#
# 1 87.4482 38.9768 23.2880 -0.0005 -13.1674 -0.0004
# 2 38.9768 132.0779 19.4826 -0.0055 -0.7082 0.0010
# 3 23.2880 19.4826 63.7973 -0.0066 4.3111 0.0015
# 4 -0.0005 -0.0055 -0.0066 17.8672 0.0052 8.8312
# 5 -13.1674 -0.7082 4.3111 0.0052 22.6800 -0.0010
# 6 -0.0004 0.0010 0.0015 8.8312 -0.0010 29.2045
#
#
#
# Elastic Compliance Matrix: (Units=1/GPa)
#
#
# Indices 1 2 3 4 5 6 
#
# 1 0.016171 -0.003920 -0.005401 -0.000007 0.010293 0.000003
# 2 -0.003920 0.008890 -0.001164 0.000003 -0.001777 -0.000001
# 3 -0.005401 -0.001164 0.018453 0.000010 -0.006680 -0.000004
# 4 -0.000007 0.000003 0.000010 0.065804 -0.000022 -0.019899
# 5 0.010293 -0.001777 -0.006680 -0.000022 0.051282 0.000009
# 6 0.000003 -0.000001 -0.000004 -0.019899 0.000009 0.040259
#
#
# Mechanical properties :
#
#
# Convention : Reuss Voigt Hill
#
# Bulk Modulus (GPa) = 44.35838 49.64646 47.00242
# Shear Modulus (GPa) = 21.80140 27.38873 24.59507
#
# Velocity S-wave (km/s) = 3.38769 3.79706 3.59820
# Velocity P-wave (km/s) = 6.21712 6.73483 6.48114
#
# Compressibility (1/GPa) = 0.02254365
#
# Stress axis : x y z
#
# Youngs Moduli (GPa) = 61.83995 112.48216 54.19149
#
# Poissons Ratio (x) = 0.44095 0.29270
# Poissons Ratio (y) = 0.24242 0.06307
# Poissons Ratio (z) = 0.33401 0.13092
#
# Static dielectric constant tensor:
#      x y z
#    x 1.647930 0.000000 0.041420 
#    y 0.000000 1.687090 0.000000 
#    z 0.041420 0.000000 1.695610 
# 
# From -- ./inp_files/227240.got.cif
#   From: 2010.05.17/outbox.cif.g08.bks.cpg/sg12_114_cif.got.tgz:227240.got - 2010.06.03 13:09:07.
