data_PCOD9168513
_publ_section_title
;
Structure prediction by ZEFSAII (Michael W. Deem and Ramdas Pophale) SiO2 
 PCOD9168513
Probable space group: C 2/M
;
_chemical_formula_sum "Si O2"
_cell_formula_units_Z 46
_cell_length_a 17.235165
_cell_length_b 18.975657
_cell_length_c 9.429531
_cell_angle_alpha 90.000000
_cell_angle_beta 30.983799
_cell_angle_gamma 90.000000
_cell_volume 1587.585977
_symmetry_space_group_name_H-M "C 2/M"
_symmetry_group_IT_number 12
_symmetry_cell_setting 'monoclinic'
loop_
_space_group_symop_operation_xyz
x,y,z
-x,y,-z
-x,-y,-z
x,-y,z
1/2+x,1/2+y,z
1/2-x,1/2+y,-z
1/2-x,1/2-y,-z
1/2+x,1/2-y,z
loop_
_atom_site_type_symbol
_atom_site_label
_atom_site_fract_x
_atom_site_fract_y
_atom_site_fract_z
Si Si1 0.534104 0.000000 0.644207
Si Si2 0.674813 0.500000 0.016090
Si Si3 0.292517 0.000000 0.354198
Si Si4 0.451749 0.158654 0.734496
Si Si5 0.365196 0.651050 0.849298
Si Si6 0.273789 0.696313 0.307551
Si Si7 0.309040 0.651963 0.554662
Si Si8 0.500000 0.500000 0.000000
O O1 0.668872 0.000000 0.316075
O O2 0.562437 0.000000 0.769759
O O3 0.457395 0.074730 0.737532
O O4 0.647630 0.568198 0.151331
O O5 0.551716 0.500000 0.085568
O O6 0.262301 0.074260 0.321080
O O7 0.173802 0.000000 0.672240
O O8 0.500000 0.179811 0.500000
O O9 0.277042 0.181622 0.016485
O O10 0.591887 0.185385 0.608101
O O11 0.319090 0.663168 0.087383
O O12 0.544139 0.665766 0.576585
O O13 0.351945 0.658941 0.318850
O O14 0.299221 0.779987 0.265498
#
# Coordination Sequence:
#
# PCOD9168513 Si02
#       8
#     4   4   4   8   8   8   8   2
#     4  11  16  26  47  74 104 131 159 190 251 326
#     4  11  16  24  47  78  98 129 155 197 252 306
#     4  11  19  29  51  75 100 132 162 206 253 293
#     4  10  18  29  46  73 103 136 163 193 248 302
#     4  11  20  31  51  75 106 133 166 204 248 301
#     4  10  21  33  48  72 103 140 166 196 253 302
#     4  11  21  34  50  75 104 131 173 207 242 298
#     4  10  16  22  44  72 100 114 158 194 254 290
#
# _framework density 28.974807999999999
#
# number of rings (size 3 to 8) (size 9 to 14) (size 15 to 20)
#    0.000    1.391    6.957    2.348    0.000    0.696 
#    0.000    0.000    0.000    0.000    0.000   17.652 
#    0.000    0.000    0.000    0.000    0.000    0.000 
#
# Total GULP energy -128562.326534 kJ/mol
# GULP energy per Si atom -5589.666371 kJ/mol
# Density = 2.890886 g / cm^3
# Si number density = 28.974808 Si / 1000 Ang^3
#
#
#
# Elastic Constant Matrix: (Units=GPa)
#
#
# Indices 1 2 3 4 5 6 
#
# 1 149.6723 8.2795 31.3940 0.0003 -44.5325 0.0002
# 2 8.2795 214.3047 15.6319 -0.0001 -18.1044 -0.0003
# 3 31.3940 15.6319 152.5531 -0.0002 -18.5681 -0.0010
# 4 0.0003 -0.0001 -0.0002 -0.8853 0.0000 -4.2334
# 5 -44.5325 -18.1044 -18.5681 0.0000 63.2457 0.0003
# 6 0.0002 -0.0003 -0.0010 -4.2334 0.0003 23.9041
#
#
#
# Elastic Compliance Matrix: (Units=1/GPa)
#
#
# Indices 1 2 3 4 5 6 
#
# 1 0.008630 0.000238 -0.001091 0.000002 0.005824 0.000000
# 2 0.000238 0.004805 -0.000367 0.000000 0.001436 0.000000
# 3 -0.001091 -0.000367 0.006960 -0.000002 0.001170 0.000000
# 4 0.000002 0.000000 -0.000002 -0.611595 0.000002 -0.108312
# 5 0.005824 0.001436 0.001170 0.000002 0.020667 0.000000
# 6 0.000000 0.000000 0.000000 -0.108312 0.000000 0.022652
#
#
# Mechanical properties :
#
#
# Convention : Reuss Voigt Hill
#
# Bulk Modulus (GPa) = 55.69520 69.68231 62.68876
# Shear Modulus (GPa) = -9.26858 48.00120 19.36631
#
# Velocity S-wave (km/s) = -1.79047 4.07462 2.58812
# Velocity P-wave (km/s) = 3.87160 6.79986 5.53297
#
# Compressibility (1/GPa) = 0.01795487
#
# Stress axis : x y z
#
# Youngs Moduli (GPa) = 115.87580 208.11343 143.68522
#
# Poissons Ratio (x) = -0.04958 0.15683
# Poissons Ratio (y) = -0.02761 0.05268
# Poissons Ratio (z) = 0.12647 0.07631
#
# Static dielectric constant tensor:
#      x y z
#    x 2.224760 0.000000 0.010790 
#    y 0.000000 2.172160 0.000000 
#    z 0.010790 0.000000 2.381770 
# 
# From -- ./inp_files/168594.got.cif
#   From: 2010.05.17/outbox.cif.g08.bks.cpg/sg12_85_cif.got.tgz:168594.got - 2010.06.03 13:09:07.
