data_PCOD9168999
_publ_section_title
;
Structure prediction by ZEFSAII (Michael W. Deem and Ramdas Pophale) SiO2 
 PCOD9168999
Probable space group: C 2/M
;
_chemical_formula_sum "Si O2"
_cell_formula_units_Z 36
_cell_length_a 17.648464
_cell_length_b 20.479903
_cell_length_c 7.050421
_cell_angle_alpha 90.000000
_cell_angle_beta 49.031486
_cell_angle_gamma 90.000000
_cell_volume 1924.141785
_symmetry_space_group_name_H-M "C 2/M"
_symmetry_group_IT_number 12
_symmetry_cell_setting 'monoclinic'
loop_
_space_group_symop_operation_xyz
x,y,z
-x,y,-z
-x,-y,-z
x,-y,z
1/2+x,1/2+y,z
1/2-x,1/2+y,-z
1/2-x,1/2-y,-z
1/2+x,1/2-y,z
loop_
_atom_site_type_symbol
_atom_site_label
_atom_site_fract_x
_atom_site_fract_y
_atom_site_fract_z
Si Si1 0.993114 0.926112 0.741661
Si Si2 0.000000 0.712636 0.500000
Si Si3 0.184035 0.843952 0.471470
Si Si4 0.656977 0.681989 0.084239
Si Si5 0.163181 0.304203 0.498667
O O1 0.904492 0.874886 0.920080
O O2 0.000000 0.926106 0.500000
O O3 0.097638 0.897120 0.647325
O O4 0.974100 0.000000 0.833138
O O5 0.078154 0.760759 0.263928
O O6 0.064221 0.673705 0.549788
O O7 0.196485 0.843061 0.223340
O O8 0.143829 0.771011 0.592677
O O9 0.288387 0.847013 0.414103
O O10 0.748620 0.701561 0.802521
#
# Coordination Sequence:
#
# PCOD9168999 Si02
#       5
#     8   4   8   8   8
#     4   9  16  30  51  71 100 130 153 195 244 286
#     4  10  16  32  45  68  97 126 158 194 236 284
#     4   9  17  32  43  70  95 123 163 187 234 292
#     4  10  17  32  46  68 100 126 152 195 239 285
#     4  10  19  29  48  65  97 132 152 197 238 279
#
# _framework density 18.70964
#
# number of rings (size 3 to 8) (size 9 to 14) (size 15 to 20)
#    0.000    2.444    5.556    2.667    0.000    0.889 
#    0.000    5.556    0.000    0.000    0.000    3.111 
#    0.000   16.000    0.000    0.222    0.000    0.000 
#
# Total GULP energy -100317.112966 kJ/mol
# GULP energy per Si atom -5573.172943 kJ/mol
# Density = 1.866706 g / cm^3
# Si number density = 18.709640 Si / 1000 Ang^3
#
#
#
# Elastic Constant Matrix: (Units=GPa)
#
#
# Indices 1 2 3 4 5 6 
#
# 1 185.5082 29.1843 24.5653 0.0000 -10.9603 0.0000
# 2 29.1843 74.1389 8.5093 0.0000 -20.2394 0.0000
# 3 24.5653 8.5093 43.8070 0.0000 -6.2138 0.0000
# 4 0.0000 0.0000 0.0000 11.5872 0.0000 -7.4513
# 5 -10.9603 -20.2394 -6.2138 0.0000 28.2687 0.0000
# 6 0.0000 0.0000 0.0000 -7.4513 0.0000 16.1656
#
#
#
# Elastic Compliance Matrix: (Units=1/GPa)
#
#
# Indices 1 2 3 4 5 6 
#
# 1 0.006118 -0.001984 -0.003004 0.000000 0.000291 0.000000
# 2 -0.001984 0.017518 -0.000640 0.000000 0.011632 0.000000
# 3 -0.003004 -0.000640 0.025191 0.000000 0.003914 0.000000
# 4 0.000000 0.000000 0.000000 0.122660 0.000000 0.056538
# 5 0.000291 0.011632 0.003914 0.000000 0.044677 0.000000
# 6 0.000000 0.000000 0.000000 0.056538 0.000000 0.087920
#
#
# Mechanical properties :
#
#
# Convention : Reuss Voigt Hill
#
# Bulk Modulus (GPa) = 26.61617 47.55243 37.08430
# Shear Modulus (GPa) = 15.25021 27.28399 21.26710
#
# Velocity S-wave (km/s) = 2.85809 3.82289 3.37514
# Velocity P-wave (km/s) = 5.01482 6.70501 5.92054
#
# Compressibility (1/GPa) = 0.03757114
#
# Stress axis : x y z
#
# Youngs Moduli (GPa) = 163.46026 57.08344 39.69594
#
# Poissons Ratio (x) = 0.11325 0.11924
# Poissons Ratio (y) = 0.32429 0.02542
# Poissons Ratio (z) = 0.49102 0.03655
#
# Static dielectric constant tensor:
#      x y z
#    x 1.773750 0.000000 0.031190 
#    y 0.000000 1.630590 0.000000 
#    z 0.031190 0.000000 1.655810 
# 
# From -- ./inp_files/78302.got.cif
#   From: 2010.05.17/outbox.cif.g08.bks.cpg/sg12_40_cif.got.tgz:78302.got - 2010.06.03 13:09:07.
