data_PCOD9168078
_publ_section_title
;
Structure prediction by ZEFSAII (Michael W. Deem and Ramdas Pophale) SiO2 
 PCOD9168078
Probable space group: P 21/M
;
_chemical_formula_sum "Si O2"
_cell_formula_units_Z 28
_cell_length_a 9.000000
_cell_length_b 9.000000
_cell_length_c 27.000000
_cell_angle_alpha 90.000000
_cell_angle_beta 40.000000
_cell_angle_gamma 90.000000
_cell_volume 1405.776502
_symmetry_space_group_name_H-M "P 21/M"
_symmetry_group_IT_number 11
_symmetry_cell_setting 'monoclinic'
loop_
_space_group_symop_operation_xyz
x,y,z
-x,1/2+y,-z
-x,-y,-z
x,1/2-y,z
loop_
_atom_site_type_symbol
_atom_site_label
_atom_site_fract_x
_atom_site_fract_y
_atom_site_fract_z
Si Si1 0.500819 0.573719 0.715351
Si Si2 0.017936 0.926254 0.586900
Si Si3 0.199304 0.069418 0.983997
Si Si4 0.007574 0.429778 0.864550
Si Si5 0.263890 0.570723 0.167553
Si Si6 0.395662 0.578423 0.411480
Si Si7 0.878815 0.580153 0.345372
O O1 0.473136 0.750000 0.731615
O O2 0.272331 0.489571 0.793266
O O3 0.536847 0.535720 0.648541
O O4 0.756956 0.519844 0.666508
O O5 0.998072 0.750000 0.586602
O O6 0.172809 0.973323 0.500163
O O7 0.155956 0.973953 0.599614
O O8 0.188250 0.250000 0.985660
O O9 0.464898 0.024017 0.901700
O O10 0.000000 0.000000 0.000000
O O11 0.130414 0.006851 0.055502
O O12 0.012186 0.250000 0.869018
O O13 0.868207 0.467420 0.849789
O O14 0.269798 0.750000 0.168015
O O15 0.088584 0.525356 0.256303
O O16 0.351659 0.750000 0.404692
O O17 0.632477 0.587278 0.381545
O O18 0.935413 0.750000 0.346522
#
# Coordination Sequence:
#
# PCOD9168078 Si02
#       7
#     4   4   4   4   4   4   4
#     4  11  23  38  58  89 124 156 200 249 296 351
#     4  10  23  38  55  86 124 159 196 248 303 351
#     4  11  24  42  64  95 128 155 192 241 296 355
#     4  11  22  42  67  89 118 159 202 243 296 351
#     4   9  20  40  64  89 119 155 199 245 291 352
#     4  10  20  39  62  84 117 158 202 247 297 356
#     4  10  20  37  61  88 116 156 203 244 291 353
#
# _framework density 19.917818
#
# number of rings (size 3 to 8) (size 9 to 14) (size 15 to 20)
#    0.000    1.714    1.429    2.571    2.000    2.286 
#    0.000    2.857    0.000    0.000    0.000    0.000 
#    0.000    0.000    0.000    0.000    0.000    0.000 
#
# Total GULP energy -156086.562159 kJ/mol
# GULP energy per Si atom -5574.520077 kJ/mol
# Density = 1.987248 g / cm^3
# Si number density = 19.917818 Si / 1000 Ang^3
#
#
#
# Elastic Constant Matrix: (Units=GPa)
#
#
# Indices 1 2 3 4 5 6 
#
# 1 46.0157 5.6834 28.1681 0.0000 -21.6702 0.0000
# 2 5.6834 26.8350 21.9949 0.0000 -19.5751 0.0000
# 3 28.1681 21.9949 99.0212 0.0000 13.1237 0.0000
# 4 0.0000 0.0000 0.0000 -12.8558 0.0000 -1.5367
# 5 -21.6702 -19.5751 13.1237 0.0000 -3.5736 0.0000
# 6 0.0000 0.0000 0.0000 -1.5367 0.0000 21.9724
#
#
#
# Elastic Compliance Matrix: (Units=1/GPa)
#
#
# Indices 1 2 3 4 5 6 
#
# 1 0.016179 -0.014771 0.000644 0.000000 -0.014829 0.000000
# 2 -0.014771 0.022022 0.002305 0.000000 -0.022595 0.000000
# 3 0.000644 0.002305 0.007799 0.000000 0.012109 0.000000
# 4 0.000000 0.000000 0.000000 -0.077141 0.000000 -0.005395
# 5 -0.014829 -0.022595 0.012109 0.000000 -0.021673 0.000000
# 6 0.000000 0.000000 0.000000 -0.005395 0.000000 0.045134
#
#
# Mechanical properties :
#
#
# Convention : Reuss Voigt Hill
#
# Bulk Modulus (GPa) = 44.73306 31.50719 38.12012
# Shear Modulus (GPa) = 213.52905 8.84364 111.18634
#
# Velocity S-wave (km/s) = 10.36522 2.10943 7.47955
# Velocity P-wave (km/s) = 12.87470 4.66753 9.68359
#
# Compressibility (1/GPa) = 0.02235483
#
# Stress axis : x y z
#
# Youngs Moduli (GPa) = 61.80994 45.40859 128.22554
#
# Poissons Ratio (x) = 0.67074 -0.08259
# Poissons Ratio (y) = 0.91301 -0.29554
# Poissons Ratio (z) = -0.03981 -0.10466
#
# Static dielectric constant tensor:
#      x y z
#    x 1.779230 0.000000 0.001230 
#    y 0.000000 1.676300 0.000000 
#    z 0.001230 0.000000 1.693950 
# 
# From -- ./inp_files/28546.got.cif
#   From: 2010.05.17/outbox.ucp.g08.bks.cvg/sg11_15_cif.got.tgz:28546.got - 2010.06.11 11:38:39.
