data_PCOD9168823
_publ_section_title
;
Structure prediction by ZEFSAII (Michael W. Deem and Ramdas Pophale) SiO2 
 PCOD9168823
Probable space group: C 2/M
;
_chemical_formula_sum "Si O2"
_cell_formula_units_Z 64
_cell_length_a 29.304097
_cell_length_b 20.248584
_cell_length_c 13.388929
_cell_angle_alpha 90.000000
_cell_angle_beta 27.579190
_cell_angle_gamma 90.000000
_cell_volume 3678.117226
_symmetry_space_group_name_H-M "C 2/M"
_symmetry_group_IT_number 12
_symmetry_cell_setting 'monoclinic'
loop_
_space_group_symop_operation_xyz
x,y,z
-x,y,-z
-x,-y,-z
x,-y,z
1/2+x,1/2+y,z
1/2-x,1/2+y,-z
1/2-x,1/2-y,-z
1/2+x,1/2-y,z
loop_
_atom_site_type_symbol
_atom_site_label
_atom_site_fract_x
_atom_site_fract_y
_atom_site_fract_z
Si Si1 0.426269 0.785651 0.374762
Si Si2 0.797065 0.798154 0.491224
Si Si3 0.448147 0.576282 0.822026
Si Si4 0.260155 0.172075 0.006258
Si Si5 0.754658 0.148491 0.188636
Si Si6 0.416633 0.425184 0.245771
Si Si7 0.846401 0.705793 0.042493
Si Si8 0.054870 0.181891 0.485628
O O1 0.390662 0.742547 0.350903
O O2 0.343920 0.841467 0.554950
O O3 0.418459 0.736198 0.484622
O O4 0.540386 0.803455 0.146886
O O5 0.750000 0.750000 0.500000
O O6 0.836580 0.869013 0.380045
O O7 0.724765 0.810768 0.726307
O O8 0.454773 0.500000 0.779931
O O9 0.523871 0.587406 0.766617
O O10 0.484117 0.626623 0.667720
O O11 0.334818 0.594572 0.065965
O O12 0.277994 0.139502 0.863908
O O13 0.250000 0.250000 0.000000
O O14 0.328801 0.168558 0.970986
O O15 0.154238 0.149804 0.252533
O O16 0.816503 0.217591 0.078701
O O17 0.376122 0.500000 0.328091
O O18 0.500000 0.422940 0.000000
O O19 0.000000 0.216105 0.500000
#
# Coordination Sequence:
#
# PCOD9168823 Si02
#       8
#     8   8   8   8   8   8   8   8
#     4  11  21  32  53  80 110 141 178 230 278 325
#     4  11  23  34  56  81 113 145 177 235 285 328
#     4  11  22  36  53  76 113 151 179 222 269 326
#     4  10  16  29  47  74 108 143 175 213 277 321
#     4  10  19  31  49  78 107 141 178 220 265 322
#     4  10  22  39  60  81 108 146 184 221 277 340
#     4  10  19  33  50  78 109 136 178 225 278 320
#     4  12  18  30  53  78 115 145 178 223 270 333
#
# _framework density 17.400206000000001
#
# number of rings (size 3 to 8) (size 9 to 14) (size 15 to 20)
#    0.000    1.375    7.500    0.750    5.250    0.250 
#    0.000    0.000    0.000    0.750    0.000    1.750 
#    0.000    0.000    0.000    0.000    0.000    0.000 
#
# Total GULP energy -178328.465445 kJ/mol
# GULP energy per Si atom -5572.764545 kJ/mol
# Density = 1.736060 g / cm^3
# Si number density = 17.400206 Si / 1000 Ang^3
#
#
#
# Elastic Constant Matrix: (Units=GPa)
#
#
# Indices 1 2 3 4 5 6 
#
# 1 73.3534 33.3124 2.9413 0.0000 -12.8571 0.0000
# 2 33.3124 62.1188 27.8572 0.0000 -1.9448 0.0000
# 3 2.9413 27.8572 74.4076 0.0000 -19.0006 0.0000
# 4 0.0000 0.0000 0.0000 22.6049 0.0000 -8.6041
# 5 -12.8571 -1.9448 -19.0006 0.0000 29.4749 0.0000
# 6 0.0000 0.0000 0.0000 -8.6041 0.0000 15.5614
#
#
#
# Elastic Compliance Matrix: (Units=1/GPa)
#
#
# Indices 1 2 3 4 5 6 
#
# 1 0.023031 -0.015817 0.008751 0.000000 0.014644 0.000000
# 2 -0.015817 0.030623 -0.014467 0.000000 -0.014205 0.000000
# 3 0.008751 -0.014467 0.023032 0.000000 0.017710 0.000000
# 4 0.000000 0.000000 0.000000 0.056030 0.000000 0.030980
# 5 0.014644 -0.014205 0.017710 0.000000 0.050794 0.000000
# 6 0.000000 0.000000 0.000000 0.030980 0.000000 0.081390
#
#
# Mechanical properties :
#
#
# Convention : Reuss Voigt Hill
#
# Bulk Modulus (GPa) = 29.74382 37.56684 33.65533
# Shear Modulus (GPa) = 15.66541 23.24617 19.45579
#
# Velocity S-wave (km/s) = 3.00376 3.65906 3.34748
# Velocity P-wave (km/s) = 5.40010 6.28398 5.85873
#
# Compressibility (1/GPa) = 0.03362043
#
# Stress axis : x y z
#
# Youngs Moduli (GPa) = 43.41902 32.65496 43.41746
#
# Poissons Ratio (x) = 0.51649 -0.37993
# Poissons Ratio (y) = 0.68675 0.62812
# Poissons Ratio (z) = -0.37994 0.47242
#
# Static dielectric constant tensor:
#      x y z
#    x 1.665460 0.000000 0.003990 
#    y 0.000000 1.580180 0.000000 
#    z 0.003990 0.000000 1.623550 
# 
# From -- ./inp_files/184666.got.cif
#   From: 2010.05.17/outbox.cif.g08.bks.cpg/sg12_93_cif.got.tgz:184666.got - 2010.06.03 13:09:07.
