data_PCOD9168757
_publ_section_title
;
Structure prediction by ZEFSAII (Michael W. Deem and Ramdas Pophale) SiO2 
 PCOD9168757
Probable space group: C 2/M
;
_chemical_formula_sum "Si O2"
_cell_formula_units_Z 44
_cell_length_a 14.182101
_cell_length_b 14.353645
_cell_length_c 20.582087
_cell_angle_alpha 90.000000
_cell_angle_beta 153.793355
_cell_angle_gamma 90.000000
_cell_volume 1850.252486
_symmetry_space_group_name_H-M "C 2/M"
_symmetry_group_IT_number 12
_symmetry_cell_setting 'monoclinic'
loop_
_space_group_symop_operation_xyz
x,y,z
-x,y,-z
-x,-y,-z
x,-y,z
1/2+x,1/2+y,z
1/2-x,1/2+y,-z
1/2-x,1/2-y,-z
1/2+x,1/2-y,z
loop_
_atom_site_type_symbol
_atom_site_label
_atom_site_fract_x
_atom_site_fract_y
_atom_site_fract_z
Si Si1 0.920823 0.827816 0.128246
Si Si2 0.143101 0.500000 0.977607
Si Si3 0.282716 0.000000 0.659172
Si Si4 0.743685 0.700410 0.644118
Si Si5 0.281126 0.806649 0.821308
Si Si6 0.813636 0.896965 0.831726
Si Si7 0.182719 0.000000 0.741999
O O1 0.092155 0.776363 0.279407
O O2 0.060202 0.874711 0.156998
O O3 0.783997 0.910061 0.072643
O O4 0.750000 0.750000 0.000000
O O5 0.941014 0.500000 0.899133
O O6 0.030454 0.500000 0.837089
O O7 0.254021 0.102488 0.613018
O O8 0.138579 0.000000 0.636953
O O9 0.500000 0.731502 0.500000
O O10 0.821985 0.683473 0.767879
O O11 0.192916 0.700599 0.772831
O O12 0.135192 0.898558 0.741579
O O13 0.500000 0.807825 0.000000
O O14 0.708158 0.000000 0.763842
O O15 0.000000 0.902894 0.000000
#
# Coordination Sequence:
#
# PCOD9168757 Si02
#       7
#     8   4   4   8   8   8   4
#     4  11  18  30  50  73 103 132 174 218 261 308
#     4  10  16  28  46  72  96 126 170 213 254 292
#     4   8  15  29  45  67 101 129 159 204 268 305
#     4  10  19  30  46  74 109 131 159 214 271 309
#     4   9  16  28  47  69  98 130 170 205 250 315
#     4   9  17  28  44  70 100 131 169 210 256 303
#     4   8  15  27  43  73  97 117 160 217 259 290
#
# _framework density 23.780536999999999
#
# number of rings (size 3 to 8) (size 9 to 14) (size 15 to 20)
#    0.545    2.000    2.727    1.636    0.000    0.000 
#    0.000    0.455    0.000    0.000    0.000   31.818 
#    0.000    0.000    0.000    0.000    0.000    0.000 
#
# Total GULP energy -122508.250345 kJ/mol
# GULP energy per Si atom -5568.556834 kJ/mol
# Density = 2.372641 g / cm^3
# Si number density = 23.780537 Si / 1000 Ang^3
#
#
#
# Elastic Constant Matrix: (Units=GPa)
#
#
# Indices 1 2 3 4 5 6 
#
# 1 43.0967 -0.6129 8.8538 -0.0009 -11.9689 -0.0039
# 2 -0.6129 246.7143 42.1186 0.0091 11.5533 0.0000
# 3 8.8538 42.1186 101.3141 0.0121 8.2729 -0.0047
# 4 -0.0009 0.0091 0.0121 29.7612 0.0003 2.2129
# 5 -11.9689 11.5533 8.2729 0.0003 23.6076 -0.0070
# 6 -0.0039 0.0000 -0.0047 2.2129 -0.0070 11.4365
#
#
#
# Elastic Compliance Matrix: (Units=1/GPa)
#
#
# Indices 1 2 3 4 5 6 
#
# 1 0.028330 -0.000025 -0.003747 0.000001 0.015688 0.000018
# 2 -0.000025 0.004418 -0.001706 -0.000001 -0.001577 -0.000002
# 3 -0.003747 -0.001706 0.011318 -0.000004 -0.005031 0.000001
# 4 0.000001 -0.000001 -0.000004 0.034091 0.000000 -0.006596
# 5 0.015688 -0.001577 -0.005031 0.000000 0.052848 0.000036
# 6 0.000018 -0.000002 0.000001 -0.006596 0.000036 0.088716
#
#
# Mechanical properties :
#
#
# Convention : Reuss Voigt Hill
#
# Bulk Modulus (GPa) = 30.20076 54.64935 42.42506
# Shear Modulus (GPa) = 20.68581 35.67877 28.18229
#
# Velocity S-wave (km/s) = 2.95254 3.87762 3.44626
# Velocity P-wave (km/s) = 4.93464 6.56342 5.80643
#
# Compressibility (1/GPa) = 0.03311174
#
# Stress axis : x y z
#
# Youngs Moduli (GPa) = 35.29841 226.33249 88.35753
#
# Poissons Ratio (x) = 0.00559 0.33103
# Poissons Ratio (y) = 0.00087 0.15073
# Poissons Ratio (z) = 0.13225 0.38609
#
# Static dielectric constant tensor:
#      x y z
#    x 1.981940 0.000000 -0.053170 
#    y 0.000000 2.046850 0.000000 
#    z -0.053170 0.000000 1.932430 
# 
# From -- ./inp_files/364166.got.cif
#   From: 2010.05.17/outbox.cif.g08.bks.cpg/sg12_183_cif.got.tgz:364166.got - 2010.06.03 13:09:07.
