data_PCOD9168336
_publ_section_title
;
Structure prediction by ZEFSAII (Michael W. Deem and Ramdas Pophale) SiO2 
 PCOD9168336
Probable space group: C 2/M
;
_chemical_formula_sum "Si O2"
_cell_formula_units_Z 40
_cell_length_a 9.041809
_cell_length_b 25.553703
_cell_length_c 16.550590
_cell_angle_alpha 90.000000
_cell_angle_beta 148.125483
_cell_angle_gamma 90.000000
_cell_volume 2019.326256
_symmetry_space_group_name_H-M "C 2/M"
_symmetry_group_IT_number 12
_symmetry_cell_setting 'monoclinic'
loop_
_space_group_symop_operation_xyz
x,y,z
-x,y,-z
-x,-y,-z
x,-y,z
1/2+x,1/2+y,z
1/2-x,1/2+y,-z
1/2-x,1/2-y,-z
1/2+x,1/2-y,z
loop_
_atom_site_type_symbol
_atom_site_label
_atom_site_fract_x
_atom_site_fract_y
_atom_site_fract_z
Si Si1 0.315647 0.386606 0.533407
Si Si2 0.057103 0.613159 0.244303
Si Si3 0.667420 0.000000 0.849414
Si Si4 0.295891 0.500000 0.489770
Si Si5 0.489255 0.219769 0.843486
Si Si6 0.104715 0.218768 0.358908
O O1 0.624823 0.379325 0.638659
O O2 0.088661 0.381545 0.355884
O O3 0.326576 0.448179 0.556602
O O4 0.286482 0.340945 0.584726
O O5 0.940885 0.555972 0.166127
O O6 0.904789 0.662783 0.136152
O O7 0.512741 0.000000 0.691225
O O8 0.000000 0.000000 0.000000
O O9 0.500000 0.500000 0.500000
O O10 0.355313 0.249914 0.704719
O O11 0.231113 0.216089 0.785275
O O12 0.750000 0.250000 0.000000
O O13 0.250000 0.250000 0.500000
#
# Coordination Sequence:
#
# PCOD9168336 Si02
#       6
#     8   8   4   4   8   8
#     4   9  15  29  54  77 100 139 189 231 265 315
#     4   9  16  31  49  74 106 139 180 227 268 329
#     4  10  18  26  46  77 109 136 173 226 287 318
#     4  10  14  28  52  77 106 135 184 234 272 320
#     4  11  23  37  55  82 117 151 185 230 287 338
#     4  11  21  36  58  81 111 148 192 232 273 332
#
# _framework density 19.808586999999999
#
# number of rings (size 3 to 8) (size 9 to 14) (size 15 to 20)
#    0.000    2.000    6.000    1.200    0.000    1.600 
#    0.000    0.000    0.000    1.200    0.000    9.800 
#    0.000    0.000    0.000    0.000    0.000    0.000 
#
# Total GULP energy -111363.513074 kJ/mol
# GULP energy per Si atom -5568.175654 kJ/mol
# Density = 1.976350 g / cm^3
# Si number density = 19.808587 Si / 1000 Ang^3
#
#
#
# Elastic Constant Matrix: (Units=GPa)
#
#
# Indices 1 2 3 4 5 6 
#
# 1 31.4945 13.6637 4.7747 0.0000 6.4335 0.0000
# 2 13.6637 187.5221 29.1870 0.0000 -8.3516 0.0000
# 3 4.7747 29.1870 89.4377 0.0000 9.9085 0.0000
# 4 0.0000 0.0000 0.0000 37.8585 0.0000 -5.0253
# 5 6.4335 -8.3516 9.9085 0.0000 21.2954 0.0000
# 6 0.0000 0.0000 0.0000 -5.0253 0.0000 14.2920
#
#
#
# Elastic Compliance Matrix: (Units=1/GPa)
#
#
# Indices 1 2 3 4 5 6 
#
# 1 0.035571 -0.003216 0.000507 0.000000 -0.012243 0.000000
# 2 -0.003216 0.006127 -0.002321 0.000000 0.004454 0.000000
# 3 0.000507 -0.002321 0.012683 0.000000 -0.006965 0.000000
# 4 0.000000 0.000000 0.000000 0.027707 0.000000 0.009742
# 5 -0.012243 0.004454 -0.006965 0.000000 0.055645 0.000000
# 6 0.000000 0.000000 0.000000 0.009742 0.000000 0.073395
#
#
# Mechanical properties :
#
#
# Convention : Reuss Voigt Hill
#
# Bulk Modulus (GPa) = 22.56314 44.85613 33.70963
# Shear Modulus (GPa) = 21.18989 32.07777 26.63383
#
# Velocity S-wave (km/s) = 3.27422 4.02853 3.67080
# Velocity P-wave (km/s) = 5.07044 6.65828 5.91786
#
# Compressibility (1/GPa) = 0.04432008
#
# Stress axis : x y z
#
# Youngs Moduli (GPa) = 28.11286 163.21999 78.84574
#
# Poissons Ratio (x) = 0.52492 -0.03997
# Poissons Ratio (y) = 0.09041 0.18301
# Poissons Ratio (z) = -0.01425 0.37886
#
# Static dielectric constant tensor:
#      x y z
#    x 1.775450 0.000000 0.062790 
#    y 0.000000 1.792760 0.000000 
#    z 0.062790 0.000000 1.701490 
# 
# From -- ./inp_files/259792.got.cif
#   From: 2010.05.17/outbox.cif.g08.bks.cpg/sg12_130_cif.got.tgz:259792.got - 2010.06.03 13:09:07.
