data_PCOD9168760
_publ_section_title
;
Structure prediction by ZEFSAII (Michael W. Deem and Ramdas Pophale) SiO2 
 PCOD9168760
Probable space group: C 2/M
;
_chemical_formula_sum "Si O2"
_cell_formula_units_Z 64
_cell_length_a 25.474033
_cell_length_b 12.945635
_cell_length_c 12.070036
_cell_angle_alpha 90.000000
_cell_angle_beta 101.975829
_cell_angle_gamma 90.000000
_cell_volume 3893.793602
_symmetry_space_group_name_H-M "C 2/M"
_symmetry_group_IT_number 12
_symmetry_cell_setting 'monoclinic'
loop_
_space_group_symop_operation_xyz
x,y,z
-x,y,-z
-x,-y,-z
x,-y,z
1/2+x,1/2+y,z
1/2-x,1/2+y,-z
1/2-x,1/2-y,-z
1/2+x,1/2-y,z
loop_
_atom_site_type_symbol
_atom_site_label
_atom_site_fract_x
_atom_site_fract_y
_atom_site_fract_z
Si Si1 0.839467 0.377733 0.095518
Si Si2 0.664361 0.189296 0.157310
Si Si3 0.733954 0.382182 0.175470
Si Si4 0.579419 0.119675 0.522858
Si Si5 0.949388 0.625767 0.254916
Si Si6 0.299529 0.832964 0.414795
Si Si7 0.067024 0.625358 0.265485
Si Si8 0.750938 0.882929 0.372276
O O1 0.838514 0.500000 0.118861
O O2 0.783868 0.338358 0.124585
O O3 0.894538 0.336822 0.174108
O O4 0.840432 0.360644 0.965163
O O5 0.683542 0.306825 0.148330
O O6 0.609788 0.175293 0.202134
O O7 0.711654 0.137303 0.251344
O O8 0.722256 0.500000 0.137964
O O9 0.756813 0.379114 0.310496
O O10 0.547739 0.161794 0.615416
O O11 0.641531 0.127223 0.585687
O O12 0.576663 0.161176 0.396888
O O13 0.563507 0.000000 0.504271
O O14 0.947011 0.500000 0.258081
O O15 0.004556 0.649800 0.216099
O O16 0.284318 0.866218 0.532069
O O17 0.294273 0.709062 0.398489
O O18 0.074483 0.500000 0.263113
O O19 0.771392 0.000000 0.378490
#
# Coordination Sequence:
#
# PCOD9168760 Si02
#       8
#     8   8   8   8   8   8   8   8
#     4  10  19  32  49  69  96 126 156 190 232 284
#     4  11  21  31  47  70  98 129 156 186 237 286
#     4  10  20  34  50  69  94 123 161 200 230 271
#     4  10  16  28  47  68  96 124 156 192 230 276
#     4   9  18  30  47  70  95 128 159 188 232 281
#     4  10  18  28  48  69  90 125 158 189 233 281
#     4  10  19  30  46  71 101 126 153 191 235 286
#     4  10  19  30  43  67  99 125 151 191 236 280
#
# _framework density 16.436413000000002
#
# number of rings (size 3 to 8) (size 9 to 14) (size 15 to 20)
#    0.000    2.000    2.500    3.000    0.000    2.000 
#    0.000    1.875    0.000    0.000    0.000    2.625 
#    0.000    2.000    0.000    0.000    0.000    0.000 
#
# Total GULP energy -178330.201758 kJ/mol
# GULP energy per Si atom -5572.818805 kJ/mol
# Density = 1.639900 g / cm^3
# Si number density = 16.436413 Si / 1000 Ang^3
#
#
#
# Elastic Constant Matrix: (Units=GPa)
#
#
# Indices 1 2 3 4 5 6 
#
# 1 99.7490 28.6294 29.0251 0.0000 -15.6248 0.0000
# 2 28.6294 56.0629 1.6763 0.0000 -5.8380 0.0000
# 3 29.0251 1.6763 83.0199 0.0000 -10.4652 0.0000
# 4 0.0000 0.0000 0.0000 10.6339 0.0000 1.9712
# 5 -15.6248 -5.8380 -10.4652 0.0000 15.5647 0.0000
# 6 0.0000 0.0000 0.0000 1.9712 0.0000 17.9627
#
#
#
# Elastic Compliance Matrix: (Units=1/GPa)
#
#
# Indices 1 2 3 4 5 6 
#
# 1 0.014400 -0.006240 -0.003694 0.000000 0.009631 0.000000
# 2 -0.006240 0.021289 0.002151 0.000000 0.003167 0.000000
# 3 -0.003694 0.002151 0.014125 0.000000 0.006595 0.000000
# 4 0.000000 0.000000 0.000000 0.095992 0.000000 -0.010534
# 5 0.009631 0.003167 0.006595 0.000000 0.079538 0.000000
# 6 0.000000 0.000000 0.000000 -0.010534 0.000000 0.056827
#
#
# Mechanical properties :
#
#
# Convention : Reuss Voigt Hill
#
# Bulk Modulus (GPa) = 29.19967 39.72149 34.46058
# Shear Modulus (GPa) = 16.17320 20.79899 18.48610
#
# Velocity S-wave (km/s) = 3.14026 3.56114 3.35730
# Velocity P-wave (km/s) = 5.56346 6.41312 6.00334
#
# Compressibility (1/GPa) = 0.03424697
#
# Stress axis : x y z
#
# Youngs Moduli (GPa) = 69.44581 46.97220 70.79718
#
# Poissons Ratio (x) = 0.29311 0.26155
# Poissons Ratio (y) = 0.43335 -0.15229
# Poissons Ratio (z) = 0.25656 -0.10104
#
# Static dielectric constant tensor:
#      x y z
#    x 1.575140 0.000000 0.001450 
#    y 0.000000 1.554280 0.000000 
#    z 0.001450 0.000000 1.578560 
# 
# From -- ./inp_files/182160.got.cif
#   From: 2010.05.17/outbox.cif.g08.bks.cpg/sg12_92_cif.got.tgz:182160.got - 2010.06.03 13:09:07.
