data_PCOD9168109
_publ_section_title
;
Structure prediction by ZEFSAII (Michael W. Deem and Ramdas Pophale) SiO2 
 PCOD9168109
Probable space group: P 21/M
;
_chemical_formula_sum "Si O2"
_cell_formula_units_Z 26
_cell_length_a 9.000000
_cell_length_b 21.000000
_cell_length_c 9.000000
_cell_angle_alpha 90.000000
_cell_angle_beta 130.000000
_cell_angle_gamma 90.000000
_cell_volume 1303.041598
_symmetry_space_group_name_H-M "P 21/M"
_symmetry_group_IT_number 11
_symmetry_cell_setting 'monoclinic'
loop_
_space_group_symop_operation_xyz
x,y,z
-x,1/2+y,-z
-x,-y,-z
x,1/2-y,z
loop_
_atom_site_type_symbol
_atom_site_label
_atom_site_fract_x
_atom_site_fract_y
_atom_site_fract_z
Si Si1 0.803406 0.750000 0.094568
Si Si2 0.907002 0.462666 0.801171
Si Si3 0.675831 0.122159 0.108367
Si Si4 0.379798 0.750000 0.744688
Si Si5 0.437298 0.874790 0.312112
Si Si6 0.758722 0.607117 0.151829
Si Si7 0.246415 0.750000 0.328611
Si Si8 0.129643 0.076654 0.444885
O O1 0.778150 0.684378 0.171415
O O2 0.013670 0.750000 0.150934
O O3 0.612801 0.750000 0.867002
O O4 0.703956 0.429639 0.713678
O O5 0.864120 0.510322 0.638069
O O6 0.079357 0.414875 0.862014
O O7 0.000000 0.500000 0.000000
O O8 0.672499 0.188463 0.193243
O O9 0.900682 0.097839 0.271910
O O10 0.622046 0.128985 0.900117
O O11 0.468293 0.089517 0.030146
O O12 0.265957 0.750000 0.518594
O O13 0.357978 0.811029 0.337355
O O14 0.670999 0.885659 0.481287
O O15 0.826646 0.576330 0.351072
#
# Coordination Sequence:
#
# PCOD9168109 Si02
#       8
#     2   4   4   2   4   4   2   4
#     4  10  20  42  66  96 130 160 214 278 322 382
#     4  12  24  45  66  93 135 176 216 277 326 385
#     4  10  22  43  64  95 128 171 215 264 328 390
#     4  10  23  38  66  98 127 169 215 267 329 399
#     4  11  25  43  65  98 131 172 215 274 332 383
#     4  10  23  43  70  94 127 173 223 267 326 388
#     4  12  23  40  70  98 129 167 217 275 331 383
#     4  11  24  43  65  94 132 174 216 262 327 394
#
# _framework density 19.953315
#
# number of rings (size 3 to 8) (size 9 to 14) (size 15 to 20)
#    0.000    1.231    3.077    2.308    0.000    6.769 
#    2.769    0.000    0.000    0.000    0.000    0.000 
#    0.000    0.000    0.000    0.000    0.000    0.000 
#
# Total GULP energy -144948.951298 kJ/mol
# GULP energy per Si atom -5574.959665 kJ/mol
# Density = 1.990790 g / cm^3
# Si number density = 19.953315 Si / 1000 Ang^3
#
#
#
# Elastic Constant Matrix: (Units=GPa)
#
#
# Indices 1 2 3 4 5 6 
#
# 1 139.1362 36.3814 35.5010 0.0000 37.5554 0.0000
# 2 36.3814 64.5860 24.4224 0.0000 5.4249 0.0000
# 3 35.5010 24.4224 82.7029 0.0000 33.1393 0.0000
# 4 0.0000 0.0000 0.0000 16.9564 0.0000 2.3749
# 5 37.5554 5.4249 33.1393 0.0000 51.4220 0.0000
# 6 0.0000 0.0000 0.0000 2.3749 0.0000 42.0871
#
#
#
# Elastic Compliance Matrix: (Units=1/GPa)
#
#
# Indices 1 2 3 4 5 6 
#
# 1 0.010495 -0.005271 -0.000135 0.000000 -0.007022 0.000000
# 2 -0.005271 0.020230 -0.005930 0.000000 0.005537 0.000000
# 3 -0.000135 -0.005930 0.018349 0.000000 -0.011101 0.000000
# 4 0.000000 0.000000 0.000000 0.059444 0.000000 -0.003354
# 5 -0.007022 0.005537 -0.011101 0.000000 0.031145 0.000000
# 6 0.000000 0.000000 0.000000 -0.003354 0.000000 0.023950
#
#
# Mechanical properties :
#
#
# Convention : Reuss Voigt Hill
#
# Bulk Modulus (GPa) = 37.87633 53.22610 45.55122
# Shear Modulus (GPa) = 25.62980 34.76780 30.19880
#
# Velocity S-wave (km/s) = 3.58786 4.17880 3.89456
# Velocity P-wave (km/s) = 6.01559 7.07223 6.56520
#
# Compressibility (1/GPa) = 0.02640171
#
# Stress axis : x y z
#
# Youngs Moduli (GPa) = 95.28049 49.43216 54.50008
#
# Poissons Ratio (x) = 0.26057 0.00735
# Poissons Ratio (y) = 0.50225 0.32318
# Poissons Ratio (z) = 0.01285 0.29313
#
# Static dielectric constant tensor:
#      x y z
#    x 1.746710 0.000000 0.008280 
#    y 0.000000 1.599170 0.000000 
#    z 0.008280 0.000000 1.674620 
# 
# From -- ./inp_files/14528.got.cif
#   From: 2010.05.17/outbox.ucp.g08.bks.cvg/sg11_8_cif.got.tgz:14528.got - 2010.06.11 11:38:39.
