data_PCOD9168436
_publ_section_title
;
Structure prediction by ZEFSAII (Michael W. Deem and Ramdas Pophale) SiO2 
 PCOD9168436
Probable space group: C 2/M
;
_chemical_formula_sum "Si O2"
_cell_formula_units_Z 48
_cell_length_a 23.099109
_cell_length_b 13.706462
_cell_length_c 15.068280
_cell_angle_alpha 90.000000
_cell_angle_beta 30.095631
_cell_angle_gamma 90.000000
_cell_volume 2392.254488
_symmetry_space_group_name_H-M "C 2/M"
_symmetry_group_IT_number 12
_symmetry_cell_setting 'monoclinic'
loop_
_space_group_symop_operation_xyz
x,y,z
-x,y,-z
-x,-y,-z
x,-y,z
1/2+x,1/2+y,z
1/2-x,1/2+y,-z
1/2-x,1/2-y,-z
1/2+x,1/2-y,z
loop_
_atom_site_type_symbol
_atom_site_label
_atom_site_fract_x
_atom_site_fract_y
_atom_site_fract_z
Si Si1 0.133115 0.887072 0.788293
Si Si2 0.788402 0.807890 0.138794
Si Si3 0.249400 0.389311 0.900577
Si Si4 0.087623 0.390638 0.281613
Si Si5 0.508649 0.681163 0.386684
Si Si6 0.965513 0.116832 0.259235
O O1 0.206646 0.831183 0.763902
O O2 0.125928 0.853740 0.695747
O O3 0.169325 0.000000 0.742460
O O4 0.000000 0.883625 0.000000
O O5 0.765954 0.693655 0.152147
O O6 0.690185 0.867497 0.215764
O O7 0.912587 0.835616 0.931885
O O8 0.264556 0.500000 0.848760
O O9 0.361260 0.354341 0.807196
O O10 0.144868 0.386727 0.108410
O O11 0.041878 0.500000 0.354480
O O12 0.003163 0.298324 0.397788
O O13 0.500000 0.644731 0.500000
O O14 0.436454 0.643116 0.399359
O O15 0.979784 0.000000 0.233489
#
# Coordination Sequence:
#
# PCOD9168436 Si02
#       6
#     8   8   8   8   8   8
#     4   8  15  24  42  70  94 119 150 192 238 270
#     4  10  15  28  48  71  93 118 153 200 236 270
#     4  10  19  31  49  70  94 127 159 192 233 277
#     4  10  18  31  51  70  92 124 160 197 233 270
#     4  11  21  32  47  71 100 127 153 187 238 286
#     4  10  17  28  45  69  99 123 151 193 235 276
#
# _framework density 20.064754000000001
#
# number of rings (size 3 to 8) (size 9 to 14) (size 15 to 20)
#    0.000    2.167    3.333    4.000    0.000    1.667 
#    0.000    0.000    0.000    9.500    0.000    2.333 
#    0.000    0.000    0.000    0.000    0.000    0.000 
#
# Total GULP energy -133838.940061 kJ/mol
# GULP energy per Si atom -5576.622503 kJ/mol
# Density = 2.001909 g / cm^3
# Si number density = 20.064754 Si / 1000 Ang^3
#
#
#
# Elastic Constant Matrix: (Units=GPa)
#
#
# Indices 1 2 3 4 5 6 
#
# 1 176.8039 59.7811 5.5718 0.0000 35.9048 0.0000
# 2 59.7811 122.0553 -5.7024 0.0000 7.6503 0.0000
# 3 5.5718 -5.7024 23.4219 0.0000 17.4773 0.0000
# 4 0.0000 0.0000 0.0000 2.2772 0.0000 4.7760
# 5 35.9048 7.6503 17.4773 0.0000 27.8406 0.0000
# 6 0.0000 0.0000 0.0000 4.7760 0.0000 16.9738
#
#
#
# Elastic Compliance Matrix: (Units=1/GPa)
#
#
# Indices 1 2 3 4 5 6 
#
# 1 0.010420 -0.003339 0.011384 0.000000 -0.019667 0.000000
# 2 -0.003339 0.010072 0.003947 0.000000 -0.000939 0.000000
# 3 0.011384 0.003947 0.099165 0.000000 -0.078018 0.000000
# 4 0.000000 0.000000 0.000000 1.071431 0.000000 -0.301473
# 5 -0.019667 -0.000939 -0.078018 0.000000 0.110518 0.000000
# 6 0.000000 0.000000 0.000000 -0.301473 0.000000 0.143741
#
#
# Mechanical properties :
#
#
# Convention : Reuss Voigt Hill
#
# Bulk Modulus (GPa) = 6.96181 49.06466 28.01323
# Shear Modulus (GPa) = 3.40311 26.92702 15.16507
#
# Velocity S-wave (km/s) = 1.30374 3.66731 2.75218
# Velocity P-wave (km/s) = 2.39657 6.51448 4.90826
#
# Compressibility (1/GPa) = 0.14364087
#
# Stress axis : x y z
#
# Youngs Moduli (GPa) = 95.96688 99.28753 10.08425
#
# Poissons Ratio (x) = 0.33153 -0.11480
# Poissons Ratio (y) = 0.32045 -0.03981
# Poissons Ratio (z) = -1.09248 -0.39192
#
# Static dielectric constant tensor:
#      x y z
#    x 1.726860 0.000000 0.030450 
#    y 0.000000 1.703320 0.000000 
#    z 0.030450 0.000000 1.795990 
# 
# From -- ./inp_files/155236.got.cif
#   From: 2010.05.17/outbox.cif.g08.bks.cpg/sg12_78_cif.got.tgz:155236.got - 2010.06.03 13:09:07.
