data_PCOD9168278
_publ_section_title
;
Structure prediction by ZEFSAII (Michael W. Deem and Ramdas Pophale) SiO2 
 PCOD9168278
Probable space group: C 2/M
;
_chemical_formula_sum "Si O2"
_cell_formula_units_Z 64
_cell_length_a 26.533493
_cell_length_b 21.730531
_cell_length_c 7.529664
_cell_angle_alpha 90.000000
_cell_angle_beta 133.350702
_cell_angle_gamma 90.000000
_cell_volume 3156.993415
_symmetry_space_group_name_H-M "C 2/M"
_symmetry_group_IT_number 12
_symmetry_cell_setting 'monoclinic'
loop_
_space_group_symop_operation_xyz
x,y,z
-x,y,-z
-x,-y,-z
x,-y,z
1/2+x,1/2+y,z
1/2-x,1/2+y,-z
1/2-x,1/2-y,-z
1/2+x,1/2-y,z
loop_
_atom_site_type_symbol
_atom_site_label
_atom_site_fract_x
_atom_site_fract_y
_atom_site_fract_z
Si Si1 0.178023 0.845634 0.189147
Si Si2 0.693547 0.785535 0.617591
Si Si3 0.402006 0.221155 0.113754
Si Si4 0.574563 0.569552 0.088410
Si Si5 0.769986 0.663430 0.899423
Si Si6 0.829573 0.927536 0.187220
Si Si7 0.451631 0.760543 0.642255
Si Si8 0.023989 0.873954 0.371739
O O1 0.133904 0.784241 0.040228
O O2 0.176888 0.890218 0.013666
O O3 0.138165 0.883845 0.244160
O O4 0.256759 0.821937 0.397445
O O5 0.712460 0.813457 0.857027
O O6 0.611298 0.786286 0.392029
O O7 0.718297 0.714824 0.693801
O O8 0.342789 0.169132 0.973711
O O9 0.472801 0.208992 0.179421
O O10 0.422361 0.232751 0.369729
O O11 0.594377 0.500000 0.175685
O O12 0.540348 0.579557 0.812533
O O13 0.500000 0.583705 0.000000
O O14 0.730272 0.599791 0.830172
O O15 0.904155 0.910116 0.450460
O O16 0.823928 0.000000 0.146904
O O17 0.464475 0.688404 0.712372
O O18 0.000000 0.845738 0.500000
#
# Coordination Sequence:
#
# PCOD9168278 Si02
#       8
#     8   8   8   8   8   8   8   8
#     4  10  16  28  40  61  79 110 143 175 206 247
#     4   8  14  21  39  56  84 104 132 173 214 247
#     4   9  14  22  40  60  86 106 136 171 217 249
#     4  11  23  34  42  57  88 125 148 164 199 252
#     4   8  14  23  32  57  87 111 129 167 213 256
#     4  11  18  24  39  62  86 109 138 178 213 237
#     4  10  12  22  39  66  84 104 130 174 216 246
#     4  12  18  28  44  67  87 108 142 178 208 240
#
# _framework density 20.272454
#
# number of rings (size 3 to 8) (size 9 to 14) (size 15 to 20)
#    0.000    2.125    6.250    2.250    0.000    0.500 
#    0.000    0.000    0.000    0.750    0.000   16.625 
#    0.000    0.000    0.000    0.000    0.000   13.125 
#
# Total GULP energy -178430.287838 kJ/mol
# GULP energy per Si atom -5575.946495 kJ/mol
# Density = 2.022631 g / cm^3
# Si number density = 20.272454 Si / 1000 Ang^3
#
#
#
# Elastic Constant Matrix: (Units=GPa)
#
#
# Indices 1 2 3 4 5 6 
#
# 1 117.1293 48.2146 49.8113 0.0000 52.7421 0.0000
# 2 48.2146 66.3397 20.4648 0.0000 27.1039 0.0000
# 3 49.8113 20.4648 69.0577 0.0000 26.3171 0.0000
# 4 0.0000 0.0000 0.0000 30.6125 0.0000 24.7359
# 5 52.7421 27.1039 26.3171 0.0000 47.2559 0.0000
# 6 0.0000 0.0000 0.0000 24.7359 0.0000 37.6456
#
#
#
# Elastic Compliance Matrix: (Units=1/GPa)
#
#
# Indices 1 2 3 4 5 6 
#
# 1 0.021965 -0.006969 -0.007565 0.000000 -0.016306 0.000000
# 2 -0.006969 0.022106 0.000436 0.000000 -0.005144 0.000000
# 3 -0.007565 0.000436 0.021181 0.000000 -0.003603 0.000000
# 4 0.000000 0.000000 0.000000 0.069642 0.000000 -0.045760
# 5 -0.016306 -0.005144 -0.003603 0.000000 0.044317 0.000000
# 6 0.000000 0.000000 0.000000 -0.045760 0.000000 0.056631
#
#
# Mechanical properties :
#
#
# Convention : Reuss Voigt Hill
#
# Bulk Modulus (GPa) = 26.98514 54.38979 40.68746
# Shear Modulus (GPa) = 18.09043 32.03853 25.06448
#
# Velocity S-wave (km/s) = 2.99049 3.97973 3.52004
# Velocity P-wave (km/s) = 5.02635 6.92859 6.05267
#
# Compressibility (1/GPa) = 0.03705743
#
# Stress axis : x y z
#
# Youngs Moduli (GPa) = 45.52610 45.23702 47.21243
#
# Poissons Ratio (x) = 0.31524 0.35714
# Poissons Ratio (y) = 0.31725 -0.02058
# Poissons Ratio (z) = 0.34439 -0.01972
#
# Static dielectric constant tensor:
#      x y z
#    x 2.984340 0.000000 -1.144170 
#    y 0.000000 1.654800 0.000000 
#    z -1.144170 0.000000 2.860540 
# 
# From -- ./inp_files/177598.got.cif
#   From: 2010.05.17/outbox.cif.g08.bks.cpg/sg12_89_cif.got.tgz:177598.got - 2010.06.03 13:09:07.
