data_PCOD9168543
_publ_section_title
;
Structure prediction by ZEFSAII (Michael W. Deem and Ramdas Pophale) SiO2 
 PCOD9168543
Probable space group: C 2/M
;
_chemical_formula_sum "Si O2"
_cell_formula_units_Z 56
_cell_length_a 13.835998
_cell_length_b 11.171873
_cell_length_c 21.582689
_cell_angle_alpha 90.000000
_cell_angle_beta 47.806504
_cell_angle_gamma 90.000000
_cell_volume 2471.669500
_symmetry_space_group_name_H-M "C 2/M"
_symmetry_group_IT_number 12
_symmetry_cell_setting 'monoclinic'
loop_
_space_group_symop_operation_xyz
x,y,z
-x,y,-z
-x,-y,-z
x,-y,z
1/2+x,1/2+y,z
1/2-x,1/2+y,-z
1/2-x,1/2-y,-z
1/2+x,1/2-y,z
loop_
_atom_site_type_symbol
_atom_site_label
_atom_site_fract_x
_atom_site_fract_y
_atom_site_fract_z
Si Si1 0.914372 0.868196 0.640452
Si Si2 0.429835 0.127173 0.290660
Si Si3 0.820458 0.363566 0.725034
Si Si4 0.188757 0.130995 0.054578
Si Si5 0.428035 0.364153 0.089691
Si Si6 0.793359 0.868820 0.516453
Si Si7 0.966029 0.869805 0.766467
O O1 0.841098 0.741749 0.666361
O O2 0.947312 0.869911 0.700482
O O3 0.051267 0.862571 0.545563
O O4 0.855357 0.000000 0.653335
O O5 0.545455 0.126369 0.292800
O O6 0.292660 0.130247 0.384917
O O7 0.453553 0.253347 0.248124
O O8 0.443669 0.000000 0.250209
O O9 0.793497 0.500000 0.714821
O O10 0.704071 0.322411 0.821068
O O11 0.168506 0.138276 0.137093
O O12 0.042181 0.128504 0.090739
O O13 0.248442 0.000000 0.013117
O O14 0.250000 0.250000 0.000000
O O15 0.392607 0.500000 0.083620
O O16 0.500000 0.303275 0.000000
O O17 0.750000 0.750000 0.500000
O O18 0.766189 0.000000 0.497611
O O19 0.024073 0.000000 0.756729
#
# Coordination Sequence:
#
# PCOD9168543 Si02
#       7
#     8   8   8   8   8   8   8
#     4   9  17  27  43  68 101 133 155 196 251 295
#     4   9  17  26  44  74  99 125 164 208 241 284
#     4   9  16  27  45  67  90 120 161 200 235 282
#     4  10  22  37  54  75  99 129 168 210 255 307
#     4   9  19  34  52  73  97 128 166 209 254 297
#     4  10  16  24  39  67 103 131 161 200 246 289
#     4   9  17  29  44  65  94 126 156 192 246 296
#
# _framework density 22.656749999999999
#
# number of rings (size 3 to 8) (size 9 to 14) (size 15 to 20)
#    0.000    2.714    2.857    0.000    4.000    0.571 
#    0.000    0.714    0.000    0.857    0.000    4.000 
#    0.000   25.143    0.000    0.000    0.000    0.000 
#
# Total GULP energy -155941.678445 kJ/mol
# GULP energy per Si atom -5569.345659 kJ/mol
# Density = 2.260518 g / cm^3
# Si number density = 22.656750 Si / 1000 Ang^3
#
#
#
# Elastic Constant Matrix: (Units=GPa)
#
#
# Indices 1 2 3 4 5 6 
#
# 1 62.6704 16.5860 20.2917 0.0000 -1.2141 0.0000
# 2 16.5860 265.2885 59.3565 0.0000 -11.2608 0.0000
# 3 20.2917 59.3565 94.3678 0.0000 -22.4078 0.0000
# 4 0.0000 0.0000 0.0000 38.0939 0.0000 -2.8607
# 5 -1.2141 -11.2608 -22.4078 0.0000 17.8824 0.0000
# 6 0.0000 0.0000 0.0000 -2.8607 0.0000 5.5147
#
#
#
# Elastic Compliance Matrix: (Units=1/GPa)
#
#
# Indices 1 2 3 4 5 6 
#
# 1 0.017472 -0.000231 -0.004790 0.000000 -0.004961 0.000000
# 2 -0.000231 0.004402 -0.002939 0.000000 -0.000927 0.000000
# 3 -0.004790 -0.002939 0.018448 0.000000 0.020940 0.000000
# 4 0.000000 0.000000 0.000000 0.027315 0.000000 0.014169
# 5 -0.004961 -0.000927 0.020940 0.000000 0.081240 0.000000
# 6 0.000000 0.000000 0.000000 0.014169 0.000000 0.188683
#
#
# Mechanical properties :
#
#
# Convention : Reuss Voigt Hill
#
# Bulk Modulus (GPa) = 40.98004 68.31057 54.64530
# Shear Modulus (GPa) = 13.82688 34.03772 23.93230
#
# Velocity S-wave (km/s) = 2.47306 3.88018 3.25360
# Velocity P-wave (km/s) = 5.12653 7.09155 6.18754
#
# Compressibility (1/GPa) = 0.02440213
#
# Stress axis : x y z
#
# Youngs Moduli (GPa) = 57.23316 227.15646 54.20711
#
# Poissons Ratio (x) = 0.05255 0.25963
# Poissons Ratio (y) = 0.01324 0.15933
# Poissons Ratio (z) = 0.27412 0.66767
#
# Static dielectric constant tensor:
#      x y z
#    x 1.875720 0.000000 0.049560 
#    y 0.000000 2.886310 0.000000 
#    z 0.049560 0.000000 1.911250 
# 
# From -- ./inp_files/342991.got.cif
#   From: 2010.05.17/outbox.cif.g08.bks.cpg/sg12_172_cif.got.tgz:342991.got - 2010.06.03 13:09:07.
