data_PCOD9168633
_publ_section_title
;
Structure prediction by ZEFSAII (Michael W. Deem and Ramdas Pophale) SiO2 
 PCOD9168633
Probable space group: C 2/M
;
_chemical_formula_sum "Si O2"
_cell_formula_units_Z 36
_cell_length_a 28.570386
_cell_length_b 5.719828
_cell_length_c 13.318625
_cell_angle_alpha 90.000000
_cell_angle_beta 44.017261
_cell_angle_gamma 90.000000
_cell_volume 1512.394835
_symmetry_space_group_name_H-M "C 2/M"
_symmetry_group_IT_number 12
_symmetry_cell_setting 'monoclinic'
loop_
_space_group_symop_operation_xyz
x,y,z
-x,y,-z
-x,-y,-z
x,-y,z
1/2+x,1/2+y,z
1/2-x,1/2+y,-z
1/2-x,1/2-y,-z
1/2+x,1/2-y,z
loop_
_atom_site_type_symbol
_atom_site_label
_atom_site_fract_x
_atom_site_fract_y
_atom_site_fract_z
Si Si1 0.323442 0.000000 0.935891
Si Si2 0.329894 0.750544 0.400717
Si Si3 0.799321 0.500000 0.736001
Si Si4 0.854427 0.500000 0.173846
Si Si5 0.506656 0.500000 0.111263
Si Si6 0.855493 0.000000 0.979702
Si Si7 0.284652 0.500000 0.730260
Si Si8 0.005312 0.500000 0.113063
O O1 0.355442 0.253107 0.918269
O O2 0.314985 0.000000 0.830069
O O3 0.250578 0.000000 0.104608
O O4 0.346758 0.500000 0.418562
O O5 0.250000 0.750000 0.500000
O O6 0.360434 0.784300 0.241651
O O7 0.343623 0.000000 0.430649
O O8 0.821475 0.247057 0.661121
O O9 0.717283 0.500000 0.852455
O O10 0.781348 0.500000 0.238586
O O11 0.913571 0.500000 0.002849
O O12 0.582368 0.500000 0.039152
O O13 0.500000 0.500000 0.000000
O O14 0.478170 0.751336 0.191445
O O15 0.000000 0.500000 0.000000
#
# Coordination Sequence:
#
# PCOD9168633 Si02
#       8
#     4   8   4   4   4   4   4   4
#     4  10  18  28  39  54  76  99 131 176 207 244
#     4   8  16  28  41  57  78 101 129 177 221 244
#     4  10  18  28  37  53  79 101 129 174 207 242
#     4  10  20  26  46  59  82 103 148 182 208 248
#     4  10  20  32  41  55  80 105 138 185 215 241
#     4  10  16  26  42  53  64  97 134 164 210 244
#     4  10  18  24  38  56  72 100 132 167 206 235
#     4  10  20  30  40  56  81 109 135 176 219 240
#
# _framework density 23.803308999999999
#
# number of rings (size 3 to 8) (size 9 to 14) (size 15 to 20)
#    0.667    1.778    0.000    6.667    3.111    0.000 
#    0.000    0.000    0.000    0.000    0.000    0.000 
#    0.000    0.000    0.000    0.000    0.000    0.000 
#
# Total GULP energy -100395.555997 kJ/mol
# GULP energy per Si atom -5577.530889 kJ/mol
# Density = 2.374913 g / cm^3
# Si number density = 23.803309 Si / 1000 Ang^3
#
#
#
# Elastic Constant Matrix: (Units=GPa)
#
#
# Indices 1 2 3 4 5 6 
#
# 1 89.8964 50.4298 14.9707 0.0001 3.8191 0.0000
# 2 50.4298 345.0006 42.1644 -0.0001 14.0740 -0.0005
# 3 14.9707 42.1644 39.1993 0.0001 -0.8878 0.0000
# 4 0.0001 -0.0001 0.0001 34.3266 0.0000 4.4223
# 5 3.8191 14.0740 -0.8878 0.0000 22.6774 0.0001
# 6 0.0000 -0.0005 0.0000 4.4223 0.0001 42.9761
#
#
#
# Elastic Compliance Matrix: (Units=1/GPa)
#
#
# Indices 1 2 3 4 5 6 
#
# 1 0.012504 -0.001363 -0.003341 0.000000 -0.001391 0.000000
# 2 -0.001363 0.003601 -0.003401 0.000000 -0.002138 0.000000
# 3 -0.003341 -0.003401 0.030533 0.000000 0.003869 0.000000
# 4 0.000000 0.000000 0.000000 0.029523 0.000000 -0.003038
# 5 -0.001391 -0.002138 0.003869 0.000000 0.045810 0.000000
# 6 0.000000 0.000000 0.000000 -0.003038 0.000000 0.023581
#
#
# Mechanical properties :
#
#
# Convention : Reuss Voigt Hill
#
# Bulk Modulus (GPa) = 32.86510 76.58068 54.72289
# Shear Modulus (GPa) = 29.08614 44.43145 36.75879
#
# Velocity S-wave (km/s) = 3.49941 4.32511 3.93399
# Velocity P-wave (km/s) = 5.49225 7.56203 6.60867
#
# Compressibility (1/GPa) = 0.03042742
#
# Stress axis : x y z
#
# Youngs Moduli (GPa) = 79.97551 277.73100 32.75197
#
# Poissons Ratio (x) = 0.37845 0.10943
# Poissons Ratio (y) = 0.10898 0.11139
# Poissons Ratio (z) = 0.26721 0.94456
#
# Static dielectric constant tensor:
#      x y z
#    x 1.977560 0.000000 -0.052010 
#    y 0.000000 2.060160 0.000000 
#    z -0.052010 0.000000 1.974720 
# 
# From -- ./inp_files/291261.got.cif
#   From: 2010.05.17/outbox.cif.g08.bks.cpg/sg12_146_cif.got.tgz:291261.got - 2010.06.03 13:09:07.
