data_PCOD9168119
_publ_section_title
;
Structure prediction by ZEFSAII (Michael W. Deem and Ramdas Pophale) SiO2 
 PCOD9168119
Probable space group: P 21/M
;
_chemical_formula_sum "Si O2"
_cell_formula_units_Z 28
_cell_length_a 30.000000
_cell_length_b 9.000000
_cell_length_c 30.000000
_cell_angle_alpha 90.000000
_cell_angle_beta 170.000000
_cell_angle_gamma 90.000000
_cell_volume 1406.550239
_symmetry_space_group_name_H-M "P 21/M"
_symmetry_group_IT_number 11
_symmetry_cell_setting 'monoclinic'
loop_
_space_group_symop_operation_xyz
x,y,z
-x,1/2+y,-z
-x,-y,-z
x,1/2-y,z
loop_
_atom_site_type_symbol
_atom_site_label
_atom_site_fract_x
_atom_site_fract_y
_atom_site_fract_z
Si Si1 0.048006 0.072129 0.143721
Si Si2 0.620677 0.423969 0.372873
Si Si3 0.773969 0.927758 0.434540
Si Si4 0.711738 0.930668 0.091867
Si Si5 0.099854 0.422256 0.911201
Si Si6 0.426588 0.570320 0.380847
Si Si7 0.238165 0.931195 0.761596
O O1 0.043345 0.250000 0.138166
O O2 0.340342 0.025945 0.422468
O O3 0.948892 0.017686 0.093330
O O4 0.847219 0.020188 0.908161
O O5 0.602685 0.250000 0.339671
O O6 0.665093 0.533888 0.375891
O O7 0.859998 0.434632 0.641802
O O8 0.359798 0.461301 0.141556
O O9 0.794275 0.750000 0.446564
O O10 0.051276 0.008334 0.704396
O O11 0.563789 0.004292 0.194932
O O12 0.706886 0.750000 0.088055
O O13 0.775153 0.004151 0.201815
O O14 0.122515 0.250000 0.947242
O O15 0.500000 0.500000 0.500000
O O16 0.423816 0.750000 0.381868
O O17 0.237598 0.750000 0.759885
O O18 0.000000 0.000000 0.500000
O O19 0.500000 0.000000 0.000000
#
# Coordination Sequence:
#
# PCOD9168119 Si02
#       7
#     4   4   4   4   4   4   4
#     4  10  21  36  54  78 109 141 179 226 281 335
#     4  10  21  38  58  84 117 154 194 240 292 352
#     4  12  25  42  65  96 127 162 209 260 309 366
#     4  12  25  44  67  93 127 170 210 254 313 371
#     4  10  21  36  57  83 112 148 193 236 283 344
#     4  10  21  36  54  78 106 140 179 224 275 334
#     4  12  25  44  67  96 130 167 211 260 311 370
#
# _framework density 19.906860999999999
#
# number of rings (size 3 to 8) (size 9 to 14) (size 15 to 20)
#    0.000    1.143    0.000    6.857    0.000    3.429 
#    0.000    0.000    0.000    0.000    0.000    0.000 
#    0.000    0.000    0.000    0.000    0.000    0.000 
#
# Total GULP energy -156543.537259 kJ/mol
# GULP energy per Si atom -5590.840616 kJ/mol
# Density = 1.986155 g / cm^3
# Si number density = 19.906861 Si / 1000 Ang^3
#
#
#
# Elastic Constant Matrix: (Units=GPa)
#
#
# Indices 1 2 3 4 5 6 
#
# 1 42.9369 11.6148 -10.5203 0.0000 6.2456 0.0000
# 2 11.6148 105.3451 15.2491 0.0000 2.9362 0.0000
# 3 -10.5203 15.2491 73.0518 0.0000 16.2955 0.0000
# 4 0.0000 0.0000 0.0000 36.5459 0.0000 -4.6378
# 5 6.2456 2.9362 16.2955 0.0000 33.2251 0.0000
# 6 0.0000 0.0000 0.0000 -4.6378 0.0000 42.5686
#
#
#
# Elastic Compliance Matrix: (Units=1/GPa)
#
#
# Indices 1 2 3 4 5 6 
#
# 1 0.027010 -0.003687 0.006422 0.000000 -0.007901 0.000000
# 2 -0.003687 0.010292 -0.002954 0.000000 0.001233 0.000000
# 3 0.006422 -0.002954 0.017338 0.000000 -0.009450 0.000000
# 4 0.000000 0.000000 0.000000 0.027746 0.000000 0.003023
# 5 -0.007901 0.001233 -0.009450 0.000000 0.036109 0.000000
# 6 0.000000 0.000000 0.000000 0.003023 0.000000 0.023821
#
#
# Mechanical properties :
#
#
# Convention : Reuss Voigt Hill
#
# Bulk Modulus (GPa) = 18.44968 28.22457 23.33713
# Shear Modulus (GPa) = 31.08983 36.13393 33.61188
#
# Velocity S-wave (km/s) = 3.95620 4.26508 4.11354
# Velocity P-wave (km/s) = 5.49153 6.20191 5.85749
#
# Compressibility (1/GPa) = 0.05420147
#
# Stress axis : x y z
#
# Youngs Moduli (GPa) = 37.02295 97.15829 57.67522
#
# Poissons Ratio (x) = 0.35826 -0.37039
# Poissons Ratio (y) = 0.13652 0.17040
# Poissons Ratio (z) = -0.23776 0.28705
#
# Static dielectric constant tensor:
#      x y z
#    x 1.722430 0.000000 0.021200 
#    y 0.000000 1.669840 0.000000 
#    z 0.021200 0.000000 1.708120 
# 
# From -- ./inp_files/73862.got.cif
#   From: 2010.05.17/outbox.ucp.g08.bks.cvg/sg11_37_cif.got.tgz:73862.got - 2010.06.11 11:38:39.
