data_PCOD9168102
_publ_section_title
;
Structure prediction by ZEFSAII (Michael W. Deem and Ramdas Pophale) SiO2 
 PCOD9168102
Probable space group: P 21/M
;
_chemical_formula_sum "Si O2"
_cell_formula_units_Z 32
_cell_length_a 12.000000
_cell_length_b 9.000000
_cell_length_c 30.000000
_cell_angle_alpha 90.000000
_cell_angle_beta 30.000000
_cell_angle_gamma 90.000000
_cell_volume 1620.000000
_symmetry_space_group_name_H-M "P 21/M"
_symmetry_group_IT_number 11
_symmetry_cell_setting 'monoclinic'
loop_
_space_group_symop_operation_xyz
x,y,z
-x,1/2+y,-z
-x,-y,-z
x,1/2-y,z
loop_
_atom_site_type_symbol
_atom_site_label
_atom_site_fract_x
_atom_site_fract_y
_atom_site_fract_z
Si Si1 0.822286 0.925338 0.593323
Si Si2 0.414871 0.072399 0.574752
Si Si3 0.934966 0.569354 0.740212
Si Si4 0.308334 0.414198 0.088960
Si Si5 0.487949 0.076836 0.647587
Si Si6 0.315227 0.430432 0.263186
Si Si7 0.124208 0.919320 0.818613
Si Si8 0.173309 0.928974 0.905588
O O1 0.857718 0.750000 0.582043
O O2 0.803776 0.981417 0.650195
O O3 0.599927 0.971445 0.645054
O O4 0.000000 0.000000 0.500000
O O5 0.419414 0.250000 0.569322
O O6 0.538664 0.036630 0.578696
O O7 0.500000 0.000000 0.500000
O O8 0.168885 0.009110 0.664844
O O9 0.964785 0.750000 0.731891
O O10 0.782476 0.520530 0.833826
O O11 0.822512 0.529299 0.732520
O O12 0.386584 0.250000 0.073985
O O13 0.117949 0.405536 0.118049
O O14 0.500000 0.500000 0.000000
O O15 0.543616 0.250000 0.634689
O O16 0.235598 0.040963 0.747727
O O17 0.320078 0.250000 0.263658
O O18 0.572441 0.478287 0.172765
O O19 0.221570 0.750000 0.781503
O O20 0.127365 0.962984 0.869393
O O21 0.162599 0.750000 0.913747
O O22 0.000000 0.000000 0.000000
#
# Coordination Sequence:
#
# PCOD9168102 Si02
#       8
#     4   4   4   4   4   4   4   4
#     4  11  23  41  63  89 124 160 198 247 299 356
#     4  11  25  42  62  90 121 157 199 248 301 359
#     4  10  21  40  63  87 118 158 200 243 296 358
#     4  10  22  37  59  87 117 155 199 243 298 358
#     4  11  23  40  63  90 118 153 203 254 301 356
#     4   9  20  39  61  84 118 158 193 237 295 352
#     4  10  20  39  62  84 114 157 203 248 301 358
#     4  10  21  38  59  85 117 155 197 242 294 350
#
# _framework density 19.753086
#
# number of rings (size 3 to 8) (size 9 to 14) (size 15 to 20)
#    0.000    1.750    2.500    1.125    3.500    3.000 
#    0.000    1.250    0.000    0.000    0.000    0.000 
#    0.000    0.000    0.000    0.000    0.000    0.000 
#
# Total GULP energy -178335.980754 kJ/mol
# GULP energy per Si atom -5572.999399 kJ/mol
# Density = 1.970813 g / cm^3
# Si number density = 19.753086 Si / 1000 Ang^3
#
#
#
# Elastic Constant Matrix: (Units=GPa)
#
#
# Indices 1 2 3 4 5 6 
#
# 1 83.5648 7.5610 8.2245 0.0000 17.1662 0.0000
# 2 7.5610 13.2100 14.7794 0.0000 4.3040 0.0000
# 3 8.2245 14.7794 76.1945 0.0000 14.5851 0.0000
# 4 0.0000 0.0000 0.0000 33.8230 0.0000 6.6380
# 5 17.1662 4.3040 14.5851 0.0000 22.5442 0.0000
# 6 0.0000 0.0000 0.0000 6.6380 0.0000 19.9480
#
#
#
# Elastic Compliance Matrix: (Units=1/GPa)
#
#
# Indices 1 2 3 4 5 6 
#
# 1 0.014681 -0.006888 0.001871 0.000000 -0.011074 0.000000
# 2 -0.006888 0.100954 -0.018436 0.000000 -0.002101 0.000000
# 3 0.001871 -0.018436 0.018373 0.000000 -0.009791 0.000000
# 4 0.000000 0.000000 0.000000 0.031631 0.000000 -0.010526
# 5 -0.011074 -0.002101 -0.009791 0.000000 0.059525 0.000000
# 6 0.000000 0.000000 0.000000 -0.010526 0.000000 0.053633
#
#
# Mechanical properties :
#
#
# Convention : Reuss Voigt Hill
#
# Bulk Modulus (GPa) = 11.48097 26.01102 18.74599
# Shear Modulus (GPa) = 14.09495 24.75668 19.42581
#
# Velocity S-wave (km/s) = 2.67415 3.54405 3.13937
# Velocity P-wave (km/s) = 3.91913 5.47208 4.75938
#
# Compressibility (1/GPa) = 0.08710064
#
# Stress axis : x y z
#
# Youngs Moduli (GPa) = 68.11651 9.90552 54.42867
#
# Poissons Ratio (x) = 0.06823 -0.10185
# Poissons Ratio (y) = 0.46921 1.00346
# Poissons Ratio (z) = -0.12747 0.18262
#
# Static dielectric constant tensor:
#      x y z
#    x 1.682940 0.000000 -0.065130 
#    y 0.000000 1.746770 0.000000 
#    z -0.065130 0.000000 1.471070 
# 
# From -- ./inp_files/38196.got.cif
#   From: 2010.05.17/outbox.ucp.g08.bks.cvg/sg11_20_cif.got.tgz:38196.got - 2010.06.11 11:38:39.
