data_PCOD9168752
_publ_section_title
;
Structure prediction by ZEFSAII (Michael W. Deem and Ramdas Pophale) SiO2 
 PCOD9168752
Probable space group: C 2/M
;
_chemical_formula_sum "Si O2"
_cell_formula_units_Z 56
_cell_length_a 18.494633
_cell_length_b 23.583044
_cell_length_c 11.717117
_cell_angle_alpha 90.000000
_cell_angle_beta 37.878042
_cell_angle_gamma 90.000000
_cell_volume 3137.780163
_symmetry_space_group_name_H-M "C 2/M"
_symmetry_group_IT_number 12
_symmetry_cell_setting 'monoclinic'
loop_
_space_group_symop_operation_xyz
x,y,z
-x,y,-z
-x,-y,-z
x,-y,z
1/2+x,1/2+y,z
1/2-x,1/2+y,-z
1/2-x,1/2-y,-z
1/2+x,1/2-y,z
loop_
_atom_site_type_symbol
_atom_site_label
_atom_site_fract_x
_atom_site_fract_y
_atom_site_fract_z
Si Si1 0.713743 0.934977 0.342397
Si Si2 0.721351 0.245449 0.899818
Si Si3 0.370529 0.435253 0.919017
Si Si4 0.890569 0.320081 0.553521
Si Si5 0.396597 0.653525 0.706586
Si Si6 0.969430 0.233086 0.277148
Si Si7 0.078813 0.125370 0.789272
O O1 0.614526 0.886944 0.462248
O O2 0.808980 0.911096 0.314025
O O3 0.679474 0.000000 0.408026
O O4 0.780044 0.933778 0.137277
O O5 0.774516 0.298838 0.765713
O O6 0.797751 0.191024 0.766338
O O7 0.750000 0.250000 0.000000
O O8 0.580946 0.243978 0.065520
O O9 0.382508 0.500000 0.866990
O O10 0.335763 0.393373 0.860778
O O11 0.494433 0.411003 0.811631
O O12 0.000000 0.306568 0.500000
O O13 0.903508 0.283818 0.422297
O O14 0.500000 0.628356 0.500000
O O15 0.468093 0.696491 0.700021
O O16 0.896806 0.186660 0.296645
O O17 0.000000 0.135139 0.000000
#
# Coordination Sequence:
#
# PCOD9168752 Si02
#       7
#     8   8   8   8   8   8   8
#     4  10  21  35  50  71 100 135 172 209 248 293
#     4  10  16  29  47  71 101 137 158 195 247 305
#     4   9  18  30  49  72  96 131 173 212 251 296
#     4  12  20  32  52  78 104 135 165 201 253 306
#     4  10  16  28  45  71 103 135 164 200 250 305
#     4  10  19  30  51  76 102 131 167 204 254 306
#     4   9  17  33  52  73  99 130 165 214 259 298
#
# _framework density 17.847013
#
# number of rings (size 3 to 8) (size 9 to 14) (size 15 to 20)
#    0.000    2.000    4.286    3.857    0.000    2.857 
#    0.000    0.000    0.000    0.000    0.000    0.000 
#    0.000    1.714    0.000    0.000    0.000    0.000 
#
# Total GULP energy -156064.199766 kJ/mol
# GULP energy per Si atom -5573.721420 kJ/mol
# Density = 1.780639 g / cm^3
# Si number density = 17.847013 Si / 1000 Ang^3
#
#
#
# Elastic Constant Matrix: (Units=GPa)
#
#
# Indices 1 2 3 4 5 6 
#
# 1 12.3979 22.0953 -0.6383 -0.0003 3.4192 0.0003
# 2 22.0953 144.8252 29.9476 0.0000 8.0255 0.0000
# 3 -0.6383 29.9476 52.5506 -0.0003 -2.5046 0.0004
# 4 -0.0003 0.0000 -0.0003 28.8073 0.0006 3.5766
# 5 3.4192 8.0255 -2.5046 0.0006 5.6484 -0.0006
# 6 0.0003 0.0000 0.0004 3.5766 -0.0006 22.6121
#
#
#
# Elastic Compliance Matrix: (Units=1/GPa)
#
#
# Indices 1 2 3 4 5 6 
#
# 1 0.127805 -0.019086 0.010251 0.000003 -0.045701 -0.000004
# 2 -0.019086 0.011811 -0.007368 0.000000 -0.008495 0.000000
# 3 0.010251 -0.007368 0.024064 0.000000 0.014933 0.000000
# 4 0.000003 0.000000 0.000000 0.035409 -0.000006 -0.005601
# 5 -0.045701 -0.008495 0.014933 -0.000006 0.223396 0.000008
# 6 -0.000004 0.000000 0.000000 -0.005601 0.000008 0.045110
#
#
# Mechanical properties :
#
#
# Convention : Reuss Voigt Hill
#
# Bulk Modulus (GPa) = 7.61761 34.73144 21.17453
# Shear Modulus (GPa) = 9.19527 21.97150 15.58338
#
# Velocity S-wave (km/s) = 2.27232 3.51251 2.95814
# Velocity P-wave (km/s) = 3.34098 5.99610 4.85363
#
# Compressibility (1/GPa) = 0.13127473
#
# Stress axis : x y z
#
# Youngs Moduli (GPa) = 7.82445 84.66713 41.55560
#
# Poissons Ratio (x) = 1.61594 -0.42598
# Poissons Ratio (y) = 0.14934 0.30616
# Poissons Ratio (z) = -0.08021 0.62379
#
# Static dielectric constant tensor:
#      x y z
#    x 1.643730 0.000000 -0.005790 
#    y 0.000000 1.626530 0.000000 
#    z -0.005790 0.000000 1.660310 
# 
# From -- ./inp_files/169395.got.cif
#   From: 2010.05.17/outbox.cif.g08.bks.cpg/sg12_85_cif.got.tgz:169395.got - 2010.06.03 13:09:07.
