data_PCOD9168304
_publ_section_title
;
Structure prediction by ZEFSAII (Michael W. Deem and Ramdas Pophale) SiO2 
 PCOD9168304
Probable space group: C 2/M
;
_chemical_formula_sum "Si O2"
_cell_formula_units_Z 40
_cell_length_a 5.413042
_cell_length_b 14.119796
_cell_length_c 31.139398
_cell_angle_alpha 90.000000
_cell_angle_beta 121.601747
_cell_angle_gamma 90.000000
_cell_volume 2027.086427
_symmetry_space_group_name_H-M "C 2/M"
_symmetry_group_IT_number 12
_symmetry_cell_setting 'monoclinic'
loop_
_space_group_symop_operation_xyz
x,y,z
-x,y,-z
-x,-y,-z
x,-y,z
1/2+x,1/2+y,z
1/2-x,1/2+y,-z
1/2-x,1/2-y,-z
1/2+x,1/2-y,z
loop_
_atom_site_type_symbol
_atom_site_label
_atom_site_fract_x
_atom_site_fract_y
_atom_site_fract_z
Si Si1 0.492039 0.813477 0.247102
Si Si2 0.103465 0.808526 0.132953
Si Si3 0.189432 0.392228 0.479908
Si Si4 0.304728 0.000000 0.683675
Si Si5 0.391668 0.000000 0.381475
Si Si6 0.685248 0.640502 0.978527
O O1 0.266330 0.747852 0.254012
O O2 0.307948 0.849322 0.188864
O O3 0.596363 0.904293 0.283096
O O4 0.314081 0.729858 0.130152
O O5 0.992383 0.865164 0.081755
O O6 0.500000 0.348915 0.500000
O O7 0.259462 0.500000 0.503142
O O8 0.000000 0.348906 0.500000
O O9 0.009557 0.410988 0.420277
O O10 0.456545 0.000000 0.650798
O O11 0.954708 0.000000 0.650308
O O12 0.500000 0.599977 0.000000
O O13 0.750000 0.750000 0.000000
O O14 0.000000 0.599817 0.000000
#
# Coordination Sequence:
#
# PCOD9168304 Si02
#       6
#     8   8   8   4   4   8
#     4  10  23  39  56  78 110 146 190 233 277 331
#     4  10  16  27  43  65  97 129 162 213 266 317
#     4   8  13  24  42  72 116 140 169 230 271 318
#     4  12  22  37  58  82 112 149 192 236 274 320
#     4  10  18  29  52  82 114 147 186 230 280 324
#     4  10  14  20  36  64  94 112 155 211 250 316
#
# _framework density 19.732755999999998
#
# number of rings (size 3 to 8) (size 9 to 14) (size 15 to 20)
#    0.600    1.600    4.000    2.400    0.000    0.000 
#    0.000    0.000    0.000    0.000    0.000    1.400 
#    0.000  224.000    0.000    0.000    0.000    0.000 
#
# Total GULP energy -111334.886722 kJ/mol
# GULP energy per Si atom -5566.744336 kJ/mol
# Density = 1.968784 g / cm^3
# Si number density = 19.732756 Si / 1000 Ang^3
#
#
#
# Elastic Constant Matrix: (Units=GPa)
#
#
# Indices 1 2 3 4 5 6 
#
# 1 204.2247 44.4553 92.5007 0.0000 -2.3294 -0.0001
# 2 44.4553 93.2353 53.9063 0.0000 1.3686 0.0000
# 3 92.5007 53.9063 186.7212 0.0000 -2.3918 0.0000
# 4 0.0000 0.0000 0.0000 -29.0801 0.0000 -0.2307
# 5 -2.3294 1.3686 -2.3918 0.0000 40.8541 0.0000
# 6 -0.0001 0.0000 0.0000 -0.2307 0.0000 -17.5402
#
#
#
# Elastic Compliance Matrix: (Units=1/GPa)
#
#
# Indices 1 2 3 4 5 6 
#
# 1 0.006482 -0.001488 -0.002778 0.000000 0.000257 0.000000
# 2 -0.001488 0.013233 -0.003092 0.000000 -0.000709 0.000000
# 3 -0.002778 -0.003092 0.007630 0.000000 0.000392 0.000000
# 4 0.000000 0.000000 0.000000 -0.034391 0.000000 0.000452
# 5 0.000257 -0.000709 0.000392 0.000000 0.024539 0.000000
# 6 0.000000 0.000000 0.000000 0.000452 0.000000 -0.057018
#
#
# Mechanical properties :
#
#
# Convention : Reuss Voigt Hill
#
# Bulk Modulus (GPa) = 79.19136 96.21175 87.70156
# Shear Modulus (GPa) = -242.72574 18.40135 -112.16220
#
# Velocity S-wave (km/s) = -11.10286 3.05705 -7.54745
# Velocity P-wave (km/s) = 11.14207 7.83096 5.60454
#
# Compressibility (1/GPa) = 0.01262764
#
# Stress axis : x y z
#
# Youngs Moduli (GPa) = 154.27988 75.56618 131.06786
#
# Poissons Ratio (x) = 0.11245 0.36412
# Poissons Ratio (y) = 0.22958 0.40531
# Poissons Ratio (z) = 0.42861 0.23368
#
# Static dielectric constant tensor:
#      x y z
#    x 1.672400 0.000000 0.004420 
#    y 0.000000 1.685350 0.000000 
#    z 0.004420 0.000000 1.691550 
# 
# From -- ./inp_files/371419.got.cif
#   From: 2010.05.17/outbox.cif.g08.bks.cpg/sg12_186_cif.got.tgz:371419.got - 2010.06.03 13:09:07.
