data_PCOD9168742
_publ_section_title
;
Structure prediction by ZEFSAII (Michael W. Deem and Ramdas Pophale) SiO2 
 PCOD9168742
Probable space group: C 2/M
;
_chemical_formula_sum "Si O2"
_cell_formula_units_Z 48
_cell_length_a 11.882340
_cell_length_b 25.785121
_cell_length_c 7.055954
_cell_angle_alpha 90.000000
_cell_angle_beta 114.845258
_cell_angle_gamma 90.000000
_cell_volume 1961.767872
_symmetry_space_group_name_H-M "C 2/M"
_symmetry_group_IT_number 12
_symmetry_cell_setting 'monoclinic'
loop_
_space_group_symop_operation_xyz
x,y,z
-x,y,-z
-x,-y,-z
x,-y,z
1/2+x,1/2+y,z
1/2-x,1/2+y,-z
1/2-x,1/2-y,-z
1/2+x,1/2-y,z
loop_
_atom_site_type_symbol
_atom_site_label
_atom_site_fract_x
_atom_site_fract_y
_atom_site_fract_z
Si Si1 0.167058 0.943265 0.548584
Si Si2 0.225633 0.165092 0.604391
Si Si3 0.335570 0.862206 0.075591
Si Si4 0.374509 0.442353 0.031268
Si Si5 0.966030 0.555701 0.754227
Si Si6 0.358985 0.225198 0.357543
O O1 0.142714 0.883525 0.474350
O O2 0.120565 0.943075 0.734857
O O3 0.317538 0.944421 0.627474
O O4 0.125559 0.000000 0.441476
O O5 0.286604 0.193881 0.469980
O O6 0.158385 0.213256 0.656315
O O7 0.318072 0.143069 0.835024
O O8 0.455091 0.893396 0.241735
O O9 0.329052 0.804246 0.144543
O O10 0.222729 0.896998 0.073191
O O11 0.325856 0.500000 0.948541
O O12 0.500000 0.435123 0.000000
O O13 0.012247 0.500000 0.708940
O O14 0.000000 0.553019 0.000000
O O15 0.500000 0.215751 0.500000
#
# Coordination Sequence:
#
# PCOD9168742 Si02
#       6
#     8   8   8   8   8   8
#     4   9  17  32  59  88 116 153 193 239 302 361
#     4  10  22  43  59  87 122 156 199 244 299 359
#     4  11  21  38  64  91 118 159 204 246 296 369
#     4   9  17  31  54  88 126 161 201 247 291 348
#     4  10  16  27  57  94 120 148 185 241 309 356
#     4  11  25  41  61  88 121 160 200 253 305 349
#
# _framework density 24.467728000000001
#
# number of rings (size 3 to 8) (size 9 to 14) (size 15 to 20)
#    0.000    2.000    3.333    2.000    0.000    0.000 
#   12.000    1.667    0.000    5.000    0.000    0.000 
#    0.000    0.000    0.000    0.000    0.000    0.000 
#
# Total GULP energy -133835.884729 kJ/mol
# GULP energy per Si atom -5576.495197 kJ/mol
# Density = 2.441204 g / cm^3
# Si number density = 24.467728 Si / 1000 Ang^3
#
#
#
# Elastic Constant Matrix: (Units=GPa)
#
#
# Indices 1 2 3 4 5 6 
#
# 1 80.3893 26.3859 -1.0352 0.0000 3.3300 0.0000
# 2 26.3859 223.5763 10.2549 0.0000 2.6910 0.0000
# 3 -1.0352 10.2549 69.4617 0.0000 -10.8929 0.0000
# 4 0.0000 0.0000 0.0000 -7.0766 0.0000 -6.2861
# 5 3.3300 2.6910 -10.8929 0.0000 19.9398 0.0000
# 6 0.0000 0.0000 0.0000 -6.2861 0.0000 49.2233
#
#
#
# Elastic Compliance Matrix: (Units=1/GPa)
#
#
# Indices 1 2 3 4 5 6 
#
# 1 0.013018 -0.001519 0.000120 0.000000 -0.001904 0.000000
# 2 -0.001519 0.004701 -0.000849 0.000000 -0.000845 0.000000
# 3 0.000120 -0.000849 0.015901 0.000000 0.008781 0.000000
# 4 0.000000 0.000000 0.000000 -0.126914 0.000000 -0.016208
# 5 -0.001904 -0.000845 0.008781 0.000000 0.055380 0.000000
# 6 0.000000 0.000000 0.000000 -0.016208 0.000000 0.018246
#
#
# Mechanical properties :
#
#
# Convention : Reuss Voigt Hill
#
# Bulk Modulus (GPa) = 34.33666 49.40426 41.87046
# Shear Modulus (GPa) = -915.15901 34.93875 -440.11013
#
# Velocity S-wave (km/s) = -19.36076 3.78292 -13.42625
# Velocity P-wave (km/s) = 22.03909 6.27026 14.93997
#
# Compressibility (1/GPa) = 0.02912340
#
# Stress axis : x y z
#
# Youngs Moduli (GPa) = 76.81411 212.71494 62.89078
#
# Poissons Ratio (x) = 0.32311 -0.00753
# Poissons Ratio (y) = 0.11668 0.05340
# Poissons Ratio (z) = -0.00920 0.18062
#
# Static dielectric constant tensor:
#      x y z
#    x 1.928390 0.000000 0.048370 
#    y 0.000000 1.961740 0.000000 
#    z 0.048370 0.000000 1.963430 
# 
# From -- ./inp_files/50809.got.cif
#   From: 2010.05.17/outbox.cif.g08.bks.cpg/sg12_26_cif.got.tgz:50809.got - 2010.06.03 13:09:07.
