data_PCOD9168828
_publ_section_title
;
Structure prediction by ZEFSAII (Michael W. Deem and Ramdas Pophale) SiO2 
 PCOD9168828
Probable space group: C 2/M
;
_chemical_formula_sum "Si O2"
_cell_formula_units_Z 60
_cell_length_a 15.215959
_cell_length_b 27.893356
_cell_length_c 8.855735
_cell_angle_alpha 90.000000
_cell_angle_beta 72.037831
_cell_angle_gamma 90.000000
_cell_volume 3575.395623
_symmetry_space_group_name_H-M "C 2/M"
_symmetry_group_IT_number 12
_symmetry_cell_setting 'monoclinic'
loop_
_space_group_symop_operation_xyz
x,y,z
-x,y,-z
-x,-y,-z
x,-y,z
1/2+x,1/2+y,z
1/2-x,1/2+y,-z
1/2-x,1/2-y,-z
1/2+x,1/2-y,z
loop_
_atom_site_type_symbol
_atom_site_label
_atom_site_fract_x
_atom_site_fract_y
_atom_site_fract_z
Si Si1 0.422361 0.713485 0.351072
Si Si2 0.893423 0.387352 0.077798
Si Si3 0.167249 0.443841 0.606759
Si Si4 0.623084 0.737741 0.279415
Si Si5 0.223619 0.140896 0.580578
Si Si6 0.352743 0.847937 0.783827
Si Si7 0.186259 0.702778 0.730188
Si Si8 0.000000 0.599152 0.500000
O O1 0.530762 0.714693 0.259974
O O2 0.400700 0.736799 0.527703
O O3 0.379822 0.660406 0.374223
O O4 0.363798 0.747041 0.270317
O O5 0.848855 0.425745 0.213745
O O6 0.883047 0.335911 0.164899
O O7 0.848283 0.377897 0.939616
O O8 0.000000 0.399676 0.000000
O O9 0.184294 0.500000 0.588927
O O10 0.249504 0.410879 0.497515
O O11 0.074936 0.430528 0.558187
O O12 0.633561 0.790989 0.208158
O O13 0.721077 0.710540 0.220060
O O14 0.263978 0.144462 0.726208
O O15 0.279952 0.179013 0.445539
O O16 0.440397 0.868022 0.643888
#
# Coordination Sequence:
#
# PCOD9168828 Si02
#       8
#     8   8   8   8   8   8   8   4
#     4  10  16  29  49  76  99 134 178 207 245 292
#     4  11  22  33  46  71 103 138 167 207 249 301
#     4  10  21  36  52  72  97 130 167 216 263 303
#     4  10  18  26  51  73 101 143 174 204 238 293
#     4   9  18  32  51  70  97 130 169 212 246 297
#     4  11  18  31  47  72 100 139 168 200 251 290
#     4  10  18  33  46  72 105 137 175 207 244 292
#     4  10  19  32  54  70  94 126 170 216 249 306
#
# _framework density 16.781358999999998
#
# number of rings (size 3 to 8) (size 9 to 14) (size 15 to 20)
#    0.000    1.867    4.000    2.600    1.867    0.800 
#    0.000    0.667    0.000    0.000    0.000   16.800 
#    0.000    0.000    0.000   33.467    0.000    0.000 
#
# Total GULP energy -167263.022867 kJ/mol
# GULP energy per Si atom -5575.434096 kJ/mol
# Density = 1.674316 g / cm^3
# Si number density = 16.781359 Si / 1000 Ang^3
#
#
#
# Elastic Constant Matrix: (Units=GPa)
#
#
# Indices 1 2 3 4 5 6 
#
# 1 70.6313 40.1367 15.5280 0.0000 3.5734 0.0000
# 2 40.1367 105.3177 12.0011 0.0000 2.4683 0.0000
# 3 15.5280 12.0011 37.3701 0.0000 18.0970 0.0000
# 4 0.0000 0.0000 0.0000 9.0515 0.0000 3.8158
# 5 3.5734 2.4683 18.0970 0.0000 18.3100 0.0000
# 6 0.0000 0.0000 0.0000 3.8158 0.0000 13.9400
#
#
#
# Elastic Compliance Matrix: (Units=1/GPa)
#
#
# Indices 1 2 3 4 5 6 
#
# 1 0.019539 -0.006579 -0.008802 0.000000 0.005773 0.000000
# 2 -0.006579 0.012186 -0.001930 0.000000 0.001548 0.000000
# 3 -0.008802 -0.001930 0.057691 0.000000 -0.055042 0.000000
# 4 0.000000 0.000000 0.000000 0.124891 0.000000 -0.034186
# 5 0.005773 0.001548 -0.055042 0.000000 0.107681 0.000000
# 6 0.000000 0.000000 0.000000 -0.034186 0.000000 0.081093
#
#
# Mechanical properties :
#
#
# Convention : Reuss Voigt Hill
#
# Bulk Modulus (GPa) = 18.24955 38.73895 28.49425
# Shear Modulus (GPa) = 10.96569 17.97053 14.46811
#
# Velocity S-wave (km/s) = 2.55903 3.27595 2.93943
# Velocity P-wave (km/s) = 4.43058 6.11913 5.34199
#
# Compressibility (1/GPa) = 0.05479588
#
# Stress axis : x y z
#
# Youngs Moduli (GPa) = 51.17845 82.06227 17.33365
#
# Poissons Ratio (x) = 0.53987 0.15257
# Poissons Ratio (y) = 0.33669 0.03345
# Poissons Ratio (z) = 0.45047 0.15835
#
# Static dielectric constant tensor:
#      x y z
#    x 1.587720 0.000000 0.021680 
#    y 0.000000 1.532500 0.000000 
#    z 0.021680 0.000000 1.601590 
# 
# From -- ./inp_files/67821.got.cif
#   From: 2010.05.17/outbox.cif.g08.bks.cpg/sg12_34_cif.got.tgz:67821.got - 2010.06.03 13:09:07.
