data_PCOD9168628
_publ_section_title
;
Structure prediction by ZEFSAII (Michael W. Deem and Ramdas Pophale) SiO2 
 PCOD9168628
Probable space group: C 2/M
;
_chemical_formula_sum "Si O2"
_cell_formula_units_Z 36
_cell_length_a 23.207505
_cell_length_b 5.748980
_cell_length_c 12.551798
_cell_angle_alpha 90.000000
_cell_angle_beta 52.328933
_cell_angle_gamma 90.000000
_cell_volume 1325.542937
_symmetry_space_group_name_H-M "C 2/M"
_symmetry_group_IT_number 12
_symmetry_cell_setting 'monoclinic'
loop_
_space_group_symop_operation_xyz
x,y,z
-x,y,-z
-x,-y,-z
x,-y,z
1/2+x,1/2+y,z
1/2-x,1/2+y,-z
1/2-x,1/2-y,-z
1/2+x,1/2-y,z
loop_
_atom_site_type_symbol
_atom_site_label
_atom_site_fract_x
_atom_site_fract_y
_atom_site_fract_z
Si Si1 0.308584 0.500000 0.663234
Si Si2 0.312376 0.000000 0.383158
Si Si3 0.971502 0.500000 0.655868
Si Si4 0.471361 0.500000 0.409722
Si Si5 0.490334 0.748796 0.882089
Si Si6 0.348881 0.500000 0.040338
Si Si7 0.325085 0.500000 0.319941
Si Si8 0.193366 0.500000 0.209987
O O1 0.241188 0.500000 0.658669
O O2 0.384580 0.500000 0.513967
O O3 0.307289 0.746967 0.728055
O O4 0.351328 0.752093 0.331675
O O5 0.259923 0.000000 0.545223
O O6 0.884391 0.500000 0.758738
O O7 0.000000 0.500000 0.500000
O O8 0.998836 0.247641 0.665400
O O9 0.500000 0.500000 0.500000
O O10 0.523159 0.500000 0.813499
O O11 0.403395 0.714440 0.960727
O O12 0.513879 0.000000 0.820167
O O13 0.500000 0.750592 0.000000
O O14 0.330929 0.500000 0.186366
O O15 0.272929 0.500000 0.064737
#
# Coordination Sequence:
#
# PCOD9168628 Si02
#       8
#     4   4   4   4   8   4   4   4
#     4  12  18  28  38  53  68  97 130 164 188 221
#     4  10  20  32  35  54  72 103 125 169 196 221
#     4  10  16  28  33  53  70  92 116 158 189 220
#     4  10  16  26  40  46  67  93 122 154 189 223
#     4   8  16  28  40  55  75  93 117 148 184 228
#     4  10  19  26  42  60  70 101 128 159 183 224
#     4  10  20  29  42  48  78  98 128 159 204 217
#     4  12  20  23  40  56  75  90 128 163 187 214
#
# _framework density 27.158681000000001
#
# number of rings (size 3 to 8) (size 9 to 14) (size 15 to 20)
#    0.667    1.333    6.667    0.000    3.111    0.000 
#    0.000    0.000    0.000    0.000    0.000    0.000 
#    0.000    0.000    0.000    0.000    0.000    8.889 
#
# Total GULP energy -100667.294163 kJ/mol
# GULP energy per Si atom -5592.627453 kJ/mol
# Density = 2.709687 g / cm^3
# Si number density = 27.158681 Si / 1000 Ang^3
#
#
#
# Elastic Constant Matrix: (Units=GPa)
#
#
# Indices 1 2 3 4 5 6 
#
# 1 82.1258 90.6148 42.7637 0.0013 -28.2871 0.0003
# 2 90.6148 363.9537 85.6682 0.0031 -10.7375 0.0006
# 3 42.7637 85.6682 95.4084 -0.0001 -29.0360 0.0000
# 4 0.0013 0.0031 -0.0001 11.4789 -0.0002 17.5151
# 5 -28.2871 -10.7375 -29.0360 -0.0002 64.1775 0.0000
# 6 0.0003 0.0006 0.0000 17.5151 0.0000 63.3828
#
#
#
# Elastic Compliance Matrix: (Units=1/GPa)
#
#
# Indices 1 2 3 4 5 6 
#
# 1 0.021064 -0.004205 -0.003542 -0.000002 0.006978 0.000000
# 2 -0.004205 0.004376 -0.002766 -0.000001 -0.002373 0.000000
# 3 -0.003542 -0.002766 0.016162 0.000002 0.005288 -0.000001
# 4 -0.000002 -0.000001 0.000002 0.150629 0.000000 -0.041625
# 5 0.006978 -0.002373 0.005288 0.000000 0.020653 0.000000
# 6 0.000000 0.000000 -0.000001 -0.041625 0.000000 0.027280
#
#
# Mechanical properties :
#
#
# Convention : Reuss Voigt Hill
#
# Bulk Modulus (GPa) = 48.60197 108.84237 78.72217
# Shear Modulus (GPa) = 18.65338 49.30392 33.97865
#
# Velocity S-wave (km/s) = 2.62359 4.26538 3.54095
# Velocity P-wave (km/s) = 5.20692 8.02629 6.76511
#
# Compressibility (1/GPa) = 0.02057530
#
# Stress axis : x y z
#
# Youngs Moduli (GPa) = 47.47526 228.53881 61.87262
#
# Poissons Ratio (x) = 0.96094 0.21915
# Poissons Ratio (y) = 0.19962 0.17117
# Poissons Ratio (z) = 0.16816 0.63224
#
# Static dielectric constant tensor:
#      x y z
#    x 2.125690 0.000000 0.036430 
#    y 0.000000 2.065670 0.000000 
#    z 0.036430 0.000000 2.095910 
# 
# From -- ./inp_files/350815.got.cif
#   From: 2010.05.17/outbox.cif.g08.bks.cpg/sg12_176_cif.got.tgz:350815.got - 2010.06.03 13:09:07.
