data_PCOD9168981
_publ_section_title
;
Structure prediction by ZEFSAII (Michael W. Deem and Ramdas Pophale) SiO2 
 PCOD9168981
Probable space group: C 2/M
;
_chemical_formula_sum "Si O2"
_cell_formula_units_Z 56
_cell_length_a 8.959308
_cell_length_b 19.185461
_cell_length_c 28.170785
_cell_angle_alpha 90.000000
_cell_angle_beta 139.970118
_cell_angle_gamma 90.000000
_cell_volume 3114.461331
_symmetry_space_group_name_H-M "C 2/M"
_symmetry_group_IT_number 12
_symmetry_cell_setting 'monoclinic'
loop_
_space_group_symop_operation_xyz
x,y,z
-x,y,-z
-x,-y,-z
x,-y,z
1/2+x,1/2+y,z
1/2-x,1/2+y,-z
1/2-x,1/2-y,-z
1/2+x,1/2-y,z
loop_
_atom_site_type_symbol
_atom_site_label
_atom_site_fract_x
_atom_site_fract_y
_atom_site_fract_z
Si Si1 0.951093 0.302085 0.836859
Si Si2 0.734570 0.850217 0.570648
Si Si3 0.370760 0.580392 0.268505
Si Si4 0.905124 0.762074 0.385638
Si Si5 0.032546 0.080533 0.198013
Si Si6 0.162921 0.694095 0.085142
Si Si7 0.414762 0.188934 0.286004
O O1 0.858675 0.371528 0.788815
O O2 0.973074 0.313723 0.898535
O O3 0.740084 0.247667 0.777448
O O4 0.180094 0.263934 0.874237
O O5 0.500000 0.891054 0.500000
O O6 0.634685 0.788781 0.580003
O O7 0.931045 0.890453 0.648219
O O8 0.874561 0.813062 0.562000
O O9 0.320468 0.500000 0.266599
O O10 0.473332 0.585455 0.239844
O O11 0.671171 0.808020 0.327511
O O12 0.919392 0.714841 0.341852
O O13 0.842117 0.129378 0.126385
O O14 0.280582 0.116456 0.250176
O O15 0.022884 0.000000 0.181671
O O16 0.000000 0.696187 0.000000
#
# Coordination Sequence:
#
# PCOD9168981 Si02
#       7
#     8   8   8   8   8   8   8
#     4  10  18  32  55  74 100 132 171 217 248 300
#     4  11  21  33  51  79 108 136 166 213 266 307
#     4  10  19  33  53  74  98 137 181 212 252 307
#     4  10  18  31  52  76 103 129 168 218 254 302
#     4   9  18  32  52  76 102 136 174 213 254 301
#     4  10  20  32  52  80 105 134 167 208 263 309
#     4  10  16  31  55  75  97 130 174 215 255 289
#
# _framework density 17.980637000000002
#
# number of rings (size 3 to 8) (size 9 to 14) (size 15 to 20)
#    0.000    2.000    4.286    2.571    0.000    0.571 
#    0.000    0.714    0.000    0.429    0.000    2.000 
#    0.000    0.000    0.000    0.000    0.000    0.000 
#
# Total GULP energy -156141.417100 kJ/mol
# GULP energy per Si atom -5576.479182 kJ/mol
# Density = 1.793971 g / cm^3
# Si number density = 17.980637 Si / 1000 Ang^3
#
#
#
# Elastic Constant Matrix: (Units=GPa)
#
#
# Indices 1 2 3 4 5 6 
#
# 1 55.4914 14.2073 10.5888 -0.0001 6.9627 0.0000
# 2 14.2073 110.6237 31.0718 0.0001 12.0189 0.0000
# 3 10.5888 31.0718 68.8225 0.0004 6.0398 -0.0001
# 4 -0.0001 0.0001 0.0004 5.6058 0.0000 3.2387
# 5 6.9627 12.0189 6.0398 0.0000 22.5104 0.0000
# 6 0.0000 0.0000 -0.0001 3.2387 0.0000 19.3426
#
#
#
# Elastic Compliance Matrix: (Units=1/GPa)
#
#
# Indices 1 2 3 4 5 6 
#
# 1 0.019344 -0.001435 -0.001915 0.000000 -0.004703 0.000000
# 2 -0.001435 0.010898 -0.004330 0.000000 -0.004213 0.000000
# 3 -0.001915 -0.004330 0.016923 -0.000001 -0.001637 0.000000
# 4 0.000000 0.000000 -0.000001 0.197490 0.000000 -0.033067
# 5 -0.004703 -0.004213 -0.001637 0.000000 0.048567 0.000000
# 6 0.000000 0.000000 0.000000 -0.033067 0.000000 0.057236
#
#
# Mechanical properties :
#
#
# Convention : Reuss Voigt Hill
#
# Bulk Modulus (GPa) = 31.44242 38.51928 34.98085
# Shear Modulus (GPa) = 13.28304 21.42973 17.35639
#
# Velocity S-wave (km/s) = 2.72093 3.45602 3.11027
# Velocity P-wave (km/s) = 5.23412 6.11511 5.69169
#
# Compressibility (1/GPa) = 0.03180417
#
# Stress axis : x y z
#
# Youngs Moduli (GPa) = 51.69591 91.76155 59.09061
#
# Poissons Ratio (x) = 0.13171 0.11318
# Poissons Ratio (y) = 0.07420 0.25584
# Poissons Ratio (z) = 0.09902 0.39729
#
# Static dielectric constant tensor:
#      x y z
#    x 1.623710 0.000000 -0.007880 
#    y 0.000000 1.609740 0.000000 
#    z -0.007880 0.000000 1.645560 
# 
# From -- ./inp_files/257594.got.cif
#   From: 2010.05.17/outbox.cif.g08.bks.cpg/sg12_129_cif.got.tgz:257594.got - 2010.06.03 13:09:07.
