data_PCOD9168845
_publ_section_title
;
Structure prediction by ZEFSAII (Michael W. Deem and Ramdas Pophale) SiO2 
 PCOD9168845
Probable space group: C 2/M
;
_chemical_formula_sum "Si O2"
_cell_formula_units_Z 28
_cell_length_a 9.968620
_cell_length_b 18.582577
_cell_length_c 13.576078
_cell_angle_alpha 90.000000
_cell_angle_beta 151.896789
_cell_angle_gamma 90.000000
_cell_volume 1184.657338
_symmetry_space_group_name_H-M "C 2/M"
_symmetry_group_IT_number 12
_symmetry_cell_setting 'monoclinic'
loop_
_space_group_symop_operation_xyz
x,y,z
-x,y,-z
-x,-y,-z
x,-y,z
1/2+x,1/2+y,z
1/2-x,1/2+y,-z
1/2-x,1/2-y,-z
1/2+x,1/2-y,z
loop_
_atom_site_type_symbol
_atom_site_label
_atom_site_fract_x
_atom_site_fract_y
_atom_site_fract_z
Si Si1 0.333667 0.000000 0.737519
Si Si2 0.707444 0.160731 0.743189
Si Si3 0.172023 0.500000 0.756702
Si Si4 0.968979 0.774915 0.226017
Si Si5 0.000000 0.380551 0.000000
O O1 0.435426 0.068912 0.865434
O O2 0.000000 0.000000 0.500000
O O3 0.486593 0.000000 0.733664
O O4 0.495343 0.207851 0.675460
O O5 0.788425 0.193383 0.688731
O O6 0.622147 0.077629 0.676502
O O7 0.000000 0.161456 0.000000
O O8 0.500000 0.500000 0.000000
O O9 0.783192 0.833707 0.165047
O O10 0.750000 0.750000 0.000000
#
# Coordination Sequence:
#
# PCOD9168845 Si02
#       5
#     4   8   4   8   4
#     4  11  25  40  60  96 135 168 216 272 321 386
#     4   9  17  27  51  86 127 154 210 264 310 371
#     4  10  19  34  59  89 124 171 213 256 325 381
#     4  10  16  29  55  95 118 158 216 265 305 387
#     4  11  20  36  66  87 126 176 216 253 336 382
#
# _framework density 23.635525999999999
#
# number of rings (size 3 to 8) (size 9 to 14) (size 15 to 20)
#    0.000    2.000    4.286    5.143    0.000    1.143 
#    0.000    0.000    0.000   20.571    0.000    0.000 
#    0.000    0.000    0.000    0.000    0.000    0.000 
#
# Total GULP energy -78246.433298 kJ/mol
# GULP energy per Si atom -5589.030950 kJ/mol
# Density = 2.358173 g / cm^3
# Si number density = 23.635526 Si / 1000 Ang^3
#
#
#
# Elastic Constant Matrix: (Units=GPa)
#
#
# Indices 1 2 3 4 5 6 
#
# 1 207.9666 100.7577 53.7512 0.0003 -0.1473 0.0012
# 2 100.7577 198.7660 33.9843 0.0001 -8.7465 -0.0013
# 3 53.7512 33.9843 72.9697 0.0006 -13.2477 0.0019
# 4 0.0003 0.0001 0.0006 16.0644 0.0001 -15.9466
# 5 -0.1473 -8.7465 -13.2477 0.0001 56.4320 0.0015
# 6 0.0012 -0.0013 0.0019 -15.9466 0.0015 149.8579
#
#
#
# Elastic Compliance Matrix: (Units=1/GPa)
#
#
# Indices 1 2 3 4 5 6 
#
# 1 0.007412 -0.003089 -0.004287 0.000000 -0.001466 0.000000
# 2 -0.003089 0.006757 -0.000714 0.000000 0.000872 0.000000
# 3 -0.004287 -0.000714 0.017937 -0.000001 0.004089 0.000000
# 4 0.000000 0.000000 -0.000001 0.069601 -0.000001 0.007406
# 5 -0.001466 0.000872 0.004089 -0.000001 0.018812 0.000000
# 6 0.000000 0.000000 0.000000 0.007406 0.000000 0.007461
#
#
# Mechanical properties :
#
#
# Convention : Reuss Voigt Hill
#
# Bulk Modulus (GPa) = 62.78667 95.18765 78.98716
# Shear Modulus (GPa) = 33.45175 63.88481 48.66828
#
# Velocity S-wave (km/s) = 3.76615 5.20460 4.54267
# Velocity P-wave (km/s) = 6.74789 8.74515 7.81062
#
# Compressibility (1/GPa) = 0.01592695
#
# Stress axis : x y z
#
# Youngs Moduli (GPa) = 134.91581 147.99207 55.74990
#
# Poissons Ratio (x) = 0.45711 0.23903
# Poissons Ratio (y) = 0.41672 0.03978
# Poissons Ratio (z) = 0.57845 0.10559
#
# Static dielectric constant tensor:
#      x y z
#    x 1.779660 0.000000 0.020510 
#    y 0.000000 1.734750 0.000000 
#    z 0.020510 0.000000 1.927840 
# 
# From -- ./inp_files/120601.got.cif
#   From: 2010.05.17/outbox.cif.g08.bks.cpg/sg12_61_cif.got.tgz:120601.got - 2010.06.03 13:09:07.
