data_PCOD9168637
_publ_section_title
;
Structure prediction by ZEFSAII (Michael W. Deem and Ramdas Pophale) SiO2 
 PCOD9168637
Probable space group: C 2/M
;
_chemical_formula_sum "Si O2"
_cell_formula_units_Z 42
_cell_length_a 13.741910
_cell_length_b 21.840959
_cell_length_c 9.136615
_cell_angle_alpha 90.000000
_cell_angle_beta 139.347808
_cell_angle_gamma 90.000000
_cell_volume 1786.469500
_symmetry_space_group_name_H-M "C 2/M"
_symmetry_group_IT_number 12
_symmetry_cell_setting 'monoclinic'
loop_
_space_group_symop_operation_xyz
x,y,z
-x,y,-z
-x,-y,-z
x,-y,z
1/2+x,1/2+y,z
1/2-x,1/2+y,-z
1/2-x,1/2-y,-z
1/2+x,1/2-y,z
loop_
_atom_site_type_symbol
_atom_site_label
_atom_site_fract_x
_atom_site_fract_y
_atom_site_fract_z
Si Si1 0.121277 0.178763 0.479277
Si Si2 0.434546 0.566605 0.763886
Si Si3 0.000000 0.500000 0.000000
Si Si4 0.798813 0.606978 0.903626
Si Si5 0.843407 0.500000 0.490804
Si Si6 0.175833 0.500000 0.878121
Si Si7 0.539991 0.788717 0.209732
O O1 0.040343 0.125953 0.298196
O O2 0.166880 0.148604 0.686329
O O3 0.289018 0.189799 0.607315
O O4 0.035154 0.241101 0.339085
O O5 0.481561 0.500000 0.755903
O O6 0.256000 0.557608 0.579562
O O7 0.500000 0.570812 0.000000
O O8 0.868039 0.556057 0.870993
O O9 0.756253 0.563102 0.989865
O O10 0.927894 0.654453 0.097861
O O11 0.847485 0.500000 0.320544
O O12 0.003651 0.500000 0.751545
O O13 0.500000 0.762007 0.000000
#
# Coordination Sequence:
#
# PCOD9168637 Si02
#       7
#     8   8   2   8   4   4   8
#     4  10  17  27  47  72 101 132 165 210 258 303
#     4   9  19  31  49  74 104 130 171 210 259 304
#     4  10  16  26  42  68 104 124 152 218 258 294
#     4  10  19  28  47  77 104 131 166 213 267 300
#     4   9  19  33  48  75 105 135 171 211 266 299
#     4  10  20  31  52  77 107 134 170 218 252 309
#     4   9  17  28  41  72 105 131 165 204 259 307
#
# _framework density 23.510058000000001
#
# number of rings (size 3 to 8) (size 9 to 14) (size 15 to 20)
#    0.571    1.905    2.857    1.714    5.333    0.000 
#    0.000    0.000    0.000    2.286    0.000   58.667 
#    0.000    0.000    0.000    0.000    0.000    0.000 
#
# Total GULP energy -116917.132338 kJ/mol
# GULP energy per Si atom -5567.482492 kJ/mol
# Density = 2.345655 g / cm^3
# Si number density = 23.510058 Si / 1000 Ang^3
#
#
#
# Elastic Constant Matrix: (Units=GPa)
#
#
# Indices 1 2 3 4 5 6 
#
# 1 47.0331 39.5178 20.6981 0.0000 5.7507 0.0000
# 2 39.5178 177.6075 85.5672 0.0000 -8.1605 0.0000
# 3 20.6981 85.5672 135.4306 0.0000 -0.4410 0.0000
# 4 0.0000 0.0000 0.0000 32.0544 0.0000 -1.7429
# 5 5.7507 -8.1605 -0.4410 0.0000 25.3910 0.0000
# 6 0.0000 0.0000 0.0000 -1.7429 0.0000 23.0225
#
#
#
# Elastic Compliance Matrix: (Units=1/GPa)
#
#
# Indices 1 2 3 4 5 6 
#
# 1 0.027818 -0.006489 -0.000179 0.000000 -0.008389 0.000000
# 2 -0.006489 0.009771 -0.005167 0.000000 0.004520 0.000000
# 3 -0.000179 -0.005167 0.010671 0.000000 -0.001435 0.000000
# 4 0.000000 0.000000 0.000000 0.031326 0.000000 0.002371
# 5 -0.008389 0.004520 -0.001435 0.000000 0.042712 0.000000
# 6 0.000000 0.000000 0.000000 0.002371 0.000000 0.043615
#
#
# Mechanical properties :
#
#
# Convention : Reuss Voigt Hill
#
# Bulk Modulus (GPa) = 40.66614 72.40416 56.53515
# Shear Modulus (GPa) = 25.28052 30.37945 27.82999
#
# Velocity S-wave (km/s) = 3.28274 3.59860 3.44430
# Velocity P-wave (km/s) = 5.63058 6.93762 6.31799
#
# Compressibility (1/GPa) = 0.02459048
#
# Stress axis : x y z
#
# Youngs Moduli (GPa) = 35.94787 102.34070 93.70915
#
# Poissons Ratio (x) = 0.66406 0.01679
# Poissons Ratio (y) = 0.23325 0.48422
# Poissons Ratio (z) = 0.00644 0.52882
#
# Static dielectric constant tensor:
#      x y z
#    x 1.833040 0.000000 0.166500 
#    y 0.000000 1.824890 0.000000 
#    z 0.166500 0.000000 1.775790 
# 
# From -- ./inp_files/169552.got.cif
#   From: 2010.05.17/outbox.cif.g08.bks.cpg/sg12_85_cif.got.tgz:169552.got - 2010.06.03 13:09:07.
