data_PCOD9168297
_publ_section_title
;
Structure prediction by ZEFSAII (Michael W. Deem and Ramdas Pophale) SiO2 
 PCOD9168297
Probable space group: C 2/M
;
_chemical_formula_sum "Si O2"
_cell_formula_units_Z 64
_cell_length_a 5.407389
_cell_length_b 26.708858
_cell_length_c 26.737081
_cell_angle_alpha 90.000000
_cell_angle_beta 75.787391
_cell_angle_gamma 90.000000
_cell_volume 3743.312295
_symmetry_space_group_name_H-M "C 2/M"
_symmetry_group_IT_number 12
_symmetry_cell_setting 'monoclinic'
loop_
_space_group_symop_operation_xyz
x,y,z
-x,y,-z
-x,-y,-z
x,-y,z
1/2+x,1/2+y,z
1/2-x,1/2+y,-z
1/2-x,1/2-y,-z
1/2+x,1/2-y,z
loop_
_atom_site_type_symbol
_atom_site_label
_atom_site_fract_x
_atom_site_fract_y
_atom_site_fract_z
Si Si1 0.226996 0.612327 0.933291
Si Si2 0.726863 0.557497 0.934172
Si Si3 0.776546 0.808369 0.478133
Si Si4 0.877373 0.557869 0.808281
Si Si5 0.558036 0.716991 0.246725
Si Si6 0.698007 0.270901 0.058193
Si Si7 0.624192 0.613438 0.190929
Si Si8 0.583130 0.282507 0.637235
O O1 0.439879 0.578484 0.949716
O O2 0.259281 0.670042 0.946249
O O3 0.299582 0.610520 0.871042
O O4 0.938715 0.592074 0.950019
O O5 0.745441 0.500000 0.950112
O O6 0.802354 0.557952 0.871228
O O7 0.500000 0.831006 0.500000
O O8 0.750000 0.750000 0.500000
O O9 0.851381 0.811610 0.416508
O O10 0.000000 0.831007 0.500000
O O11 0.895957 0.500000 0.792196
O O12 0.147520 0.585879 0.791108
O O13 0.648388 0.586066 0.791488
O O14 0.315676 0.750196 0.240938
O O15 0.603775 0.670848 0.207933
O O16 0.486401 0.694897 0.305376
O O17 0.407331 0.254986 0.083493
O O18 0.750000 0.250000 0.000000
O O19 0.335884 0.250058 0.634818
#
# Coordination Sequence:
#
# PCOD9168297 Si02
#       8
#     8   8   8   8   8   8   8   8
#     4  10  19  31  51  74  96 122 152 188 227 266
#     4   9  17  30  49  77 103 120 141 179 230 282
#     4  10  14  20  34  51  67  88 132 194 224 247
#     4   9  17  30  49  69  92 116 146 190 236 274
#     4  10  21  31  41  56  87 129 162 186 209 259
#     4  10  21  36  52  73  94 122 158 194 230 260
#     4  10  19  31  46  68  94 121 155 187 222 266
#     4  10  16  25  35  50  72 104 145 186 215 256
#
# _framework density 17.097155999999998
#
# number of rings (size 3 to 8) (size 9 to 14) (size 15 to 20)
#    0.000    2.250    2.500    2.250    0.000    4.000 
#    0.000    0.000    0.000    0.000    0.000   35.000 
#    0.000    0.000    0.000    0.000    0.000   12.500 
#
# Total GULP energy -178480.222400 kJ/mol
# GULP energy per Si atom -5577.506950 kJ/mol
# Density = 1.705824 g / cm^3
# Si number density = 17.097156 Si / 1000 Ang^3
#
#
#
# Elastic Constant Matrix: (Units=GPa)
#
#
# Indices 1 2 3 4 5 6 
#
# 1 179.0720 59.4747 24.9358 0.0000 -6.6546 0.0000
# 2 59.4747 100.0769 2.7514 0.0000 -1.3398 0.0000
# 3 24.9358 2.7514 37.2375 0.0000 -0.0246 0.0000
# 4 0.0000 0.0000 0.0000 -0.8919 0.0000 -1.4265
# 5 -6.6546 -1.3398 -0.0246 0.0000 14.6569 0.0000
# 6 0.0000 0.0000 0.0000 -1.4265 0.0000 26.4184
#
#
#
# Elastic Compliance Matrix: (Units=1/GPa)
#
#
# Indices 1 2 3 4 5 6 
#
# 1 0.007889 -0.004510 -0.004947 0.000000 0.003161 0.000000
# 2 -0.004510 0.012603 0.002088 0.000000 -0.000892 0.000000
# 3 -0.004947 0.002088 0.030012 0.000000 -0.002005 0.000000
# 4 0.000000 0.000000 0.000000 -1.032061 0.000000 -0.055727
# 5 0.003161 -0.000892 -0.002005 0.000000 0.069578 0.000000
# 6 0.000000 0.000000 0.000000 -0.055727 0.000000 0.034843
#
#
# Mechanical properties :
#
#
# Convention : Reuss Voigt Hill
#
# Bulk Modulus (GPa) = 27.95964 54.52335 41.24149
# Shear Modulus (GPa) = -5.87905 23.31830 8.71962
#
# Velocity S-wave (km/s) = -1.85636 3.69707 2.26078
# Velocity P-wave (km/s) = 3.43426 7.08406 5.56678
#
# Compressibility (1/GPa) = 0.03576584
#
# Stress axis : x y z
#
# Youngs Moduli (GPa) = 126.76651 79.34582 33.32012
#
# Poissons Ratio (x) = 0.35783 0.16484
# Poissons Ratio (y) = 0.57168 -0.06958
# Poissons Ratio (z) = 0.62714 -0.16568
#
# Static dielectric constant tensor:
#      x y z
#    x 1.630560 0.000000 -0.009670 
#    y 0.000000 1.538780 0.000000 
#    z -0.009670 0.000000 1.627010 
# 
# From -- ./inp_files/371676.got.cif
#   From: 2010.05.17/outbox.cif.g08.bks.cpg/sg12_186_cif.got.tgz:371676.got - 2010.06.03 13:09:07.
