data_PCOD9168493
_publ_section_title
;
Structure prediction by ZEFSAII (Michael W. Deem and Ramdas Pophale) SiO2 
 PCOD9168493
Probable space group: C 2/M
;
_chemical_formula_sum "Si O2"
_cell_formula_units_Z 56
_cell_length_a 5.496908
_cell_length_b 14.601777
_cell_length_c 35.388084
_cell_angle_alpha 90.000000
_cell_angle_beta 67.145096
_cell_angle_gamma 90.000000
_cell_volume 2617.414541
_symmetry_space_group_name_H-M "C 2/M"
_symmetry_group_IT_number 12
_symmetry_cell_setting 'monoclinic'
loop_
_space_group_symop_operation_xyz
x,y,z
-x,y,-z
-x,-y,-z
x,-y,z
1/2+x,1/2+y,z
1/2-x,1/2+y,-z
1/2-x,1/2-y,-z
1/2+x,1/2-y,z
loop_
_atom_site_type_symbol
_atom_site_label
_atom_site_fract_x
_atom_site_fract_y
_atom_site_fract_z
Si Si1 0.197012 0.609637 0.021184
Si Si2 0.852362 0.645414 0.763871
Si Si3 0.426349 0.808670 0.330033
Si Si4 0.731787 0.642642 0.202476
Si Si5 0.378936 0.153109 0.548530
Si Si6 0.980645 0.691870 0.110499
Si Si7 0.796641 0.861993 0.581443
O O1 0.207699 0.500000 0.016873
O O2 0.078446 0.634509 0.068887
O O3 0.500000 0.643289 0.000000
O O4 0.000000 0.643333 0.000000
O O5 0.561670 0.603928 0.781561
O O6 0.811293 0.750411 0.781857
O O7 0.963425 0.647591 0.714887
O O8 0.068643 0.604088 0.778659
O O9 0.670635 0.750612 0.332686
O O10 0.325671 0.873040 0.369777
O O11 0.866022 0.638889 0.153534
O O12 0.500000 0.169474 0.500000
O O13 0.595156 0.105206 0.561733
O O14 0.322272 0.252140 0.571208
O O15 0.096671 0.105188 0.561799
O O16 0.235183 0.746965 0.110610
#
# Coordination Sequence:
#
# PCOD9168493 Si02
#       7
#     8   8   8   8   8   8   8
#     4  10  23  42  57  73 102 137 164 190 233 284
#     4  10  16  25  38  51  80 109 122 151 205 259
#     4  12  16  22  31  42  57  86 113 135 175 233
#     4  10  16  27  38  61  86 106 129 163 207 250
#     4  10  16  22  28  32  43  63  87 133 193 229
#     4  12  21  32  55  80 102 123 157 203 235 264
#     4  10  16  22  26  37  48  61  99 137 163 229
#
# _framework density 21.395160000000001
#
# number of rings (size 3 to 8) (size 9 to 14) (size 15 to 20)
#    0.000    1.429    8.571    3.000    0.000    1.714 
#    0.000    0.000    0.000    0.000    0.000    0.000 
#    0.000    0.000    0.000    0.000    0.000    0.000 
#
# Total GULP energy -156314.696776 kJ/mol
# GULP energy per Si atom -5582.667742 kJ/mol
# Density = 2.134646 g / cm^3
# Si number density = 21.395160 Si / 1000 Ang^3
#
#
#
# Elastic Constant Matrix: (Units=GPa)
#
#
# Indices 1 2 3 4 5 6 
#
# 1 148.2240 3.1295 -9.5204 -0.0003 7.5933 0.0000
# 2 3.1295 56.1114 -2.3085 -0.0001 0.2296 0.0000
# 3 -9.5204 -2.3085 150.8204 -0.0003 -3.8430 -0.0001
# 4 -0.0003 -0.0001 -0.0003 -25.4272 0.0001 0.3827
# 5 7.5933 0.2296 -3.8430 0.0001 47.6957 -0.0001
# 6 0.0000 0.0000 -0.0001 0.3827 -0.0001 -18.3524
#
#
#
# Elastic Compliance Matrix: (Units=1/GPa)
#
#
# Indices 1 2 3 4 5 6 
#
# 1 0.006834 -0.000360 0.000399 0.000000 -0.001054 0.000000
# 2 -0.000360 0.017852 0.000250 0.000000 -0.000008 0.000000
# 3 0.000399 0.000250 0.006671 0.000000 0.000473 0.000000
# 4 0.000000 0.000000 0.000000 -0.039340 0.000000 -0.000820
# 5 -0.001054 -0.000008 0.000473 0.000000 0.021172 0.000000
# 6 0.000000 0.000000 0.000000 -0.000820 0.000000 -0.054506
#
#
# Mechanical properties :
#
#
# Convention : Reuss Voigt Hill
#
# Bulk Modulus (GPa) = 31.31351 37.52857 34.42104
# Shear Modulus (GPa) = -160.00419 25.04021 -67.48199
#
# Velocity S-wave (km/s) = -8.65723 3.42478 -5.62221
# Velocity P-wave (km/s) = 9.23377 5.76347 5.10123
#
# Compressibility (1/GPa) = 0.03193510
#
# Stress axis : x y z
#
# Youngs Moduli (GPa) = 146.33181 56.01579 149.89207
#
# Poissons Ratio (x) = 0.02019 -0.05981
# Poissons Ratio (y) = 0.05274 -0.03752
# Poissons Ratio (z) = -0.05839 -0.01402
#
# Static dielectric constant tensor:
#      x y z
#    x 1.736160 0.000000 -0.008020 
#    y 0.000000 1.768770 0.000000 
#    z -0.008020 0.000000 1.724650 
# 
# From -- ./inp_files/371545.got.cif
#   From: 2010.05.17/outbox.cif.g08.bks.cpg/sg12_186_cif.got.tgz:371545.got - 2010.06.03 13:09:07.
