data_PCOD9168442
_publ_section_title
;
Structure prediction by ZEFSAII (Michael W. Deem and Ramdas Pophale) SiO2 
 PCOD9168442
Probable space group: C 2/M
;
_chemical_formula_sum "Si O2"
_cell_formula_units_Z 52
_cell_length_a 6.863838
_cell_length_b 23.771766
_cell_length_c 13.828116
_cell_angle_alpha 90.000000
_cell_angle_beta 106.495391
_cell_angle_gamma 90.000000
_cell_volume 2163.409819
_symmetry_space_group_name_H-M "C 2/M"
_symmetry_group_IT_number 12
_symmetry_cell_setting 'monoclinic'
loop_
_space_group_symop_operation_xyz
x,y,z
-x,y,-z
-x,-y,-z
x,-y,z
1/2+x,1/2+y,z
1/2-x,1/2+y,-z
1/2-x,1/2-y,-z
1/2+x,1/2-y,z
loop_
_atom_site_type_symbol
_atom_site_label
_atom_site_fract_x
_atom_site_fract_y
_atom_site_fract_z
Si Si1 0.229477 0.675707 0.819109
Si Si2 0.527291 0.000000 0.824675
Si Si3 0.342202 0.614060 0.396382
Si Si4 0.114706 0.587815 0.669344
Si Si5 0.247522 0.877260 0.973185
Si Si6 0.260665 0.192667 0.789846
Si Si7 0.579300 0.500000 0.380680
Si Si8 0.787273 0.000000 0.060444
O O1 0.254312 0.638112 0.727940
O O2 0.989859 0.674262 0.805366
O O3 0.303262 0.648377 0.929798
O O4 0.272271 0.740344 0.801413
O O5 0.569411 0.052333 0.761853
O O6 0.666380 0.000000 0.940573
O O7 0.311435 0.000000 0.846637
O O8 0.500000 0.632206 0.500000
O O9 0.106232 0.608046 0.396977
O O10 0.348139 0.660570 0.312730
O O11 0.411824 0.550525 0.378110
O O12 0.246731 0.548544 0.619295
O O13 0.135106 0.936191 0.933039
O O14 0.500000 0.887965 0.000000
O O15 0.193737 0.832686 0.882964
#
# Coordination Sequence:
#
# PCOD9168442 Si02
#       8
#     8   4   8   8   8   8   4   4
#     4  10  20  38  62  89 129 171 223 264 312 396
#     4  10  15  28  53  87 122 158 214 247 310 398
#     4  11  25  45  66 100 131 165 219 274 334 395
#     4  10  22  40  65  99 129 172 214 266 336 386
#     4  10  17  31  56  93 123 169 216 255 323 387
#     4  10  23  38  63  89 128 175 219 272 318 382
#     4  11  24  41  75  95 136 164 214 276 336 402
#     4  11  14  24  54  86 126 166 216 252 312 396
#
# _framework density 24.036131000000001
#
# number of rings (size 3 to 8) (size 9 to 14) (size 15 to 20)
#    0.000    1.692    3.077    3.462    2.154    1.846 
#    0.000    3.077    0.000    0.923    0.000    0.000 
#    0.000    0.000    0.000    0.000    0.000    0.000 
#
# Total GULP energy -144758.540661 kJ/mol
# GULP energy per Si atom -5567.636179 kJ/mol
# Density = 2.398142 g / cm^3
# Si number density = 24.036131 Si / 1000 Ang^3
#
#
#
# Elastic Constant Matrix: (Units=GPa)
#
#
# Indices 1 2 3 4 5 6 
#
# 1 94.2691 9.0285 17.7682 0.0000 -0.2677 0.0000
# 2 9.0285 203.0496 47.5561 0.0000 11.6971 0.0000
# 3 17.7682 47.5561 92.1190 0.0000 28.8806 0.0000
# 4 0.0000 0.0000 0.0000 27.2278 0.0000 10.8380
# 5 -0.2677 11.6971 28.8806 0.0000 23.0502 0.0000
# 6 0.0000 0.0000 0.0000 10.8380 0.0000 32.4734
#
#
#
# Elastic Compliance Matrix: (Units=1/GPa)
#
#
# Indices 1 2 3 4 5 6 
#
# 1 0.011313 0.000094 -0.003717 0.000000 0.004741 0.000000
# 2 0.000094 0.005626 -0.003340 0.000000 0.001331 0.000000
# 3 -0.003717 -0.003340 0.021046 0.000000 -0.024718 0.000000
# 4 0.000000 0.000000 0.000000 0.042354 0.000000 -0.014136
# 5 0.004741 0.001331 -0.024718 0.000000 0.073734 0.000000
# 6 0.000000 0.000000 0.000000 -0.014136 0.000000 0.035512
#
#
# Mechanical properties :
#
#
# Convention : Reuss Voigt Hill
#
# Bulk Modulus (GPa) = 41.56268 59.79368 50.67818
# Shear Modulus (GPa) = 23.63727 37.55595 30.59661
#
# Velocity S-wave (km/s) = 3.13933 3.95711 3.57170
# Velocity P-wave (km/s) = 5.51995 6.76822 6.17571
#
# Compressibility (1/GPa) = 0.02406005
#
# Stress axis : x y z
#
# Youngs Moduli (GPa) = 88.39409 177.73670 47.51454
#
# Poissons Ratio (x) = -0.01679 0.17662
# Poissons Ratio (y) = -0.00835 0.15870
# Poissons Ratio (z) = 0.32858 0.59364
#
# Static dielectric constant tensor:
#      x y z
#    x 2.014040 0.000000 0.036220 
#    y 0.000000 1.896760 0.000000 
#    z 0.036220 0.000000 1.971540 
# 
# From -- ./inp_files/207351.got.cif
#   From: 2010.05.17/outbox.cif.g08.bks.cpg/sg12_104_cif.got.tgz:207351.got - 2010.06.03 13:09:07.
