data_PCOD9168927
_publ_section_title
;
Structure prediction by ZEFSAII (Michael W. Deem and Ramdas Pophale) SiO2 
 PCOD9168927
Probable space group: C 2/M
;
_chemical_formula_sum "Si O2"
_cell_formula_units_Z 48
_cell_length_a 15.520822
_cell_length_b 14.359089
_cell_length_c 25.225692
_cell_angle_alpha 90.000000
_cell_angle_beta 151.765254
_cell_angle_gamma 90.000000
_cell_volume 2659.646949
_symmetry_space_group_name_H-M "C 2/M"
_symmetry_group_IT_number 12
_symmetry_cell_setting 'monoclinic'
loop_
_space_group_symop_operation_xyz
x,y,z
-x,y,-z
-x,-y,-z
x,-y,z
1/2+x,1/2+y,z
1/2-x,1/2+y,-z
1/2-x,1/2-y,-z
1/2+x,1/2-y,z
loop_
_atom_site_type_symbol
_atom_site_label
_atom_site_fract_x
_atom_site_fract_y
_atom_site_fract_z
Si Si1 0.287171 0.302142 0.789899
Si Si2 0.696831 0.500000 0.632063
Si Si3 0.458185 0.500000 0.913400
Si Si4 0.931596 0.294367 0.231111
Si Si5 0.547976 0.000000 0.787744
Si Si6 0.199269 0.210379 0.633782
Si Si7 0.186792 0.500000 0.970908
Si Si8 0.164780 0.299505 0.005614
O O1 0.352042 0.407085 0.838025
O O2 0.111992 0.280158 0.731137
O O3 0.242798 0.281260 0.704884
O O4 0.459924 0.238113 0.899941
O O5 0.500000 0.500000 0.500000
O O6 0.709727 0.604554 0.663071
O O7 0.836863 0.500000 0.657897
O O8 0.500000 0.500000 0.000000
O O9 0.641397 0.500000 0.976560
O O10 0.874515 0.401688 0.187230
O O11 0.792489 0.230816 0.122890
O O12 0.135303 0.281899 0.319164
O O13 0.528366 0.000000 0.840967
O O14 0.000000 0.224027 0.500000
O O15 0.175902 0.408354 0.999749
O O16 0.250000 0.250000 0.000000
#
# Coordination Sequence:
#
# PCOD9168927 Si02
#       8
#     8   4   4   8   4   8   4   8
#     4  12  23  36  59  85 115 152 189 240 296 342
#     4   8  16  32  57  81 103 139 189 239 285 333
#     4  12  22  34  57  88 115 145 194 245 286 337
#     4  11  21  36  56  85 115 145 193 240 289 346
#     4  10  16  30  54  81 105 138 185 245 280 318
#     4  10  21  39  60  84 114 151 194 241 293 348
#     4  12  20  32  54  78 114 152 184 222 281 344
#     4  12  20  36  55  82 116 150 182 228 291 351
#
# _framework density 18.047508000000001
#
# number of rings (size 3 to 8) (size 9 to 14) (size 15 to 20)
#    0.000    1.000    5.000    4.000    0.000    0.667 
#    0.000    2.917    0.000    0.000    0.000    0.000 
#    0.000    0.000    0.000    0.000    0.000    0.000 
#
# Total GULP energy -133753.452802 kJ/mol
# GULP energy per Si atom -5573.060533 kJ/mol
# Density = 1.800643 g / cm^3
# Si number density = 18.047508 Si / 1000 Ang^3
#
#
#
# Elastic Constant Matrix: (Units=GPa)
#
#
# Indices 1 2 3 4 5 6 
#
# 1 114.1083 49.0938 47.0940 0.0003 15.0344 -0.0001
# 2 49.0938 137.2772 38.0418 0.0011 2.0695 0.0000
# 3 47.0940 38.0418 94.7364 0.0039 19.3406 -0.0002
# 4 0.0003 0.0011 0.0039 27.7933 0.0001 0.8300
# 5 15.0344 2.0695 19.3406 0.0001 18.5283 0.0000
# 6 -0.0001 0.0000 -0.0002 0.8300 0.0000 -21.9033
#
#
#
# Elastic Compliance Matrix: (Units=1/GPa)
#
#
# Indices 1 2 3 4 5 6 
#
# 1 0.012504 -0.003372 -0.003644 0.000001 -0.005966 0.000000
# 2 -0.003372 0.009258 -0.003036 0.000000 0.004871 0.000000
# 3 -0.003644 -0.003036 0.016410 -0.000002 -0.013834 0.000000
# 4 0.000001 0.000000 -0.000002 0.035939 0.000002 0.001362
# 5 -0.005966 0.004871 -0.013834 0.000002 0.072709 0.000000
# 6 0.000000 0.000000 0.000000 0.001362 0.000000 -0.045604
#
#
# Mechanical properties :
#
#
# Convention : Reuss Voigt Hill
#
# Bulk Modulus (GPa) = 55.34293 68.28680 61.81487
# Shear Modulus (GPa) = 39.26367 19.00982 29.13674
#
# Velocity S-wave (km/s) = 4.66936 3.24901 4.02238
# Velocity P-wave (km/s) = 7.73320 7.21070 7.47651
#
# Compressibility (1/GPa) = 0.01806916
#
# Stress axis : x y z
#
# Youngs Moduli (GPa) = 79.97189 108.01065 60.93743
#
# Poissons Ratio (x) = 0.36423 0.22205
# Poissons Ratio (y) = 0.26968 0.18500
# Poissons Ratio (z) = 0.29141 0.32790
#
# Static dielectric constant tensor:
#      x y z
#    x 1.421000 0.000000 -0.535320 
#    y 0.000000 1.631660 0.000010 
#    z -0.535320 0.000010 0.132370 
# 
# From -- ./inp_files/340259.got.cif
#   From: 2010.05.17/outbox.cif.g08.bks.cpg/sg12_171_cif.got.tgz:340259.got - 2010.06.03 13:09:07.
