data_PCOD9168335
_publ_section_title
;
Structure prediction by ZEFSAII (Michael W. Deem and Ramdas Pophale) SiO2 
 PCOD9168335
Probable space group: C 2/M
;
_chemical_formula_sum "Si O2"
_cell_formula_units_Z 38
_cell_length_a 29.655208
_cell_length_b 11.002229
_cell_length_c 7.151592
_cell_angle_alpha 90.000000
_cell_angle_beta 42.852528
_cell_angle_gamma 90.000000
_cell_volume 1586.959717
_symmetry_space_group_name_H-M "C 2/M"
_symmetry_group_IT_number 12
_symmetry_cell_setting 'monoclinic'
loop_
_space_group_symop_operation_xyz
x,y,z
-x,y,-z
-x,-y,-z
x,-y,z
1/2+x,1/2+y,z
1/2-x,1/2+y,-z
1/2-x,1/2-y,-z
1/2+x,1/2-y,z
loop_
_atom_site_type_symbol
_atom_site_label
_atom_site_fract_x
_atom_site_fract_y
_atom_site_fract_z
Si Si1 0.165498 0.240443 0.061679
Si Si2 0.449852 0.195194 0.334864
Si Si3 0.948746 0.865013 0.828787
Si Si4 0.500000 0.000000 0.500000
Si Si5 0.104746 0.500000 0.757249
Si Si6 0.252514 0.500000 0.249680
Si Si7 0.306620 0.000000 0.174783
O O1 0.213767 0.124419 0.919878
O O2 0.196076 0.373519 0.927958
O O3 0.119747 0.247587 0.383455
O O4 0.114953 0.209897 0.044705
O O5 0.505119 0.298202 0.166593
O O6 0.472472 0.104901 0.434761
O O7 0.433118 0.116004 0.203620
O O8 0.000000 0.875336 0.500000
O O9 0.927478 0.000000 0.948459
O O10 0.175008 0.500000 0.437978
O O11 0.121657 0.500000 0.927523
O O12 0.246744 0.500000 0.495092
#
# Coordination Sequence:
#
# PCOD9168335 Si02
#       7
#     8   8   8   2   4   4   4
#     4  11  19  36  65  84 106 151 200 230 276 336
#     4  10  19  33  60  85 115 136 185 237 289 340
#     4   9  17  30  56  89 108 136 183 242 286 327
#     4  10  14  28  50  84 106 134 170 226 266 332
#     4   9  23  38  52  81 127 147 178 237 292 324
#     4  10  23  39  58  82 117 149 197 238 269 331
#     4  10  23  38  56  83 110 159 197 231 270 324
#
# _framework density 23.945156999999998
#
# number of rings (size 3 to 8) (size 9 to 14) (size 15 to 20)
#    0.632    1.474    4.211    1.895    1.474    0.842 
#    0.000    2.105    4.632    1.263    0.000    0.000 
#    0.000    0.000    0.000    0.000    0.000    0.000 
#
# Total GULP energy -105988.902351 kJ/mol
# GULP energy per Si atom -5578.363282 kJ/mol
# Density = 2.389066 g / cm^3
# Si number density = 23.945157 Si / 1000 Ang^3
#
#
#
# Elastic Constant Matrix: (Units=GPa)
#
#
# Indices 1 2 3 4 5 6 
#
# 1 70.4494 20.8171 13.5256 0.0000 9.6924 0.0000
# 2 20.8171 188.3633 42.9987 0.0000 -5.9796 0.0000
# 3 13.5256 42.9987 60.9442 0.0000 -16.5004 0.0000
# 4 0.0000 0.0000 0.0000 34.8089 0.0000 -12.2360
# 5 9.6924 -5.9796 -16.5004 0.0000 30.2957 0.0000
# 6 0.0000 0.0000 0.0000 -12.2360 0.0000 15.2735
#
#
#
# Elastic Compliance Matrix: (Units=1/GPa)
#
#
# Indices 1 2 3 4 5 6 
#
# 1 0.016639 -0.000886 -0.005345 0.000000 -0.008409 0.000000
# 2 -0.000886 0.006425 -0.004594 0.000000 -0.000951 0.000000
# 3 -0.005345 -0.004594 0.024695 0.000000 0.014253 0.000000
# 4 0.000000 0.000000 0.000000 0.039990 0.000000 0.032037
# 5 -0.008409 -0.000951 0.014253 0.000000 0.043274 0.000000
# 6 0.000000 0.000000 0.000000 0.032037 0.000000 0.091139
#
#
# Mechanical properties :
#
#
# Convention : Reuss Voigt Hill
#
# Bulk Modulus (GPa) = 38.29871 52.71553 45.50712
# Shear Modulus (GPa) = 19.80086 32.23664 26.01875
#
# Velocity S-wave (km/s) = 2.87875 3.67314 3.29993
# Velocity P-wave (km/s) = 5.20372 6.32868 5.79357
#
# Compressibility (1/GPa) = 0.02611054
#
# Stress axis : x y z
#
# Youngs Moduli (GPa) = 60.09842 155.63398 40.49415
#
# Poissons Ratio (x) = 0.13786 0.21643
# Poissons Ratio (y) = 0.05324 0.18603
# Poissons Ratio (z) = 0.32120 0.71500
#
# Static dielectric constant tensor:
#      x y z
#    x 1.936820 0.000000 0.063720 
#    y 0.000000 1.892030 0.000000 
#    z 0.063720 0.000000 2.128030 
# 
# From -- ./inp_files/109730.got.cif
#   From: 2010.05.17/outbox.cif.g08.bks.cpg/sg12_55_cif.got.tgz:109730.got - 2010.06.03 13:09:07.
