data_PCOD9168055
_publ_section_title
;
Structure prediction by ZEFSAII (Michael W. Deem and Ramdas Pophale) SiO2 
 PCOD9168055
Probable space group: P 21/M
;
_chemical_formula_sum "Si O2"
_cell_formula_units_Z 28
_cell_length_a 21.000000
_cell_length_b 9.000000
_cell_length_c 15.000000
_cell_angle_alpha 90.000000
_cell_angle_beta 30.000000
_cell_angle_gamma 90.000000
_cell_volume 1417.500000
_symmetry_space_group_name_H-M "P 21/M"
_symmetry_group_IT_number 11
_symmetry_cell_setting 'monoclinic'
loop_
_space_group_symop_operation_xyz
x,y,z
-x,1/2+y,-z
-x,-y,-z
x,1/2-y,z
loop_
_atom_site_type_symbol
_atom_site_label
_atom_site_fract_x
_atom_site_fract_y
_atom_site_fract_z
Si Si1 0.998416 0.584858 0.910216
Si Si2 0.611665 0.427703 0.922374
Si Si3 0.702150 0.419817 0.495294
Si Si4 0.772098 0.574966 0.587881
Si Si5 0.317008 0.929032 0.969816
Si Si6 0.523176 0.928936 0.569219
Si Si7 0.068035 0.925081 0.181425
O O1 0.948653 0.750000 0.983388
O O2 0.146262 0.590049 0.702875
O O3 0.920817 0.505174 0.926679
O O4 0.000000 0.500000 0.000000
O O5 0.597776 0.250000 0.938524
O O6 0.735433 0.479298 0.717903
O O7 0.623556 0.483535 0.009588
O O8 0.500000 0.500000 0.000000
O O9 0.653811 0.250000 0.563955
O O10 0.693784 0.514482 0.596775
O O11 0.637992 0.499188 0.488004
O O12 0.744184 0.750000 0.633307
O O13 0.922704 0.557878 0.388529
O O14 0.313749 0.750000 0.983244
O O15 0.173665 0.980081 0.122790
O O16 0.402754 0.960553 0.779774
O O17 0.538860 0.750000 0.542837
O O18 0.500000 0.000000 0.500000
O O19 0.089797 0.750000 0.140767
#
# Coordination Sequence:
#
# PCOD9168055 Si02
#       7
#     4   4   4   4   4   4   4
#     4  10  21  35  55  83 113 148 192 243 294 348
#     4  11  22  38  62  89 118 155 200 245 292 349
#     4  10  21  38  58  82 113 151 196 242 290 348
#     4  10  20  36  60  89 119 151 190 239 296 353
#     4   9  21  40  60  83 115 155 195 241 294 349
#     4  11  23  39  59  84 117 154 197 246 301 356
#     4   9  19  38  60  82 114 155 195 236 290 354
#
# _framework density 19.753086
#
# number of rings (size 3 to 8) (size 9 to 14) (size 15 to 20)
#    0.000    2.000    0.000    3.000    2.000    4.000 
#    0.000    4.286    0.000    0.000    0.000    0.000 
#    0.000    0.000    0.000    0.000    0.000    0.000 
#
# Total GULP energy -156246.485358 kJ/mol
# GULP energy per Si atom -5580.231620 kJ/mol
# Density = 1.970813 g / cm^3
# Si number density = 19.753086 Si / 1000 Ang^3
#
#
#
# Elastic Constant Matrix: (Units=GPa)
#
#
# Indices 1 2 3 4 5 6 
#
# 1 185.7596 56.0778 55.6026 0.0000 3.6009 0.0000
# 2 56.0778 80.3550 41.7633 0.0000 -0.5061 0.0000
# 3 55.6026 41.7633 26.4862 0.0000 12.6455 0.0000
# 4 0.0000 0.0000 0.0000 27.3080 0.0000 4.1898
# 5 3.6009 -0.5061 12.6455 0.0000 29.8505 0.0000
# 6 0.0000 0.0000 0.0000 4.1898 0.0000 31.2502
#
#
#
# Elastic Compliance Matrix: (Units=1/GPa)
#
#
# Indices 1 2 3 4 5 6 
#
# 1 0.001100 -0.018488 0.033916 0.000000 -0.014814 0.000000
# 2 -0.018488 -0.016912 0.080917 0.000000 -0.032335 0.000000
# 3 0.033916 0.080917 -0.200235 0.000000 0.082106 0.000000
# 4 0.000000 0.000000 0.000000 0.037388 0.000000 -0.005013
# 5 -0.014814 -0.032335 0.082106 0.000000 -0.000043 0.000000
# 6 0.000000 0.000000 0.000000 -0.005013 0.000000 0.032672
#
#
# Mechanical properties :
#
#
# Convention : Reuss Voigt Hill
#
# Bulk Modulus (GPa) = -42.81336 66.60980 11.89822
# Shear Modulus (GPa) = -14.42979 26.95887 6.26454
#
# Velocity S-wave (km/s) = -2.70572 3.69832 1.78278
# Velocity P-wave (km/s) = 5.61093 7.21326 3.20535
#
# Compressibility (1/GPa) = -0.02335720
#
# Stress axis : x y z
#
# Youngs Moduli (GPa) = 909.30863 -59.13112 -4.99413
#
# Poissons Ratio (x) = -1.09324 0.16938
# Poissons Ratio (y) = 16.81160 0.40411
# Poissons Ratio (z) = -30.84051 4.78470
#
# Static dielectric constant tensor:
#      x y z
#    x 2.563350 0.000000 -0.504310 
#    y 0.000000 1.685410 0.000000 
#    z -0.504310 0.000000 2.039470 
# 
# From -- ./inp_files/54516.got.cif
#   From: 2010.05.17/outbox.ucp.g08.bks.cvg/sg11_28_cif.got.tgz:54516.got - 2010.06.11 11:38:39.
