data_PCOD9168542
_publ_section_title
;
Structure prediction by ZEFSAII (Michael W. Deem and Ramdas Pophale) SiO2 
 PCOD9168542
Probable space group: C 2/M
;
_chemical_formula_sum "Si O2"
_cell_formula_units_Z 42
_cell_length_a 13.174529
_cell_length_b 7.498020
_cell_length_c 15.867755
_cell_angle_alpha 90.000000
_cell_angle_beta 68.602228
_cell_angle_gamma 90.000000
_cell_volume 1459.417380
_symmetry_space_group_name_H-M "C 2/M"
_symmetry_group_IT_number 12
_symmetry_cell_setting 'monoclinic'
loop_
_space_group_symop_operation_xyz
x,y,z
-x,y,-z
-x,-y,-z
x,-y,z
1/2+x,1/2+y,z
1/2-x,1/2+y,-z
1/2-x,1/2-y,-z
1/2+x,1/2-y,z
loop_
_atom_site_type_symbol
_atom_site_label
_atom_site_fract_x
_atom_site_fract_y
_atom_site_fract_z
Si Si1 0.184926 0.288261 0.103746
Si Si2 0.931172 0.792177 0.323702
Si Si3 0.062016 0.292375 0.862242
Si Si4 0.626614 0.214754 0.478631
Si Si5 0.000000 0.000000 0.000000
Si Si6 0.179858 0.706059 0.284850
O O1 0.177315 0.500000 0.116715
O O2 0.062025 0.225619 0.123234
O O3 0.222239 0.212267 0.183402
O O4 0.250000 0.250000 0.000000
O O5 0.885857 0.726990 0.247039
O O6 0.047372 0.698679 0.306784
O O7 0.856750 0.773503 0.429968
O O8 0.954073 0.000000 0.307511
O O9 0.060422 0.500000 0.887498
O O10 0.079522 0.155717 0.932722
O O11 0.500000 0.260816 0.500000
O O12 0.682550 0.288102 0.377126
O O13 0.636383 0.000000 0.474661
O O14 0.217846 0.500000 0.279700
#
# Coordination Sequence:
#
# PCOD9168542 Si02
#       6
#     8   8   8   8   2   8
#     4   9  18  30  48  69  98 137 167 203 244 293
#     4  10  16  24  39  62  89 121 160 191 234 294
#     4  10  21  36  50  72 101 132 166 206 252 294
#     4   8  13  22  36  53  82 123 156 188 231 288
#     4  12  22  36  56  74  94 132 170 214 246 298
#     4   8  15  26  37  56  87 127 163 189 238 288
#
# _framework density 28.778604999999999
#
# number of rings (size 3 to 8) (size 9 to 14) (size 15 to 20)
#    0.000    2.857    0.952    4.286    1.333    4.190 
#    0.000    0.000    0.000    0.000    0.000    0.000 
#    0.000    1.524    2.667    0.571    0.000    0.381 
#
# Total GULP energy -117340.470957 kJ/mol
# GULP energy per Si atom -5587.641474 kJ/mol
# Density = 2.871310 g / cm^3
# Si number density = 28.778605 Si / 1000 Ang^3
#
#
#
# Elastic Constant Matrix: (Units=GPa)
#
#
# Indices 1 2 3 4 5 6 
#
# 1 65.5961 6.4734 57.9027 0.0000 18.8685 0.0000
# 2 6.4734 165.1935 51.5399 0.0000 0.4295 0.0000
# 3 57.9027 51.5399 326.9423 0.0000 -12.0480 0.0000
# 4 0.0000 0.0000 0.0000 39.8724 0.0000 -12.0955
# 5 18.8685 0.4295 -12.0480 0.0000 85.0740 0.0000
# 6 0.0000 0.0000 0.0000 -12.0955 0.0000 -3.7493
#
#
#
# Elastic Compliance Matrix: (Units=1/GPa)
#
#
# Indices 1 2 3 4 5 6 
#
# 1 0.019975 0.000411 -0.003786 0.000000 -0.004968 0.000000
# 2 0.000411 0.006378 -0.001088 0.000000 -0.000278 0.000000
# 3 -0.003786 -0.001088 0.003952 0.000000 0.001405 0.000000
# 4 0.000000 0.000000 0.000000 0.012675 0.000000 -0.040891
# 5 -0.004968 -0.000278 0.001405 0.000000 0.013057 0.000000
# 6 0.000000 0.000000 0.000000 -0.040891 0.000000 -0.134798
#
#
# Mechanical properties :
#
#
# Convention : Reuss Voigt Hill
#
# Bulk Modulus (GPa) = 46.77367 87.72933 67.25150
# Shear Modulus (GPa) = -79.73425 53.69382 -13.02022
#
# Velocity S-wave (km/s) = -5.26937 4.32412 -2.12934
# Velocity P-wave (km/s) = 4.55340 7.44857 4.16820
#
# Compressibility (1/GPa) = 0.02137955
#
# Stress axis : x y z
#
# Youngs Moduli (GPa) = 50.06276 156.79607 253.00867
#
# Poissons Ratio (x) = -0.06448 0.95778
# Poissons Ratio (y) = -0.02059 0.27539
# Poissons Ratio (z) = 0.18952 0.17067
#
# Static dielectric constant tensor:
#      x y z
#    x 2.569670 0.000000 -0.000270 
#    y 0.000000 1.842240 0.000000 
#    z -0.000270 0.000000 2.334390 
# 
# From -- ./inp_files/229166.got.cif
#   From: 2010.05.17/outbox.cif.g08.bks.cpg/sg12_115_cif.got.tgz:229166.got - 2010.06.03 13:09:07.
