data_PCOD9168561
_publ_section_title
;
Structure prediction by ZEFSAII (Michael W. Deem and Ramdas Pophale) SiO2 
 PCOD9168561
Probable space group: C 2/M
;
_chemical_formula_sum "Si O2"
_cell_formula_units_Z 42
_cell_length_a 13.003831
_cell_length_b 18.071834
_cell_length_c 12.659238
_cell_angle_alpha 90.000000
_cell_angle_beta 147.415681
_cell_angle_gamma 90.000000
_cell_volume 1602.135472
_symmetry_space_group_name_H-M "C 2/M"
_symmetry_group_IT_number 12
_symmetry_cell_setting 'monoclinic'
loop_
_space_group_symop_operation_xyz
x,y,z
-x,y,-z
-x,-y,-z
x,-y,z
1/2+x,1/2+y,z
1/2-x,1/2+y,-z
1/2-x,1/2-y,-z
1/2+x,1/2-y,z
loop_
_atom_site_type_symbol
_atom_site_label
_atom_site_fract_x
_atom_site_fract_y
_atom_site_fract_z
Si Si1 0.798313 0.626042 0.713681
Si Si2 0.500000 0.000000 0.000000
Si Si3 0.070451 0.086191 0.722897
Si Si4 0.598776 0.915506 0.467961
Si Si5 0.233216 0.283975 0.690606
Si Si6 0.741768 0.171661 0.931929
O O1 0.683166 0.626563 0.726318
O O2 0.649811 0.597599 0.497975
O O3 0.837284 0.712361 0.733783
O O4 0.955769 0.565419 0.873551
O O5 0.123254 0.000000 0.753582
O O6 0.136753 0.116161 0.891540
O O7 0.500000 0.921926 0.500000
O O8 0.753128 0.853180 0.630055
O O9 0.455193 0.873969 0.262879
O O10 0.649412 0.000000 0.484151
O O11 0.301809 0.307352 0.865348
O O12 0.000000 0.268743 0.500000
O O13 0.750000 0.250000 0.000000
#
# Coordination Sequence:
#
# PCOD9168561 Si02
#       6
#     8   2   8   8   8   8
#     4  11  19  34  48  73  98 137 171 210 251 303
#     4  12  24  34  52  68 102 142 178 208 252 304
#     4  11  18  30  51  75 102 124 168 211 257 301
#     4   8  15  26  40  69 109 131 154 197 251 300
#     4   9  16  29  50  73 104 133 161 207 250 306
#     4  10  16  24  44  76 102 129 155 201 259 302
#
# _framework density 26.215012000000002
#
# number of rings (size 3 to 8) (size 9 to 14) (size 15 to 20)
#    0.000    2.476    5.714    2.286    0.000    0.762 
#    0.000    0.000    0.000    1.143    0.000    0.667 
#    0.000    0.000    0.000    4.952    0.000    0.000 
#
# Total GULP energy -117261.501763 kJ/mol
# GULP energy per Si atom -5583.881036 kJ/mol
# Density = 2.615535 g / cm^3
# Si number density = 26.215012 Si / 1000 Ang^3
#
#
#
# Elastic Constant Matrix: (Units=GPa)
#
#
# Indices 1 2 3 4 5 6 
#
# 1 74.1189 21.6885 37.2672 0.0000 -10.3107 0.0000
# 2 21.6885 256.6025 64.5117 0.0000 -15.4646 0.0000
# 3 37.2672 64.5117 192.2535 0.0000 -46.2358 0.0000
# 4 0.0000 0.0000 0.0000 59.7873 0.0000 -8.3789
# 5 -10.3107 -15.4646 -46.2358 0.0000 37.6518 0.0000
# 6 0.0000 0.0000 0.0000 -8.3789 0.0000 -1.9427
#
#
#
# Elastic Compliance Matrix: (Units=1/GPa)
#
#
# Indices 1 2 3 4 5 6 
#
# 1 0.015045 -0.000588 -0.002535 0.000000 0.000766 0.000000
# 2 -0.000588 0.004279 -0.001331 0.000000 -0.000038 0.000000
# 3 -0.002535 -0.001331 0.008289 0.000000 0.008938 0.000000
# 4 0.000000 0.000000 0.000000 0.010425 0.000000 -0.044962
# 5 0.000766 -0.000038 0.008938 0.000000 0.037729 0.000000
# 6 0.000000 0.000000 0.000000 -0.044962 0.000000 -0.320829
#
#
# Mechanical properties :
#
#
# Convention : Reuss Voigt Hill
#
# Bulk Modulus (GPa) = 53.46183 85.54550 69.50367
# Shear Modulus (GPa) = -21.74673 45.73313 11.99320
#
# Velocity S-wave (km/s) = -2.88332 4.18130 2.14123
# Velocity P-wave (km/s) = 3.05829 7.48426 5.71696
#
# Compressibility (1/GPa) = 0.01870493
#
# Stress axis : x y z
#
# Youngs Moduli (GPa) = 66.46721 233.69257 120.64237
#
# Poissons Ratio (x) = 0.13746 0.30582
# Poissons Ratio (y) = 0.03910 0.16057
# Poissons Ratio (z) = 0.16849 0.31104
#
# Static dielectric constant tensor:
#      x y z
#    x 0.991200 0.000000 -0.403530 
#    y 0.000000 1.994700 0.000000 
#    z -0.403530 0.000000 1.831970 
# 
# From -- ./inp_files/290485.got.cif
#   From: 2010.05.17/outbox.cif.g08.bks.cpg/sg12_146_cif.got.tgz:290485.got - 2010.06.03 13:09:07.
