data_PCOD9168738
_publ_section_title
;
Structure prediction by ZEFSAII (Michael W. Deem and Ramdas Pophale) SiO2 
 PCOD9168738
Probable space group: C 2/M
;
_chemical_formula_sum "Si O2"
_cell_formula_units_Z 56
_cell_length_a 17.308336
_cell_length_b 18.506530
_cell_length_c 26.506037
_cell_angle_alpha 90.000000
_cell_angle_beta 157.428811
_cell_angle_gamma 90.000000
_cell_volume 3258.856269
_symmetry_space_group_name_H-M "C 2/M"
_symmetry_group_IT_number 12
_symmetry_cell_setting 'monoclinic'
loop_
_space_group_symop_operation_xyz
x,y,z
-x,y,-z
-x,-y,-z
x,-y,z
1/2+x,1/2+y,z
1/2-x,1/2+y,-z
1/2-x,1/2-y,-z
1/2+x,1/2-y,z
loop_
_atom_site_type_symbol
_atom_site_label
_atom_site_fract_x
_atom_site_fract_y
_atom_site_fract_z
Si Si1 0.110784 0.808874 0.153704
Si Si2 0.523154 0.692836 0.812993
Si Si3 0.417873 0.332600 0.639586
Si Si4 0.832545 0.645932 0.129101
Si Si5 0.012379 0.662193 0.343050
Si Si6 0.124639 0.419068 0.950093
Si Si7 0.147718 0.644427 0.135864
O O1 0.319695 0.844503 0.263092
O O2 0.116536 0.728214 0.133630
O O3 0.089203 0.805342 0.201234
O O4 0.910130 0.849058 0.012570
O O5 0.403022 0.666667 0.691317
O O6 0.604401 0.773038 0.850217
O O7 0.712475 0.639673 0.933568
O O8 0.219908 0.362889 0.493210
O O9 0.449542 0.247847 0.644436
O O10 0.625087 0.367813 0.745387
O O11 0.893551 0.593775 0.120504
O O12 0.944896 0.629810 0.248841
O O13 0.193824 0.500000 0.002289
O O14 0.922667 0.402459 0.859119
O O15 0.000000 0.629869 0.000000
#
# Coordination Sequence:
#
# PCOD9168738 Si02
#       7
#     8   8   8   8   8   8   8
#     4  10  16  27  53  78 100 131 170 205 259 303
#     4  10  17  32  52  74 104 136 165 210 265 300
#     4   9  18  30  46  75 109 131 165 213 254 300
#     4  10  17  33  53  73 103 138 167 209 258 305
#     4   9  18  29  48  77 102 132 171 213 252 296
#     4  11  21  32  51  81 104 129 174 217 253 300
#     4  11  17  31  50  73 103 137 165 208 258 308
#
# _framework density 17.183942999999999
#
# number of rings (size 3 to 8) (size 9 to 14) (size 15 to 20)
#    0.000    2.000    4.286    3.000    0.000    0.857 
#    0.000    0.714    0.000    9.429    0.000    4.000 
#    0.000    0.000    0.000    0.000    0.000    0.000 
#
# Total GULP energy -156086.566320 kJ/mol
# GULP energy per Si atom -5574.520226 kJ/mol
# Density = 1.714483 g / cm^3
# Si number density = 17.183943 Si / 1000 Ang^3
#
#
#
# Elastic Constant Matrix: (Units=GPa)
#
#
# Indices 1 2 3 4 5 6 
#
# 1 97.3371 -7.1932 70.4377 -0.0104 -2.2429 -0.0009
# 2 -7.1932 17.9378 -4.9055 0.0239 1.3444 -0.0027
# 3 70.4377 -4.9055 136.1565 0.0620 -6.3124 -0.0063
# 4 -0.0104 0.0239 0.0620 1.9485 -0.0055 2.0440
# 5 -2.2429 1.3444 -6.3124 -0.0055 17.3258 -0.0040
# 6 -0.0009 -0.0027 -0.0063 2.0440 -0.0040 0.9465
#
#
#
# Elastic Compliance Matrix: (Units=1/GPa)
#
#
# Indices 1 2 3 4 5 6 
#
# 1 0.016785 0.004482 -0.008582 -0.000268 -0.001302 0.000546
# 2 0.004482 0.057732 -0.000427 0.000661 -0.004055 -0.001280
# 3 -0.008582 -0.000427 0.011920 0.000394 0.003265 -0.000767
# 4 -0.000268 0.000661 0.000394 -0.405547 0.000131 0.875815
# 5 -0.001302 -0.004055 0.003265 0.000131 0.059053 -0.000025
# 6 0.000546 -0.001280 -0.000767 0.875815 -0.000025 -0.834849
#
#
# Mechanical properties :
#
#
# Convention : Reuss Voigt Hill
#
# Bulk Modulus (GPa) = 12.92279 40.90101 26.91190
# Shear Modulus (GPa) = -4.71673 16.91698 6.10013
#
# Velocity S-wave (km/s) = -1.65856 3.14102 1.88616
# Velocity P-wave (km/s) = 1.96694 6.08344 4.52090
#
# Compressibility (1/GPa) = 0.07738267
#
# Stress axis : x y z
#
# Youngs Moduli (GPa) = 59.57595 17.32149 83.89193
#
# Poissons Ratio (x) = -0.07764 0.71998
# Poissons Ratio (y) = -0.26702 0.03583
# Poissons Ratio (z) = 0.51129 0.00740
#
# Static dielectric constant tensor:
#      x y z
#    x 1.602760 0.000000 -0.009230 
#    y 0.000000 1.568220 0.000000 
#    z -0.009230 0.000000 1.585930 
# 
# From -- ./inp_files/364725.got.cif
#   From: 2010.05.17/outbox.cif.g08.bks.cpg/sg12_183_cif.got.tgz:364725.got - 2010.06.03 13:09:07.
