data_PCOD9168314
_publ_section_title
;
Structure prediction by ZEFSAII (Michael W. Deem and Ramdas Pophale) SiO2 
 PCOD9168314
Probable space group: C 2/M
;
_chemical_formula_sum "Si O2"
_cell_formula_units_Z 60
_cell_length_a 15.361117
_cell_length_b 14.739804
_cell_length_c 27.708658
_cell_angle_alpha 90.000000
_cell_angle_beta 28.275790
_cell_angle_gamma 90.000000
_cell_volume 2971.995634
_symmetry_space_group_name_H-M "C 2/M"
_symmetry_group_IT_number 12
_symmetry_cell_setting 'monoclinic'
loop_
_space_group_symop_operation_xyz
x,y,z
-x,y,-z
-x,-y,-z
x,-y,z
1/2+x,1/2+y,z
1/2-x,1/2+y,-z
1/2-x,1/2-y,-z
1/2+x,1/2-y,z
loop_
_atom_site_type_symbol
_atom_site_label
_atom_site_fract_x
_atom_site_fract_y
_atom_site_fract_z
Si Si1 0.347868 0.845108 0.211612
Si Si2 0.024022 0.169974 0.792180
Si Si3 0.474295 0.365851 0.567213
Si Si4 0.500000 0.746348 0.000000
Si Si5 0.161394 0.655830 0.562624
Si Si6 0.359434 0.245303 0.775449
Si Si7 0.850607 0.598065 0.003227
Si Si8 0.566709 0.143412 0.415335
O O1 0.437112 0.761154 0.196728
O O2 0.208117 0.894703 0.315725
O O3 0.222096 0.807135 0.228417
O O4 0.518413 0.899466 0.106873
O O5 0.219774 0.121363 0.694568
O O6 0.956551 0.197026 0.770914
O O7 0.865492 0.114560 0.896487
O O8 0.500000 0.394685 0.500000
O O9 0.659996 0.392274 0.503868
O O10 0.452122 0.254590 0.576773
O O11 0.322685 0.699859 0.111196
O O12 0.416689 0.815402 0.001390
O O13 0.250000 0.750000 0.500000
O O14 0.011451 0.680941 0.676843
O O15 0.056442 0.611671 0.569059
O O16 0.875010 0.500000 0.015458
O O17 0.500000 0.113170 0.500000
#
# Coordination Sequence:
#
# PCOD9168314 Si02
#       8
#     8   8   8   4   8   8   8   8
#     4  10  18  31  47  73 100 122 157 198 240 283
#     4  10  18  30  47  72 100 126 156 195 237 283
#     4   9  16  25  41  67  99 124 149 187 236 282
#     4   8  19  30  46  64  96 128 159 194 237 290
#     4  10  14  23  40  64 100 126 153 183 233 281
#     4  10  16  27  43  69 100 130 150 190 239 278
#     4  10  20  33  50  68  92 128 164 199 239 285
#     4   9  16  24  40  67  98 128 151 187 233 279
#
# _framework density 20.188455000000001
#
# number of rings (size 3 to 8) (size 9 to 14) (size 15 to 20)
#    0.000    2.400    4.000    3.800    0.000    0.000 
#    0.000    0.000    0.000    0.800    0.000    2.800 
#    0.000    0.000    0.000    0.000    0.000    0.000 
#
# Total GULP energy -167133.718479 kJ/mol
# GULP energy per Si atom -5571.123949 kJ/mol
# Density = 2.014251 g / cm^3
# Si number density = 20.188455 Si / 1000 Ang^3
#
#
#
# Elastic Constant Matrix: (Units=GPa)
#
#
# Indices 1 2 3 4 5 6 
#
# 1 125.1645 11.0569 63.6886 0.0005 0.1580 -0.0007
# 2 11.0569 47.8706 22.5022 0.0000 1.2483 -0.0001
# 3 63.6886 22.5022 230.5461 0.0068 -8.2792 -0.0027
# 4 0.0005 0.0000 0.0068 -28.3575 -0.0024 8.2012
# 5 0.1580 1.2483 -8.2792 -0.0024 27.6526 0.0015
# 6 -0.0007 -0.0001 -0.0027 8.2012 0.0015 -8.3956
#
#
#
# Elastic Compliance Matrix: (Units=1/GPa)
#
#
# Indices 1 2 3 4 5 6 
#
# 1 0.009357 -0.000957 -0.002519 -0.000001 -0.000764 -0.000001
# 2 -0.000957 0.022066 -0.001946 0.000000 -0.001573 0.000000
# 3 -0.002519 -0.001946 0.005284 0.000001 0.001684 0.000000
# 4 -0.000001 0.000000 0.000001 -0.049149 -0.000001 -0.048011
# 5 -0.000764 -0.001573 0.001684 -0.000001 0.036743 0.000005
# 6 -0.000001 0.000000 0.000000 -0.048011 0.000005 -0.166010
#
#
# Mechanical properties :
#
#
# Convention : Reuss Voigt Hill
#
# Bulk Modulus (GPa) = 38.66508 66.45294 52.55901
# Shear Modulus (GPa) = -40.90159 18.60213 -11.14973
#
# Velocity S-wave (km/s) = -4.50598 3.03879 -2.35262
# Velocity P-wave (km/s) = 2.80681 6.73053 4.32562
#
# Compressibility (1/GPa) = 0.02586313
#
# Stress axis : x y z
#
# Youngs Moduli (GPa) = 106.87542 45.31774 189.25927
#
# Poissons Ratio (x) = 0.04338 0.47671
# Poissons Ratio (y) = 0.10230 0.36827
# Poissons Ratio (z) = 0.26920 0.08818
#
# Static dielectric constant tensor:
#      x y z
#    x 1.740150 0.000000 0.004020 
#    y 0.000000 1.779230 0.000000 
#    z 0.004020 0.000000 1.750320 
# 
# From -- ./inp_files/361900.got.cif
#   From: 2010.05.17/outbox.cif.g08.bks.cpg/sg12_181_cif.got.tgz:361900.got - 2010.06.03 13:09:07.
