data_PCOD9168893
_publ_section_title
;
Structure prediction by ZEFSAII (Michael W. Deem and Ramdas Pophale) SiO2 
 PCOD9168893
Probable space group: C 2/M
;
_chemical_formula_sum "Si O2"
_cell_formula_units_Z 58
_cell_length_a 16.413115
_cell_length_b 20.135977
_cell_length_c 16.682237
_cell_angle_alpha 90.000000
_cell_angle_beta 27.912276
_cell_angle_gamma 90.000000
_cell_volume 2580.919264
_symmetry_space_group_name_H-M "C 2/M"
_symmetry_group_IT_number 12
_symmetry_cell_setting 'monoclinic'
loop_
_space_group_symop_operation_xyz
x,y,z
-x,y,-z
-x,-y,-z
x,-y,z
1/2+x,1/2+y,z
1/2-x,1/2+y,-z
1/2-x,1/2-y,-z
1/2+x,1/2-y,z
loop_
_atom_site_type_symbol
_atom_site_label
_atom_site_fract_x
_atom_site_fract_y
_atom_site_fract_z
Si Si1 0.474653 0.574400 0.675764
Si Si2 0.208296 0.166244 0.842258
Si Si3 0.373577 0.425096 0.943458
Si Si4 0.621527 0.922850 0.623450
Si Si5 0.280393 0.686854 0.763616
Si Si6 0.500000 0.000000 0.000000
Si Si7 0.715994 0.076574 0.369857
Si Si8 0.029769 0.630688 0.863331
O O1 0.427964 0.500000 0.684697
O O2 0.369783 0.582610 0.850719
O O3 0.677129 0.576057 0.521855
O O4 0.425598 0.633140 0.659155
O O5 0.309002 0.235656 0.749527
O O6 0.292118 0.118360 0.703136
O O7 0.209167 0.129811 0.927310
O O8 0.000000 0.176698 0.000000
O O9 0.313976 0.500000 0.015642
O O10 0.579071 0.423529 0.785460
O O11 0.620645 0.898532 0.532889
O O12 0.523545 0.879890 0.774398
O O13 0.566784 0.000000 0.672223
O O14 0.199094 0.669914 0.747853
O O15 0.129374 0.669910 0.959512
O O16 0.468088 0.058806 0.095587
O O17 0.667965 0.000000 0.398843
#
# Coordination Sequence:
#
# PCOD9168893 Si02
#       8
#     8   8   8   8   8   2   8   8
#     4   9  19  32  48  75 105 129 167 212 252 303
#     4  10  16  30  49  71 101 135 170 209 248 302
#     4   8  15  28  49  75 100 126 164 214 262 295
#     4   9  17  32  52  77 102 127 164 214 262 296
#     4  10  21  31  46  72 105 139 171 201 245 302
#     4   8  16  28  48  70  96 132 162 214 242 280
#     4   8  15  27  50  79 100 123 165 215 258 298
#     4  10  19  32  48  72 102 132 173 210 246 293
#
# _framework density 22.472612999999999
#
# number of rings (size 3 to 8) (size 9 to 14) (size 15 to 20)
#    0.000    3.034    2.069    2.069    3.862    2.759 
#    0.000    2.069    0.000    0.000    3.586    0.000 
#    0.000    4.414    0.000    2.483    0.000    0.000 
#
# Total GULP energy -161800.792214 kJ/mol
# GULP energy per Si atom -5579.337663 kJ/mol
# Density = 2.242146 g / cm^3
# Si number density = 22.472613 Si / 1000 Ang^3
#
#
#
# Elastic Constant Matrix: (Units=GPa)
#
#
# Indices 1 2 3 4 5 6 
#
# 1 77.4293 28.5949 35.0623 -0.5765 6.2578 -0.0088
# 2 28.5949 100.4265 15.9591 -0.8745 18.8756 0.0076
# 3 35.0623 15.9591 87.2151 -0.4877 16.0992 -0.0072
# 4 -0.5765 -0.8745 -0.4877 298.3322 -0.1130 -2.1472
# 5 6.2578 18.8756 16.0992 -0.1130 37.1301 -0.0219
# 6 -0.0088 0.0076 -0.0072 -2.1472 -0.0219 -4.8547
#
#
#
# Elastic Compliance Matrix: (Units=1/GPa)
#
#
# Indices 1 2 3 4 5 6 
#
# 1 0.017295 -0.004277 -0.006558 0.000011 0.002103 -0.000042
# 2 -0.004277 0.012160 0.000546 0.000026 -0.005697 0.000040
# 3 -0.006558 0.000546 0.015055 0.000011 -0.005700 0.000011
# 4 0.000011 0.000026 0.000011 0.003341 -0.000011 -0.001478
# 5 0.002103 -0.005697 -0.005700 -0.000011 0.031946 -0.000144
# 6 -0.000042 0.000040 0.000011 -0.001478 -0.000144 -0.205330
#
#
# Mechanical properties :
#
#
# Convention : Reuss Voigt Hill
#
# Bulk Modulus (GPa) = 41.78771 47.14484 44.46627
# Shear Modulus (GPa) = -51.55788 78.48515 13.46364
#
# Velocity S-wave (km/s) = -4.79503 5.91613 2.45033
# Velocity P-wave (km/s) = 3.46715 8.22750 5.27592
#
# Compressibility (1/GPa) = 0.02393048
#
# Stress axis : x y z
#
# Youngs Moduli (GPa) = 57.82176 82.23880 66.42430
#
# Poissons Ratio (x) = 0.35177 0.43563
# Poissons Ratio (y) = 0.24733 -0.03629
# Poissons Ratio (z) = 0.37921 -0.04494
#
# Static dielectric constant tensor:
#      x y z
#    x 1.870070 -0.000010 -0.079330 
#    y -0.000010 1.779580 0.000020 
#    z -0.079330 0.000020 1.907070 
# 
# From -- ./inp_files/278814.got.cif
#   From: 2010.05.17/outbox.cif.g08.bks.cpg/sg12_140_cif.got.tgz:278814.got - 2010.06.03 13:09:07.
