data_PCOD9168017
_publ_section_title
;
Structure prediction by ZEFSAII (Michael W. Deem and Ramdas Pophale) SiO2 
 PCOD9168017
Probable space group: P 21/M
;
_chemical_formula_sum "Si O2"
_cell_formula_units_Z 28
_cell_length_a 21.000000
_cell_length_b 9.000000
_cell_length_c 15.000000
_cell_angle_alpha 90.000000
_cell_angle_beta 150.000000
_cell_angle_gamma 90.000000
_cell_volume 1417.500000
_symmetry_space_group_name_H-M "P 21/M"
_symmetry_group_IT_number 11
_symmetry_cell_setting 'monoclinic'
loop_
_space_group_symop_operation_xyz
x,y,z
-x,1/2+y,-z
-x,-y,-z
x,1/2-y,z
loop_
_atom_site_type_symbol
_atom_site_label
_atom_site_fract_x
_atom_site_fract_y
_atom_site_fract_z
Si Si1 0.321630 0.920158 0.361386
Si Si2 0.871221 0.930366 0.566730
Si Si3 0.357575 0.070375 0.035260
Si Si4 0.372518 0.076782 0.250241
Si Si5 0.898373 0.573880 0.808754
Si Si6 0.931618 0.929755 0.333390
Si Si7 0.586521 0.431914 0.185373
O O1 0.281500 0.750000 0.323012
O O2 0.473988 0.927674 0.556596
O O3 0.302011 0.982129 0.238747
O O4 0.241310 0.020451 0.329967
O O5 0.864554 0.750000 0.545937
O O6 0.904335 0.962034 0.710758
O O7 0.729974 0.999728 0.369962
O O8 0.987749 0.000360 0.650941
O O9 0.363396 0.250000 0.045014
O O10 0.346763 0.014859 0.122328
O O11 0.491141 0.028294 0.151936
O O12 0.217921 0.032332 0.829654
O O13 0.334735 0.250000 0.212576
O O14 0.911306 0.750000 0.833760
O O15 0.000000 0.500000 0.000000
O O16 0.939531 0.750000 0.337226
O O17 0.000000 0.000000 0.500000
O O18 0.595610 0.250000 0.189018
O O19 0.500000 0.500000 0.000000
#
# Coordination Sequence:
#
# PCOD9168017 Si02
#       7
#     4   4   4   4   4   4   4
#     4  10  20  35  57  86 120 154 197 248 305 366
#     4  11  25  44  64  93 132 171 217 270 321 385
#     4   9  20  37  60  88 117 153 203 254 305 371
#     4   9  18  35  58  84 115 154 196 247 302 361
#     4  11  25  42  62  87 123 167 215 266 317 377
#     4  11  23  41  65  93 126 167 210 259 321 383
#     4  11  22  40  67  97 129 166 209 263 326 389
#
# _framework density 19.753086
#
# number of rings (size 3 to 8) (size 9 to 14) (size 15 to 20)
#    0.000    1.714    0.000    3.857    2.000    5.143 
#    0.000    4.286    0.000    0.000    0.000    0.000 
#    0.000    0.000    0.000    0.000    0.000    0.000 
#
# Total GULP energy -156088.594887 kJ/mol
# GULP energy per Si atom -5574.592675 kJ/mol
# Density = 1.970813 g / cm^3
# Si number density = 19.753086 Si / 1000 Ang^3
#
#
#
# Elastic Constant Matrix: (Units=GPa)
#
#
# Indices 1 2 3 4 5 6 
#
# 1 66.8043 7.0828 -9.2647 0.0000 0.8622 0.0000
# 2 7.0828 56.7303 25.3019 0.0000 -2.7529 0.0000
# 3 -9.2647 25.3019 31.6881 0.0000 -2.0424 0.0000
# 4 0.0000 0.0000 0.0000 31.1744 0.0000 5.0884
# 5 0.8622 -2.7529 -2.0424 0.0000 35.5050 0.0000
# 6 0.0000 0.0000 0.0000 5.0884 0.0000 32.6472
#
#
#
# Elastic Compliance Matrix: (Units=1/GPa)
#
#
# Indices 1 2 3 4 5 6 
#
# 1 0.017141 -0.006806 0.010423 0.000000 -0.000344 0.000000
# 2 -0.006806 0.030105 -0.025963 0.000000 0.001006 0.000000
# 3 0.010423 -0.025963 0.055395 0.000000 0.000920 0.000000
# 4 0.000000 0.000000 0.000000 0.032915 0.000000 -0.005130
# 5 -0.000344 0.001006 0.000920 0.000000 0.028304 0.000000
# 6 0.000000 0.000000 0.000000 -0.005130 0.000000 0.031430
#
#
# Mechanical properties :
#
#
# Convention : Reuss Voigt Hill
#
# Bulk Modulus (GPa) = 17.25616 22.38476 19.82046
# Shear Modulus (GPa) = 19.28281 28.67216 23.97748
#
# Velocity S-wave (km/s) = 3.12780 3.81403 3.48783
# Velocity P-wave (km/s) = 4.66894 5.54550 5.12600
#
# Compressibility (1/GPa) = 0.05795031
#
# Stress axis : x y z
#
# Youngs Moduli (GPa) = 58.34091 33.21655 18.05212
#
# Poissons Ratio (x) = 0.22606 -0.18816
# Poissons Ratio (y) = 0.39704 0.46869
# Poissons Ratio (z) = -0.60810 0.86241
#
# Static dielectric constant tensor:
#      x y z
#    x 1.857980 0.000000 -0.188610 
#    y 0.000000 1.673570 0.000000 
#    z -0.188610 0.000000 2.266320 
# 
# From -- ./inp_files/54629.got.cif
#   From: 2010.05.17/outbox.ucp.g08.bks.cvg/sg11_28_cif.got.tgz:54629.got - 2010.06.11 11:38:39.
