data_PCOD9168634
_publ_section_title
;
Structure prediction by ZEFSAII (Michael W. Deem and Ramdas Pophale) SiO2 
 PCOD9168634
Probable space group: C 2/M
;
_chemical_formula_sum "Si O2"
_cell_formula_units_Z 36
_cell_length_a 23.458091
_cell_length_b 5.570468
_cell_length_c 14.690204
_cell_angle_alpha 90.000000
_cell_angle_beta 54.424089
_cell_angle_gamma 90.000000
_cell_volume 1561.303055
_symmetry_space_group_name_H-M "C 2/M"
_symmetry_group_IT_number 12
_symmetry_cell_setting 'monoclinic'
loop_
_space_group_symop_operation_xyz
x,y,z
-x,y,-z
-x,-y,-z
x,-y,z
1/2+x,1/2+y,z
1/2-x,1/2+y,-z
1/2-x,1/2-y,-z
1/2+x,1/2-y,z
loop_
_atom_site_type_symbol
_atom_site_label
_atom_site_fract_x
_atom_site_fract_y
_atom_site_fract_z
Si Si1 0.763760 0.000000 0.114063
Si Si2 0.811780 0.500000 0.625952
Si Si3 0.992094 0.748017 0.398362
Si Si4 0.158824 0.500000 0.749259
Si Si5 0.606967 0.000000 0.193449
Si Si6 0.825784 0.000000 0.574280
Si Si7 0.324036 0.500000 0.359926
Si Si8 0.848155 0.500000 0.035728
O O1 0.805409 0.750779 0.060658
O O2 0.739940 0.000000 0.240845
O O3 0.690026 0.000000 0.129761
O O4 0.853355 0.250959 0.587976
O O5 0.759113 0.500000 0.589320
O O6 0.957644 0.500000 0.397728
O O7 0.069030 0.718991 0.280777
O O8 0.000000 0.746328 0.500000
O O9 0.961487 0.000000 0.397367
O O10 0.243794 0.500000 0.681050
O O11 0.144370 0.751881 0.710570
O O12 0.129070 0.500000 0.879597
O O13 0.593961 0.000000 0.097809
O O14 0.825200 0.000000 0.466729
#
# Coordination Sequence:
#
# PCOD9168634 Si02
#       8
#     4   4   8   4   4   4   4   4
#     4  12  22  33  40  56  90 121 153 183 198 234
#     4  10  16  28  37  54  76 101 133 183 215 227
#     4   8  16  32  49  67  82  93 133 187 223 257
#     4  10  16  28  37  54  76 101 133 183 215 227
#     4  10  23  30  50  62  80 120 159 166 212 248
#     4  10  16  26  42  55  67  94 143 181 216 253
#     4  10  16  26  42  55  67  94 143 181 216 253
#     4  12  22  33  40  56  90 121 153 183 198 234
#
# _framework density 23.057663999999999
#
# number of rings (size 3 to 8) (size 9 to 14) (size 15 to 20)
#    0.667    1.333    4.444    4.000    3.111    0.000 
#    0.000    0.000    0.000    0.000    0.000    0.000 
#    0.000    0.000    0.000    0.000    0.000   48.889 
#
# Total GULP energy -100436.082570 kJ/mol
# GULP energy per Si atom -5579.782365 kJ/mol
# Density = 2.300518 g / cm^3
# Si number density = 23.057664 Si / 1000 Ang^3
#
#
#
# Elastic Constant Matrix: (Units=GPa)
#
#
# Indices 1 2 3 4 5 6 
#
# 1 36.0298 7.1138 19.3719 0.0027 10.3065 -0.0014
# 2 7.1138 253.2772 53.5963 0.0088 -2.1666 -0.0051
# 3 19.3719 53.5963 156.4911 -0.0007 33.8193 -0.0003
# 4 0.0027 0.0088 -0.0007 -29.2617 -0.0002 17.7037
# 5 10.3065 -2.1666 33.8193 -0.0002 17.3599 0.0006
# 6 -0.0014 -0.0051 -0.0003 17.7037 0.0006 15.8547
#
#
#
# Elastic Compliance Matrix: (Units=1/GPa)
#
#
# Indices 1 2 3 4 5 6 
#
# 1 0.033849 -0.001386 0.001149 0.000003 -0.022506 0.000000
# 2 -0.001386 0.004684 -0.003000 0.000001 0.007251 0.000000
# 3 0.001149 -0.003000 0.012960 0.000000 -0.026303 0.000001
# 4 0.000003 0.000001 0.000000 -0.020396 -0.000002 0.022774
# 5 -0.022506 0.007251 -0.026303 -0.000002 0.123113 -0.000003
# 6 0.000000 0.000000 0.000001 0.022774 -0.000003 0.037643
#
#
# Mechanical properties :
#
#
# Convention : Reuss Voigt Hill
#
# Bulk Modulus (GPa) = 22.21341 67.32915 44.77128
# Shear Modulus (GPa) = 23.43742 25.17165 24.30454
#
# Velocity S-wave (km/s) = 3.19167 3.30765 3.25018
# Velocity P-wave (km/s) = 4.82049 6.62202 5.79173
#
# Compressibility (1/GPa) = 0.04501785
#
# Stress axis : x y z
#
# Youngs Moduli (GPa) = 29.54292 213.49358 77.16182
#
# Poissons Ratio (x) = 0.29596 -0.08862
# Poissons Ratio (y) = 0.04096 0.23146
# Poissons Ratio (z) = -0.03393 0.64042
#
# Static dielectric constant tensor:
#      x y z
#    x 1.890840 0.000000 -0.028660 
#    y 0.000000 1.981660 0.000000 
#    z -0.028660 0.000000 1.893170 
# 
# From -- ./inp_files/242484.got.cif
#   From: 2010.05.17/outbox.cif.g08.bks.cpg/sg12_122_cif.got.tgz:242484.got - 2010.06.03 13:09:07.
