data_PCOD9168198
_publ_section_title
;
Structure prediction by ZEFSAII (Michael W. Deem and Ramdas Pophale) SiO2 
 PCOD9168198
Probable space group: P 21/M
;
_chemical_formula_sum "Si O2"
_cell_formula_units_Z 28
_cell_length_a 12.000000
_cell_length_b 15.000000
_cell_length_c 9.000000
_cell_angle_alpha 90.000000
_cell_angle_beta 60.000000
_cell_angle_gamma 90.000000
_cell_volume 1402.961154
_symmetry_space_group_name_H-M "P 21/M"
_symmetry_group_IT_number 11
_symmetry_cell_setting 'monoclinic'
loop_
_space_group_symop_operation_xyz
x,y,z
-x,1/2+y,-z
-x,-y,-z
x,1/2-y,z
loop_
_atom_site_type_symbol
_atom_site_label
_atom_site_fract_x
_atom_site_fract_y
_atom_site_fract_z
Si Si1 0.832199 0.354510 0.962121
Si Si2 0.970277 0.852730 0.891627
Si Si3 0.447126 0.647589 0.735687
Si Si4 0.598230 0.151278 0.591607
Si Si5 0.984446 0.523931 0.342037
Si Si6 0.304616 0.041312 0.488695
Si Si7 0.312849 0.353517 0.778999
O O1 0.825140 0.250000 0.926816
O O2 0.902154 0.412937 0.792070
O O3 0.687056 0.384117 0.101315
O O4 0.929764 0.360556 0.037769
O O5 0.981185 0.750000 0.828394
O O6 0.820943 0.865244 0.043541
O O7 0.008472 0.932683 0.757667
O O8 0.468801 0.750000 0.768202
O O9 0.422452 0.650135 0.573895
O O10 0.577580 0.591595 0.671646
O O11 0.650831 0.250000 0.594672
O O12 0.454732 0.143217 0.758677
O O13 0.680926 0.062837 0.562011
O O14 0.843496 0.568987 0.429931
O O15 0.000000 0.500000 0.500000
O O16 0.323752 0.069102 0.648445
O O17 0.306104 0.250000 0.722120
#
# Coordination Sequence:
#
# PCOD9168198 Si02
#       7
#     4   4   4   4   4   4   4
#     4  10  21  39  66  92 117 150 196 252 299 346
#     4  10  21  38  63  89 117 152 198 252 296 342
#     4   9  18  32  56  89 114 141 186 243 299 349
#     4   9  18  29  49  87 124 146 182 236 304 355
#     4  12  27  40  56  87 122 165 201 237 293 355
#     4  11  20  33  57  82 117 156 187 239 293 345
#     4   9  17  31  56  91 115 141 188 246 301 346
#
# _framework density 19.957787
#
# number of rings (size 3 to 8) (size 9 to 14) (size 15 to 20)
#    0.000    2.000    1.429    4.286    4.000    2.857 
#    0.000    0.714    0.000    0.000    0.000    0.000 
#    0.000    0.000    0.000    0.000    0.000    0.000 
#
# Total GULP energy -156104.084084 kJ/mol
# GULP energy per Si atom -5575.145860 kJ/mol
# Density = 1.991236 g / cm^3
# Si number density = 19.957787 Si / 1000 Ang^3
#
#
#
# Elastic Constant Matrix: (Units=GPa)
#
#
# Indices 1 2 3 4 5 6 
#
# 1 28.4214 16.7053 51.0485 0.0000 -37.9671 0.0000
# 2 16.7053 82.1502 51.3269 0.0000 -14.9476 0.0000
# 3 51.0485 51.3269 106.8251 0.0000 -41.2139 0.0000
# 4 0.0000 0.0000 0.0000 9.1108 0.0000 -20.2235
# 5 -37.9671 -14.9476 -41.2139 0.0000 43.7964 0.0000
# 6 0.0000 0.0000 0.0000 -20.2235 0.0000 21.7309
#
#
#
# Elastic Compliance Matrix: (Units=1/GPa)
#
#
# Indices 1 2 3 4 5 6 
#
# 1 -0.120161 -0.009848 0.032448 0.000000 -0.076993 0.000000
# 2 -0.009848 0.016847 -0.007008 0.000000 -0.009383 0.000000
# 3 0.032448 -0.007008 0.011229 0.000000 0.036304 0.000000
# 4 0.000000 0.000000 0.000000 -0.102989 0.000000 -0.095845
# 5 -0.076993 -0.009383 0.036304 0.000000 -0.012951 0.000000
# 6 0.000000 0.000000 0.000000 -0.095845 0.000000 -0.043179
#
#
# Mechanical properties :
#
#
# Convention : Reuss Voigt Hill
#
# Bulk Modulus (GPa) = -16.42006 50.61757 17.09875
# Shear Modulus (GPa) = -16.51866 21.48204 2.48169
#
# Velocity S-wave (km/s) = -2.88006 3.28437 1.11632
# Velocity P-wave (km/s) = 4.39374 6.30874 3.20119
#
# Compressibility (1/GPa) = -0.06090112
#
# Stress axis : x y z
#
# Youngs Moduli (GPa) = -8.32220 59.35776 89.05650
#
# Poissons Ratio (x) = 0.58456 -2.88973
# Poissons Ratio (y) = -0.08196 0.62414
# Poissons Ratio (z) = 0.27004 0.41600
#
# Static dielectric constant tensor:
#      x y z
#    x 1.511690 0.000000 0.016710 
#    y 0.000000 1.802090 0.000000 
#    z 0.016710 0.000000 1.696250 
# 
# From -- ./inp_files/17900.got.cif
#   From: 2010.05.17/outbox.ucp.g08.bks.cvg/sg11_9_cif.got.tgz:17900.got - 2010.06.11 11:38:39.
