data_PCOD9168691
_publ_section_title
;
Structure prediction by ZEFSAII (Michael W. Deem and Ramdas Pophale) SiO2 
 PCOD9168691
Probable space group: C 2/M
;
_chemical_formula_sum "Si O2"
_cell_formula_units_Z 56
_cell_length_a 17.886630
_cell_length_b 19.350149
_cell_length_c 15.401435
_cell_angle_alpha 90.000000
_cell_angle_beta 149.381467
_cell_angle_gamma 90.000000
_cell_volume 2714.967214
_symmetry_space_group_name_H-M "C 2/M"
_symmetry_group_IT_number 12
_symmetry_cell_setting 'monoclinic'
loop_
_space_group_symop_operation_xyz
x,y,z
-x,y,-z
-x,-y,-z
x,-y,z
1/2+x,1/2+y,z
1/2-x,1/2+y,-z
1/2-x,1/2-y,-z
1/2+x,1/2-y,z
loop_
_atom_site_type_symbol
_atom_site_label
_atom_site_fract_x
_atom_site_fract_y
_atom_site_fract_z
Si Si1 0.673948 0.918497 0.346270
Si Si2 0.677041 0.080337 0.995568
Si Si3 0.824578 0.845611 0.838267
Si Si4 0.671299 0.500000 0.161493
Si Si5 0.927969 0.500000 0.523176
Si Si6 0.668040 0.415745 0.672940
Si Si7 0.627520 0.147106 0.470535
Si Si8 0.683526 0.196045 0.867112
O O1 0.746756 0.895633 0.329217
O O2 0.712838 0.869995 0.466854
O O3 0.711163 0.000000 0.399811
O O4 0.497620 0.914920 0.161900
O O5 0.757759 0.106243 0.163072
O O6 0.713940 0.000000 0.018674
O O7 0.715072 0.124694 0.949862
O O8 0.732848 0.836834 0.657104
O O9 0.761868 0.799462 0.852564
O O10 0.790620 0.924777 0.836211
O O11 0.000000 0.838346 0.000000
O O12 0.752127 0.500000 0.334861
O O13 0.500000 0.500000 0.000000
O O14 0.955364 0.573157 0.593754
O O15 0.000000 0.500000 0.500000
O O16 0.500000 0.393356 0.500000
O O17 0.671963 0.500000 0.677871
O O18 0.492921 0.199432 0.322545
O O19 0.750000 0.250000 0.000000
#
# Coordination Sequence:
#
# PCOD9168691 Si02
#       8
#     8   8   8   4   4   8   8   8
#     4   9  16  29  51  82 118 150 193 244 291 354
#     4   9  19  35  57  82 108 152 206 252 302 355
#     4  10  21  38  61  90 127 161 197 247 311 379
#     4   8  16  30  52  88 123 151 182 230 303 366
#     4  10  16  26  52  88 115 147 187 234 288 364
#     4   9  17  30  49  78 116 153 191 246 303 345
#     4  10  19  35  59  89 120 156 196 245 307 363
#     4  11  24  40  58  85 123 158 205 255 305 365
#
# _framework density 20.6264
#
# number of rings (size 3 to 8) (size 9 to 14) (size 15 to 20)
#    0.000    2.429    0.714    2.571    2.000    2.857 
#    0.000    5.000    0.000    0.000    0.000    0.000 
#    0.000    0.000    0.000    0.000    0.000    0.000 
#
# Total GULP energy -156108.690053 kJ/mol
# GULP energy per Si atom -5575.310359 kJ/mol
# Density = 2.057945 g / cm^3
# Si number density = 20.626400 Si / 1000 Ang^3
#
#
#
# Elastic Constant Matrix: (Units=GPa)
#
#
# Indices 1 2 3 4 5 6 
#
# 1 100.8800 4.0736 79.0503 0.0000 -27.3491 0.0000
# 2 4.0736 21.5275 39.1923 0.0000 -4.7828 0.0000
# 3 79.0503 39.1923 164.2392 0.0000 -26.4765 0.0000
# 4 0.0000 0.0000 0.0000 26.8462 0.0000 -13.6834
# 5 -27.3491 -4.7828 -26.4765 0.0000 29.9820 0.0000
# 6 0.0000 0.0000 0.0000 -13.6834 0.0000 13.6922
#
#
#
# Elastic Compliance Matrix: (Units=1/GPa)
#
#
# Indices 1 2 3 4 5 6 
#
# 1 0.025971 0.029914 -0.017548 0.000000 0.012966 0.000000
# 2 0.029914 0.117214 -0.040758 0.000000 0.009993 0.000000
# 3 -0.017548 -0.040758 0.024057 0.000000 -0.001265 0.000000
# 4 0.000000 0.000000 0.000000 0.075921 0.000000 0.075872
# 5 0.012966 0.009993 -0.001265 0.000000 0.045657 0.000000
# 6 0.000000 0.000000 0.000000 0.075872 0.000000 0.148857
#
#
# Mechanical properties :
#
#
# Convention : Reuss Voigt Hill
#
# Bulk Modulus (GPa) = 9.05322 59.03103 34.04213
# Shear Modulus (GPa) = 9.41120 25.05944 17.23532
#
# Velocity S-wave (km/s) = 2.13836 3.48935 2.89380
# Velocity P-wave (km/s) = 3.23967 6.70190 5.26360
#
# Compressibility (1/GPa) = 0.11045792
#
# Stress axis : x y z
#
# Youngs Moduli (GPa) = 38.50465 8.53139 41.56777
#
# Poissons Ratio (x) = -0.25521 0.72945
# Poissons Ratio (y) = -1.15183 1.69422
# Poissons Ratio (z) = 0.67569 0.34772
#
# Static dielectric constant tensor:
#      x y z
#    x 1.719710 0.000000 -0.010150 
#    y 0.000000 1.832070 0.000000 
#    z -0.010150 0.000000 1.748590 
# 
# From -- ./inp_files/227676.got.cif
#   From: 2010.05.17/outbox.cif.g08.bks.cpg/sg12_114_cif.got.tgz:227676.got - 2010.06.03 13:09:07.
