data_PCOD9168260
_publ_section_title
;
Structure prediction by ZEFSAII (Michael W. Deem and Ramdas Pophale) SiO2 
 PCOD9168260
Probable space group: P 21/M
;
_chemical_formula_sum "Si O2"
_cell_formula_units_Z 32
_cell_length_a 18.000000
_cell_length_b 9.000000
_cell_length_c 12.000000
_cell_angle_alpha 90.000000
_cell_angle_beta 90.000000
_cell_angle_gamma 90.000000
_cell_volume 1944.000000
_symmetry_space_group_name_H-M "P 21/M"
_symmetry_group_IT_number 11
_symmetry_cell_setting 'monoclinic'
loop_
_space_group_symop_operation_xyz
x,y,z
-x,1/2+y,-z
-x,-y,-z
x,1/2-y,z
loop_
_atom_site_type_symbol
_atom_site_label
_atom_site_fract_x
_atom_site_fract_y
_atom_site_fract_z
Si Si1 0.678764 0.581055 0.293975
Si Si2 0.722413 0.569223 0.650611
Si Si3 0.796443 0.429631 0.863783
Si Si4 0.824821 0.918716 0.451606
Si Si5 0.418505 0.430302 0.502739
Si Si6 0.040574 0.429788 0.108839
Si Si7 0.906135 0.072688 0.263561
Si Si8 0.766372 0.427406 0.114035
O O1 0.661104 0.750000 0.262455
O O2 0.753429 0.584534 0.369261
O O3 0.617066 0.523755 0.378703
O O4 0.698587 0.487839 0.186236
O O5 0.723775 0.750000 0.657638
O O6 0.744310 0.495982 0.767260
O O7 0.788911 0.523449 0.565619
O O8 0.642847 0.529259 0.592969
O O9 0.801163 0.250000 0.854599
O O10 0.879275 0.499476 0.866299
O O11 0.764660 0.470037 0.985618
O O12 0.850019 0.750000 0.469860
O O13 0.886565 0.006910 0.383730
O O14 0.500000 0.500000 0.500000
O O15 0.422641 0.250000 0.501103
O O16 0.045732 0.250000 0.095525
O O17 0.985650 0.463036 0.212027
O O18 0.000000 0.500000 0.000000
O O19 0.900058 0.250000 0.270516
O O20 0.842956 0.021297 0.174404
O O21 0.766976 0.250000 0.119282
#
# Coordination Sequence:
#
# PCOD9168260 Si02
#       8
#     4   4   4   4   4   4   4   4
#     4   8  15  28  47  74 101 127 161 202 244 294
#     4   9  19  36  53  74 104 135 167 206 250 302
#     4  11  22  35  50  73 103 135 174 214 254 305
#     4   8  15  29  49  70  94 125 164 207 251 298
#     4   9  18  33  55  82 110 132 161 203 247 298
#     4  11  21  34  50  71 101 135 172 217 262 304
#     4   9  17  30  47  69  97 125 162 213 260 298
#     4   9  17  30  46  69 100 129 163 211 253 291
#
# _framework density 16.460905
#
# number of rings (size 3 to 8) (size 9 to 14) (size 15 to 20)
#    0.000    2.750    1.250    2.250    0.000    3.500 
#    0.000    3.125    0.000    0.750    0.000    0.000 
#    0.000    0.000    0.000    0.000    0.000    0.000 
#
# Total GULP energy -178150.985590 kJ/mol
# GULP energy per Si atom -5567.218300 kJ/mol
# Density = 1.642344 g / cm^3
# Si number density = 16.460905 Si / 1000 Ang^3
#
#
#
# Elastic Constant Matrix: (Units=GPa)
#
#
# Indices 1 2 3 4 5 6 
#
# 1 99.5750 32.7650 58.8855 0.0000 -12.2929 0.0000
# 2 32.7650 25.1683 35.0288 0.0000 -3.2254 0.0000
# 3 58.8855 35.0288 114.4581 0.0000 -9.4717 0.0000
# 4 0.0000 0.0000 0.0000 28.9172 0.0000 -2.1138
# 5 -12.2929 -3.2254 -9.4717 0.0000 24.9020 0.0000
# 6 0.0000 0.0000 0.0000 -2.1138 0.0000 27.3143
#
#
#
# Elastic Compliance Matrix: (Units=1/GPa)
#
#
# Indices 1 2 3 4 5 6 
#
# 1 0.019175 -0.019440 -0.003449 0.000000 0.005636 0.000000
# 2 -0.019440 0.088943 -0.017614 0.000000 -0.004776 0.000000
# 3 -0.003449 -0.017614 0.016078 0.000000 0.002131 0.000000
# 4 0.000000 0.000000 0.000000 0.034778 0.000000 0.002691
# 5 0.005636 -0.004776 0.002131 0.000000 0.043132 0.000000
# 6 0.000000 0.000000 0.000000 0.002691 0.000000 0.036819
#
#
# Mechanical properties :
#
#
# Convention : Reuss Voigt Hill
#
# Bulk Modulus (GPa) = 23.15358 54.72890 38.94124
# Shear Modulus (GPa) = 14.95542 23.72819 19.34181
#
# Velocity S-wave (km/s) = 3.01747 3.80081 3.43157
# Velocity P-wave (km/s) = 5.12216 7.25131 6.27766
#
# Compressibility (1/GPa) = 0.04318987
#
# Stress axis : x y z
#
# Youngs Moduli (GPa) = 52.15202 11.24321 62.19541
#
# Poissons Ratio (x) = 0.21856 0.21452
# Poissons Ratio (y) = 1.01381 1.09552
# Poissons Ratio (z) = 0.17988 0.19804
#
# Static dielectric constant tensor:
#      x y z
#    x 1.544300 0.000000 -0.023840 
#    y 0.000000 1.562060 0.000000 
#    z -0.023840 0.000000 1.567870 
# 
# From -- ./inp_files/40630.got.cif
#   From: 2010.05.17/outbox.ucp.g08.bks.cvg/sg11_21_cif.got.tgz:40630.got - 2010.06.11 11:38:39.
