data_PCOD9168876
_publ_section_title
;
Structure prediction by ZEFSAII (Michael W. Deem and Ramdas Pophale) SiO2 
 PCOD9168876
Probable space group: C 2/M
;
_chemical_formula_sum "Si O2"
_cell_formula_units_Z 44
_cell_length_a 5.316647
_cell_length_b 15.037909
_cell_length_c 28.305313
_cell_angle_alpha 90.000000
_cell_angle_beta 105.946941
_cell_angle_gamma 90.000000
_cell_volume 2175.955448
_symmetry_space_group_name_H-M "C 2/M"
_symmetry_group_IT_number 12
_symmetry_cell_setting 'monoclinic'
loop_
_space_group_symop_operation_xyz
x,y,z
-x,y,-z
-x,-y,-z
x,-y,z
1/2+x,1/2+y,z
1/2-x,1/2+y,-z
1/2-x,1/2-y,-z
1/2+x,1/2-y,z
loop_
_atom_site_type_symbol
_atom_site_label
_atom_site_fract_x
_atom_site_fract_y
_atom_site_fract_z
Si Si1 0.660741 0.393136 0.235956
Si Si2 0.500000 0.311125 0.500000
Si Si3 0.300527 0.690924 0.393711
Si Si4 0.904325 0.193856 0.133121
Si Si5 0.239064 0.606796 0.289582
Si Si6 0.718786 0.647585 0.978634
O O1 0.670251 0.500000 0.239117
O O2 0.526544 0.366059 0.180251
O O3 0.478875 0.360393 0.269718
O O4 0.958484 0.360178 0.255987
O O5 0.250000 0.250000 0.500000
O O6 0.587900 0.357406 0.553296
O O7 0.521531 0.764758 0.392194
O O8 0.270070 0.632860 0.345537
O O9 0.122576 0.269824 0.135077
O O10 0.863464 0.149785 0.079940
O O11 0.238311 0.500000 0.285980
O O12 0.500000 0.606031 0.000000
O O13 0.750000 0.750000 0.000000
O O14 0.000000 0.605836 0.000000
#
# Coordination Sequence:
#
# PCOD9168876 Si02
#       6
#     8   4   8   8   8   8
#     4  10  23  39  52  71 108 142 168 206 265 314
#     4   8  16  30  47  76 107 136 164 204 268 310
#     4  10  19  32  55  79 106 136 173 218 256 301
#     4  12  21  32  55  83  99 129 171 217 245 297
#     4  10  21  38  54  72 102 144 175 208 260 310
#     4  10  16  30  48  73 102 127 154 199 256 297
#
# _framework density 20.221001999999999
#
# number of rings (size 3 to 8) (size 9 to 14) (size 15 to 20)
#    0.000    1.818    3.636    2.182    0.000    4.364 
#    0.000    0.455    0.000    1.091    0.000   11.455 
#    0.000    0.000    0.000    0.000    0.000    0.000 
#
# Total GULP energy -122751.639821 kJ/mol
# GULP energy per Si atom -5579.619992 kJ/mol
# Density = 2.017498 g / cm^3
# Si number density = 20.221002 Si / 1000 Ang^3
#
#
#
# Elastic Constant Matrix: (Units=GPa)
#
#
# Indices 1 2 3 4 5 6 
#
# 1 101.1592 -1.8058 -1.0928 0.0000 7.6569 0.0000
# 2 -1.8058 21.6727 -2.5434 0.0000 0.3002 0.0000
# 3 -1.0928 -2.5434 116.0212 0.0000 0.2316 0.0000
# 4 0.0000 0.0000 0.0000 -76.2980 0.0000 6.9954
# 5 7.6569 0.3002 0.2316 0.0000 37.0397 0.0000
# 6 0.0000 0.0000 0.0000 6.9954 0.0000 -2.5005
#
#
#
# Elastic Compliance Matrix: (Units=1/GPa)
#
#
# Indices 1 2 3 4 5 6 
#
# 1 0.010060 0.000881 0.000118 0.000000 -0.002088 0.000000
# 2 0.000881 0.046343 0.001025 0.000000 -0.000564 0.000000
# 3 0.000118 0.001025 0.008643 0.000000 -0.000087 0.000000
# 4 0.000000 0.000000 0.000000 -0.017628 0.000000 -0.049317
# 5 -0.002088 -0.000564 -0.000087 0.000000 0.027435 0.000000
# 6 0.000000 0.000000 0.000000 -0.049317 0.000000 -0.537897
#
#
# Mechanical properties :
#
#
# Convention : Reuss Voigt Hill
#
# Bulk Modulus (GPa) = 14.47280 25.32990 19.90135
# Shear Modulus (GPa) = -11.25969 7.93457 -1.66256
#
# Velocity S-wave (km/s) = -2.36229 1.98304 -0.90773
# Velocity P-wave (km/s) = 0.51739 4.21865 2.96051
#
# Compressibility (1/GPa) = 0.06909515
#
# Stress axis : x y z
#
# Youngs Moduli (GPa) = 99.39942 21.57841 115.70216
#
# Poissons Ratio (x) = -0.01901 -0.01368
# Poissons Ratio (y) = -0.08757 -0.11863
# Poissons Ratio (z) = -0.01175 -0.02213
#
# Static dielectric constant tensor:
#      x y z
#    x 1.726750 0.000000 0.005610 
#    y 0.000000 1.696230 0.000000 
#    z 0.005610 0.000000 1.725240 
# 
# From -- ./inp_files/331073.got.cif
#   From: 2010.05.17/outbox.cif.g08.bks.cpg/sg12_166_cif.got.tgz:331073.got - 2010.06.03 13:09:07.
