data_PCOD9168206
_publ_section_title
;
Structure prediction by ZEFSAII (Michael W. Deem and Ramdas Pophale) SiO2 
 PCOD9168206
Probable space group: P 21/M
;
_chemical_formula_sum "Si O2"
_cell_formula_units_Z 32
_cell_length_a 21.000000
_cell_length_b 9.000000
_cell_length_c 27.000000
_cell_angle_alpha 90.000000
_cell_angle_beta 20.000000
_cell_angle_gamma 90.000000
_cell_volume 1745.328791
_symmetry_space_group_name_H-M "P 21/M"
_symmetry_group_IT_number 11
_symmetry_cell_setting 'monoclinic'
loop_
_space_group_symop_operation_xyz
x,y,z
-x,1/2+y,-z
-x,-y,-z
x,1/2-y,z
loop_
_atom_site_type_symbol
_atom_site_label
_atom_site_fract_x
_atom_site_fract_y
_atom_site_fract_z
Si Si1 0.402113 0.571844 0.796016
Si Si2 0.037696 0.073617 0.229981
Si Si3 0.617766 0.919378 0.843327
Si Si4 0.646734 0.573591 0.525633
Si Si5 0.785534 0.418033 0.807666
Si Si6 0.387443 0.571473 0.921040
Si Si7 0.020076 0.429207 0.039555
Si Si8 0.375112 0.573878 0.633317
O O1 0.373266 0.750000 0.810557
O O2 0.567516 0.529741 0.637454
O O3 0.438088 0.542956 0.827387
O O4 0.212694 0.487966 0.920682
O O5 0.042825 0.250000 0.221641
O O6 0.830292 0.011886 0.374043
O O7 0.096412 0.021419 0.242313
O O8 0.193684 0.002983 0.079733
O O9 0.686561 0.750000 0.789424
O O10 0.756330 0.018137 0.774258
O O11 0.421029 0.914016 0.016954
O O12 0.551925 0.976755 0.838065
O O13 0.688764 0.750000 0.495431
O O14 0.479015 0.548778 0.609617
O O15 0.859082 0.250000 0.754110
O O16 0.365764 0.750000 0.943845
O O17 0.018953 0.250000 0.036887
O O18 0.839232 0.475357 0.204183
O O19 0.000000 0.500000 0.000000
O O20 0.500000 0.500000 0.500000
O O21 0.372822 0.750000 0.625720
#
# Coordination Sequence:
#
# PCOD9168206 Si02
#       8
#     4   4   4   4   4   4   4   4
#     4  10  21  39  61  82 107 144 183 222 272 325
#     4  11  22  34  52  80 112 144 181 226 271 317
#     4   8  14  26  46  75 108 137 172 218 266 319
#     4  10  21  40  58  76 107 145 182 221 268 327
#     4   9  16  28  48  74 105 143 180 218 268 320
#     4   9  19  35  56  82 110 143 180 220 272 326
#     4  11  22  39  60  84 110 140 182 226 269 322
#     4  10  23  40  58  82 111 142 179 223 271 321
#
# _framework density 18.334654
#
# number of rings (size 3 to 8) (size 9 to 14) (size 15 to 20)
#    0.000    2.250    1.250    2.625    1.750    5.500 
#    0.000    0.000    0.000    0.750    0.000    0.000 
#    0.000    0.000    0.000    0.000    0.000    0.000 
#
# Total GULP energy -178514.772330 kJ/mol
# GULP energy per Si atom -5578.586635 kJ/mol
# Density = 1.829292 g / cm^3
# Si number density = 18.334654 Si / 1000 Ang^3
#
#
#
# Elastic Constant Matrix: (Units=GPa)
#
#
# Indices 1 2 3 4 5 6 
#
# 1 54.0837 14.5719 -7.5235 0.0000 25.6576 0.0000
# 2 14.5719 36.2631 5.5877 0.0000 9.0582 0.0000
# 3 -7.5235 5.5877 34.6828 0.0000 20.5958 0.0000
# 4 0.0000 0.0000 0.0000 21.5999 0.0000 -3.4386
# 5 25.6576 9.0582 20.5958 0.0000 24.8669 0.0000
# 6 0.0000 0.0000 0.0000 -3.4386 0.0000 27.9729
#
#
#
# Elastic Compliance Matrix: (Units=1/GPa)
#
#
# Indices 1 2 3 4 5 6 
#
# 1 -0.051277 0.003287 -0.083359 0.000000 0.120752 0.000000
# 2 0.003287 0.030319 0.008660 0.000000 -0.021608 0.000000
# 3 -0.083359 0.008660 -0.078415 0.000000 0.147802 0.000000
# 4 0.000000 0.000000 0.000000 0.047221 0.000000 0.005805
# 5 0.120752 -0.021608 0.147802 0.000000 -0.198923 0.000000
# 6 0.000000 0.000000 0.000000 0.005805 0.000000 0.036462
#
#
# Mechanical properties :
#
#
# Convention : Reuss Voigt Hill
#
# Bulk Modulus (GPa) = -4.12885 16.70022 6.28568
# Shear Modulus (GPa) = -32.78252 22.38083 -5.20084
#
# Velocity S-wave (km/s) = -4.23307 3.49762 -1.68605
# Velocity P-wave (km/s) = 5.11358 5.04375 0.59550
#
# Compressibility (1/GPa) = -0.24219823
#
# Stress axis : x y z
#
# Youngs Moduli (GPa) = -19.50189 32.98305 -12.75272
#
# Poissons Ratio (x) = -0.10841 -1.06306
# Poissons Ratio (y) = 0.06410 0.11044
# Poissons Ratio (z) = -1.62566 -0.28563
#
# Static dielectric constant tensor:
#      x y z
#    x 1.666250 0.000000 0.000780 
#    y 0.000000 1.623560 0.000000 
#    z 0.000780 0.000000 1.603960 
# 
# From -- ./inp_files/71999.got.cif
#   From: 2010.05.17/outbox.ucp.g08.bks.cvg/sg11_36_cif.got.tgz:71999.got - 2010.06.11 11:38:39.
