data_PCOD9168970
_publ_section_title
;
Structure prediction by ZEFSAII (Michael W. Deem and Ramdas Pophale) SiO2 
 PCOD9168970
Probable space group: C 2/M
;
_chemical_formula_sum "Si O2"
_cell_formula_units_Z 56
_cell_length_a 18.543176
_cell_length_b 19.221811
_cell_length_c 24.500650
_cell_angle_alpha 90.000000
_cell_angle_beta 19.567939
_cell_angle_gamma 90.000000
_cell_volume 2924.844480
_symmetry_space_group_name_H-M "C 2/M"
_symmetry_group_IT_number 12
_symmetry_cell_setting 'monoclinic'
loop_
_space_group_symop_operation_xyz
x,y,z
-x,y,-z
-x,-y,-z
x,-y,z
1/2+x,1/2+y,z
1/2-x,1/2+y,-z
1/2-x,1/2-y,-z
1/2+x,1/2-y,z
loop_
_atom_site_type_symbol
_atom_site_label
_atom_site_fract_x
_atom_site_fract_y
_atom_site_fract_z
Si Si1 0.813296 0.425868 0.711771
Si Si2 0.235433 0.580139 0.000156
Si Si3 0.278052 0.399860 0.347201
Si Si4 0.449525 0.815022 0.147527
Si Si5 0.306818 0.204470 0.885500
Si Si6 0.267151 0.259029 0.601537
Si Si7 0.716847 0.771554 0.226257
O O1 0.741505 0.500000 0.788340
O O2 0.752359 0.428938 0.691581
O O3 0.734547 0.349559 0.785751
O O4 0.074539 0.422967 0.528322
O O5 0.184357 0.500000 0.048965
O O6 0.224898 0.630299 0.061444
O O7 0.073589 0.613152 0.070669
O O8 0.482850 0.583912 0.803268
O O9 0.251755 0.317653 0.360240
O O10 0.256210 0.808993 0.329345
O O11 0.364430 0.787076 0.150290
O O12 0.632046 0.758343 0.034091
O O13 0.553935 0.225516 0.719085
O O14 0.273096 0.213894 0.845017
O O15 0.480017 0.254626 0.413547
#
# Coordination Sequence:
#
# PCOD9168970 Si02
#       7
#     8   8   8   8   8   8   8
#     4  10  19  29  48  80 115 141 173 220 279 341
#     4  11  21  35  59  83 112 150 191 233 279 334
#     4  10  16  31  52  78 105 138 184 227 267 325
#     4  11  20  37  57  83 111 149 194 232 269 334
#     4  11  21  36  55  84 114 142 186 237 287 331
#     4  10  18  35  57  80 104 144 195 235 267 323
#     4  11  22  33  56  82 116 150 181 230 290 331
#
# _framework density 19.146315999999999
#
# number of rings (size 3 to 8) (size 9 to 14) (size 15 to 20)
#    0.000    1.429    4.286    3.857    0.000    0.571 
#    0.000    0.000    0.000   12.000    0.000    0.000 
#    0.000    0.000    0.000    0.000    0.000    0.000 
#
# Total GULP energy -155933.405972 kJ/mol
# GULP energy per Si atom -5569.050213 kJ/mol
# Density = 1.910274 g / cm^3
# Si number density = 19.146316 Si / 1000 Ang^3
#
#
#
# Elastic Constant Matrix: (Units=GPa)
#
#
# Indices 1 2 3 4 5 6 
#
# 1 89.0564 19.8091 22.9728 -0.0557 -1.7030 0.0595
# 2 19.8091 90.7608 34.0786 0.0586 -11.0945 -0.0654
# 3 22.9728 34.0786 85.2208 -0.0988 -12.2686 -0.0070
# 4 -0.0557 0.0586 -0.0988 -35.0533 0.0107 20.2803
# 5 -1.7030 -11.0945 -12.2686 0.0107 25.3134 -0.0189
# 6 0.0595 -0.0654 -0.0070 20.2803 -0.0189 -9.0682
#
#
#
# Elastic Compliance Matrix: (Units=1/GPa)
#
#
# Indices 1 2 3 4 5 6 
#
# 1 0.012325 -0.001803 -0.002791 -0.000143 -0.001314 -0.000221
# 2 -0.001803 0.013507 -0.004387 0.000091 0.003673 0.000090
# 3 -0.002791 -0.004387 0.014983 0.000166 0.005151 0.000362
# 4 -0.000143 0.000091 0.000166 0.097070 0.000232 0.217088
# 5 -0.001314 0.003673 0.005151 0.000232 0.043523 0.000389
# 6 -0.000221 0.000090 0.000362 0.217088 0.000389 0.375223
#
#
# Mechanical properties :
#
#
# Convention : Reuss Voigt Hill
#
# Bulk Modulus (GPa) = 43.75518 46.52877 45.14197
# Shear Modulus (GPa) = 8.58799 8.78357 8.68578
#
# Velocity S-wave (km/s) = 2.12019 2.14419 2.13222
# Velocity P-wave (km/s) = 5.37552 5.52128 5.44889
#
# Compressibility (1/GPa) = 0.02285444
#
# Stress axis : x y z
#
# Youngs Moduli (GPa) = 81.13815 74.03313 66.74449
#
# Poissons Ratio (x) = 0.13346 0.18627
# Poissons Ratio (y) = 0.14627 0.29278
# Poissons Ratio (z) = 0.22644 0.32476
#
# Static dielectric constant tensor:
#      x y z
#    x 1.715010 -0.000010 0.000900 
#    y -0.000010 1.690530 0.000040 
#    z 0.000900 0.000040 1.738010 
# 
# From -- ./inp_files/344735.got.cif
#   From: 2010.05.17/outbox.cif.g08.bks.cpg/sg12_173_cif.got.tgz:344735.got - 2010.06.03 13:09:07.
