data_PCOD9168602
_publ_section_title
;
Structure prediction by ZEFSAII (Michael W. Deem and Ramdas Pophale) SiO2 
 PCOD9168602
Probable space group: C 2/M
;
_chemical_formula_sum "Si O2"
_cell_formula_units_Z 34
_cell_length_a 13.498406
_cell_length_b 8.352899
_cell_length_c 12.717706
_cell_angle_alpha 90.000000
_cell_angle_beta 112.757047
_cell_angle_gamma 90.000000
_cell_volume 1322.305092
_symmetry_space_group_name_H-M "C 2/M"
_symmetry_group_IT_number 12
_symmetry_cell_setting 'monoclinic'
loop_
_space_group_symop_operation_xyz
x,y,z
-x,y,-z
-x,-y,-z
x,-y,z
1/2+x,1/2+y,z
1/2-x,1/2+y,-z
1/2-x,1/2-y,-z
1/2+x,1/2-y,z
loop_
_atom_site_type_symbol
_atom_site_label
_atom_site_fract_x
_atom_site_fract_y
_atom_site_fract_z
Si Si1 0.500000 0.000000 0.000000
Si Si2 0.374526 0.187805 0.362421
Si Si3 0.539429 0.183595 0.175338
Si Si4 0.388445 0.311919 0.588763
Si Si5 0.313367 0.315907 0.125110
O O1 0.417733 0.852344 0.922240
O O2 0.334565 0.240934 0.461196
O O3 0.484034 0.286261 0.385483
O O4 0.303454 0.217852 0.230422
O O5 0.400853 0.000000 0.378535
O O6 0.616831 0.213606 0.304085
O O7 0.440859 0.300491 0.147007
O O8 0.485349 0.000000 0.152957
O O9 0.365271 0.500000 0.593590
O O10 0.294493 0.500000 0.139372
O O11 0.250000 0.250000 0.000000
#
# Coordination Sequence:
#
# PCOD9168602 Si02
#       5
#     2   8   8   8   8
#     4   8  20  32  54  66 100 128 174 204 248 276
#     4  10  17  26  41  66  96 130 156 189 243 301
#     4   9  17  32  48  70  94 130 165 202 243 283
#     4  10  16  25  42  66  97 126 155 198 245 292
#     4  11  20  31  47  72 105 133 160 196 243 302
#
# _framework density 25.712674
#
# number of rings (size 3 to 8) (size 9 to 14) (size 15 to 20)
#    0.706    1.412    0.000   11.294    0.000    0.000 
#    0.000    2.353    0.000    0.000    0.000    1.647 
#    0.000    0.000    0.000    0.000    0.000    0.000 
#
# Total GULP energy -94644.505094 kJ/mol
# GULP energy per Si atom -5567.323829 kJ/mol
# Density = 2.565415 g / cm^3
# Si number density = 25.712674 Si / 1000 Ang^3
#
#
#
# Elastic Constant Matrix: (Units=GPa)
#
#
# Indices 1 2 3 4 5 6 
#
# 1 68.0543 -4.0725 27.0700 0.0000 -10.9640 0.0000
# 2 -4.0725 129.9929 30.0688 0.0000 -8.8202 0.0000
# 3 27.0700 30.0688 243.1372 0.0000 -4.8027 0.0000
# 4 0.0000 0.0000 0.0000 49.8595 0.0000 -12.3599
# 5 -10.9640 -8.8202 -4.8027 0.0000 53.4974 0.0000
# 6 0.0000 0.0000 0.0000 -12.3599 0.0000 16.2148
#
#
#
# Elastic Compliance Matrix: (Units=1/GPa)
#
#
# Indices 1 2 3 4 5 6 
#
# 1 0.016038 0.001158 -0.001863 0.000000 0.003311 0.000000
# 2 0.001158 0.008083 -0.001100 0.000000 0.001471 0.000000
# 3 -0.001863 -0.001100 0.004453 0.000000 -0.000163 0.000000
# 4 0.000000 0.000000 0.000000 0.024729 0.000000 0.018850
# 5 0.003311 0.001471 -0.000163 0.000000 0.019599 0.000000
# 6 0.000000 0.000000 0.000000 0.018850 0.000000 0.076041
#
#
# Mechanical properties :
#
#
# Convention : Reuss Voigt Hill
#
# Bulk Modulus (GPa) = 40.05671 60.81301 50.43486
# Shear Modulus (GPa) = 31.08018 49.78889 40.43453
#
# Velocity S-wave (km/s) = 3.48048 4.40518 3.96984
# Velocity P-wave (km/s) = 5.63596 7.04106 6.37732
#
# Compressibility (1/GPa) = 0.02496461
#
# Stress axis : x y z
#
# Youngs Moduli (GPa) = 62.35177 123.71379 224.56148
#
# Poissons Ratio (x) = -0.14327 0.41846
# Poissons Ratio (y) = -0.07221 0.24691
# Poissons Ratio (z) = 0.11619 0.13603
#
# Static dielectric constant tensor:
#      x y z
#    x 1.567330 0.000000 0.795550 
#    y 0.000000 1.883630 0.000000 
#    z 0.795550 0.000000 1.435130 
# 
# From -- ./inp_files/236404.got.cif
#   From: 2010.05.17/outbox.cif.g08.bks.cpg/sg12_119_cif.got.tgz:236404.got - 2010.06.03 13:09:07.
