data_PCOD9168412
_publ_section_title
;
Structure prediction by ZEFSAII (Michael W. Deem and Ramdas Pophale) SiO2 
 PCOD9168412
Probable space group: C 2/M
;
_chemical_formula_sum "Si O2"
_cell_formula_units_Z 48
_cell_length_a 12.915391
_cell_length_b 21.481660
_cell_length_c 10.280462
_cell_angle_alpha 90.000000
_cell_angle_beta 44.102496
_cell_angle_gamma 90.000000
_cell_volume 1985.008515
_symmetry_space_group_name_H-M "C 2/M"
_symmetry_group_IT_number 12
_symmetry_cell_setting 'monoclinic'
loop_
_space_group_symop_operation_xyz
x,y,z
-x,y,-z
-x,-y,-z
x,-y,z
1/2+x,1/2+y,z
1/2-x,1/2+y,-z
1/2-x,1/2-y,-z
1/2+x,1/2-y,z
loop_
_atom_site_type_symbol
_atom_site_label
_atom_site_fract_x
_atom_site_fract_y
_atom_site_fract_z
Si Si1 0.873775 0.069829 0.912351
Si Si2 0.763917 0.343378 0.753548
Si Si3 0.131251 0.267690 0.996021
Si Si4 0.070833 0.709731 0.603723
Si Si5 0.173298 0.401674 0.849236
Si Si6 0.602286 0.642461 0.536185
O O1 0.759351 0.067503 0.892999
O O2 0.006052 0.115189 0.743349
O O3 0.928157 0.000000 0.888040
O O4 0.791530 0.097553 0.114645
O O5 0.804100 0.337108 0.564419
O O6 0.917944 0.317281 0.678400
O O7 0.645277 0.290691 0.891372
O O8 0.977614 0.285938 0.203600
O O9 0.250000 0.250000 0.000000
O O10 0.184218 0.329576 0.880528
O O11 0.112726 0.781559 0.533370
O O12 0.256873 0.400186 0.634852
O O13 0.000000 0.420181 0.000000
O O14 0.500000 0.632811 0.500000
#
# Coordination Sequence:
#
# PCOD9168412 Si02
#       6
#     8   8   8   8   8   8
#     4  11  22  36  55  81 113 155 203 232 266 339
#     4  10  16  28  56  84 105 141 187 235 288 321
#     4  10  15  30  56  80 108 146 183 231 290 342
#     4  10  15  26  55  85 102 141 174 235 299 326
#     4  11  22  35  54  87 120 146 180 238 308 343
#     4  10  17  31  56  82 106 139 190 232 279 333
#
# _framework density 24.181256000000001
#
# number of rings (size 3 to 8) (size 9 to 14) (size 15 to 20)
#    0.000    1.667    8.333    2.000    0.000    3.333 
#    0.000    2.500    0.000    0.000    0.000    0.000 
#    0.000    2.000    0.000    0.000    0.000    0.000 
#
# Total GULP energy -133906.891339 kJ/mol
# GULP energy per Si atom -5579.453806 kJ/mol
# Density = 2.412622 g / cm^3
# Si number density = 24.181256 Si / 1000 Ang^3
#
#
#
# Elastic Constant Matrix: (Units=GPa)
#
#
# Indices 1 2 3 4 5 6 
#
# 1 66.0317 9.0856 14.8372 0.0000 -19.1359 0.0000
# 2 9.0856 110.2221 44.9812 0.0000 5.7910 0.0000
# 3 14.8372 44.9812 194.8865 0.0000 -0.1728 0.0000
# 4 0.0000 0.0000 0.0000 -3.6791 0.0000 -7.7917
# 5 -19.1359 5.7910 -0.1728 0.0000 40.4092 0.0000
# 6 0.0000 0.0000 0.0000 -7.7917 0.0000 5.8776
#
#
#
# Elastic Compliance Matrix: (Units=1/GPa)
#
#
# Indices 1 2 3 4 5 6 
#
# 1 0.018137 -0.001543 -0.001017 0.000000 0.008806 0.000000
# 2 -0.001543 0.010232 -0.002246 0.000000 -0.002207 0.000000
# 3 -0.001017 -0.002246 0.005727 0.000000 -0.000135 0.000000
# 4 0.000000 0.000000 0.000000 -0.071386 0.000000 -0.094634
# 5 0.008806 -0.002207 -0.000135 0.000000 0.029232 0.000000
# 6 0.000000 0.000000 0.000000 -0.094634 0.000000 0.044684
#
#
# Mechanical properties :
#
#
# Convention : Reuss Voigt Hill
#
# Bulk Modulus (GPa) = 40.84213 56.54982 48.69598
# Shear Modulus (GPa) = 91.91234 28.67062 60.29148
#
# Velocity S-wave (km/s) = 6.17189 3.44707 4.99873
# Velocity P-wave (km/s) = 8.22899 6.26735 7.31423
#
# Compressibility (1/GPa) = 0.02448452
#
# Stress axis : x y z
#
# Youngs Moduli (GPa) = 55.13640 97.72923 174.61342
#
# Poissons Ratio (x) = 0.15076 0.17757
# Poissons Ratio (y) = 0.08506 0.39222
# Poissons Ratio (z) = 0.05607 0.21952
#
# Static dielectric constant tensor:
#      x y z
#    x -2.102970 0.000000 -0.220460 
#    y 0.000000 1.752460 0.000000 
#    z -0.220460 0.000000 2.004300 
# 
# From -- ./inp_files/147915.got.cif
#   From: 2010.05.17/outbox.cif.g08.bks.cpg/sg12_74_cif.got.tgz:147915.got - 2010.06.03 13:09:07.
