data_PCOD9168856
_publ_section_title
;
Structure prediction by ZEFSAII (Michael W. Deem and Ramdas Pophale) SiO2 
 PCOD9168856
Probable space group: C 2/M
;
_chemical_formula_sum "Si O2"
_cell_formula_units_Z 32
_cell_length_a 21.907286
_cell_length_b 5.456934
_cell_length_c 14.140492
_cell_angle_alpha 90.000000
_cell_angle_beta 117.821385
_cell_angle_gamma 90.000000
_cell_volume 1495.043718
_symmetry_space_group_name_H-M "C 2/M"
_symmetry_group_IT_number 12
_symmetry_cell_setting 'monoclinic'
loop_
_space_group_symop_operation_xyz
x,y,z
-x,y,-z
-x,-y,-z
x,-y,z
1/2+x,1/2+y,z
1/2-x,1/2+y,-z
1/2-x,1/2-y,-z
1/2+x,1/2-y,z
loop_
_atom_site_type_symbol
_atom_site_label
_atom_site_fract_x
_atom_site_fract_y
_atom_site_fract_z
Si Si1 0.059056 0.000000 0.290176
Si Si2 0.028803 0.500000 0.784347
Si Si3 0.424113 0.000000 0.396751
Si Si4 0.918775 0.000000 0.472322
Si Si5 0.134959 0.000000 0.155557
Si Si6 0.718496 0.500000 0.898849
Si Si7 0.269284 0.000000 0.143873
Si Si8 0.619352 0.000000 0.038360
O O1 0.084018 0.000000 0.416605
O O2 0.015123 0.248355 0.243097
O O3 0.117734 0.000000 0.253013
O O4 0.061199 0.500000 0.703304
O O5 0.079583 0.500000 0.910708
O O6 0.500000 0.000000 0.500000
O O7 0.389085 0.751138 0.408321
O O8 0.000000 0.000000 0.500000
O O9 0.216993 0.000000 0.192649
O O10 0.105594 0.750705 0.086233
O O11 0.689145 0.750608 0.838490
O O12 0.719986 0.500000 0.013405
O O13 0.798538 0.500000 0.924133
#
# Coordination Sequence:
#
# PCOD9168856 Si02
#       8
#     4   4   4   4   4   4   4   4
#     4  12  21  30  46  62  84 121 148 172 211 251
#     4  12  21  30  46  62  84 121 148 172 211 251
#     4  10  16  30  46  61  76 101 140 192 219 236
#     4  10  16  30  46  61  76 101 140 192 219 236
#     4  10  21  33  42  62  92 117 146 175 198 251
#     4   8  14  27  46  61  77 106 140 176 213 237
#     4   8  14  27  46  61  77 106 140 176 213 237
#     4  10  21  33  42  62  92 117 146 175 198 251
#
# _framework density 21.404057000000002
#
# number of rings (size 3 to 8) (size 9 to 14) (size 15 to 20)
#    0.000    2.000    5.000    1.500    0.000    3.000 
#    0.000    0.000    0.000    0.000    0.000    0.000 
#    0.000    2.000    0.000    0.000    0.000    4.500 
#
# Total GULP energy -89372.521846 kJ/mol
# GULP energy per Si atom -5585.782615 kJ/mol
# Density = 2.135534 g / cm^3
# Si number density = 21.404057 Si / 1000 Ang^3
#
#
#
# Elastic Constant Matrix: (Units=GPa)
#
#
# Indices 1 2 3 4 5 6 
#
# 1 39.8251 21.3347 42.3626 0.0000 -17.9698 0.0000
# 2 21.3347 220.0921 26.4514 0.0000 -16.7572 0.0000
# 3 42.3626 26.4514 130.3198 0.0000 -35.4583 0.0000
# 4 0.0000 0.0000 0.0000 13.0350 0.0000 -3.0040
# 5 -17.9698 -16.7572 -35.4583 0.0000 39.1253 0.0000
# 6 0.0000 0.0000 0.0000 -3.0040 0.0000 6.2729
#
#
#
# Elastic Compliance Matrix: (Units=1/GPa)
#
#
# Indices 1 2 3 4 5 6 
#
# 1 0.041476 -0.002087 -0.010776 0.000000 0.008389 0.000000
# 2 -0.002087 0.004830 0.000000 0.000000 0.001110 0.000000
# 3 -0.010776 0.000000 0.013047 0.000000 0.006875 0.000000
# 4 0.000000 0.000000 0.000000 0.086233 0.000000 0.041295
# 5 0.008389 0.001110 0.006875 0.000000 0.036118 0.000000
# 6 0.000000 0.000000 0.000000 0.041295 0.000000 0.179192
#
#
# Mechanical properties :
#
#
# Convention : Reuss Voigt Hill
#
# Bulk Modulus (GPa) = 29.73755 63.39270 46.56512
# Shear Modulus (GPa) = 12.56813 31.69251 22.13032
#
# Velocity S-wave (km/s) = 2.42582 3.85213 3.21897
# Velocity P-wave (km/s) = 4.66580 7.03325 5.96810
#
# Compressibility (1/GPa) = 0.03362752
#
# Stress axis : x y z
#
# Youngs Moduli (GPa) = 24.11041 207.02358 76.64629
#
# Poissons Ratio (x) = 0.43198 0.82596
# Poissons Ratio (y) = 0.05031 0.00000
# Poissons Ratio (z) = 0.25982 0.00000
#
# Static dielectric constant tensor:
#      x y z
#    x 1.749420 0.000000 0.002080 
#    y 0.000000 1.934210 0.000000 
#    z 0.002080 0.000000 1.737920 
# 
# From -- ./inp_files/171028.got.cif
#   From: 2010.05.17/outbox.cif.g08.bks.cpg/sg12_86_cif.got.tgz:171028.got - 2010.06.03 13:09:07.
