data_PCOD9168457
_publ_section_title
;
Structure prediction by ZEFSAII (Michael W. Deem and Ramdas Pophale) SiO2 
 PCOD9168457
Probable space group: C 2/M
;
_chemical_formula_sum "Si O2"
_cell_formula_units_Z 52
_cell_length_a 12.278333
_cell_length_b 23.082184
_cell_length_c 11.036331
_cell_angle_alpha 90.000000
_cell_angle_beta 47.078060
_cell_angle_gamma 90.000000
_cell_volume 2290.443005
_symmetry_space_group_name_H-M "C 2/M"
_symmetry_group_IT_number 12
_symmetry_cell_setting 'monoclinic'
loop_
_space_group_symop_operation_xyz
x,y,z
-x,y,-z
-x,-y,-z
x,-y,z
1/2+x,1/2+y,z
1/2-x,1/2+y,-z
1/2-x,1/2-y,-z
1/2+x,1/2-y,z
loop_
_atom_site_type_symbol
_atom_site_label
_atom_site_fract_x
_atom_site_fract_y
_atom_site_fract_z
Si Si1 0.942206 0.191584 0.316936
Si Si2 0.342341 0.500000 0.863555
Si Si3 0.565104 0.127513 0.248712
Si Si4 0.351954 0.371044 0.174854
Si Si5 0.101273 0.500000 0.273361
Si Si6 0.754076 0.871613 0.860871
Si Si7 0.323833 0.805128 0.318280
Si Si8 0.350755 0.500000 0.226179
O O1 0.870217 0.137128 0.302980
O O2 0.844453 0.204683 0.508994
O O3 0.908388 0.243704 0.248160
O O4 0.109122 0.172366 0.216044
O O5 0.310579 0.438987 0.817249
O O6 0.514821 0.500000 0.779358
O O7 0.226491 0.500000 0.065504
O O8 0.695357 0.148830 0.240038
O O9 0.526189 0.061500 0.308003
O O10 0.418253 0.164762 0.353133
O O11 0.641892 0.131430 0.058433
O O12 0.362013 0.439607 0.146491
O O13 0.500000 0.346181 0.000000
O O14 0.169708 0.500000 0.359230
O O15 0.681708 0.846885 0.793234
#
# Coordination Sequence:
#
# PCOD9168457 Si02
#       8
#     8   4   8   8   4   8   8   4
#     4  11  25  44  62  84 122 169 211 257 303 366
#     4  10  17  33  65  98 124 154 201 260 313 364
#     4  10  21  39  65  96 123 159 201 256 310 367
#     4  11  19  36  65  94 120 153 207 259 303 355
#     4   8  17  31  60  92 130 157 191 247 315 375
#     4  11  22  43  67  95 124 163 211 254 310 375
#     4  11  27  43  59  86 129 169 204 253 316 374
#     4  10  15  30  58  95 125 152 198 258 307 358
#
# _framework density 22.703032
#
# number of rings (size 3 to 8) (size 9 to 14) (size 15 to 20)
#    0.000    1.538    3.077    3.231    2.154    3.077 
#    0.000    6.154    0.000    2.769    0.000    0.000 
#    0.000    0.000    0.000    0.000    0.000    0.000 
#
# Total GULP energy -144826.605766 kJ/mol
# GULP energy per Si atom -5570.254068 kJ/mol
# Density = 2.265136 g / cm^3
# Si number density = 22.703032 Si / 1000 Ang^3
#
#
#
# Elastic Constant Matrix: (Units=GPa)
#
#
# Indices 1 2 3 4 5 6 
#
# 1 99.8881 9.2266 9.2159 0.0000 -10.4944 0.0000
# 2 9.2266 68.8078 20.7873 0.0000 -9.1636 0.0000
# 3 9.2159 20.7873 55.6894 0.0000 -12.7315 0.0000
# 4 0.0000 0.0000 0.0000 4.0720 0.0000 15.9008
# 5 -10.4944 -9.1636 -12.7315 0.0000 29.0527 0.0000
# 6 0.0000 0.0000 0.0000 15.9008 0.0000 -8.9191
#
#
#
# Elastic Compliance Matrix: (Units=1/GPa)
#
#
# Indices 1 2 3 4 5 6 
#
# 1 0.010487 -0.000760 -0.000712 0.000000 0.003236 0.000000
# 2 -0.000760 0.016638 -0.005499 0.000000 0.002564 0.000000
# 3 -0.000712 -0.005499 0.021862 0.000000 0.007589 0.000000
# 4 0.000000 0.000000 0.000000 0.030846 0.000000 0.054991
# 5 0.003236 0.002564 0.007589 0.000000 0.039723 0.000000
# 6 0.000000 0.000000 0.000000 0.054991 0.000000 -0.014082
#
#
# Mechanical properties :
#
#
# Convention : Reuss Voigt Hill
#
# Bulk Modulus (GPa) = 28.53415 33.64944 31.09179
# Shear Modulus (GPa) = 38.13982 17.18481 27.66232
#
# Velocity S-wave (km/s) = 4.10316 2.75424 3.49440
# Velocity P-wave (km/s) = 5.91976 4.99682 5.47776
#
# Compressibility (1/GPa) = 0.03504573
#
# Stress axis : x y z
#
# Youngs Moduli (GPa) = 95.35509 60.10436 45.74159
#
# Poissons Ratio (x) = 0.04569 0.03256
# Poissons Ratio (y) = 0.07249 0.25151
# Poissons Ratio (z) = 0.06788 0.33049
#
# Static dielectric constant tensor:
#      x y z
#    x 1.862590 0.000000 -0.047730 
#    y 0.000000 1.914370 0.000000 
#    z -0.047730 0.000000 1.977990 
# 
# From -- ./inp_files/135877.got.cif
#   From: 2010.05.17/outbox.cif.g08.bks.cpg/sg12_68_cif.got.tgz:135877.got - 2010.06.03 13:09:07.
