data_PCOD9168804
_publ_section_title
;
Structure prediction by ZEFSAII (Michael W. Deem and Ramdas Pophale) SiO2 
 PCOD9168804
Probable space group: C 2/M
;
_chemical_formula_sum "Si O2"
_cell_formula_units_Z 40
_cell_length_a 14.674792
_cell_length_b 11.651668
_cell_length_c 19.987418
_cell_angle_alpha 90.000000
_cell_angle_beta 32.232437
_cell_angle_gamma 90.000000
_cell_volume 1822.776092
_symmetry_space_group_name_H-M "C 2/M"
_symmetry_group_IT_number 12
_symmetry_cell_setting 'monoclinic'
loop_
_space_group_symop_operation_xyz
x,y,z
-x,y,-z
-x,-y,-z
x,-y,z
1/2+x,1/2+y,z
1/2-x,1/2+y,-z
1/2-x,1/2-y,-z
1/2+x,1/2-y,z
loop_
_atom_site_type_symbol
_atom_site_label
_atom_site_fract_x
_atom_site_fract_y
_atom_site_fract_z
Si Si1 0.688887 0.813307 0.705352
Si Si2 0.453860 0.000000 0.641863
Si Si3 0.198807 0.500000 0.599003
Si Si4 0.000000 0.673945 0.500000
Si Si5 0.591067 0.748504 0.016949
Si Si6 0.683553 0.000000 0.925552
Si Si7 0.179537 0.000000 0.928569
Si Si8 0.607882 0.500000 0.334629
O O1 0.622201 0.893662 0.687837
O O2 0.547053 0.752307 0.837633
O O3 0.832571 0.738749 0.580749
O O4 0.799223 0.892188 0.688112
O O5 0.639214 0.000000 0.560396
O O6 0.433833 0.894660 0.604814
O O7 0.322792 0.000000 0.783064
O O8 0.405633 0.500000 0.474238
O O9 0.500000 0.748798 0.000000
O O10 0.685254 0.624550 0.961849
O O11 0.683410 0.874755 0.962025
O O12 0.836596 0.000000 0.776863
O O13 0.500000 0.000000 0.000000
O O14 0.000000 0.000000 0.000000
#
# Coordination Sequence:
#
# PCOD9168804 Si02
#       8
#     8   4   4   4   8   4   4   4
#     4  11  19  36  65  95 124 164 225 263 320 390
#     4  11  27  43  60  92 132 170 214 272 335 390
#     4  11  24  40  60  97 138 160 203 289 341 366
#     4  11  22  41  66  86 118 175 228 257 314 415
#     4  10  18  32  59  95 123 159 219 273 309 374
#     4  10  16  28  56  92 125 156 219 275 305 367
#     4  10  21  38  62  88 123 175 220 256 323 402
#     4  11  18  35  61  96 126 165 213 265 326 385
#
# _framework density 21.94455
#
# number of rings (size 3 to 8) (size 9 to 14) (size 15 to 20)
#    0.000    1.400    6.000    3.600    0.000    1.600 
#    0.000    1.000    0.000    7.200    0.000    0.000 
#    0.000    0.000    0.000    0.000    0.000    0.000 
#
# Total GULP energy -111539.236597 kJ/mol
# GULP energy per Si atom -5576.961830 kJ/mol
# Density = 2.189460 g / cm^3
# Si number density = 21.944550 Si / 1000 Ang^3
#
#
#
# Elastic Constant Matrix: (Units=GPa)
#
#
# Indices 1 2 3 4 5 6 
#
# 1 50.8496 2.5620 -10.1615 -0.0004 0.5243 0.0001
# 2 2.5620 156.3412 51.2186 -0.0011 -0.3450 0.0003
# 3 -10.1615 51.2186 139.7762 -0.0025 -1.5920 0.0008
# 4 -0.0004 -0.0011 -0.0025 29.8213 0.0011 27.0800
# 5 0.5243 -0.3450 -1.5920 0.0011 12.7316 -0.0003
# 6 0.0001 0.0003 0.0008 27.0800 -0.0003 -12.1994
#
#
#
# Elastic Compliance Matrix: (Units=1/GPa)
#
#
# Indices 1 2 3 4 5 6 
#
# 1 0.020076 -0.000916 0.001788 0.000000 -0.000628 0.000000
# 2 -0.000916 0.007311 -0.002747 0.000000 -0.000108 0.000000
# 3 0.001788 -0.002747 0.008301 0.000000 0.000890 0.000001
# 4 0.000000 0.000000 0.000000 0.011119 0.000000 0.024683
# 5 -0.000628 -0.000108 0.000890 0.000000 0.078679 -0.000003
# 6 0.000000 0.000000 0.000001 0.024683 -0.000003 -0.027181
#
#
# Mechanical properties :
#
#
# Convention : Reuss Voigt Hill
#
# Bulk Modulus (GPa) = 31.31086 48.24501 39.77793
# Shear Modulus (GPa) = 44.36538 26.29388 35.32963
#
# Velocity S-wave (km/s) = 4.50121 3.46525 4.01677
# Velocity P-wave (km/s) = 6.42757 6.16793 6.29909
#
# Compressibility (1/GPa) = 0.03193780
#
# Stress axis : x y z
#
# Youngs Moduli (GPa) = 49.81130 136.78185 120.46845
#
# Poissons Ratio (x) = 0.12531 -0.21540
# Poissons Ratio (y) = 0.04563 0.33090
# Poissons Ratio (z) = -0.08906 0.37571
#
# Static dielectric constant tensor:
#      x y z
#    x 0.610830 0.000000 0.996550 
#    y 0.000000 1.971270 0.000000 
#    z 0.996550 0.000000 0.873960 
# 
# From -- ./inp_files/315590.got.cif
#   From: 2010.05.17/outbox.cif.g08.bks.cpg/sg12_158_cif.got.tgz:315590.got - 2010.06.03 13:09:07.
