data_PCOD9168732
_publ_section_title
;
Structure prediction by ZEFSAII (Michael W. Deem and Ramdas Pophale) SiO2 
 PCOD9168732
Probable space group: C 2/M
;
_chemical_formula_sum "Si O2"
_cell_formula_units_Z 56
_cell_length_a 13.376062
_cell_length_b 24.677643
_cell_length_c 14.353949
_cell_angle_alpha 90.000000
_cell_angle_beta 147.948453
_cell_angle_gamma 90.000000
_cell_volume 2514.419369
_symmetry_space_group_name_H-M "C 2/M"
_symmetry_group_IT_number 12
_symmetry_cell_setting 'monoclinic'
loop_
_space_group_symop_operation_xyz
x,y,z
-x,y,-z
-x,-y,-z
x,-y,z
1/2+x,1/2+y,z
1/2-x,1/2+y,-z
1/2-x,1/2-y,-z
1/2+x,1/2-y,z
loop_
_atom_site_type_symbol
_atom_site_label
_atom_site_fract_x
_atom_site_fract_y
_atom_site_fract_z
Si Si1 0.795013 0.436272 0.303794
Si Si2 0.140848 0.882674 0.343052
Si Si3 0.908275 0.327291 0.150965
Si Si4 0.470945 0.322544 0.369307
Si Si5 0.870856 0.753298 0.976880
Si Si6 0.487321 0.936449 0.268487
Si Si7 0.881115 0.714265 0.501624
O O1 0.797684 0.500000 0.324892
O O2 0.625994 0.413296 0.232374
O O3 0.821005 0.429780 0.214385
O O4 0.000000 0.413563 0.500000
O O5 0.311224 0.917227 0.528169
O O6 0.201795 0.823323 0.354230
O O7 0.995580 0.869217 0.311405
O O8 0.707997 0.299579 0.016800
O O9 0.933198 0.390498 0.151130
O O10 0.006316 0.314694 0.326448
O O11 0.981857 0.290640 0.125618
O O12 0.500000 0.340748 0.500000
O O13 0.290453 0.284636 0.200626
O O14 0.635708 0.277378 0.487863
O O15 0.000000 0.777886 0.000000
O O16 0.497398 0.000000 0.251518
O O17 0.000000 0.712244 0.500000
#
# Coordination Sequence:
#
# PCOD9168732 Si02
#       7
#     8   8   8   8   8   8   8
#     4   8  14  26  46  77 110 139 174 217 278 341
#     4  10  16  27  50  79 111 144 179 233 280 336
#     4   9  19  37  56  86 111 153 202 227 286 356
#     4  10  22  34  49  82 111 146 193 240 288 333
#     4  10  22  40  59  80 118 160 192 239 293 348
#     4   9  17  31  57  88 115 147 186 231 289 353
#     4   9  17  31  49  80 114 145 181 230 290 345
#
# _framework density 22.271543999999999
#
# number of rings (size 3 to 8) (size 9 to 14) (size 15 to 20)
#    0.000    2.714    0.000    3.857    4.000    0.000 
#   23.143    0.000    0.000    4.286    0.000    0.000 
#    0.000    0.000    0.000    0.000    0.000    0.000 
#
# Total GULP energy -155889.555160 kJ/mol
# GULP energy per Si atom -5567.484113 kJ/mol
# Density = 2.222085 g / cm^3
# Si number density = 22.271544 Si / 1000 Ang^3
#
#
#
# Elastic Constant Matrix: (Units=GPa)
#
#
# Indices 1 2 3 4 5 6 
#
# 1 59.8458 -0.7225 -2.2765 0.0000 3.6030 0.0000
# 2 -0.7225 93.3551 3.4063 0.0000 3.4818 0.0000
# 3 -2.2765 3.4063 69.4040 0.0000 -0.7343 0.0000
# 4 0.0000 0.0000 0.0000 13.5651 0.0000 -8.4273
# 5 3.6030 3.4818 -0.7343 0.0000 18.8485 0.0000
# 6 0.0000 0.0000 0.0000 -8.4273 0.0000 30.5489
#
#
#
# Elastic Compliance Matrix: (Units=1/GPa)
#
#
# Indices 1 2 3 4 5 6 
#
# 1 0.016928 0.000234 0.000509 0.000000 -0.003259 0.000000
# 2 0.000234 0.010810 -0.000545 0.000000 -0.002063 0.000000
# 3 0.000509 -0.000545 0.014458 0.000000 0.000567 0.000000
# 4 0.000000 0.000000 0.000000 0.088966 0.000000 0.024542
# 5 -0.003259 -0.002063 0.000567 0.000000 0.054081 0.000000
# 6 0.000000 0.000000 0.000000 0.024542 0.000000 0.039505
#
#
# Mechanical properties :
#
#
# Convention : Reuss Voigt Hill
#
# Bulk Modulus (GPa) = 23.47781 24.82437 24.15109
# Shear Modulus (GPa) = 20.96014 27.40567 24.18291
#
# Velocity S-wave (km/s) = 3.07109 3.51169 3.29875
# Velocity P-wave (km/s) = 4.81040 5.25481 5.03751
#
# Compressibility (1/GPa) = 0.04259340
#
# Stress axis : x y z
#
# Youngs Moduli (GPa) = 59.07367 92.50339 69.16668
#
# Poissons Ratio (x) = -0.02165 -0.03523
# Poissons Ratio (y) = -0.01382 0.03768
# Poissons Ratio (z) = -0.03009 0.05039
#
# Static dielectric constant tensor:
#      x y z
#    x 1.878960 0.000000 0.033580 
#    y 0.000000 1.837090 0.000000 
#    z 0.033580 0.000000 2.030090 
# 
# From -- ./inp_files/209175.got.cif
#   From: 2010.05.17/outbox.cif.g08.bks.cpg/sg12_105_cif.got.tgz:209175.got - 2010.06.03 13:09:07.
