data_PCOD9168272
_publ_section_title
;
Structure prediction by ZEFSAII (Michael W. Deem and Ramdas Pophale) SiO2 
 PCOD9168272
Probable space group: P 21/M
;
_chemical_formula_sum "Si O2"
_cell_formula_units_Z 28
_cell_length_a 30.000000
_cell_length_b 9.000000
_cell_length_c 30.000000
_cell_angle_alpha 90.000000
_cell_angle_beta 10.000000
_cell_angle_gamma 90.000000
_cell_volume 1406.550239
_symmetry_space_group_name_H-M "P 21/M"
_symmetry_group_IT_number 11
_symmetry_cell_setting 'monoclinic'
loop_
_space_group_symop_operation_xyz
x,y,z
-x,1/2+y,-z
-x,-y,-z
x,1/2-y,z
loop_
_atom_site_type_symbol
_atom_site_label
_atom_site_fract_x
_atom_site_fract_y
_atom_site_fract_z
Si Si1 0.383494 0.922094 0.383497
Si Si2 0.330416 0.922403 0.330391
Si Si3 0.524422 0.571806 0.524421
Si Si4 0.189717 0.928884 0.189742
Si Si5 0.902606 0.577952 0.902620
Si Si6 0.761358 0.929889 0.761359
Si Si7 0.044293 0.078462 0.044291
O O1 0.392228 0.750000 0.392228
O O2 0.357099 0.916457 0.357090
O O3 0.143058 0.996560 0.643059
O O4 0.643050 0.996564 0.143068
O O5 0.322138 0.750000 0.322110
O O6 0.073636 0.010328 0.571445
O O7 0.571476 0.010328 0.073607
O O8 0.500000 0.500000 0.500000
O O9 0.523595 0.750000 0.523587
O O10 0.787034 0.508170 0.285683
O O11 0.285680 0.508173 0.787037
O O12 0.191712 0.750000 0.191737
O O13 0.213527 0.010242 0.213537
O O14 0.893851 0.750000 0.893867
O O15 0.929004 0.583642 0.929016
O O16 0.760091 0.750000 0.760095
O O17 0.000000 0.000000 0.500000
O O18 0.500000 0.000000 0.000000
O O19 0.035945 0.250000 0.035937
#
# Coordination Sequence:
#
# PCOD9168272 Si02
#       7
#     4   4   4   4   4   4   4
#     4   9  17  31  55  87 118 150 196 249 295 342
#     4  11  22  39  64  92 121 159 208 257 300 350
#     4  12  25  42  62  87 121 158 199 246 301 359
#     4  12  25  42  62  89 126 165 203 248 305 363
#     4   9  17  31  55  87 118 150 193 246 295 348
#     4  12  25  44  67  94 125 160 203 250 303 361
#     4  11  22  39  64  92 121 156 201 248 299 357
#
# _framework density 19.906860999999999
#
# number of rings (size 3 to 8) (size 9 to 14) (size 15 to 20)
#    0.000    1.143    0.000    7.714    0.000    4.571 
#    0.000    0.000    0.000   17.143    0.000    0.000 
#    0.000    0.000    0.000    0.000    0.000    0.000 
#
# Total GULP energy -156357.250467 kJ/mol
# GULP energy per Si atom -5584.187517 kJ/mol
# Density = 1.986155 g / cm^3
# Si number density = 19.906861 Si / 1000 Ang^3
#
#
#
# Elastic Constant Matrix: (Units=GPa)
#
#
# Indices 1 2 3 4 5 6 
#
# 1 57.9593 30.5606 64.5090 0.0000 -5.7503 0.0000
# 2 30.5606 177.1073 76.1414 0.0000 -4.0217 0.0000
# 3 64.5090 76.1414 233.0482 0.0000 -9.6890 0.0000
# 4 0.0000 0.0000 0.0000 20.9452 0.0000 0.0748
# 5 -5.7503 -4.0217 -9.6890 0.0000 29.6878 0.0000
# 6 0.0000 0.0000 0.0000 0.0748 0.0000 21.7888
#
#
#
# Elastic Compliance Matrix: (Units=1/GPa)
#
#
# Indices 1 2 3 4 5 6 
#
# 1 0.025509 -0.001575 -0.006437 0.000000 0.002627 0.000000
# 2 -0.001575 0.006667 -0.001741 0.000000 0.000030 0.000000
# 3 -0.006437 -0.001741 0.006671 0.000000 0.000694 0.000000
# 4 0.000000 0.000000 0.000000 0.047744 0.000000 -0.000164
# 5 0.002627 0.000030 0.000694 0.000000 0.034423 0.000000
# 6 0.000000 0.000000 0.000000 -0.000164 0.000000 0.045896
#
#
# Mechanical properties :
#
#
# Convention : Reuss Voigt Hill
#
# Bulk Modulus (GPa) = 51.70448 90.05966 70.88207
# Shear Modulus (GPa) = 25.92504 34.27794 30.10149
#
# Velocity S-wave (km/s) = 3.61268 4.15410 3.89281
# Velocity P-wave (km/s) = 6.59026 8.26725 7.47593
#
# Compressibility (1/GPa) = 0.01934068
#
# Stress axis : x y z
#
# Youngs Moduli (GPa) = 39.20151 149.98681 149.91040
#
# Poissons Ratio (x) = 0.23615 0.96504
# Poissons Ratio (y) = 0.06172 0.26103
# Poissons Ratio (z) = 0.25236 0.26116
#
# Static dielectric constant tensor:
#      x y z
#    x 1.686710 0.000000 -0.004730 
#    y 0.000000 1.660470 0.000000 
#    z -0.004730 0.000000 1.740330 
# 
# From -- ./inp_files/73865.got.cif
#   From: 2010.05.17/outbox.ucp.g08.bks.cvg/sg11_37_cif.got.tgz:73865.got - 2010.06.11 11:38:39.
