data_PCOD9168401
_publ_section_title
;
Structure prediction by ZEFSAII (Michael W. Deem and Ramdas Pophale) SiO2 
 PCOD9168401
Probable space group: C 2/M
;
_chemical_formula_sum "Si O2"
_cell_formula_units_Z 40
_cell_length_a 5.398961
_cell_length_b 30.643112
_cell_length_c 15.999717
_cell_angle_alpha 90.000000
_cell_angle_beta 59.953400
_cell_angle_gamma 90.000000
_cell_volume 2291.299536
_symmetry_space_group_name_H-M "C 2/M"
_symmetry_group_IT_number 12
_symmetry_cell_setting 'monoclinic'
loop_
_space_group_symop_operation_xyz
x,y,z
-x,y,-z
-x,-y,-z
x,-y,z
1/2+x,1/2+y,z
1/2-x,1/2+y,-z
1/2-x,1/2-y,-z
1/2+x,1/2-y,z
loop_
_atom_site_type_symbol
_atom_site_label
_atom_site_fract_x
_atom_site_fract_y
_atom_site_fract_z
Si Si1 0.133289 0.548349 0.385003
Si Si2 0.405493 0.231671 0.388331
Si Si3 0.370610 0.553259 0.111257
Si Si4 0.720678 0.552167 0.214814
Si Si5 0.660780 0.867248 0.563051
O O1 0.089838 0.500000 0.352610
O O2 0.472244 0.557703 0.326280
O O3 0.000000 0.545450 0.500000
O O4 0.978060 0.590003 0.372222
O O5 0.250000 0.250000 0.500000
O O6 0.729431 0.246639 0.343863
O O7 0.381509 0.179746 0.388425
O O8 0.372649 0.500000 0.113413
O O9 0.568829 0.567921 0.154888
O O10 0.041460 0.568553 0.173567
O O11 0.500000 0.565959 0.000000
O O12 0.753429 0.500000 0.200662
O O13 0.500000 0.863114 0.500000
O O14 0.000000 0.874110 0.500000
#
# Coordination Sequence:
#
# PCOD9168401 Si02
#       5
#     8   8   8   8   8
#     4   9  20  34  45  60  88 127 167 195 209 241
#     4  10  15  26  43  61  79  97 130 188 228 271
#     4   9  16  27  45  65  80  98 134 184 234 277
#     4   9  17  29  43  59  82 110 141 182 225 255
#     4  11  19  29  44  61  79 109 150 191 220 255
#
# _framework density 17.457339999999999
#
# number of rings (size 3 to 8) (size 9 to 14) (size 15 to 20)
#    0.000    2.400    4.000    0.600    0.000    6.000 
#    0.000    6.000    0.000    0.000    0.000    0.000 
#    0.000    0.000    0.000    0.000    0.000   20.000 
#
# Total GULP energy -111368.064821 kJ/mol
# GULP energy per Si atom -5568.403241 kJ/mol
# Density = 1.741761 g / cm^3
# Si number density = 17.457340 Si / 1000 Ang^3
#
#
#
# Elastic Constant Matrix: (Units=GPa)
#
#
# Indices 1 2 3 4 5 6 
#
# 1 125.9876 17.4066 33.0836 0.0000 -22.4327 0.0000
# 2 17.4066 107.8147 3.2542 0.0000 -19.0622 0.0000
# 3 33.0836 3.2542 83.5003 0.0000 -4.3627 0.0000
# 4 0.0000 0.0000 0.0000 1.4837 0.0000 -2.5851
# 5 -22.4327 -19.0622 -4.3627 0.0000 23.4430 0.0000
# 6 0.0000 0.0000 0.0000 -2.5851 0.0000 4.9407
#
#
#
# Elastic Compliance Matrix: (Units=1/GPa)
#
#
# Indices 1 2 3 4 5 6 
#
# 1 0.010592 0.000084 -0.003703 0.000000 0.009515 0.000000
# 2 0.000084 0.010833 0.000009 0.000000 0.008891 0.000000
# 3 -0.003703 0.000009 0.013388 0.000000 -0.001044 0.000000
# 4 0.000000 0.000000 0.000000 7.631756 0.000000 3.993197
# 5 0.009515 0.008891 -0.001044 0.000000 0.058796 0.000000
# 6 0.000000 0.000000 0.000000 3.993197 0.000000 2.291778
#
#
# Mechanical properties :
#
#
# Convention : Reuss Voigt Hill
#
# Bulk Modulus (GPa) = 36.23985 47.19906 41.71945
# Shear Modulus (GPa) = 0.49833 23.54403 12.02118
#
# Velocity S-wave (km/s) = 0.53486 3.67640 2.62697
# Velocity P-wave (km/s) = 4.60278 6.71689 5.75770
#
# Compressibility (1/GPa) = 0.02759393
#
# Stress axis : x y z
#
# Youngs Moduli (GPa) = 94.40903 92.30806 74.69265
#
# Poissons Ratio (x) = -0.00775 0.27658
# Poissons Ratio (y) = -0.00792 -0.00068
# Poissons Ratio (z) = 0.34958 -0.00084
#
# Static dielectric constant tensor:
#      x y z
#    x 1.770190 0.000000 0.076540 
#    y 0.000000 1.604980 0.000000 
#    z 0.076540 0.000000 1.639130 
# 
# From -- ./inp_files/116022.got.cif
#   From: 2010.05.17/outbox.cif.g08.bks.cpg/sg12_59_cif.got.tgz:116022.got - 2010.06.03 13:09:07.
