data_PCOD9168286
_publ_section_title
;
Structure prediction by ZEFSAII (Michael W. Deem and Ramdas Pophale) SiO2 
 PCOD9168286
Probable space group: C 2/M
;
_chemical_formula_sum "Si O2"
_cell_formula_units_Z 60
_cell_length_a 28.221175
_cell_length_b 7.377423
_cell_length_c 14.797796
_cell_angle_alpha 90.000000
_cell_angle_beta 59.235242
_cell_angle_gamma 90.000000
_cell_volume 2647.334571
_symmetry_space_group_name_H-M "C 2/M"
_symmetry_group_IT_number 12
_symmetry_cell_setting 'monoclinic'
loop_
_space_group_symop_operation_xyz
x,y,z
-x,y,-z
-x,-y,-z
x,-y,z
1/2+x,1/2+y,z
1/2-x,1/2+y,-z
1/2-x,1/2-y,-z
1/2+x,1/2-y,z
loop_
_atom_site_type_symbol
_atom_site_label
_atom_site_fract_x
_atom_site_fract_y
_atom_site_fract_z
Si Si1 0.217241 0.716972 0.311610
Si Si2 0.832526 0.285877 0.254687
Si Si3 0.333507 0.221950 0.452707
Si Si4 0.000000 0.751634 0.500000
Si Si5 0.612642 0.777248 0.299255
Si Si6 0.063133 0.278631 0.954794
Si Si7 0.957439 0.298286 0.341078
Si Si8 0.068653 0.720765 0.151503
O O1 0.213492 0.500000 0.316074
O O2 0.281365 0.760783 0.237077
O O3 0.199386 0.786808 0.428035
O O4 0.170851 0.775974 0.285639
O O5 0.840086 0.500000 0.258374
O O6 0.816170 0.215618 0.370073
O O7 0.890799 0.215392 0.161065
O O8 0.397054 0.281777 0.400393
O O9 0.331395 0.000000 0.458729
O O10 0.939167 0.808474 0.596772
O O11 0.978652 0.683631 0.423088
O O12 0.606783 0.730641 0.199292
O O13 0.605696 0.000000 0.315786
O O14 0.062558 0.500000 0.952334
O O15 0.081973 0.224376 0.037191
O O16 0.000000 0.221295 0.000000
O O17 0.950137 0.500000 0.308870
O O18 0.007077 0.213066 0.236891
O O19 0.066833 0.500000 0.154181
#
# Coordination Sequence:
#
# PCOD9168286 Si02
#       8
#     8   8   8   4   8   8   8   8
#     4  10  19  31  46  66  94 123 150 183 224 268
#     4  10  20  32  47  66  90 121 155 186 220 267
#     4   9  16  26  41  63  91 121 149 181 221 266
#     4  10  13  18  34  60  91 118 141 174 223 272
#     4   9  15  23  38  62  91 118 145 183 228 267
#     4   9  16  28  45  65  88 116 149 187 229 268
#     4   9  13  18  33  59  90 116 139 173 225 272
#     4   8  14  22  36  60  90 117 143 183 230 270
#
# _framework density 22.664306
#
# number of rings (size 3 to 8) (size 9 to 14) (size 15 to 20)
#    0.000    2.800    1.333    3.200    0.000    3.200 
#    0.000    0.667    0.000    0.400    0.000    0.467 
#    0.000    0.267    0.000    0.000    0.000    0.000 
#
# Total GULP energy -167121.470692 kJ/mol
# GULP energy per Si atom -5570.715690 kJ/mol
# Density = 2.261272 g / cm^3
# Si number density = 22.664306 Si / 1000 Ang^3
#
#
#
# Elastic Constant Matrix: (Units=GPa)
#
#
# Indices 1 2 3 4 5 6 
#
# 1 161.5129 -1.2396 40.3955 0.0000 -14.2831 0.0000
# 2 -1.2396 79.4489 0.7563 0.0001 2.2023 0.0008
# 3 40.3955 0.7563 70.9303 0.0000 9.0128 0.0001
# 4 0.0000 0.0001 0.0000 -40.1898 0.0000 -15.6989
# 5 -14.2831 2.2023 9.0128 0.0000 31.5970 0.0000
# 6 0.0000 0.0008 0.0001 -15.6989 0.0000 40.9368
#
#
#
# Elastic Compliance Matrix: (Units=1/GPa)
#
#
# Indices 1 2 3 4 5 6 
#
# 1 0.007929 0.000033 -0.005158 0.000000 0.005053 0.000000
# 2 0.000033 0.012611 -0.000045 0.000000 -0.000851 0.000000
# 3 -0.005158 -0.000045 0.017984 0.000000 -0.007458 0.000000
# 4 0.000000 0.000000 0.000000 -0.021640 0.000000 -0.008299
# 5 0.005053 -0.000851 -0.007458 0.000000 0.036119 0.000000
# 6 0.000000 0.000000 0.000000 -0.008299 0.000000 0.021245
#
#
# Mechanical properties :
#
#
# Convention : Reuss Voigt Hill
#
# Bulk Modulus (GPa) = 35.48146 43.52406 39.50276
# Shear Modulus (GPa) = 53.20123 24.60080 38.90101
#
# Velocity S-wave (km/s) = 4.85021 3.29818 4.14744
# Velocity P-wave (km/s) = 6.85968 5.80943 6.35628
#
# Compressibility (1/GPa) = 0.02818373
#
# Stress axis : x y z
#
# Youngs Moduli (GPa) = 126.12640 79.29433 55.60529
#
# Poissons Ratio (x) = -0.00260 0.28680
# Poissons Ratio (y) = -0.00413 0.00250
# Poissons Ratio (z) = 0.65053 0.00356
#
# Static dielectric constant tensor:
#      x y z
#    x 1.826360 0.000000 0.003920 
#    y 0.000000 1.861120 0.000000 
#    z 0.003920 0.000000 1.809930 
# 
# From -- ./inp_files/239611.got.cif
#   From: 2010.05.17/outbox.cif.g08.bks.cpg/sg12_120_cif.got.tgz:239611.got - 2010.06.03 13:09:07.
