data_PCOD9168888
_publ_section_title
;
Structure prediction by ZEFSAII (Michael W. Deem and Ramdas Pophale) SiO2 
 PCOD9168888
Probable space group: C 2/M
;
_chemical_formula_sum "Si O2"
_cell_formula_units_Z 64
_cell_length_a 25.698570
_cell_length_b 14.140755
_cell_length_c 28.080926
_cell_angle_alpha 90.000000
_cell_angle_beta 163.774643
_cell_angle_gamma 90.000000
_cell_volume 2851.309489
_symmetry_space_group_name_H-M "C 2/M"
_symmetry_group_IT_number 12
_symmetry_cell_setting 'monoclinic'
loop_
_space_group_symop_operation_xyz
x,y,z
-x,y,-z
-x,-y,-z
x,-y,z
1/2+x,1/2+y,z
1/2-x,1/2+y,-z
1/2-x,1/2-y,-z
1/2+x,1/2-y,z
loop_
_atom_site_type_symbol
_atom_site_label
_atom_site_fract_x
_atom_site_fract_y
_atom_site_fract_z
Si Si1 0.716401 0.834884 0.508049
Si Si2 0.172443 0.648909 0.874001
Si Si3 0.224428 0.104798 0.689483
Si Si4 0.068773 0.802458 0.984253
Si Si5 0.268941 0.394199 0.157596
Si Si6 0.376927 0.370758 0.146027
Si Si7 0.602520 0.277446 0.500329
Si Si8 0.234414 0.709666 0.746472
O O1 0.750000 0.750000 0.500000
O O2 0.522487 0.882523 0.321043
O O3 0.690624 0.787098 0.537180
O O4 0.907181 0.892590 0.674374
O O5 0.136809 0.757338 0.858435
O O6 0.334174 0.652262 0.976157
O O7 0.247554 0.602517 0.988024
O O8 0.237842 0.156219 0.649976
O O9 0.281157 0.177887 0.780396
O O10 0.000000 0.096549 0.500000
O O11 0.304469 0.000000 0.760746
O O12 0.854906 0.828801 0.807989
O O13 0.113328 0.688864 0.021451
O O14 0.178668 0.830636 0.128886
O O15 0.235742 0.500000 0.148742
O O16 0.312677 0.406198 0.140434
O O17 0.452126 0.345323 0.341859
O O18 0.484467 0.214133 0.434479
#
# Coordination Sequence:
#
# PCOD9168888 Si02
#       8
#     8   8   8   8   8   8   8   8
#     4  10  16  30  49  67  85 110 156 199 237 291
#     4   9  16  30  47  67  89 109 150 198 232 286
#     4   9  18  28  38  54  82 123 166 201 223 256
#     4   9  17  29  42  63  85 126 157 189 245 264
#     4  10  18  31  45  63  92 123 163 199 230 280
#     4   9  18  29  48  71  83 118 152 193 247 276
#     4  10  17  30  42  64  85 123 164 196 238 268
#     4   9  17  28  41  57  89 117 162 193 231 271
#
# _framework density 22.445826
#
# number of rings (size 3 to 8) (size 9 to 14) (size 15 to 20)
#    0.000    2.625    5.000    0.375    1.750    3.500 
#    0.000    3.125    0.000    0.750    0.000    0.000 
#    0.000    0.000    0.000    4.500    0.000    0.375 
#
# Total GULP energy -178211.587808 kJ/mol
# GULP energy per Si atom -5569.112119 kJ/mol
# Density = 2.239474 g / cm^3
# Si number density = 22.445826 Si / 1000 Ang^3
#
#
#
# Elastic Constant Matrix: (Units=GPa)
#
#
# Indices 1 2 3 4 5 6 
#
# 1 151.2294 2.9153 38.6682 0.0004 4.4574 -0.0068
# 2 2.9153 30.5669 0.4507 0.0269 -3.3911 -0.0034
# 3 38.6682 0.4507 83.3839 0.0139 -0.1530 -0.0070
# 4 0.0004 0.0269 0.0139 -23.9947 0.0162 2.9620
# 5 4.4574 -3.3911 -0.1530 0.0162 44.0024 -0.0036
# 6 -0.0068 -0.0034 -0.0070 2.9620 -0.0036 -0.6806
#
#
#
# Elastic Compliance Matrix: (Units=1/GPa)
#
#
# Indices 1 2 3 4 5 6 
#
# 1 0.007546 -0.000761 -0.003497 -0.000015 -0.000835 -0.000098
# 2 -0.000761 0.033076 0.000179 0.000038 0.002627 -0.000012
# 3 -0.003497 0.000179 0.013614 -0.000011 0.000415 -0.000156
# 4 -0.000015 0.000038 -0.000011 -0.090055 0.000005 -0.391911
# 5 -0.000835 0.002627 0.000415 0.000005 0.023014 -0.000110
# 6 -0.000098 -0.000012 -0.000156 -0.391911 -0.000110 -3.174812
#
#
# Mechanical properties :
#
#
# Convention : Reuss Voigt Hill
#
# Bulk Modulus (GPa) = 21.70187 38.80542 30.25364
# Shear Modulus (GPa) = -1.58023 18.74182 8.58080
#
# Velocity S-wave (km/s) = -0.83997 2.89274 1.95734
# Velocity P-wave (km/s) = 2.95784 5.33697 4.31463
#
# Compressibility (1/GPa) = 0.04607899
#
# Stress axis : x y z
#
# Youngs Moduli (GPa) = 132.52353 30.23300 73.45349
#
# Poissons Ratio (x) = 0.02300 0.25685
# Poissons Ratio (y) = 0.10082 -0.01313
# Poissons Ratio (z) = 0.46340 -0.00541
#
# Static dielectric constant tensor:
#      x y z
#    x 1.847220 -0.000280 0.001940 
#    y -0.000280 1.709380 0.000140 
#    z 0.001940 0.000140 1.945680 
# 
# From -- ./inp_files/368280.got.cif
#   From: 2010.05.17/outbox.cif.g08.bks.cpg/sg12_185_cif.got.tgz:368280.got - 2010.06.03 13:09:07.
