data_PCOD9168173
_publ_section_title
;
Structure prediction by ZEFSAII (Michael W. Deem and Ramdas Pophale) SiO2 
 PCOD9168173
Probable space group: P 21/M
;
_chemical_formula_sum "Si O2"
_cell_formula_units_Z 20
_cell_length_a 6.000000
_cell_length_b 18.000000
_cell_length_c 9.000000
_cell_angle_alpha 90.000000
_cell_angle_beta 80.000000
_cell_angle_gamma 90.000000
_cell_volume 957.233136
_symmetry_space_group_name_H-M "P 21/M"
_symmetry_group_IT_number 11
_symmetry_cell_setting 'monoclinic'
loop_
_space_group_symop_operation_xyz
x,y,z
-x,1/2+y,-z
-x,-y,-z
x,1/2-y,z
loop_
_atom_site_type_symbol
_atom_site_label
_atom_site_fract_x
_atom_site_fract_y
_atom_site_fract_z
Si Si1 0.716670 0.955854 0.910791
Si Si2 0.251178 0.661069 0.580626
Si Si3 0.977007 0.406491 0.848920
Si Si4 0.374766 0.663373 0.892439
Si Si5 0.785614 0.660407 0.461207
O O1 0.603456 0.884370 0.850275
O O2 0.862257 0.016719 0.804317
O O3 0.864344 0.929579 0.032669
O O4 0.500000 0.000000 0.000000
O O5 0.257021 0.750000 0.552388
O O6 0.232783 0.647839 0.759525
O O7 0.516011 0.635565 0.511058
O O8 0.011358 0.635380 0.533107
O O9 0.126528 0.364124 0.711516
O O10 0.773243 0.358859 0.946506
O O11 0.429704 0.750000 0.890689
O O12 0.776406 0.750000 0.478455
#
# Coordination Sequence:
#
# PCOD9168173 Si02
#       5
#     4   4   4   4   4
#     4   9  21  39  59  84 123 154 198 252 308 346
#     4   9  21  38  57  87 129 159 194 254 316 356
#     4  10  21  38  62  85 117 160 206 251 297 360
#     4  10  21  37  62  90 116 157 203 248 301 366
#     4  10  21  38  60  90 123 160 202 255 306 358
#
# _framework density 20.893552
#
# number of rings (size 3 to 8) (size 9 to 14) (size 15 to 20)
#    0.000    2.400    0.000    0.600    8.400    1.600 
#    0.000    2.000    0.000    0.000    0.000    0.000 
#    0.000    0.000    0.000    0.000    0.000    0.000 
#
# Total GULP energy -111392.497707 kJ/mol
# GULP energy per Si atom -5569.624885 kJ/mol
# Density = 2.084600 g / cm^3
# Si number density = 20.893552 Si / 1000 Ang^3
#
#
#
# Elastic Constant Matrix: (Units=GPa)
#
#
# Indices 1 2 3 4 5 6 
#
# 1 109.9476 10.9956 6.5192 0.0000 -4.8226 0.0000
# 2 10.9956 40.6047 1.7270 0.0000 -0.2867 0.0000
# 3 6.5192 1.7270 51.9874 0.0000 -16.1550 0.0000
# 4 0.0000 0.0000 0.0000 13.3362 0.0000 10.5770
# 5 -4.8226 -0.2867 -16.1550 0.0000 33.0206 0.0000
# 6 0.0000 0.0000 0.0000 10.5770 0.0000 21.3914
#
#
#
# Elastic Compliance Matrix: (Units=1/GPa)
#
#
# Indices 1 2 3 4 5 6 
#
# 1 0.009436 -0.002515 -0.000800 0.000000 0.000965 0.000000
# 2 -0.002515 0.025334 -0.000675 0.000000 -0.000477 0.000000
# 3 -0.000800 -0.000675 0.022784 0.000000 0.011024 0.000000
# 4 0.000000 0.000000 0.000000 0.123360 0.000000 -0.060995
# 5 0.000965 -0.000477 0.011024 0.000000 0.035814 0.000000
# 6 0.000000 0.000000 0.000000 -0.060995 0.000000 0.076907
#
#
# Mechanical properties :
#
#
# Convention : Reuss Voigt Hill
#
# Bulk Modulus (GPa) = 20.17097 26.78037 23.47567
# Shear Modulus (GPa) = 15.71641 25.76949 20.74295
#
# Velocity S-wave (km/s) = 2.74563 3.51575 3.15428
# Velocity P-wave (km/s) = 4.44144 5.41535 4.95239
#
# Compressibility (1/GPa) = 0.04957620
#
# Stress axis : x y z
#
# Youngs Moduli (GPa) = 105.97180 39.47270 43.89071
#
# Poissons Ratio (x) = 0.09926 0.03511
# Poissons Ratio (y) = 0.26647 0.02961
# Poissons Ratio (z) = 0.08477 0.02663
#
# Static dielectric constant tensor:
#      x y z
#    x 1.789260 0.000000 0.007020 
#    y 0.000000 1.775200 0.000000 
#    z 0.007020 0.000000 1.773400 
# 
# From -- ./inp_files/1895.got.cif
#   From: 2010.05.17/outbox.ucp.g08.bks.cvg/sg11_1_cif.got.tgz:1895.got - 2010.06.11 11:38:39.
