data_PCOD9168537
_publ_section_title
;
Structure prediction by ZEFSAII (Michael W. Deem and Ramdas Pophale) SiO2 
 PCOD9168537
Probable space group: C 2/M
;
_chemical_formula_sum "Si O2"
_cell_formula_units_Z 40
_cell_length_a 8.551339
_cell_length_b 28.053634
_cell_length_c 9.183976
_cell_angle_alpha 90.000000
_cell_angle_beta 49.711536
_cell_angle_gamma 90.000000
_cell_volume 1680.598003
_symmetry_space_group_name_H-M "C 2/M"
_symmetry_group_IT_number 12
_symmetry_cell_setting 'monoclinic'
loop_
_space_group_symop_operation_xyz
x,y,z
-x,y,-z
-x,-y,-z
x,-y,z
1/2+x,1/2+y,z
1/2-x,1/2+y,-z
1/2-x,1/2-y,-z
1/2+x,1/2-y,z
loop_
_atom_site_type_symbol
_atom_site_label
_atom_site_fract_x
_atom_site_fract_y
_atom_site_fract_z
Si Si1 0.291732 0.395669 0.214992
Si Si2 0.437052 0.000000 0.204533
Si Si3 0.413155 0.102391 0.218808
Si Si4 0.782518 0.300175 0.217591
Si Si5 0.090945 0.797823 0.779541
Si Si6 0.218386 0.500000 0.294857
O O1 0.099613 0.393311 0.220961
O O2 0.287226 0.347373 0.311052
O O3 0.307081 0.448176 0.276962
O O4 0.500000 0.393078 0.000000
O O5 0.323533 0.950225 0.303106
O O6 0.653700 0.000000 0.163083
O O7 0.500000 0.000000 0.000000
O O8 0.277280 0.149791 0.305526
O O9 0.500000 0.100435 0.000000
O O10 0.600379 0.297823 0.212690
O O11 0.785346 0.251467 0.307115
O O12 0.000000 0.301162 0.000000
O O13 0.000000 0.797363 0.000000
O O14 0.000000 0.500000 0.500000
#
# Coordination Sequence:
#
# PCOD9168537 Si02
#       6
#     8   4   8   8   8   4
#     4  10  18  30  48  74 100 131 172 217 255 302
#     4   8  16  29  48  73  98 128 171 212 249 297
#     4   9  15  25  41  67  98 130 166 209 256 302
#     4  10  16  24  38  63 100 135 161 206 263 308
#     4  10  17  25  39  65  99 132 166 210 260 305
#     4  10  21  35  52  77 107 140 173 212 264 317
#
# _framework density 23.801051999999999
#
# number of rings (size 3 to 8) (size 9 to 14) (size 15 to 20)
#    0.000    2.400    0.000    8.700    0.000    0.000 
#    0.000    3.000    0.000    0.000    0.000  113.400 
#    0.000    0.000    0.000    0.000    0.000    0.000 
#
# Total GULP energy -111624.553564 kJ/mol
# GULP energy per Si atom -5581.227678 kJ/mol
# Density = 2.374688 g / cm^3
# Si number density = 23.801052 Si / 1000 Ang^3
#
#
#
# Elastic Constant Matrix: (Units=GPa)
#
#
# Indices 1 2 3 4 5 6 
#
# 1 156.3496 84.5559 15.0636 0.0000 12.9748 0.0000
# 2 84.5559 341.3341 10.0585 0.0000 1.1511 0.0000
# 3 15.0636 10.0585 47.7878 0.0000 15.2289 0.0000
# 4 0.0000 0.0000 0.0000 -32.7979 0.0000 -12.6496
# 5 12.9748 1.1511 15.2289 0.0000 20.8030 0.0000
# 6 0.0000 0.0000 0.0000 -12.6496 0.0000 41.0619
#
#
#
# Elastic Compliance Matrix: (Units=1/GPa)
#
#
# Indices 1 2 3 4 5 6 
#
# 1 0.007852 -0.001910 -0.000712 0.000000 -0.004270 0.000000
# 2 -0.001910 0.003415 -0.000569 0.000000 0.001418 0.000000
# 3 -0.000712 -0.000569 0.027544 0.000000 -0.019688 0.000000
# 4 0.000000 0.000000 0.000000 -0.027252 0.000000 -0.008395
# 5 -0.004270 0.001418 -0.019688 0.000000 0.065067 0.000000
# 6 0.000000 0.000000 0.000000 -0.008395 0.000000 0.021767
#
#
# Mechanical properties :
#
#
# Convention : Reuss Voigt Hill
#
# Bulk Modulus (GPa) = 30.83651 84.98083 57.90867
# Shear Modulus (GPa) = 43.25836 34.86630 39.06233
#
# Velocity S-wave (km/s) = 4.26784 3.83156 4.05557
# Velocity P-wave (km/s) = 6.10491 7.44020 6.80539
#
# Compressibility (1/GPa) = 0.03242909
#
# Stress axis : x y z
#
# Youngs Moduli (GPa) = 127.36182 292.84998 36.30519
#
# Poissons Ratio (x) = 0.55924 0.02586
# Poissons Ratio (y) = 0.24321 0.02065
# Poissons Ratio (z) = 0.09072 0.16658
#
# Static dielectric constant tensor:
#      x y z
#    x 1.848970 0.000000 0.048250 
#    y 0.000000 2.091560 0.000000 
#    z 0.048250 0.000000 1.902190 
# 
# From -- ./inp_files/122963.got.cif
#   From: 2010.05.17/outbox.cif.g08.bks.cpg/sg12_62_cif.got.tgz:122963.got - 2010.06.03 13:09:07.
