data_PCOD9168001
_publ_section_title
;
Structure prediction by ZEFSAII (Michael W. Deem and Ramdas Pophale) SiO2 
 PCOD9168001
Probable space group: P 21/M
;
_chemical_formula_sum "Si O2"
_cell_formula_units_Z 32
_cell_length_a 15.000000
_cell_length_b 9.000000
_cell_length_c 24.000000
_cell_angle_alpha 90.000000
_cell_angle_beta 30.000000
_cell_angle_gamma 90.000000
_cell_volume 1620.000000
_symmetry_space_group_name_H-M "P 21/M"
_symmetry_group_IT_number 11
_symmetry_cell_setting 'monoclinic'
loop_
_space_group_symop_operation_xyz
x,y,z
-x,1/2+y,-z
-x,-y,-z
x,1/2-y,z
loop_
_atom_site_type_symbol
_atom_site_label
_atom_site_fract_x
_atom_site_fract_y
_atom_site_fract_z
Si Si1 0.131940 0.428064 0.282487
Si Si2 0.473315 0.572701 0.142758
Si Si3 0.629886 0.572011 0.475254
Si Si4 0.633393 0.071654 0.291321
Si Si5 0.529666 0.572505 0.237083
Si Si6 0.107158 0.427520 0.758018
Si Si7 0.882811 0.070656 0.513984
Si Si8 0.223963 0.428073 0.106577
O O1 0.124585 0.250000 0.282922
O O2 0.293073 0.481459 0.234158
O O3 0.184068 0.479970 0.191551
O O4 0.956995 0.476785 0.412485
O O5 0.435424 0.750000 0.165481
O O6 0.563287 0.535461 0.153783
O O7 0.586639 0.543991 0.025332
O O8 0.500000 0.500000 0.500000
O O9 0.614797 0.750000 0.481294
O O10 0.554336 0.527373 0.576250
O O11 0.816544 0.532940 0.345574
O O12 0.646844 0.250000 0.283174
O O13 0.641118 0.008067 0.225028
O O14 0.779402 0.004285 0.254593
O O15 0.552237 0.750000 0.231145
O O16 0.323140 0.534752 0.362573
O O17 0.116058 0.250000 0.759570
O O18 0.911076 0.490818 0.861804
O O19 0.899701 0.250000 0.507776
O O20 0.000000 0.000000 0.500000
O O21 0.195616 0.250000 0.120398
#
# Coordination Sequence:
#
# PCOD9168001 Si02
#       8
#     4   4   4   4   4   4   4   4
#     4  10  21  36  57  85 114 144 182 230 281 331
#     4  10  21  39  59  79 109 149 188 229 275 328
#     4   8  16  30  48  73 104 137 172 212 263 319
#     4  10  20  35  56  82 112 147 185 227 275 329
#     4  10  21  36  55  81 113 149 187 225 273 330
#     4  10  20  36  56  81 112 146 185 229 276 327
#     4  10  20  35  55  82 115 148 182 226 278 329
#     4  10  22  38  57  82 111 145 187 232 278 325
#
# _framework density 19.753086
#
# number of rings (size 3 to 8) (size 9 to 14) (size 15 to 20)
#    0.000    2.250    1.250    1.125    1.750    3.000 
#    0.000    0.625    0.000    0.000    0.000    0.000 
#    0.000    0.000    0.000    0.000    0.000    0.000 
#
# Total GULP energy -178271.512740 kJ/mol
# GULP energy per Si atom -5570.984773 kJ/mol
# Density = 1.970813 g / cm^3
# Si number density = 19.753086 Si / 1000 Ang^3
#
#
#
# Elastic Constant Matrix: (Units=GPa)
#
#
# Indices 1 2 3 4 5 6 
#
# 1 94.4274 8.2563 24.7769 0.0000 20.4252 0.0000
# 2 8.2563 -15.9367 19.4879 0.0000 -1.5388 0.0000
# 3 24.7769 19.4879 60.1560 0.0000 18.1405 0.0000
# 4 0.0000 0.0000 0.0000 17.4334 0.0000 2.8729
# 5 20.4252 -1.5388 18.1405 0.0000 37.7409 0.0000
# 6 0.0000 0.0000 0.0000 2.8729 0.0000 31.6404
#
#
#
# Elastic Compliance Matrix: (Units=1/GPa)
#
#
# Indices 1 2 3 4 5 6 
#
# 1 0.012586 0.001685 -0.004323 0.000000 -0.004665 0.000000
# 2 0.001685 -0.041521 0.015838 0.000000 -0.010218 0.000000
# 3 -0.004323 0.015838 0.014470 0.000000 -0.003970 0.000000
# 4 0.000000 0.000000 0.000000 0.058232 0.000000 -0.005287
# 5 -0.004665 -0.010218 -0.003970 0.000000 0.030513 0.000000
# 6 0.000000 0.000000 0.000000 -0.005287 0.000000 0.032085
#
#
# Mechanical properties :
#
#
# Convention : Reuss Voigt Hill
#
# Bulk Modulus (GPa) = 83.78410 27.07655 55.43032
# Shear Modulus (GPa) = 59.56355 23.10464 41.33410
#
# Velocity S-wave (km/s) = 5.49723 3.42376 4.57939
# Velocity P-wave (km/s) = 9.09948 5.41911 7.48890
#
# Compressibility (1/GPa) = 0.01193544
#
# Stress axis : x y z
#
# Youngs Moduli (GPa) = 79.45193 -24.08410 69.10767
#
# Poissons Ratio (x) = 0.04057 0.29875
# Poissons Ratio (y) = -0.13385 -1.09455
# Poissons Ratio (z) = 0.34347 0.38145
#
# Static dielectric constant tensor:
#      x y z
#    x 1.682290 0.000000 -0.003760 
#    y 0.000000 1.650010 0.000000 
#    z -0.003760 0.000000 1.775390 
# 
# From -- ./inp_files/51742.got.cif
#   From: 2010.05.17/outbox.ucp.g08.bks.cvg/sg11_26_cif.got.tgz:51742.got - 2010.06.11 11:38:39.
