data_PCOD9168523
_publ_section_title
;
Structure prediction by ZEFSAII (Michael W. Deem and Ramdas Pophale) SiO2 
 PCOD9168523
Probable space group: C 2/M
;
_chemical_formula_sum "Si O2"
_cell_formula_units_Z 56
_cell_length_a 13.859701
_cell_length_b 8.824218
_cell_length_c 19.798918
_cell_angle_alpha 90.000000
_cell_angle_beta 105.282714
_cell_angle_gamma 90.000000
_cell_volume 2335.798933
_symmetry_space_group_name_H-M "C 2/M"
_symmetry_group_IT_number 12
_symmetry_cell_setting 'monoclinic'
loop_
_space_group_symop_operation_xyz
x,y,z
-x,y,-z
-x,-y,-z
x,-y,z
1/2+x,1/2+y,z
1/2-x,1/2+y,-z
1/2-x,1/2-y,-z
1/2+x,1/2-y,z
loop_
_atom_site_type_symbol
_atom_site_label
_atom_site_fract_x
_atom_site_fract_y
_atom_site_fract_z
Si Si1 0.757654 0.318941 0.340654
Si Si2 0.134972 0.330926 0.047917
Si Si3 0.940783 0.315730 0.623738
Si Si4 0.872842 0.165971 0.085670
Si Si5 0.835376 0.325292 0.800764
Si Si6 0.149551 0.182602 0.517129
Si Si7 0.946487 0.670504 0.228424
O O1 0.766741 0.500000 0.345028
O O2 0.653858 0.262792 0.356568
O O3 0.742803 0.262156 0.261070
O O4 0.839886 0.243780 0.404841
O O5 0.095625 0.500000 0.051886
O O6 0.253667 0.344457 0.055163
O O7 0.137454 0.252809 0.121798
O O8 0.089365 0.261405 0.971498
O O9 0.928936 0.500000 0.619597
O O10 0.936117 0.247620 0.547936
O O11 0.033799 0.283228 0.690623
O O12 0.889680 0.231168 0.163103
O O13 0.918196 0.000000 0.090236
O O14 0.799736 0.500000 0.803555
O O15 0.940770 0.334478 0.781407
O O16 0.250000 0.250000 0.500000
O O17 0.149602 0.000000 0.516153
O O18 0.905825 0.500000 0.220097
#
# Coordination Sequence:
#
# PCOD9168523 Si02
#       7
#     8   8   8   8   8   8   8
#     4  10  17  25  39  62  92 122 152 190 235 277
#     4   9  19  36  54  69  90 123 159 193 230 276
#     4   9  16  27  41  60  88 123 160 192 227 272
#     4  10  20  33  51  73  95 120 153 194 234 277
#     4   9  18  33  50  68  92 124 161 194 229 276
#     4  10  16  23  37  58  87 123 158 191 229 272
#     4   9  18  31  48  69  95 126 155 190 234 279
#
# _framework density 23.974668000000001
#
# number of rings (size 3 to 8) (size 9 to 14) (size 15 to 20)
#    0.000    2.571    0.000    6.000    0.000    4.571 
#    0.000    2.857    0.000    0.000    0.000    1.000 
#    0.000    8.000    0.000    0.000    0.000    0.000 
#
# Total GULP energy -156358.782790 kJ/mol
# GULP energy per Si atom -5584.242243 kJ/mol
# Density = 2.392010 g / cm^3
# Si number density = 23.974668 Si / 1000 Ang^3
#
#
#
# Elastic Constant Matrix: (Units=GPa)
#
#
# Indices 1 2 3 4 5 6 
#
# 1 46.2942 12.5008 24.9014 0.0000 1.6136 0.0000
# 2 12.5008 149.4628 117.5111 0.0000 17.4526 0.0000
# 3 24.9014 117.5111 260.4912 0.0000 4.6338 0.0000
# 4 0.0000 0.0000 0.0000 38.7585 0.0000 -0.5271
# 5 1.6136 17.4526 4.6338 0.0000 53.6143 0.0000
# 6 0.0000 0.0000 0.0000 -0.5271 0.0000 -0.9664
#
#
#
# Elastic Compliance Matrix: (Units=1/GPa)
#
#
# Indices 1 2 3 4 5 6 
#
# 1 0.022790 -0.000231 -0.002067 0.000000 -0.000432 0.000000
# 2 -0.000231 0.010867 -0.004825 0.000000 -0.003113 0.000000
# 3 -0.002067 -0.004825 0.006193 0.000000 0.001097 0.000000
# 4 0.000000 0.000000 0.000000 0.025611 0.000000 -0.013969
# 5 -0.000432 -0.003113 0.001097 0.000000 0.019583 0.000000
# 6 0.000000 0.000000 0.000000 -0.013969 0.000000 -1.027100
#
#
# Mechanical properties :
#
#
# Convention : Reuss Voigt Hill
#
# Bulk Modulus (GPa) = 39.05357 85.11943 62.08650
# Shear Modulus (GPa) = -5.43907 38.37026 16.46560
#
# Velocity S-wave (km/s) = -1.50785 4.00490 2.62351
# Velocity P-wave (km/s) = 3.64601 7.54762 5.92706
#
# Compressibility (1/GPa) = 0.02560585
#
# Stress axis : x y z
#
# Youngs Moduli (GPa) = 43.87875 92.02365 161.46089
#
# Poissons Ratio (x) = 0.02123 0.33372
# Poissons Ratio (y) = 0.01012 0.77900
# Poissons Ratio (z) = 0.09069 0.44399
#
# Static dielectric constant tensor:
#      x y z
#    x 2.026840 0.000000 -0.008470 
#    y 0.000000 1.848100 0.000000 
#    z -0.008470 0.000000 1.972670 
# 
# From -- ./inp_files/323414.got.cif
#   From: 2010.05.17/outbox.cif.g08.bks.cpg/sg12_162_cif.got.tgz:323414.got - 2010.06.03 13:09:07.
