data_PCOD9168625
_publ_section_title
;
Structure prediction by ZEFSAII (Michael W. Deem and Ramdas Pophale) SiO2 
 PCOD9168625
Probable space group: C 2/M
;
_chemical_formula_sum "Si O2"
_cell_formula_units_Z 48
_cell_length_a 10.491115
_cell_length_b 16.956494
_cell_length_c 11.533325
_cell_angle_alpha 90.000000
_cell_angle_beta 68.644426
_cell_angle_gamma 90.000000
_cell_volume 1910.819979
_symmetry_space_group_name_H-M "C 2/M"
_symmetry_group_IT_number 12
_symmetry_cell_setting 'monoclinic'
loop_
_space_group_symop_operation_xyz
x,y,z
-x,y,-z
-x,-y,-z
x,-y,z
1/2+x,1/2+y,z
1/2-x,1/2+y,-z
1/2-x,1/2-y,-z
1/2+x,1/2-y,z
loop_
_atom_site_type_symbol
_atom_site_label
_atom_site_fract_x
_atom_site_fract_y
_atom_site_fract_z
Si Si1 0.447470 0.908291 0.145129
Si Si2 0.869442 0.409460 0.711829
Si Si3 0.845877 0.913340 0.011350
Si Si4 0.150030 0.774596 0.433299
Si Si5 0.154737 0.152421 0.215007
Si Si6 0.856339 0.093964 0.398544
O O1 0.509300 0.873899 0.246211
O O2 0.284708 0.901567 0.203495
O O3 0.490278 0.000000 0.131521
O O4 0.500000 0.877467 0.000000
O O5 0.912557 0.500000 0.668084
O O6 0.783209 0.382517 0.626300
O O7 0.749985 0.410974 0.847212
O O8 0.828627 0.842793 0.927604
O O9 0.822717 0.000000 0.961476
O O10 0.000000 0.912627 0.000000
O O11 0.250000 0.750000 0.500000
O O12 0.181255 0.772453 0.287618
O O13 0.142850 0.867670 0.474300
O O14 0.000000 0.739630 0.500000
O O15 0.998118 0.124682 0.291533
O O16 0.860643 0.000000 0.398890
#
# Coordination Sequence:
#
# PCOD9168625 Si02
#       6
#     8   8   8   8   8   8
#     4  10  18  27  44  81 129 163 186 225 292 365
#     4   9  17  28  45  78 122 160 185 222 290 359
#     4  10  16  25  48  84 125 158 183 228 298 362
#     4  10  25  45  65  86 111 162 212 253 307 360
#     4  11  20  32  56  87 117 154 201 243 293 351
#     4  10  20  36  60  91 120 150 199 257 302 354
#
# _framework density 25.120106
#
# number of rings (size 3 to 8) (size 9 to 14) (size 15 to 20)
#    0.000    2.000    3.333    1.500    0.000    5.667 
#    0.000    0.000    0.000    4.500    4.333    0.000 
#    0.000    0.000    0.000    0.000    0.000    0.000 
#
# Total GULP energy -133755.110227 kJ/mol
# GULP energy per Si atom -5573.129593 kJ/mol
# Density = 2.506293 g / cm^3
# Si number density = 25.120106 Si / 1000 Ang^3
#
#
#
# Elastic Constant Matrix: (Units=GPa)
#
#
# Indices 1 2 3 4 5 6 
#
# 1 161.1361 12.4314 14.8090 0.0000 29.8393 0.0000
# 2 12.4314 33.1446 5.0589 0.0000 11.6986 0.0000
# 3 14.8090 5.0589 81.6624 0.0000 21.3018 0.0000
# 4 0.0000 0.0000 0.0000 22.4036 0.0000 18.6202
# 5 29.8393 11.6986 21.3018 0.0000 41.4387 0.0000
# 6 0.0000 0.0000 0.0000 18.6202 0.0000 75.6984
#
#
#
# Elastic Compliance Matrix: (Units=1/GPa)
#
#
# Indices 1 2 3 4 5 6 
#
# 1 0.007189 -0.000964 0.000041 0.000000 -0.004925 0.000000
# 2 -0.000964 0.033654 0.000447 0.000000 -0.009037 0.000000
# 3 0.000041 0.000447 0.014148 0.000000 -0.007429 0.000000
# 4 0.000000 0.000000 0.000000 0.056106 0.000000 -0.013801
# 5 -0.004925 -0.009037 -0.007429 0.000000 0.034048 0.000000
# 6 0.000000 0.000000 0.000000 -0.013801 0.000000 0.016605
#
#
# Mechanical properties :
#
#
# Convention : Reuss Voigt Hill
#
# Bulk Modulus (GPa) = 18.50531 37.83797 28.17164
# Shear Modulus (GPa) = 27.66790 44.15106 35.90948
#
# Velocity S-wave (km/s) = 3.32237 4.19692 3.78499
# Velocity P-wave (km/s) = 4.70109 6.21136 5.50824
#
# Compressibility (1/GPa) = 0.05403853
#
# Stress axis : x y z
#
# Youngs Moduli (GPa) = 139.10896 29.71447 70.68038
#
# Poissons Ratio (x) = 0.02865 -0.00289
# Poissons Ratio (y) = 0.13411 -0.03161
# Poissons Ratio (z) = -0.00568 -0.01329
#
# Static dielectric constant tensor:
#      x y z
#    x 2.038460 0.000000 0.005660 
#    y 0.000000 2.150720 0.000000 
#    z 0.005660 0.000000 1.955390 
# 
# From -- ./inp_files/132447.got.cif
#   From: 2010.05.17/outbox.cif.g08.bks.cpg/sg12_67_cif.got.tgz:132447.got - 2010.06.03 13:09:07.
