data_PCOD9168875
_publ_section_title
;
Structure prediction by ZEFSAII (Michael W. Deem and Ramdas Pophale) SiO2 
 PCOD9168875
Probable space group: C 2/M
;
_chemical_formula_sum "Si O2"
_cell_formula_units_Z 48
_cell_length_a 5.260827
_cell_length_b 14.876748
_cell_length_c 30.073936
_cell_angle_alpha 90.000000
_cell_angle_beta 85.235631
_cell_angle_gamma 90.000000
_cell_volume 2345.573701
_symmetry_space_group_name_H-M "C 2/M"
_symmetry_group_IT_number 12
_symmetry_cell_setting 'monoclinic'
loop_
_space_group_symop_operation_xyz
x,y,z
-x,y,-z
-x,-y,-z
x,-y,z
1/2+x,1/2+y,z
1/2-x,1/2+y,-z
1/2-x,1/2-y,-z
1/2+x,1/2-y,z
loop_
_atom_site_type_symbol
_atom_site_label
_atom_site_fract_x
_atom_site_fract_y
_atom_site_fract_z
Si Si1 0.467559 0.310368 0.452988
Si Si2 0.454196 0.391955 0.736456
Si Si3 0.569069 0.892054 0.214287
Si Si4 0.741345 0.193593 0.121043
Si Si5 0.240654 0.353250 0.019784
Si Si6 0.382624 0.308777 0.641998
O O1 0.500000 0.358953 0.500000
O O2 0.682199 0.230325 0.453163
O O3 0.542303 0.356963 0.405555
O O4 0.458041 0.500000 0.739004
O O5 0.720230 0.359109 0.753329
O O6 0.414106 0.364562 0.686265
O O7 0.212804 0.359032 0.768856
O O8 0.658404 0.864960 0.164137
O O9 0.562357 0.000000 0.216946
O O10 0.531656 0.273434 0.122532
O O11 0.719789 0.149114 0.072940
O O12 0.500000 0.395858 0.000000
O O13 0.250000 0.250000 0.000000
O O14 0.000000 0.395627 0.000000
O O15 0.095944 0.270379 0.642549
#
# Coordination Sequence:
#
# PCOD9168875 Si02
#       6
#     8   8   8   8   8   8
#     4   8  14  25  41  66  98 128 157 194 248 300
#     4  10  21  38  53  68  98 140 169 197 251 309
#     4  10  23  39  52  70 103 137 164 200 250 301
#     4  12  21  32  55  83  98 127 166 205 241 282
#     4  10  16  30  48  73 102 126 150 192 237 289
#     4  10  19  30  51  77 100 127 166 217 250 279
#
# _framework density 20.464075999999999
#
# number of rings (size 3 to 8) (size 9 to 14) (size 15 to 20)
#    0.000    2.000    3.333    2.000    0.000    4.000 
#    0.000    0.000    0.000    1.500    0.000    0.000 
#    0.000   17.333    0.000    0.000    0.000    2.667 
#
# Total GULP energy -133869.333364 kJ/mol
# GULP energy per Si atom -5577.888890 kJ/mol
# Density = 2.041750 g / cm^3
# Si number density = 20.464076 Si / 1000 Ang^3
#
#
#
# Elastic Constant Matrix: (Units=GPa)
#
#
# Indices 1 2 3 4 5 6 
#
# 1 107.3685 -0.0463 -0.4792 0.0000 0.8496 0.0000
# 2 -0.0463 24.7527 -1.4596 0.0000 0.5361 0.0000
# 3 -0.4792 -1.4596 121.0465 0.0000 -3.7814 0.0000
# 4 0.0000 0.0000 0.0000 -57.1367 0.0000 -5.7765
# 5 0.8496 0.5361 -3.7814 0.0000 36.7005 0.0000
# 6 0.0000 0.0000 0.0000 -5.7765 0.0000 -2.4523
#
#
#
# Elastic Compliance Matrix: (Units=1/GPa)
#
#
# Indices 1 2 3 4 5 6 
#
# 1 0.009316 0.000024 0.000031 0.000000 -0.000213 0.000000
# 2 0.000024 0.040439 0.000471 0.000000 -0.000543 0.000000
# 3 0.000031 0.000471 0.008294 0.000000 0.000847 0.000000
# 4 0.000000 0.000000 0.000000 -0.022973 0.000000 0.054114
# 5 -0.000213 -0.000543 0.000847 0.000000 0.027348 0.000000
# 6 0.000000 0.000000 0.000000 0.054114 0.000000 -0.535257
#
#
# Mechanical properties :
#
#
# Convention : Reuss Voigt Hill
#
# Bulk Modulus (GPa) = 16.92092 27.68862 22.30477
# Shear Modulus (GPa) = -11.00873 12.43250 0.71189
#
# Velocity S-wave (km/s) = -2.32190 2.46748 0.59045
# Velocity P-wave (km/s) = 1.04798 4.65593 3.37461
#
# Compressibility (1/GPa) = 0.05909844
#
# Stress axis : x y z
#
# Youngs Moduli (GPa) = 107.34739 24.72852 120.57573
#
# Poissons Ratio (x) = -0.00059 -0.00368
# Poissons Ratio (y) = -0.00256 -0.05676
# Poissons Ratio (z) = -0.00328 -0.01164
#
# Static dielectric constant tensor:
#      x y z
#    x 1.739420 0.000000 -0.009120 
#    y 0.000000 1.703050 0.000000 
#    z -0.009120 0.000000 1.758810 
# 
# From -- ./inp_files/331013.got.cif
#   From: 2010.05.17/outbox.cif.g08.bks.cpg/sg12_166_cif.got.tgz:331013.got - 2010.06.03 13:09:07.
