data_PCOD9168740
_publ_section_title
;
Structure prediction by ZEFSAII (Michael W. Deem and Ramdas Pophale) SiO2 
 PCOD9168740
Probable space group: C 2/M
;
_chemical_formula_sum "Si O2"
_cell_formula_units_Z 64
_cell_length_a 13.897894
_cell_length_b 19.809768
_cell_length_c 17.460946
_cell_angle_alpha 90.000000
_cell_angle_beta 139.211240
_cell_angle_gamma 90.000000
_cell_volume 3140.438235
_symmetry_space_group_name_H-M "C 2/M"
_symmetry_group_IT_number 12
_symmetry_cell_setting 'monoclinic'
loop_
_space_group_symop_operation_xyz
x,y,z
-x,y,-z
-x,-y,-z
x,-y,z
1/2+x,1/2+y,z
1/2-x,1/2+y,-z
1/2-x,1/2-y,-z
1/2+x,1/2-y,z
loop_
_atom_site_type_symbol
_atom_site_label
_atom_site_fract_x
_atom_site_fract_y
_atom_site_fract_z
Si Si1 0.399203 0.575556 0.205596
Si Si2 0.663351 0.419227 0.472750
Si Si3 0.307826 0.921294 0.713421
Si Si4 0.090092 0.577019 0.774111
Si Si5 0.328839 0.169380 0.875439
Si Si6 0.671117 0.674484 0.124616
Si Si7 0.590556 0.884853 0.485467
Si Si8 0.173601 0.071761 0.258340
O O1 0.336057 0.500000 0.169079
O O2 0.499412 0.586581 0.341854
O O3 0.273288 0.630565 0.125515
O O4 0.522707 0.577673 0.214664
O O5 0.706707 0.500000 0.486978
O O6 0.683619 0.407749 0.574627
O O7 0.771853 0.368766 0.490333
O O8 0.458653 0.913416 0.755364
O O9 0.307066 0.870769 0.783273
O O10 0.297561 0.000000 0.731643
O O11 0.140520 0.500000 0.812649
O O12 0.219770 0.630867 0.862612
O O13 0.021518 0.587024 0.646599
O O14 0.285318 0.247603 0.844912
O O15 0.500000 0.165756 0.000000
O O16 0.685401 0.636857 0.213795
O O17 0.500000 0.670018 0.000000
O O18 0.500000 0.845802 0.500000
O O19 0.688687 0.930741 0.600994
O O20 0.167702 0.000000 0.212039
#
# Coordination Sequence:
#
# PCOD9168740 Si02
#       8
#     8   8   8   8   8   8   8   8
#     4   9  19  37  61  87 112 140 182 232 277 327
#     4   8  16  30  52  87 120 142 169 214 282 341
#     4   9  19  37  61  87 112 140 182 232 277 327
#     4  10  20  35  59  89 116 143 178 225 278 332
#     4  11  25  42  57  74 104 153 202 237 276 325
#     4  11  25  40  53  76 112 153 190 227 280 337
#     4  10  16  27  55  90 120 146 172 212 271 339
#     4  10  20  35  59  89 116 143 178 225 278 332
#
# _framework density 20.379322999999999
#
# number of rings (size 3 to 8) (size 9 to 14) (size 15 to 20)
#    0.000    2.250    1.250    3.375    0.000    6.250 
#    0.000    9.375    0.000    4.500    0.000    0.000 
#    0.000    0.000    0.000    0.000    0.000    0.000 
#
# Total GULP energy -178135.714801 kJ/mol
# GULP energy per Si atom -5566.741088 kJ/mol
# Density = 2.033294 g / cm^3
# Si number density = 20.379323 Si / 1000 Ang^3
#
#
#
# Elastic Constant Matrix: (Units=GPa)
#
#
# Indices 1 2 3 4 5 6 
#
# 1 65.9372 26.1066 2.5455 0.0000 13.2211 0.0001
# 2 26.1066 106.8915 30.7004 0.0000 20.6391 0.0000
# 3 2.5455 30.7004 22.9686 0.0000 10.4767 0.0002
# 4 0.0000 0.0000 0.0000 7.9316 0.0000 12.0174
# 5 13.2211 20.6391 10.4767 0.0000 26.9025 0.0001
# 6 0.0001 0.0000 0.0002 12.0174 0.0001 -36.4553
#
#
#
# Elastic Compliance Matrix: (Units=1/GPa)
#
#
# Indices 1 2 3 4 5 6 
#
# 1 0.018735 -0.005599 0.009300 0.000000 -0.008533 0.000000
# 2 -0.005599 0.017331 -0.021566 0.000000 -0.002146 0.000000
# 3 0.009300 -0.021566 0.080098 -0.000001 -0.019218 0.000000
# 4 0.000000 0.000000 -0.000001 0.084083 0.000000 0.027718
# 5 -0.008533 -0.002146 -0.019218 0.000000 0.050496 0.000000
# 6 0.000000 0.000000 0.000000 0.027718 0.000000 -0.018294
#
#
# Mechanical properties :
#
#
# Convention : Reuss Voigt Hill
#
# Bulk Modulus (GPa) = 12.43250 34.94469 23.68860
# Shear Modulus (GPa) = 16.94976 8.77208 12.86092
#
# Velocity S-wave (km/s) = 2.88707 2.07696 2.51485
# Velocity P-wave (km/s) = 4.15059 4.78916 4.48126
#
# Compressibility (1/GPa) = 0.08043432
#
# Stress axis : x y z
#
# Youngs Moduli (GPa) = 53.37668 57.70005 12.48467
#
# Poissons Ratio (x) = 0.32306 -0.11611
# Poissons Ratio (y) = 0.29886 0.26924
# Poissons Ratio (z) = -0.49639 1.24434
#
# Static dielectric constant tensor:
#      x y z
#    x 1.811770 0.000000 0.004510 
#    y 0.000000 1.678250 0.000000 
#    z 0.004510 0.000000 1.737390 
# 
# From -- ./inp_files/271729.got.cif
#   From: 2010.05.17/outbox.cif.g08.bks.cpg/sg12_136_cif.got.tgz:271729.got - 2010.06.03 13:09:07.
