data_PCOD9168747
_publ_section_title
;
Structure prediction by ZEFSAII (Michael W. Deem and Ramdas Pophale) SiO2 
 PCOD9168747
Probable space group: C 2/M
;
_chemical_formula_sum "Si O2"
_cell_formula_units_Z 64
_cell_length_a 23.093233
_cell_length_b 24.366469
_cell_length_c 9.372618
_cell_angle_alpha 90.000000
_cell_angle_beta 121.343636
_cell_angle_gamma 90.000000
_cell_volume 4504.308428
_symmetry_space_group_name_H-M "C 2/M"
_symmetry_group_IT_number 12
_symmetry_cell_setting 'monoclinic'
loop_
_space_group_symop_operation_xyz
x,y,z
-x,y,-z
-x,-y,-z
x,-y,z
1/2+x,1/2+y,z
1/2-x,1/2+y,-z
1/2-x,1/2-y,-z
1/2+x,1/2-y,z
loop_
_atom_site_type_symbol
_atom_site_label
_atom_site_fract_x
_atom_site_fract_y
_atom_site_fract_z
Si Si1 0.220434 0.838195 0.996346
Si Si2 0.037164 0.064246 0.785351
Si Si3 0.939360 0.223264 0.524284
Si Si4 0.665726 0.436940 0.748643
Si Si5 0.889681 0.116447 0.579401
Si Si6 0.965210 0.747398 0.092434
Si Si7 0.886198 0.141106 0.904457
Si Si8 0.856836 0.725730 0.181995
O O1 0.183532 0.851549 0.098373
O O2 0.297239 0.818301 0.110937
O O3 0.211121 0.891086 0.883890
O O4 0.178269 0.785777 0.882014
O O5 0.091000 0.070352 0.725369
O O6 0.966519 0.094179 0.669023
O O7 0.025053 0.000000 0.791693
O O8 0.072572 0.092326 0.966447
O O9 0.888928 0.174373 0.496923
O O10 0.901517 0.269327 0.382774
O O11 0.000000 0.202323 0.500000
O O12 0.976019 0.240401 0.717061
O O13 0.686099 0.500000 0.800222
O O14 0.657424 0.424140 0.570865
O O15 0.874852 0.127498 0.725438
O O16 0.906470 0.718327 0.109659
O O17 0.930795 0.803864 0.989503
O O18 0.000000 0.719769 0.000000
#
# Coordination Sequence:
#
# PCOD9168747 Si02
#       8
#     8   8   8   8   8   8   8   8
#     4   9  18  34  45  59  85 117 159 181 214 265
#     4  10  19  29  40  57  83 119 158 190 218 249
#     4  10  17  26  43  62  84 113 143 175 221 260
#     4  10  20  31  45  61  83 117 157 194 219 254
#     4  12  18  26  39  61  88 115 150 190 220 248
#     4  10  16  28  44  67  90 109 141 177 225 268
#     4  10  19  28  41  58  88 121 149 184 221 250
#     4   9  18  30  48  63  83 120 148 184 217 262
#
# _framework density 14.208619000000001
#
# number of rings (size 3 to 8) (size 9 to 14) (size 15 to 20)
#    0.000    2.000    3.750    1.875    0.000    2.500 
#    0.000    1.875    0.000    0.000    0.000    0.000 
#    0.000    5.000    0.000    0.000    0.000    0.125 
#
# Total GULP energy -178328.113669 kJ/mol
# GULP energy per Si atom -5572.753552 kJ/mol
# Density = 1.417628 g / cm^3
# Si number density = 14.208619 Si / 1000 Ang^3
#
#
#
# Elastic Constant Matrix: (Units=GPa)
#
#
# Indices 1 2 3 4 5 6 
#
# 1 61.5916 34.5684 44.7648 0.0000 -1.2007 0.0000
# 2 34.5684 57.6806 37.3645 0.0000 0.3481 0.0000
# 3 44.7648 37.3645 85.2101 0.0000 -19.5669 0.0000
# 4 0.0000 0.0000 0.0000 11.9971 0.0000 5.2831
# 5 -1.2007 0.3481 -19.5669 0.0000 16.2863 0.0000
# 6 0.0000 0.0000 0.0000 5.2831 0.0000 13.9376
#
#
#
# Elastic Compliance Matrix: (Units=1/GPa)
#
#
# Indices 1 2 3 4 5 6 
#
# 1 0.034244 -0.007998 -0.019146 0.000000 -0.020308 0.000000
# 2 -0.007998 0.030822 -0.013258 0.000000 -0.017178 0.000000
# 3 -0.019146 -0.013258 0.037769 0.000000 0.044248 0.000000
# 4 0.000000 0.000000 0.000000 0.100054 0.000000 -0.037926
# 5 -0.020308 -0.017178 0.044248 0.000000 0.113433 0.000000
# 6 0.000000 0.000000 0.000000 -0.037926 0.000000 0.086124
#
#
# Mechanical properties :
#
#
# Convention : Reuss Voigt Hill
#
# Bulk Modulus (GPa) = 45.39192 48.65309 47.02251
# Shear Modulus (GPa) = 10.19170 14.29652 12.24411
#
# Velocity S-wave (km/s) = 2.68113 3.17549 2.93872
# Velocity P-wave (km/s) = 6.44986 6.91095 6.68438
#
# Compressibility (1/GPa) = 0.02203035
#
# Stress axis : x y z
#
# Youngs Moduli (GPa) = 29.20188 32.44426 26.47686
#
# Poissons Ratio (x) = 0.25948 0.50694
# Poissons Ratio (y) = 0.23354 0.35104
# Poissons Ratio (z) = 0.55911 0.43016
#
# Static dielectric constant tensor:
#      x y z
#    x 1.475740 0.000000 -0.020150 
#    y 0.000000 1.456290 0.000000 
#    z -0.020150 0.000000 1.484200 
# 
# From -- ./inp_files/77538.got.cif
#   From: 2010.05.17/outbox.cif.g08.bks.cpg/sg12_39_cif.got.tgz:77538.got - 2010.06.03 13:09:07.
