data_PCOD9168976
_publ_section_title
;
Structure prediction by ZEFSAII (Michael W. Deem and Ramdas Pophale) SiO2 
 PCOD9168976
Probable space group: C 2/M
;
_chemical_formula_sum "Si O2"
_cell_formula_units_Z 48
_cell_length_a 23.536206
_cell_length_b 18.125190
_cell_length_c 15.480136
_cell_angle_alpha 90.000000
_cell_angle_beta 24.256862
_cell_angle_gamma 90.000000
_cell_volume 2713.025530
_symmetry_space_group_name_H-M "C 2/M"
_symmetry_group_IT_number 12
_symmetry_cell_setting 'monoclinic'
loop_
_space_group_symop_operation_xyz
x,y,z
-x,y,-z
-x,-y,-z
x,-y,z
1/2+x,1/2+y,z
1/2-x,1/2+y,-z
1/2-x,1/2-y,-z
1/2+x,1/2-y,z
loop_
_atom_site_type_symbol
_atom_site_label
_atom_site_fract_x
_atom_site_fract_y
_atom_site_fract_z
Si Si1 0.270411 0.659961 0.871717
Si Si2 0.796726 0.344043 0.379183
Si Si3 0.331986 0.500000 0.717632
Si Si4 0.167654 0.500000 0.757865
Si Si5 0.474458 0.718357 0.187553
Si Si6 0.962979 0.741502 0.711167
Si Si7 0.261258 0.254338 0.257628
O O1 0.282798 0.574529 0.832897
O O2 0.406475 0.699589 0.721111
O O3 0.242604 0.702058 0.820684
O O4 0.151296 0.680609 0.106241
O O5 0.802232 0.427122 0.340034
O O6 0.667378 0.327363 0.621264
O O7 0.930736 0.304643 0.234612
O O8 0.779664 0.295755 0.316046
O O9 0.500000 0.500000 0.500000
O O10 0.260557 0.500000 0.718843
O O11 0.000000 0.500000 0.000000
O O12 0.519479 0.712877 0.224343
O O13 0.600567 0.698666 0.950410
O O14 0.110770 0.709784 0.477349
#
# Coordination Sequence:
#
# PCOD9168976 Si02
#       7
#     8   8   4   4   8   8   8
#     4  10  20  34  51  81 113 147 185 229 284 336
#     4  10  20  34  51  81 113 147 185 229 284 336
#     4  12  24  36  58  85 121 155 180 228 295 353
#     4  12  24  36  58  85 121 155 180 228 295 353
#     4   9  19  32  52  76 108 146 190 233 273 327
#     4   9  19  32  52  76 108 146 190 233 273 327
#     4  10  16  31  54  77 106 138 188 232 278 323
#
# _framework density 17.692425
#
# number of rings (size 3 to 8) (size 9 to 14) (size 15 to 20)
#    0.000    2.000    1.667    3.000    4.667    0.000 
#    0.000    0.000    0.000    1.000    0.000   30.333 
#    0.000    0.000    0.000    0.000    0.000    0.000 
#
# Total GULP energy -133616.569479 kJ/mol
# GULP energy per Si atom -5567.357062 kJ/mol
# Density = 1.765216 g / cm^3
# Si number density = 17.692425 Si / 1000 Ang^3
#
#
#
# Elastic Constant Matrix: (Units=GPa)
#
#
# Indices 1 2 3 4 5 6 
#
# 1 80.3711 27.6833 11.8368 -0.0002 -7.7379 0.0001
# 2 27.6833 80.1551 27.2768 -0.0002 6.6478 0.0000
# 3 11.8368 27.2768 156.1206 -0.0006 3.4239 0.0002
# 4 -0.0002 -0.0002 -0.0006 7.2362 0.0001 8.2604
# 5 -7.7379 6.6478 3.4239 0.0001 25.6120 0.0000
# 6 0.0001 0.0000 0.0002 8.2604 0.0000 20.5471
#
#
#
# Elastic Compliance Matrix: (Units=1/GPa)
#
#
# Indices 1 2 3 4 5 6 
#
# 1 0.014984 -0.005574 -0.000294 0.000000 0.006013 0.000000
# 2 -0.005574 0.015595 -0.002183 0.000000 -0.005440 0.000000
# 3 -0.000294 -0.002183 0.006818 0.000001 -0.000434 0.000000
# 4 0.000000 0.000000 0.000001 0.255404 -0.000002 -0.102678
# 5 0.006013 -0.005440 -0.000434 -0.000002 0.042331 0.000001
# 6 0.000000 0.000000 0.000000 -0.102678 0.000001 0.089947
#
#
# Mechanical properties :
#
#
# Convention : Reuss Voigt Hill
#
# Bulk Modulus (GPa) = 46.95655 50.02673 48.49164
# Shear Modulus (GPa) = 11.15375 27.33573 19.24474
#
# Velocity S-wave (km/s) = 2.51355 3.93498 3.30167
# Velocity P-wave (km/s) = 5.91794 6.99876 6.48092
#
# Compressibility (1/GPa) = 0.02129628
#
# Stress axis : x y z
#
# Youngs Moduli (GPa) = 66.73619 64.12392 146.66017
#
# Poissons Ratio (x) = 0.35741 0.04314
# Poissons Ratio (y) = 0.37197 0.32013
# Poissons Ratio (z) = 0.01963 0.13997
#
# Static dielectric constant tensor:
#      x y z
#    x 1.650400 0.000000 -0.046840 
#    y 0.000000 1.565670 0.000000 
#    z -0.046840 0.000000 1.703150 
# 
# From -- ./inp_files/145415.got.cif
#   From: 2010.05.17/outbox.cif.g08.bks.cpg/sg12_73_cif.got.tgz:145415.got - 2010.06.03 13:09:07.
