data_PCOD9168459
_publ_section_title
;
Structure prediction by ZEFSAII (Michael W. Deem and Ramdas Pophale) SiO2 
 PCOD9168459
Probable space group: C 2/M
;
_chemical_formula_sum "Si O2"
_cell_formula_units_Z 64
_cell_length_a 14.378929
_cell_length_b 17.994966
_cell_length_c 13.645803
_cell_angle_alpha 90.000000
_cell_angle_beta 60.797523
_cell_angle_gamma 90.000000
_cell_volume 3082.063985
_symmetry_space_group_name_H-M "C 2/M"
_symmetry_group_IT_number 12
_symmetry_cell_setting 'monoclinic'
loop_
_space_group_symop_operation_xyz
x,y,z
-x,y,-z
-x,-y,-z
x,-y,z
1/2+x,1/2+y,z
1/2-x,1/2+y,-z
1/2-x,1/2-y,-z
1/2+x,1/2-y,z
loop_
_atom_site_type_symbol
_atom_site_label
_atom_site_fract_x
_atom_site_fract_y
_atom_site_fract_z
Si Si1 0.032807 0.917300 0.597603
Si Si2 0.363858 0.415210 0.861054
Si Si3 0.901166 0.765447 0.417141
Si Si4 0.180665 0.337007 0.853368
Si Si5 0.927575 0.583504 0.635328
Si Si6 0.376238 0.260320 0.951980
Si Si7 0.849063 0.265095 0.656578
Si Si8 0.037045 0.347316 0.759718
O O1 0.934692 0.914551 0.724710
O O2 0.000000 0.904382 0.500000
O O3 0.111892 0.852709 0.590168
O O4 0.078593 0.000000 0.577985
O O5 0.370031 0.500000 0.896882
O O6 0.243252 0.393654 0.891649
O O7 0.401134 0.346022 0.910935
O O8 0.840249 0.741557 0.544881
O O9 0.528365 0.744874 0.377378
O O10 0.886651 0.711710 0.334253
O O11 0.272916 0.290389 0.751739
O O12 0.103453 0.377459 0.816765
O O13 0.114271 0.273438 0.944348
O O14 0.886871 0.500000 0.651919
O O15 0.839720 0.647998 0.686055
O O16 0.000000 0.596260 0.500000
O O17 0.997973 0.596196 0.696920
O O18 0.440639 0.203666 0.849609
O O19 0.250000 0.250000 0.000000
#
# Coordination Sequence:
#
# PCOD9168459 Si02
#       8
#     8   8   8   8   8   8   8   8
#     4  10  16  25  49  81 108 136 176 230 276 314
#     4  10  19  34  57  82 109 144 187 233 276 327
#     4  10  15  31  52  76 107 139 191 224 254 327
#     4  11  22  35  55  83 119 144 178 233 285 332
#     4  10  19  35  58  81 110 149 192 231 266 322
#     4  10  20  39  59  78 105 146 194 230 263 325
#     4  10  17  33  54  79 108 145 190 228 262 321
#     4  11  21  35  56  86 110 145 181 229 287 326
#
# _framework density 20.765305000000001
#
# number of rings (size 3 to 8) (size 9 to 14) (size 15 to 20)
#    0.000    1.750    6.250    2.625    0.000    1.000 
#    0.000    5.625    0.000    7.500    0.000    0.000 
#    0.000    0.000    0.000    0.000    0.000    0.000 
#
# Total GULP energy -178402.104816 kJ/mol
# GULP energy per Si atom -5575.065775 kJ/mol
# Density = 2.071804 g / cm^3
# Si number density = 20.765305 Si / 1000 Ang^3
#
#
#
# Elastic Constant Matrix: (Units=GPa)
#
#
# Indices 1 2 3 4 5 6 
#
# 1 38.1700 -14.0123 5.7378 0.0000 -4.1868 0.0000
# 2 -14.0123 110.0427 2.8278 0.0000 -1.8673 0.0000
# 3 5.7378 2.8278 77.9818 0.0000 0.7553 0.0000
# 4 0.0000 0.0000 0.0000 23.4119 0.0000 -1.7837
# 5 -4.1868 -1.8673 0.7553 0.0000 25.9716 0.0000
# 6 0.0000 0.0000 0.0000 -1.7837 0.0000 8.0755
#
#
#
# Elastic Compliance Matrix: (Units=1/GPa)
#
#
# Indices 1 2 3 4 5 6 
#
# 1 0.028464 0.003767 -0.002279 0.000000 0.004926 0.000000
# 2 0.003767 0.009606 -0.000638 0.000000 0.001316 0.000000
# 3 -0.002279 -0.000638 0.013022 0.000000 -0.000792 0.000000
# 4 0.000000 0.000000 0.000000 0.043444 0.000000 0.009596
# 5 0.004926 0.001316 -0.000792 0.000000 0.039415 0.000000
# 6 0.000000 0.000000 0.000000 0.009596 0.000000 0.125951
#
#
# Mechanical properties :
#
#
# Convention : Reuss Voigt Hill
#
# Bulk Modulus (GPa) = 18.94250 23.92235 21.43242
# Shear Modulus (GPa) = 18.12908 26.93455 22.53181
#
# Velocity S-wave (km/s) = 2.95794 3.60543 3.29761
# Velocity P-wave (km/s) = 4.56157 5.37378 4.98424
#
# Compressibility (1/GPa) = 0.05279135
#
# Stress axis : x y z
#
# Youngs Moduli (GPa) = 35.13193 104.10434 76.79324
#
# Poissons Ratio (x) = -0.39212 0.17499
# Poissons Ratio (y) = -0.13233 0.04901
# Poissons Ratio (z) = 0.08005 0.06644
#
# Static dielectric constant tensor:
#      x y z
#    x 1.813810 0.000000 0.031840 
#    y 0.000000 1.769430 0.000000 
#    z 0.031840 0.000000 1.789950 
# 
# From -- ./inp_files/225294.got.cif
#   From: 2010.05.17/outbox.cif.g08.bks.cpg/sg12_113_cif.got.tgz:225294.got - 2010.06.03 13:09:07.
