data_PCOD9168034
_publ_section_title
;
Structure prediction by ZEFSAII (Michael W. Deem and Ramdas Pophale) SiO2 
 PCOD9168034
Probable space group: P 21/M
;
_chemical_formula_sum "Si O2"
_cell_formula_units_Z 24
_cell_length_a 21.000000
_cell_length_b 15.000000
_cell_length_c 12.000000
_cell_angle_alpha 90.000000
_cell_angle_beta 160.000000
_cell_angle_gamma 90.000000
_cell_volume 1292.836142
_symmetry_space_group_name_H-M "P 21/M"
_symmetry_group_IT_number 11
_symmetry_cell_setting 'monoclinic'
loop_
_space_group_symop_operation_xyz
x,y,z
-x,1/2+y,-z
-x,-y,-z
x,1/2-y,z
loop_
_atom_site_type_symbol
_atom_site_label
_atom_site_fract_x
_atom_site_fract_y
_atom_site_fract_z
Si Si1 0.810748 0.518624 0.314589
Si Si2 0.861523 0.854826 0.600038
Si Si3 0.389160 0.469019 0.654443
Si Si4 0.847315 0.148878 0.719150
Si Si5 0.902759 0.858438 0.262074
Si Si6 0.786835 0.647709 0.822310
O O1 0.898755 0.578843 0.558304
O O2 0.800744 0.589655 0.195488
O O3 0.923341 0.427558 0.470449
O O4 0.606987 0.486956 0.015815
O O5 0.830877 0.750000 0.520027
O O6 0.688091 0.898578 0.381664
O O7 0.031176 0.856840 0.967425
O O8 0.287820 0.564374 0.505158
O O9 0.330235 0.424177 0.439513
O O10 0.766928 0.250000 0.580366
O O11 0.000564 0.139761 0.873003
O O12 0.939167 0.750000 0.341272
O O13 0.789767 0.862655 0.959915
O O14 0.728563 0.750000 0.698772
#
# Coordination Sequence:
#
# PCOD9168034 Si02
#       6
#     4   4   4   4   4   4
#     4  11  23  36  55  82 110 142 180 223 270 319
#     4  10  20  36  56  81 114 146 175 212 267 327
#     4  11  20  33  56  84 111 135 174 228 275 315
#     4   9  18  32  54  80 107 142 179 218 265 319
#     4  10  22  40  57  73 104 149 188 221 263 318
#     4   9  18  35  57  78 103 140 182 218 260 318
#
# _framework density 18.563836999999999
#
# number of rings (size 3 to 8) (size 9 to 14) (size 15 to 20)
#    0.000    2.000    0.000    6.500    0.000    3.333 
#    0.000    1.667    0.000    4.000    0.000    0.000 
#    0.000    0.000    0.000    0.000    0.000    0.000 
#
# Total GULP energy -133859.481938 kJ/mol
# GULP energy per Si atom -5577.478414 kJ/mol
# Density = 1.852159 g / cm^3
# Si number density = 18.563837 Si / 1000 Ang^3
#
#
#
# Elastic Constant Matrix: (Units=GPa)
#
#
# Indices 1 2 3 4 5 6 
#
# 1 39.8454 -5.0323 -16.7702 0.0000 -17.6372 0.0000
# 2 -5.0323 128.2965 5.0747 0.0000 2.9477 0.0000
# 3 -16.7702 5.0747 12.2846 0.0000 7.5141 0.0000
# 4 0.0000 0.0000 0.0000 15.1010 0.0000 -4.7810
# 5 -17.6372 2.9477 7.5141 0.0000 22.5167 0.0000
# 6 0.0000 0.0000 0.0000 -4.7810 0.0000 39.1402
#
#
#
# Elastic Compliance Matrix: (Units=1/GPa)
#
#
# Indices 1 2 3 4 5 6 
#
# 1 0.072013 -0.001045 0.080606 0.000000 0.029645 0.000000
# 2 -0.001045 0.007939 -0.004485 0.000000 -0.000361 0.000000
# 3 0.080606 -0.004485 0.193894 0.000000 -0.000979 0.000000
# 4 0.000000 0.000000 0.000000 0.068885 0.000000 0.008414
# 5 0.029645 -0.000361 -0.000979 0.000000 0.068006 0.000000
# 6 0.000000 0.000000 0.000000 0.008414 0.000000 0.026577
#
#
# Mechanical properties :
#
#
# Convention : Reuss Voigt Hill
#
# Bulk Modulus (GPa) = 2.35850 16.33012 9.34431
# Shear Modulus (GPa) = 11.66881 28.49520 20.08200
#
# Velocity S-wave (km/s) = 2.50986 3.92214 3.29261
# Velocity P-wave (km/s) = 3.11006 5.41542 4.41583
#
# Compressibility (1/GPa) = 0.42399766
#
# Stress axis : x y z
#
# Youngs Moduli (GPa) = 13.88646 125.95773 5.15747
#
# Poissons Ratio (x) = 0.13161 -0.41572
# Poissons Ratio (y) = 0.01451 0.02313
# Poissons Ratio (z) = -1.11934 0.56495
#
# Static dielectric constant tensor:
#      x y z
#    x 1.675760 0.000000 -0.015380 
#    y 0.000000 1.637390 0.000000 
#    z -0.015380 0.000000 1.631760 
# 
# From -- ./inp_files/17359.got.cif
#   From: 2010.05.17/outbox.ucp.g08.bks.cvg/sg11_9_cif.got.tgz:17359.got - 2010.06.11 11:38:39.
