data_PCOD9168498
_publ_section_title
;
Structure prediction by ZEFSAII (Michael W. Deem and Ramdas Pophale) SiO2 
 PCOD9168498
Probable space group: C 2/M
;
_chemical_formula_sum "Si O2"
_cell_formula_units_Z 44
_cell_length_a 5.455539
_cell_length_b 15.182402
_cell_length_c 23.400965
_cell_angle_alpha 90.000000
_cell_angle_beta 82.995978
_cell_angle_gamma 90.000000
_cell_volume 1923.795408
_symmetry_space_group_name_H-M "C 2/M"
_symmetry_group_IT_number 12
_symmetry_cell_setting 'monoclinic'
loop_
_space_group_symop_operation_xyz
x,y,z
-x,y,-z
-x,-y,-z
x,-y,z
1/2+x,1/2+y,z
1/2-x,1/2+y,-z
1/2-x,1/2-y,-z
1/2+x,1/2-y,z
loop_
_atom_site_type_symbol
_atom_site_label
_atom_site_fract_x
_atom_site_fract_y
_atom_site_fract_z
Si Si1 0.027034 0.655328 0.825784
Si Si2 0.762485 0.147846 0.476120
Si Si3 0.670696 0.098643 0.938326
Si Si4 0.177015 0.807054 0.654919
Si Si5 0.447876 0.642585 0.219962
Si Si6 0.000000 0.807155 0.000000
O O1 0.057900 0.661211 0.893132
O O2 0.277180 0.608653 0.797766
O O3 0.025715 0.752808 0.797515
O O4 0.774146 0.610579 0.813557
O O5 0.500000 0.108155 0.500000
O O6 0.750000 0.250000 0.500000
O O7 0.797838 0.148241 0.407326
O O8 0.000000 0.108195 0.500000
O O9 0.946774 0.128311 0.948272
O O10 0.672721 0.000000 0.915339
O O11 0.500000 0.096141 0.000000
O O12 0.432212 0.754028 0.657576
O O13 0.132933 0.865241 0.712208
O O14 0.750000 0.750000 0.000000
#
# Coordination Sequence:
#
# PCOD9168498 Si02
#       6
#     8   8   8   8   8   4
#     4  10  21  35  56  76 106 137 183 228 278 334
#     4  10  16  22  32  55  86 131 185 219 258 335
#     4  11  27  48  67  93 129 159 190 241 315 374
#     4  12  16  26  41  61  98 134 177 234 284 314
#     4  10  20  34  51  80 105 138 190 241 278 332
#     4  12  27  44  69  98 120 152 198 238 291 350
#
# _framework density 22.871455000000001
#
# number of rings (size 3 to 8) (size 9 to 14) (size 15 to 20)
#    0.000    1.273    8.182    0.273    7.636    0.000 
#    0.000    0.000    0.000    0.000    0.000    0.000 
#    0.000    0.000    0.000    0.000    0.000   67.273 
#
# Total GULP energy -122771.901609 kJ/mol
# GULP energy per Si atom -5580.540982 kJ/mol
# Density = 2.281940 g / cm^3
# Si number density = 22.871455 Si / 1000 Ang^3
#
#
#
# Elastic Constant Matrix: (Units=GPa)
#
#
# Indices 1 2 3 4 5 6 
#
# 1 183.9338 6.7811 19.2925 0.0000 1.6263 0.0000
# 2 6.7811 51.6700 2.0885 0.0000 -0.0737 0.0000
# 3 19.2925 2.0885 162.6935 0.0000 1.3875 0.0000
# 4 0.0000 0.0000 0.0000 -2.5297 0.0000 -2.9844
# 5 1.6263 -0.0737 1.3875 0.0000 47.4696 0.0000
# 6 0.0000 0.0000 0.0000 -2.9844 0.0000 2.8648
#
#
#
# Elastic Compliance Matrix: (Units=1/GPa)
#
#
# Indices 1 2 3 4 5 6 
#
# 1 0.005532 -0.000700 -0.000646 0.000000 -0.000172 0.000000
# 2 -0.000700 0.019452 -0.000167 0.000000 0.000059 0.000000
# 3 -0.000646 -0.000167 0.006227 0.000000 -0.000160 0.000000
# 4 0.000000 0.000000 0.000000 -0.177342 0.000000 -0.184752
# 5 -0.000172 0.000059 -0.000160 0.000000 0.021077 0.000000
# 6 0.000000 0.000000 0.000000 -0.184752 0.000000 0.156599
#
#
# Mechanical properties :
#
#
# Convention : Reuss Voigt Hill
#
# Bulk Modulus (GPa) = 35.47987 50.51349 42.99668
# Shear Modulus (GPa) = 113.72751 34.23662 73.98207
#
# Velocity S-wave (km/s) = 7.05922 3.87320 5.69360
# Velocity P-wave (km/s) = 9.05483 6.49122 7.87800
#
# Compressibility (1/GPa) = 0.02818500
#
# Stress axis : x y z
#
# Youngs Moduli (GPa) = 180.77378 51.40776 160.60163
#
# Poissons Ratio (x) = 0.03599 0.10367
# Poissons Ratio (y) = 0.12657 0.02685
# Poissons Ratio (z) = 0.11669 0.00860
#
# Static dielectric constant tensor:
#      x y z
#    x 1.839520 0.000000 -0.025480 
#    y 0.000000 1.947690 0.000000 
#    z -0.025480 0.000000 1.864950 
# 
# From -- ./inp_files/297608.got.cif
#   From: 2010.05.17/outbox.cif.g08.bks.cpg/sg12_149_cif.got.tgz:297608.got - 2010.06.03 13:09:07.
