data_PCOD9168532
_publ_section_title
;
Structure prediction by ZEFSAII (Michael W. Deem and Ramdas Pophale) SiO2 
 PCOD9168532
Probable space group: C 2/M
;
_chemical_formula_sum "Si O2"
_cell_formula_units_Z 52
_cell_length_a 5.556894
_cell_length_b 19.194744
_cell_length_c 26.728134
_cell_angle_alpha 90.000000
_cell_angle_beta 108.171150
_cell_angle_gamma 90.000000
_cell_volume 2708.730153
_symmetry_space_group_name_H-M "C 2/M"
_symmetry_group_IT_number 12
_symmetry_cell_setting 'monoclinic'
loop_
_space_group_symop_operation_xyz
x,y,z
-x,y,-z
-x,-y,-z
x,-y,z
1/2+x,1/2+y,z
1/2-x,1/2+y,-z
1/2-x,1/2-y,-z
1/2+x,1/2-y,z
loop_
_atom_site_type_symbol
_atom_site_label
_atom_site_fract_x
_atom_site_fract_y
_atom_site_fract_z
Si Si1 0.445141 0.099252 0.130096
Si Si2 0.405571 0.329699 0.437047
Si Si3 0.003801 0.117520 0.169203
Si Si4 0.799175 0.500000 0.032783
Si Si5 0.616491 0.252039 0.910991
Si Si6 0.159982 0.206345 0.273321
Si Si7 0.658268 0.169586 0.605512
O O1 0.239072 0.079357 0.158302
O O2 0.438529 0.183326 0.125689
O O3 0.735827 0.079357 0.158302
O O4 0.357956 0.066258 0.071971
O O5 0.500000 0.328468 0.500000
O O6 0.373848 0.249729 0.415898
O O7 0.623269 0.361560 0.415749
O O8 0.123979 0.361560 0.415749
O O9 0.090015 0.150699 0.226677
O O10 0.938900 0.180184 0.125936
O O11 0.500000 0.500000 0.000000
O O12 0.000000 0.500000 0.000000
O O13 0.411624 0.250000 0.941080
O O14 0.402707 0.250000 0.268471
O O15 0.247382 0.173755 0.331588
#
# Coordination Sequence:
#
# PCOD9168532 Si02
#       7
#     8   8   8   4   8   8   8
#     4  10  20  37  55  79 104 125 167 189 233 297
#     4  10  16  25  33  43  70 121 174 221 254 270
#     4  10  19  31  54  77 102 138 154 195 244 297
#     4  12  26  44  66  84 102 132 160 210 243 260
#     4   8  14  27  47  73  97 126 153 180 224 271
#     4  12  18  27  41  66 100 122 162 201 265 291
#     4  10  16  24  31  52  74 110 155 223 255 273
#
# _framework density 19.197187
#
# number of rings (size 3 to 8) (size 9 to 14) (size 15 to 20)
#    0.000    1.846    3.077    6.923    0.000    0.000 
#    0.000    0.000    0.000   24.923    0.000    0.000 
#    0.000    0.000    0.000    0.000    0.000    0.000 
#
# Total GULP energy -144831.418442 kJ/mol
# GULP energy per Si atom -5570.439171 kJ/mol
# Density = 1.915349 g / cm^3
# Si number density = 19.197187 Si / 1000 Ang^3
#
#
#
# Elastic Constant Matrix: (Units=GPa)
#
#
# Indices 1 2 3 4 5 6 
#
# 1 270.7410 14.2162 82.6685 0.0000 -1.7478 0.0000
# 2 14.2162 31.2042 9.2761 0.0000 -0.0781 0.0000
# 3 82.6685 9.2761 155.4323 0.0000 -0.0745 0.0000
# 4 0.0000 0.0000 0.0000 11.8762 0.0000 0.2618
# 5 -1.7478 -0.0781 -0.0745 0.0000 38.8368 0.0000
# 6 0.0000 0.0000 0.0000 0.2618 0.0000 -4.6601
#
#
#
# Elastic Compliance Matrix: (Units=1/GPa)
#
#
# Indices 1 2 3 4 5 6 
#
# 1 0.004467 -0.001352 -0.002295 0.000000 0.000194 0.000000
# 2 -0.001352 0.033035 -0.001252 0.000000 0.000003 0.000000
# 3 -0.002295 -0.001252 0.007729 0.000000 -0.000091 0.000000
# 4 0.000000 0.000000 0.000000 0.084098 0.000000 0.004725
# 5 0.000194 0.000003 -0.000091 0.000000 0.025757 0.000000
# 6 0.000000 0.000000 0.000000 0.004725 0.000000 -0.214321
#
#
# Mechanical properties :
#
#
# Convention : Reuss Voigt Hill
#
# Bulk Modulus (GPa) = 28.22303 74.41101 51.31702
# Shear Modulus (GPa) = -132.88697 32.62503 -50.13097
#
# Velocity S-wave (km/s) = -8.32901 4.12693 -5.11570
# Velocity P-wave (km/s) = 8.81833 7.84566 2.84680
#
# Compressibility (1/GPa) = 0.03543205
#
# Stress axis : x y z
#
# Youngs Moduli (GPa) = 223.88839 30.27061 129.38507
#
# Poissons Ratio (x) = 0.04093 0.29691
# Poissons Ratio (y) = 0.30275 0.16203
# Poissons Ratio (z) = 0.51377 0.03791
#
# Static dielectric constant tensor:
#      x y z
#    x 1.802300 0.000000 -0.003020 
#    y 0.000000 1.645370 0.000000 
#    z -0.003020 0.000000 1.611610 
# 
# From -- ./inp_files/331204.got.cif
#   From: 2010.05.17/outbox.cif.g08.bks.cpg/sg12_166_cif.got.tgz:331204.got - 2010.06.03 13:09:07.
