data_PCOD9168501
_publ_section_title
;
Structure prediction by ZEFSAII (Michael W. Deem and Ramdas Pophale) SiO2 
 PCOD9168501
Probable space group: C 2/M
;
_chemical_formula_sum "Si O2"
_cell_formula_units_Z 56
_cell_length_a 5.415182
_cell_length_b 14.555618
_cell_length_c 33.082576
_cell_angle_alpha 90.000000
_cell_angle_beta 108.928693
_cell_angle_gamma 90.000000
_cell_volume 2466.600546
_symmetry_space_group_name_H-M "C 2/M"
_symmetry_group_IT_number 12
_symmetry_cell_setting 'monoclinic'
loop_
_space_group_symop_operation_xyz
x,y,z
-x,y,-z
-x,-y,-z
x,-y,z
1/2+x,1/2+y,z
1/2-x,1/2+y,-z
1/2-x,1/2-y,-z
1/2+x,1/2-y,z
loop_
_atom_site_type_symbol
_atom_site_label
_atom_site_fract_x
_atom_site_fract_y
_atom_site_fract_z
Si Si1 0.638931 0.307741 0.545398
Si Si2 0.881209 0.887904 0.686665
Si Si3 0.215590 0.390194 0.361660
Si Si4 0.030480 0.649185 0.049527
Si Si5 0.401869 0.641674 0.916544
Si Si6 0.499292 0.649423 0.216276
Si Si7 0.568869 0.141916 0.817835
O O1 0.500000 0.357750 0.500000
O O2 0.419098 0.231262 0.545445
O O3 0.687842 0.361952 0.589022
O O4 0.583602 0.860601 0.661098
O O5 0.081960 0.859237 0.662181
O O6 0.963947 0.846533 0.733923
O O7 0.890802 0.000000 0.690707
O O8 0.213173 0.500000 0.359287
O O9 0.308259 0.603046 0.072695
O O10 0.045891 0.750691 0.070365
O O11 0.776327 0.605795 0.056417
O O12 0.000000 0.658548 0.000000
O O13 0.234929 0.633214 0.867202
O O14 0.482539 0.750596 0.195389
O O15 0.752954 0.605398 0.209113
O O16 0.221032 0.603189 0.193119
#
# Coordination Sequence:
#
# PCOD9168501 Si02
#       7
#     8   8   8   8   8   8   8
#     4  10  21  39  59  86 119 147 177 221 270 315
#     4  10  21  37  55  74 104 136 171 216 261 301
#     4  10  21  39  58  81 108 144 184 217 259 323
#     4  10  16  22  33  51  75 110 157 188 215 281
#     4  10  16  25  36  51  78 114 151 184 238 274
#     4  10  18  32  45  66  92 120 161 201 243 291
#     4  10  19  30  45  65  92 123 159 205 237 303
#
# _framework density 22.703309999999998
#
# number of rings (size 3 to 8) (size 9 to 14) (size 15 to 20)
#    0.000    2.000    0.000    8.143    0.000    0.286 
#   15.429    0.000    0.000    5.143    0.000    0.000 
#    0.000    0.000    0.000    0.000    0.000  402.143 
#
# Total GULP energy -156445.089352 kJ/mol
# GULP energy per Si atom -5587.324620 kJ/mol
# Density = 2.265164 g / cm^3
# Si number density = 22.703310 Si / 1000 Ang^3
#
#
#
# Elastic Constant Matrix: (Units=GPa)
#
#
# Indices 1 2 3 4 5 6 
#
# 1 143.5895 0.3647 -21.4319 0.0000 5.4222 0.0000
# 2 0.3647 63.2990 -12.7286 0.0000 5.0913 0.0000
# 3 -21.4319 -12.7286 89.4603 0.0000 1.6810 0.0000
# 4 0.0000 0.0000 0.0000 -158.0810 0.0000 19.2527
# 5 5.4222 5.0913 1.6810 0.0000 47.5386 0.0000
# 6 0.0000 0.0000 0.0000 19.2527 0.0000 -23.9129
#
#
#
# Elastic Compliance Matrix: (Units=1/GPa)
#
#
# Indices 1 2 3 4 5 6 
#
# 1 0.007270 0.000399 0.001816 0.000000 -0.000936 0.000000
# 2 0.000399 0.016445 0.002471 0.000000 -0.001894 0.000000
# 3 0.001816 0.002471 0.011982 0.000000 -0.000895 0.000000
# 4 0.000000 0.000000 0.000000 -0.007014 0.000000 -0.005647
# 5 -0.000936 -0.001894 -0.000895 0.000000 0.021377 0.000000
# 6 0.000000 0.000000 0.000000 -0.005647 0.000000 -0.046365
#
#
# Mechanical properties :
#
#
# Convention : Reuss Voigt Hill
#
# Bulk Modulus (GPa) = 22.18926 25.41747 23.80337
# Shear Modulus (GPa) = 534.97507 -4.88139 265.04684
#
# Velocity S-wave (km/s) = 15.36714 -1.46791 10.81652
# Velocity P-wave (km/s) = 18.01833 2.88908 12.90362
#
# Compressibility (1/GPa) = 0.04506684
#
# Stress axis : x y z
#
# Youngs Moduli (GPa) = 137.55790 60.80895 83.46161
#
# Poissons Ratio (x) = -0.02424 -0.15156
# Poissons Ratio (y) = -0.05482 -0.20623
# Poissons Ratio (z) = -0.24979 -0.15025
#
# Static dielectric constant tensor:
#      x y z
#    x 1.912260 0.000000 0.005530 
#    y 0.000000 1.785950 0.000000 
#    z 0.005530 0.000000 1.782490 
# 
# From -- ./inp_files/371617.got.cif
#   From: 2010.05.17/outbox.cif.g08.bks.cpg/sg12_186_cif.got.tgz:371617.got - 2010.06.03 13:09:07.
