data_PCOD9168192
_publ_section_title
;
Structure prediction by ZEFSAII (Michael W. Deem and Ramdas Pophale) SiO2 
 PCOD9168192
Probable space group: P 21/M
;
_chemical_formula_sum "Si O2"
_cell_formula_units_Z 32
_cell_length_a 12.000000
_cell_length_b 9.000000
_cell_length_c 30.000000
_cell_angle_alpha 90.000000
_cell_angle_beta 150.000000
_cell_angle_gamma 90.000000
_cell_volume 1620.000000
_symmetry_space_group_name_H-M "P 21/M"
_symmetry_group_IT_number 11
_symmetry_cell_setting 'monoclinic'
loop_
_space_group_symop_operation_xyz
x,y,z
-x,1/2+y,-z
-x,-y,-z
x,1/2-y,z
loop_
_atom_site_type_symbol
_atom_site_label
_atom_site_fract_x
_atom_site_fract_y
_atom_site_fract_z
Si Si1 0.374564 0.928970 0.570072
Si Si2 0.553245 0.926397 0.724585
Si Si3 0.077946 0.925790 0.894682
Si Si4 0.771436 0.928853 0.144357
Si Si5 0.809252 0.571518 0.661131
Si Si6 0.461334 0.073272 0.788112
Si Si7 0.624826 0.571459 0.934036
Si Si8 0.933449 0.427504 0.613748
O O1 0.369054 0.750000 0.572488
O O2 0.409698 0.984300 0.632593
O O3 0.585525 0.961902 0.611242
O O4 0.160561 0.974016 0.467150
O O5 0.510009 0.750000 0.716853
O O6 0.811206 0.938917 0.798526
O O7 0.513742 0.011373 0.757084
O O8 0.133777 0.750000 0.914720
O O9 0.200288 0.004252 0.895424
O O10 0.154628 0.006473 0.966361
O O11 0.750823 0.750000 0.136199
O O12 0.569934 0.001647 0.102295
O O13 0.992403 0.981595 0.246716
O O14 0.847846 0.750000 0.676744
O O15 0.812079 0.516754 0.611105
O O16 0.505454 0.250000 0.805566
O O17 0.198295 0.050075 0.707091
O O18 0.591882 0.988343 0.872567
O O19 0.617518 0.750000 0.932687
O O20 0.889846 0.250000 0.604375
#
# Coordination Sequence:
#
# PCOD9168192 Si02
#       8
#     4   4   4   4   4   4   4   4
#     4   9  19  38  62  90 123 161 203 248 304 361
#     4  10  22  42  65  87 118 163 208 254 304 358
#     4  11  23  42  66  93 124 159 202 250 304 363
#     4  12  23  38  62  93 128 162 198 246 304 365
#     4  11  20  35  61  91 124 162 202 248 301 365
#     4  11  24  41  61  89 123 161 207 258 306 354
#     4  12  25  42  65  92 123 161 203 248 303 365
#     4  10  21  38  61  89 125 163 201 251 304 360
#
# _framework density 19.753086
#
# number of rings (size 3 to 8) (size 9 to 14) (size 15 to 20)
#    0.000    1.250    2.500    4.125    0.000    2.500 
#    0.000    1.250    0.000    0.000    0.000    0.000 
#    0.000    0.000    0.000    0.000    0.000    0.000 
#
# Total GULP energy -178894.166645 kJ/mol
# GULP energy per Si atom -5590.442708 kJ/mol
# Density = 1.970813 g / cm^3
# Si number density = 19.753086 Si / 1000 Ang^3
#
#
#
# Elastic Constant Matrix: (Units=GPa)
#
#
# Indices 1 2 3 4 5 6 
#
# 1 93.0106 33.7468 8.0845 0.0000 -40.0871 0.0000
# 2 33.7468 115.4794 24.9736 0.0000 -18.4225 0.0000
# 3 8.0845 24.9736 84.9865 0.0000 -41.6059 0.0000
# 4 0.0000 0.0000 0.0000 22.9301 0.0000 -7.8478
# 5 -40.0871 -18.4225 -41.6059 0.0000 39.6931 0.0000
# 6 0.0000 0.0000 0.0000 -7.8478 0.0000 36.6775
#
#
#
# Elastic Compliance Matrix: (Units=1/GPa)
#
#
# Indices 1 2 3 4 5 6 
#
# 1 0.047605 -0.008873 0.040258 0.000000 0.086157 0.000000
# 2 -0.008873 0.011074 -0.008793 0.000000 -0.013038 0.000000
# 3 0.040258 -0.008793 0.058390 0.000000 0.097780 0.000000
# 4 0.000000 0.000000 0.000000 0.047057 0.000000 0.010069
# 5 0.086157 -0.013038 0.097780 0.000000 0.208646 0.000000
# 6 0.000000 0.000000 0.000000 0.010069 0.000000 0.029419
#
#
# Mechanical properties :
#
#
# Convention : Reuss Voigt Hill
#
# Bulk Modulus (GPa) = 6.16325 47.45403 26.80864
# Shear Modulus (GPa) = 12.16273 34.97157 23.56715
#
# Velocity S-wave (km/s) = 2.48410 4.21222 3.45786
# Velocity P-wave (km/s) = 3.36966 6.90889 5.43541
#
# Compressibility (1/GPa) = 0.16225214
#
# Stress axis : x y z
#
# Youngs Moduli (GPa) = 21.00623 90.30037 17.12625
#
# Poissons Ratio (x) = 0.80125 -0.68947
# Poissons Ratio (y) = 0.18639 0.15059
# Poissons Ratio (z) = -0.84566 0.79402
#
# Static dielectric constant tensor:
#      x y z
#    x 1.670190 0.000000 -0.010240 
#    y 0.000000 1.656580 0.000000 
#    z -0.010240 0.000000 1.748190 
# 
# From -- ./inp_files/64427.got.cif
#   From: 2010.05.17/outbox.ucp.g08.bks.cvg/sg11_33_cif.got.tgz:64427.got - 2010.06.11 11:38:39.
