data_PCOD9168899
_publ_section_title
;
Structure prediction by ZEFSAII (Michael W. Deem and Ramdas Pophale) SiO2 
 PCOD9168899
Probable space group: C 2/M
;
_chemical_formula_sum "Si O2"
_cell_formula_units_Z 56
_cell_length_a 5.287104
_cell_length_b 26.848754
_cell_length_c 23.264635
_cell_angle_alpha 90.000000
_cell_angle_beta 70.889633
_cell_angle_gamma 90.000000
_cell_volume 3120.465194
_symmetry_space_group_name_H-M "C 2/M"
_symmetry_group_IT_number 12
_symmetry_cell_setting 'monoclinic'
loop_
_space_group_symop_operation_xyz
x,y,z
-x,y,-z
-x,-y,-z
x,-y,z
1/2+x,1/2+y,z
1/2-x,1/2+y,-z
1/2-x,1/2-y,-z
1/2+x,1/2-y,z
loop_
_atom_site_type_symbol
_atom_site_label
_atom_site_fract_x
_atom_site_fract_y
_atom_site_fract_z
Si Si1 0.018784 0.059335 0.832461
Si Si2 0.668784 0.271262 0.069055
Si Si3 0.938164 0.442328 0.572200
Si Si4 0.861225 0.892179 0.624323
Si Si5 0.198265 0.886477 0.039887
Si Si6 0.626778 0.060278 0.756040
Si Si7 0.605541 0.717105 0.427704
O O1 0.919094 0.081753 0.899520
O O2 0.817940 0.071993 0.795647
O O3 0.321923 0.073584 0.794280
O O4 0.016711 0.000000 0.838327
O O5 0.364396 0.255014 0.099078
O O6 0.709012 0.329743 0.061776
O O7 0.750000 0.250000 0.000000
O O8 0.900324 0.500000 0.592885
O O9 0.665389 0.412125 0.602696
O O10 0.000000 0.441176 0.500000
O O11 0.186798 0.419056 0.587801
O O12 0.725421 0.909387 0.693667
O O13 0.859359 0.833526 0.610619
O O14 0.500000 0.901383 0.000000
O O15 0.000000 0.888167 0.000000
O O16 0.640915 0.000000 0.744069
O O17 0.500000 0.703851 0.500000
O O18 0.380636 0.752644 0.416312
#
# Coordination Sequence:
#
# PCOD9168899 Si02
#       7
#     8   8   8   8   8   8   8
#     4  10  23  40  56  80 115 147 185 237 277 328
#     4  10  16  30  49  77 108 136 169 209 258 328
#     4  11  22  34  52  88 129 151 178 238 303 354
#     4  12  22  37  63  85 110 160 204 242 284 350
#     4  12  21  33  58  85 109 145 178 224 283 352
#     4  10  21  40  61  80 108 151 198 234 276 340
#     4  10  21  37  57  85 116 152 196 243 295 347
#
# _framework density 17.946041999999998
#
# number of rings (size 3 to 8) (size 9 to 14) (size 15 to 20)
#    0.000    1.286    2.857    5.143    0.000    4.000 
#    0.000    0.000    0.000    5.143    0.000    0.000 
#    0.000    0.000    0.000    0.000    0.000    0.000 
#
# Total GULP energy -156382.992941 kJ/mol
# GULP energy per Si atom -5585.106891 kJ/mol
# Density = 1.790520 g / cm^3
# Si number density = 17.946042 Si / 1000 Ang^3
#
#
#
# Elastic Constant Matrix: (Units=GPa)
#
#
# Indices 1 2 3 4 5 6 
#
# 1 95.2272 14.7701 7.9939 0.0000 -11.0917 0.0000
# 2 14.7701 60.5813 31.3846 0.0000 -1.5968 0.0000
# 3 7.9939 31.3846 69.2431 0.0000 -9.5038 0.0000
# 4 0.0000 0.0000 0.0000 82.1922 0.0000 -28.8699
# 5 -11.0917 -1.5968 -9.5038 0.0000 15.7859 0.0000
# 6 0.0000 0.0000 0.0000 -28.8699 0.0000 30.0613
#
#
#
# Elastic Compliance Matrix: (Units=1/GPa)
#
#
# Indices 1 2 3 4 5 6 
#
# 1 0.011946 -0.003392 0.001377 0.000000 0.008880 0.000000
# 2 -0.003392 0.022774 -0.010837 0.000000 -0.006604 0.000000
# 3 0.001377 -0.010837 0.020905 0.000000 0.012457 0.000000
# 4 0.000000 0.000000 0.000000 0.018360 0.000000 0.017632
# 5 0.008880 -0.006604 0.012457 0.000000 0.076418 0.000000
# 6 0.000000 0.000000 0.000000 0.017632 0.000000 0.050199
#
#
# Mechanical properties :
#
#
# Convention : Reuss Voigt Hill
#
# Bulk Modulus (GPa) = 33.42199 37.03875 35.23037
# Shear Modulus (GPa) = 21.16142 37.00141 29.08142
#
# Velocity S-wave (km/s) = 3.43763 4.54565 4.02990
# Velocity P-wave (km/s) = 5.86689 6.94509 6.42864
#
# Compressibility (1/GPa) = 0.02992042
#
# Stress axis : x y z
#
# Youngs Moduli (GPa) = 83.71038 43.90990 47.83635
#
# Poissons Ratio (x) = 0.14893 -0.06587
# Poissons Ratio (y) = 0.28393 0.51841
# Poissons Ratio (z) = -0.11527 0.47586
#
# Static dielectric constant tensor:
#      x y z
#    x 1.601540 0.000000 -0.023070 
#    y 0.000000 1.599300 0.000000 
#    z -0.023070 0.000000 1.566260 
# 
# From -- ./inp_files/298075.got.cif
#   From: 2010.05.17/outbox.cif.g08.bks.cpg/sg12_150_cif.got.tgz:298075.got - 2010.06.03 13:09:07.
