data_PCOD9168048
_publ_section_title
;
Structure prediction by ZEFSAII (Michael W. Deem and Ramdas Pophale) SiO2 
 PCOD9168048
Probable space group: P 21/M
;
_chemical_formula_sum "Si O2"
_cell_formula_units_Z 32
_cell_length_a 12.000000
_cell_length_b 15.000000
_cell_length_c 15.000000
_cell_angle_alpha 90.000000
_cell_angle_beta 40.000000
_cell_angle_gamma 90.000000
_cell_volume 1735.526546
_symmetry_space_group_name_H-M "P 21/M"
_symmetry_group_IT_number 11
_symmetry_cell_setting 'monoclinic'
loop_
_space_group_symop_operation_xyz
x,y,z
-x,1/2+y,-z
-x,-y,-z
x,1/2-y,z
loop_
_atom_site_type_symbol
_atom_site_label
_atom_site_fract_x
_atom_site_fract_y
_atom_site_fract_z
Si Si1 0.158460 0.645056 0.214103
Si Si2 0.564402 0.644290 0.791765
Si Si3 0.303573 0.959240 0.822074
Si Si4 0.170566 0.855072 0.728498
Si Si5 0.543210 0.644937 0.016148
Si Si6 0.838888 0.976051 0.919150
Si Si7 0.405609 0.539558 0.465639
Si Si8 0.875467 0.947926 0.503416
O O1 0.155212 0.750000 0.186769
O O2 0.338240 0.633085 0.158542
O O3 0.152752 0.569692 0.139927
O O4 0.999205 0.619451 0.374257
O O5 0.553099 0.750000 0.788391
O O6 0.416605 0.599686 0.821854
O O7 0.741678 0.605726 0.645784
O O8 0.555910 0.625396 0.902403
O O9 0.233977 0.898432 0.783682
O O10 0.431795 0.033599 0.700983
O O11 0.166334 0.003884 0.972236
O O12 0.137108 0.750000 0.758290
O O13 0.315736 0.873955 0.563612
O O14 0.002538 0.911958 0.801760
O O15 0.587546 0.750000 0.003454
O O16 0.667968 0.578644 0.993006
O O17 0.500000 0.500000 0.500000
O O18 0.248431 0.495335 0.499064
O O19 0.000000 0.000000 0.500000
#
# Coordination Sequence:
#
# PCOD9168048 Si02
#       8
#     4   4   4   4   4   4   4   4
#     4  11  23  38  59  91 127 163 205 254 316 373
#     4  10  20  36  58  89 119 155 205 254 302 367
#     4  10  22  38  66  86 121 160 210 253 309 363
#     4  11  23  42  65  91 121 164 212 257 309 370
#     4  10  22  38  59  90 125 163 203 247 313 379
#     4  12  22  39  63  90 127 166 200 256 311 370
#     4   9  21  42  63  87 120 163 207 253 314 376
#     4  11  22  37  62  91 122 161 208 262 317 367
#
# _framework density 18.438207999999999
#
# number of rings (size 3 to 8) (size 9 to 14) (size 15 to 20)
#    0.000    1.500    2.500    2.625    3.500    0.500 
#    0.000    2.500    0.000    0.000    0.000    0.000 
#    0.000    0.000    0.000    0.000    0.000    0.000 
#
# Total GULP energy -178208.041586 kJ/mol
# GULP energy per Si atom -5569.001300 kJ/mol
# Density = 1.839624 g / cm^3
# Si number density = 18.438208 Si / 1000 Ang^3
#
#
#
# Elastic Constant Matrix: (Units=GPa)
#
#
# Indices 1 2 3 4 5 6 
#
# 1 88.5931 28.9567 0.7133 0.0000 -2.3968 0.0000
# 2 28.9567 100.8918 32.3418 0.0000 -3.6280 0.0000
# 3 0.7133 32.3418 41.9442 0.0000 -18.7102 0.0000
# 4 0.0000 0.0000 0.0000 24.0725 0.0000 0.0351
# 5 -2.3968 -3.6280 -18.7102 0.0000 22.5540 0.0000
# 6 0.0000 0.0000 0.0000 0.0351 0.0000 31.1986
#
#
#
# Elastic Compliance Matrix: (Units=1/GPa)
#
#
# Indices 1 2 3 4 5 6 
#
# 1 0.013333 -0.005901 0.007195 0.000000 0.006436 0.000000
# 2 -0.005901 0.017373 -0.019571 0.000000 -0.014068 0.000000
# 3 0.007195 -0.019571 0.059919 0.000000 0.047324 0.000000
# 4 0.000000 0.000000 0.000000 0.041541 0.000000 -0.000047
# 5 0.006436 -0.014068 0.047324 0.000000 0.082018 0.000000
# 6 0.000000 0.000000 0.000000 -0.000047 0.000000 0.032053
#
#
# Mechanical properties :
#
#
# Convention : Reuss Voigt Hill
#
# Bulk Modulus (GPa) = 18.49465 39.49475 28.99470
# Shear Modulus (GPa) = 16.62149 26.85950 21.74049
#
# Velocity S-wave (km/s) = 3.00571 3.82085 3.43753
# Velocity P-wave (km/s) = 4.70086 6.39780 5.61382
#
# Compressibility (1/GPa) = 0.05406970
#
# Stress axis : x y z
#
# Youngs Moduli (GPa) = 75.00392 57.56019 16.68911
#
# Poissons Ratio (x) = 0.33969 -0.12007
# Poissons Ratio (y) = 0.44263 0.32662
# Poissons Ratio (z) = -0.53962 1.12650
#
# Static dielectric constant tensor:
#      x y z
#    x 1.647180 0.000000 -0.022310 
#    y 0.000000 1.621280 0.000000 
#    z -0.022310 0.000000 1.681220 
# 
# From -- ./inp_files/50384.got.cif
#   From: 2010.05.17/outbox.ucp.g08.bks.cvg/sg11_26_cif.got.tgz:50384.got - 2010.06.11 11:38:39.
