data_PCOD9168077
_publ_section_title
;
Structure prediction by ZEFSAII (Michael W. Deem and Ramdas Pophale) SiO2 
 PCOD9168077
Probable space group: P 21/M
;
_chemical_formula_sum "Si O2"
_cell_formula_units_Z 32
_cell_length_a 9.000000
_cell_length_b 12.000000
_cell_length_c 30.000000
_cell_angle_alpha 90.000000
_cell_angle_beta 150.000000
_cell_angle_gamma 90.000000
_cell_volume 1620.000000
_symmetry_space_group_name_H-M "P 21/M"
_symmetry_group_IT_number 11
_symmetry_cell_setting 'monoclinic'
loop_
_space_group_symop_operation_xyz
x,y,z
-x,1/2+y,-z
-x,-y,-z
x,1/2-y,z
loop_
_atom_site_type_symbol
_atom_site_label
_atom_site_fract_x
_atom_site_fract_y
_atom_site_fract_z
Si Si1 0.763952 0.125104 0.036446
Si Si2 0.220188 0.032755 0.097157
Si Si3 0.191823 0.500412 0.859767
Si Si4 0.471139 0.511709 0.421901
Si Si5 0.392472 0.619065 0.309907
Si Si6 0.126129 0.878696 0.755652
Si Si7 0.156029 0.624245 0.415400
Si Si8 0.506172 0.381153 0.762692
O O1 0.662385 0.250000 0.021480
O O2 0.837981 0.052735 0.099175
O O3 0.052516 0.127720 0.080852
O O4 0.511499 0.058225 0.943789
O O5 0.263181 0.932165 0.143188
O O6 0.555131 0.068343 0.173510
O O7 0.000000 0.000000 0.000000
O O8 0.129065 0.600092 0.809419
O O9 0.959172 0.406478 0.783691
O O10 0.527623 0.556817 0.387352
O O11 0.383296 0.608078 0.433925
O O12 0.737858 0.448883 0.515591
O O13 0.174145 0.434821 0.341395
O O14 0.451699 0.750000 0.328915
O O15 0.488661 0.575140 0.286558
O O16 0.124229 0.750000 0.743100
O O17 0.145445 0.750000 0.428634
O O18 0.832862 0.598831 0.311534
O O19 0.563148 0.250000 0.774909
#
# Coordination Sequence:
#
# PCOD9168077 Si02
#       8
#     4   4   4   4   4   4   4   4
#     4  11  22  37  57  79 111 153 195 243 292 340
#     4  12  23  41  55  86 120 153 200 241 292 349
#     4  10  21  38  55  82 113 145 197 242 283 348
#     4  10  21  36  61  92 118 147 192 245 283 353
#     4  10  20  37  61  86 117 155 193 238 287 340
#     4  11  22  38  58  82 115 152 188 237 297 345
#     4  10  20  38  62  88 119 153 189 237 294 346
#     4  10  22  40  62  85 116 155 196 241 293 346
#
# _framework density 19.753086
#
# number of rings (size 3 to 8) (size 9 to 14) (size 15 to 20)
#    0.000    1.500    3.750    1.875    0.000    1.500 
#    0.000    0.000    0.000    0.000    0.000    0.000 
#    0.000    0.000    0.000    0.000    0.000    0.000 
#
# Total GULP energy -178194.275267 kJ/mol
# GULP energy per Si atom -5568.571102 kJ/mol
# Density = 1.970813 g / cm^3
# Si number density = 19.753086 Si / 1000 Ang^3
#
#
#
# Elastic Constant Matrix: (Units=GPa)
#
#
# Indices 1 2 3 4 5 6 
#
# 1 35.4649 14.3171 -4.0420 0.0000 -6.2947 0.0000
# 2 14.3171 65.2378 25.5407 0.0000 -7.3873 0.0000
# 3 -4.0420 25.5407 39.8198 0.0000 -8.5296 0.0000
# 4 0.0000 0.0000 0.0000 14.9714 0.0000 3.9815
# 5 -6.2947 -7.3873 -8.5296 0.0000 21.4830 0.0000
# 6 0.0000 0.0000 0.0000 3.9815 0.0000 12.0522
#
#
#
# Elastic Compliance Matrix: (Units=1/GPa)
#
#
# Indices 1 2 3 4 5 6 
#
# 1 0.036974 -0.012316 0.014281 0.000000 0.012269 0.000000
# 2 -0.012316 0.024649 -0.017507 0.000000 -0.002083 0.000000
# 3 0.014281 -0.017507 0.040875 0.000000 0.014393 0.000000
# 4 0.000000 0.000000 0.000000 0.073228 0.000000 -0.024191
# 5 0.012269 -0.002083 0.014393 0.000000 0.055141 0.000000
# 6 0.000000 0.000000 0.000000 -0.024191 0.000000 0.090964
#
#
# Mechanical properties :
#
#
# Convention : Reuss Voigt Hill
#
# Bulk Modulus (GPa) = 14.00284 23.57268 18.78776
# Shear Modulus (GPa) = 13.27245 16.68175 14.97710
#
# Velocity S-wave (km/s) = 2.59495 2.90920 2.75656
# Velocity P-wave (km/s) = 4.01032 4.82122 4.43435
#
# Compressibility (1/GPa) = 0.07141408
#
# Stress axis : x y z
#
# Youngs Moduli (GPa) = 27.04602 40.56893 24.46497
#
# Poissons Ratio (x) = 0.49965 -0.34938
# Poissons Ratio (y) = 0.33310 0.42830
# Poissons Ratio (z) = -0.38624 0.71023
#
# Static dielectric constant tensor:
#      x y z
#    x 1.782640 0.000000 0.029870 
#    y 0.000000 1.681650 0.000000 
#    z 0.029870 0.000000 1.680190 
# 
# From -- ./inp_files/29244.got.cif
#   From: 2010.05.17/outbox.ucp.g08.bks.cvg/sg11_15_cif.got.tgz:29244.got - 2010.06.11 11:38:39.
