data_PCOD9168384
_publ_section_title
;
Structure prediction by ZEFSAII (Michael W. Deem and Ramdas Pophale) SiO2 
 PCOD9168384
Probable space group: C 2/M
;
_chemical_formula_sum "Si O2"
_cell_formula_units_Z 40
_cell_length_a 9.040795
_cell_length_b 23.162881
_cell_length_c 12.345545
_cell_angle_alpha 90.000000
_cell_angle_beta 128.993183
_cell_angle_gamma 90.000000
_cell_volume 2009.342162
_symmetry_space_group_name_H-M "C 2/M"
_symmetry_group_IT_number 12
_symmetry_cell_setting 'monoclinic'
loop_
_space_group_symop_operation_xyz
x,y,z
-x,y,-z
-x,-y,-z
x,-y,z
1/2+x,1/2+y,z
1/2-x,1/2+y,-z
1/2-x,1/2-y,-z
1/2+x,1/2-y,z
loop_
_atom_site_type_symbol
_atom_site_label
_atom_site_fract_x
_atom_site_fract_y
_atom_site_fract_z
Si Si1 0.959528 0.414298 0.257834
Si Si2 0.195974 0.294127 0.814475
Si Si3 0.703372 0.500000 0.539063
Si Si4 0.130741 0.066150 0.954080
Si Si5 0.564723 0.316905 0.853462
Si Si6 0.202933 0.500000 0.651964
O O1 0.956575 0.345429 0.268249
O O2 0.849054 0.429403 0.095552
O O3 0.816990 0.444141 0.280626
O O4 0.160872 0.445619 0.365541
O O5 0.353005 0.302359 0.794791
O O6 0.123785 0.228847 0.790254
O O7 0.302070 0.306135 0.978662
O O8 0.500000 0.500000 0.500000
O O9 0.667838 0.500000 0.393506
O O10 0.086820 0.000000 0.905913
O O11 0.090185 0.114944 0.846670
O O12 0.000000 0.080680 0.000000
O O13 0.000000 0.500000 0.500000
#
# Coordination Sequence:
#
# PCOD9168384 Si02
#       6
#     8   8   4   8   8   4
#     4   9  15  30  51  74 100 141 180 209 259 317
#     4   9  16  28  45  71 102 139 182 206 251 295
#     4  10  20  34  52  79 108 131 167 231 292 315
#     4  10  15  24  47  79 107 140 176 216 245 302
#     4   9  16  27  43  73 104 142 177 212 239 301
#     4   8  16  30  50  75  92 124 180 224 253 315
#
# _framework density 19.907012999999999
#
# number of rings (size 3 to 8) (size 9 to 14) (size 15 to 20)
#    0.000    3.000    6.000    0.000    0.000    0.000 
#    0.000    2.000    0.000    4.800    2.600   23.800 
#    0.000    0.000    0.000    0.000    0.000    0.000 
#
# Total GULP energy -111354.480328 kJ/mol
# GULP energy per Si atom -5567.724016 kJ/mol
# Density = 1.986170 g / cm^3
# Si number density = 19.907013 Si / 1000 Ang^3
#
#
#
# Elastic Constant Matrix: (Units=GPa)
#
#
# Indices 1 2 3 4 5 6 
#
# 1 78.3391 48.0088 30.2279 0.0000 15.6717 0.0000
# 2 48.0088 201.1523 28.4189 0.0000 6.6691 0.0000
# 3 30.2279 28.4189 55.5202 0.0000 13.3919 0.0000
# 4 0.0000 0.0000 0.0000 16.6361 0.0000 6.7139
# 5 15.6717 6.6691 13.3919 0.0000 17.3437 0.0000
# 6 0.0000 0.0000 0.0000 6.7139 0.0000 19.3342
#
#
#
# Elastic Compliance Matrix: (Units=1/GPa)
#
#
# Indices 1 2 3 4 5 6 
#
# 1 0.019534 -0.003417 -0.006077 0.000000 -0.011644 0.000000
# 2 -0.003417 0.005957 -0.001697 0.000000 0.002108 0.000000
# 3 -0.006077 -0.001697 0.025446 0.000000 -0.013504 0.000000
# 4 0.000000 0.000000 0.000000 0.069907 0.000000 -0.024276
# 5 -0.011644 0.002108 -0.013504 0.000000 0.077796 0.000000
# 6 0.000000 0.000000 0.000000 -0.024276 0.000000 0.060151
#
#
# Mechanical properties :
#
#
# Convention : Reuss Voigt Hill
#
# Bulk Modulus (GPa) = 35.02185 60.92476 47.97330
# Shear Modulus (GPa) = 17.20030 25.88653 21.54342
#
# Velocity S-wave (km/s) = 2.94263 3.60998 3.29325
# Velocity P-wave (km/s) = 5.40151 6.93160 6.21383
#
# Compressibility (1/GPa) = 0.02855360
#
# Stress axis : x y z
#
# Youngs Moduli (GPa) = 51.19367 167.87403 39.29873
#
# Poissons Ratio (x) = 0.57370 0.23883
# Poissons Ratio (y) = 0.17495 0.06668
# Poissons Ratio (z) = 0.31111 0.28486
#
# Static dielectric constant tensor:
#      x y z
#    x 1.731100 0.000000 0.020430 
#    y 0.000000 1.767970 0.000000 
#    z 0.020430 0.000000 1.765420 
# 
# From -- ./inp_files/198107.got.cif
#   From: 2010.05.17/outbox.cif.g08.bks.cpg/sg12_100_cif.got.tgz:198107.got - 2010.06.03 13:09:07.
