data_PCOD9168984
_publ_section_title
;
Structure prediction by ZEFSAII (Michael W. Deem and Ramdas Pophale) SiO2 
 PCOD9168984
Probable space group: C 2/M
;
_chemical_formula_sum "Si O2"
_cell_formula_units_Z 58
_cell_length_a 8.841713
_cell_length_b 18.497706
_cell_length_c 19.571858
_cell_angle_alpha 90.000000
_cell_angle_beta 108.252890
_cell_angle_gamma 90.000000
_cell_volume 3039.941014
_symmetry_space_group_name_H-M "C 2/M"
_symmetry_group_IT_number 12
_symmetry_cell_setting 'monoclinic'
loop_
_space_group_symop_operation_xyz
x,y,z
-x,y,-z
-x,-y,-z
x,-y,z
1/2+x,1/2+y,z
1/2-x,1/2+y,-z
1/2-x,1/2-y,-z
1/2+x,1/2-y,z
loop_
_atom_site_type_symbol
_atom_site_label
_atom_site_fract_x
_atom_site_fract_y
_atom_site_fract_z
Si Si1 0.288746 0.247113 0.889662
Si Si2 0.000000 0.000000 0.000000
Si Si3 0.571261 0.083790 0.696986
Si Si4 0.600424 0.194632 0.582899
Si Si5 0.927228 0.142683 0.076248
Si Si6 0.964688 0.692992 0.785601
Si Si7 0.040508 0.805509 0.340707
Si Si8 0.545303 0.584016 0.236414
O O1 0.428159 0.303970 0.926158
O O2 0.339894 0.204044 0.828311
O O3 0.233809 0.190014 0.939642
O O4 0.133393 0.292091 0.845957
O O5 0.076696 0.066187 0.963028
O O6 0.541255 0.131232 0.625237
O O7 0.477283 0.117953 0.747264
O O8 0.761617 0.092264 0.738111
O O9 0.537439 0.000000 0.682261
O O10 0.500000 0.195869 0.500000
O O11 0.788434 0.185276 0.599503
O O12 0.575428 0.267995 0.622487
O O13 0.974501 0.123709 0.161053
O O14 0.940457 0.752496 0.722442
O O15 0.988576 0.879816 0.298657
O O16 0.508193 0.500000 0.227969
#
# Coordination Sequence:
#
# PCOD9168984 Si02
#       8
#     8   2   8   8   8   8   8   8
#     4  10  19  34  63  87 112 146 188 237 288 329
#     4  12  28  44  60  90 128 162 192 218 276 372
#     4   9  18  30  49  80 111 144 184 235 290 334
#     4  10  20  32  49  73 108 152 187 231 287 348
#     4  11  22  39  63  88 118 155 189 235 281 347
#     4  10  16  31  55  87 109 134 181 245 289 324
#     4  10  18  30  53  78 105 134 190 240 281 333
#     4  10  17  31  56  83 105 141 188 237 286 336
#
# _framework density 19.079317
#
# number of rings (size 3 to 8) (size 9 to 14) (size 15 to 20)
#    0.000    1.931    4.828    2.069    0.000    0.828 
#    1.241    0.000    0.000    3.724    0.000    0.000 
#    0.000    0.000    0.000    0.000    0.000    0.000 
#
# Total GULP energy -161551.995162 kJ/mol
# GULP energy per Si atom -5570.758454 kJ/mol
# Density = 1.903589 g / cm^3
# Si number density = 19.079317 Si / 1000 Ang^3
#
#
#
# Elastic Constant Matrix: (Units=GPa)
#
#
# Indices 1 2 3 4 5 6 
#
# 1 54.6080 26.3965 8.7112 0.0000 -8.9351 0.0000
# 2 26.3965 116.3707 24.6792 0.0000 -9.2436 0.0000
# 3 8.7112 24.6792 53.0591 0.0000 -2.4354 0.0000
# 4 0.0000 0.0000 0.0000 17.3471 0.0000 -6.3390
# 5 -8.9351 -9.2436 -2.4354 0.0000 18.0042 0.0000
# 6 0.0000 0.0000 0.0000 -6.3390 0.0000 25.0573
#
#
#
# Elastic Compliance Matrix: (Units=1/GPa)
#
#
# Indices 1 2 3 4 5 6 
#
# 1 0.021866 -0.003991 -0.001338 0.000000 0.008621 0.000000
# 2 -0.003991 0.010609 -0.004146 0.000000 0.002905 0.000000
# 3 -0.001338 -0.004146 0.020997 0.000000 0.000048 0.000000
# 4 0.000000 0.000000 0.000000 0.063518 0.000000 0.016069
# 5 0.008621 0.002905 0.000048 0.000000 0.061319 0.000000
# 6 0.000000 0.000000 0.000000 0.016069 0.000000 0.043974
#
#
# Mechanical properties :
#
#
# Convention : Reuss Voigt Hill
#
# Bulk Modulus (GPa) = 28.96715 38.17905 33.57310
# Shear Modulus (GPa) = 19.78323 23.03176 21.40750
#
# Velocity S-wave (km/s) = 3.22358 3.47819 3.35330
# Velocity P-wave (km/s) = 5.39173 6.01536 5.71206
#
# Compressibility (1/GPa) = 0.03452186
#
# Stress axis : x y z
#
# Youngs Moduli (GPa) = 45.73368 94.26387 47.62586
#
# Poissons Ratio (x) = 0.37624 0.06371
# Poissons Ratio (y) = 0.18254 0.19744
# Poissons Ratio (z) = 0.06118 0.39079
#
# Static dielectric constant tensor:
#      x y z
#    x 1.685120 0.000000 -0.010810 
#    y 0.000000 1.665050 0.000000 
#    z -0.010810 0.000000 1.660940 
# 
# From -- ./inp_files/300740.got.cif
#   From: 2010.05.17/outbox.cif.g08.bks.cpg/sg12_151_cif.got.tgz:300740.got - 2010.06.03 13:09:07.
