data_PCOD9168042
_publ_section_title
;
Structure prediction by ZEFSAII (Michael W. Deem and Ramdas Pophale) SiO2 
 PCOD9168042
Probable space group: P 21/M
;
_chemical_formula_sum "Si O2"
_cell_formula_units_Z 28
_cell_length_a 12.000000
_cell_length_b 9.000000
_cell_length_c 15.000000
_cell_angle_alpha 90.000000
_cell_angle_beta 120.000000
_cell_angle_gamma 90.000000
_cell_volume 1402.961154
_symmetry_space_group_name_H-M "P 21/M"
_symmetry_group_IT_number 11
_symmetry_cell_setting 'monoclinic'
loop_
_space_group_symop_operation_xyz
x,y,z
-x,1/2+y,-z
-x,-y,-z
x,1/2-y,z
loop_
_atom_site_type_symbol
_atom_site_label
_atom_site_fract_x
_atom_site_fract_y
_atom_site_fract_z
Si Si1 0.329911 0.080144 0.498358
Si Si2 0.005904 0.928530 0.098348
Si Si3 0.859580 0.926103 0.205290
Si Si4 0.971366 0.918175 0.579742
Si Si5 0.498549 0.422289 0.724347
Si Si6 0.740224 0.418967 0.704463
Si Si7 0.563600 0.572100 0.110300
O O1 0.376118 0.250000 0.503915
O O2 0.410679 0.010583 0.611341
O O3 0.181084 0.082084 0.466277
O O4 0.329959 0.998581 0.404657
O O5 0.018312 0.750000 0.093724
O O6 0.127369 0.983609 0.205443
O O7 0.884730 0.963570 0.112238
O O8 0.000000 0.000000 0.000000
O O9 0.881208 0.750000 0.223065
O O10 0.714834 0.959153 0.173188
O O11 0.957880 0.005139 0.310012
O O12 0.017298 0.750000 0.591650
O O13 0.000000 0.000000 0.500000
O O14 0.451920 0.250000 0.714398
O O15 0.642466 0.418585 0.747053
O O16 0.491238 0.488201 0.818839
O O17 0.766492 0.250000 0.685902
O O18 0.544905 0.750000 0.096880
O O19 0.500000 0.500000 0.000000
#
# Coordination Sequence:
#
# PCOD9168042 Si02
#       7
#     4   4   4   4   4   4   4
#     4  10  20  36  57  84 114 147 186 227 279 338
#     4  10  22  37  57  84 114 149 189 235 286 336
#     4  10  21  40  60  82 115 151 188 237 288 336
#     4  11  22  35  57  86 116 153 191 233 282 339
#     4   9  19  36  57  81 112 149 185 225 280 336
#     4  10  20  36  58  84 113 147 184 229 281 333
#     4  10  22  40  61  82 111 150 190 236 283 336
#
# _framework density 19.957787
#
# number of rings (size 3 to 8) (size 9 to 14) (size 15 to 20)
#    0.000    2.000    1.429    1.714    2.000    4.571 
#    0.000    1.429    0.000    0.000    0.000    0.000 
#    0.000    0.000    0.000    0.000    0.000    0.000 
#
# Total GULP energy -156147.980186 kJ/mol
# GULP energy per Si atom -5576.713578 kJ/mol
# Density = 1.991236 g / cm^3
# Si number density = 19.957787 Si / 1000 Ang^3
#
#
#
# Elastic Constant Matrix: (Units=GPa)
#
#
# Indices 1 2 3 4 5 6 
#
# 1 54.6162 33.6987 40.6064 0.0000 -27.3358 0.0000
# 2 33.6987 -27.3393 8.4331 0.0000 0.5235 0.0000
# 3 40.6064 8.4331 89.8072 0.0000 -26.7295 0.0000
# 4 0.0000 0.0000 0.0000 29.7858 0.0000 -3.9005
# 5 -27.3358 0.5235 -26.7295 0.0000 30.1483 0.0000
# 6 0.0000 0.0000 0.0000 -3.9005 0.0000 13.5761
#
#
#
# Elastic Compliance Matrix: (Units=1/GPa)
#
#
# Indices 1 2 3 4 5 6 
#
# 1 0.016239 0.018186 -0.006469 0.000000 0.008673 0.000000
# 2 0.018186 -0.014663 -0.002530 0.000000 0.014501 0.000000
# 3 -0.006469 -0.002530 0.017069 0.000000 0.009312 0.000000
# 4 0.000000 0.000000 0.000000 0.034886 0.000000 0.010023
# 5 0.008673 0.014501 0.009312 0.000000 0.049037 0.000000
# 6 0.000000 0.000000 0.000000 0.010023 0.000000 0.076539
#
#
# Mechanical properties :
#
#
# Convention : Reuss Voigt Hill
#
# Bulk Modulus (GPa) = 27.01285 31.39561 29.20423
# Shear Modulus (GPa) = 28.89005 16.99177 22.94091
#
# Velocity S-wave (km/s) = 3.80881 2.92102 3.39406
# Velocity P-wave (km/s) = 5.73647 5.20976 5.47945
#
# Compressibility (1/GPa) = 0.03701942
#
# Stress axis : x y z
#
# Youngs Moduli (GPa) = 61.58184 -68.19738 58.58598
#
# Poissons Ratio (x) = 1.24027 0.37898
# Poissons Ratio (y) = -1.11996 0.14823
# Poissons Ratio (z) = 0.39836 -0.17254
#
# Static dielectric constant tensor:
#      x y z
#    x 1.731400 0.000000 -0.009820 
#    y 0.000000 1.711950 0.000000 
#    z -0.009820 0.000000 1.658950 
# 
# From -- ./inp_files/38412.got.cif
#   From: 2010.05.17/outbox.ucp.g08.bks.cvg/sg11_20_cif.got.tgz:38412.got - 2010.06.11 11:38:39.
