data_PCOD9168106
_publ_section_title
;
Structure prediction by ZEFSAII (Michael W. Deem and Ramdas Pophale) SiO2 
 PCOD9168106
Probable space group: P 21/M
;
_chemical_formula_sum "Si O2"
_cell_formula_units_Z 32
_cell_length_a 15.000000
_cell_length_b 9.000000
_cell_length_c 24.000000
_cell_angle_alpha 90.000000
_cell_angle_beta 150.000000
_cell_angle_gamma 90.000000
_cell_volume 1620.000000
_symmetry_space_group_name_H-M "P 21/M"
_symmetry_group_IT_number 11
_symmetry_cell_setting 'monoclinic'
loop_
_space_group_symop_operation_xyz
x,y,z
-x,1/2+y,-z
-x,-y,-z
x,1/2-y,z
loop_
_atom_site_type_symbol
_atom_site_label
_atom_site_fract_x
_atom_site_fract_y
_atom_site_fract_z
Si Si1 0.072996 0.928804 0.483385
Si Si2 0.419014 0.925945 0.605875
Si Si3 0.833440 0.080158 0.978082
Si Si4 0.679572 0.074697 0.574891
Si Si5 0.923451 0.930631 0.192574
Si Si6 0.199907 0.920021 0.173914
Si Si7 0.232280 0.428556 0.771850
Si Si8 0.604935 0.927678 0.937579
O O1 0.081109 0.750000 0.493132
O O2 0.924762 0.963323 0.356537
O O3 0.270777 0.977659 0.570512
O O4 0.000000 0.000000 0.500000
O O5 0.452975 0.750000 0.633112
O O6 0.326070 0.941238 0.495151
O O7 0.608741 0.008785 0.708633
O O8 0.823553 0.250000 0.992407
O O9 0.668050 0.986547 0.911938
O O10 0.818685 0.081194 0.903231
O O11 0.023861 0.008565 0.097914
O O12 0.669026 0.250000 0.581959
O O13 0.870885 0.017554 0.701139
O O14 0.500000 0.000000 0.500000
O O15 0.933031 0.750000 0.196732
O O16 0.841301 0.973850 0.207677
O O17 0.774101 0.974843 0.067210
O O18 0.191341 0.750000 0.189911
O O19 0.258140 0.250000 0.786065
O O20 0.419239 0.503699 0.857280
O O21 0.591572 0.750000 0.931206
#
# Coordination Sequence:
#
# PCOD9168106 Si02
#       8
#     4   4   4   4   4   4   4   4
#     4  10  22  39  61  87 117 156 198 242 293 348
#     4  10  21  39  62  88 119 158 197 239 296 359
#     4  10  22  41  60  84 117 154 193 237 289 350
#     4  10  21  39  61  87 118 155 197 241 294 353
#     4   9  19  39  62  82 113 153 193 239 291 346
#     4  10  22  39  61  85 115 153 193 239 291 344
#     4  10  20  40  63  82 113 156 196 238 292 350
#     4  11  23  36  58  90 118 148 192 243 292 343
#
# _framework density 19.753086
#
# number of rings (size 3 to 8) (size 9 to 14) (size 15 to 20)
#    0.000    2.000    1.250    1.500    3.500    3.000 
#    0.000    1.875    0.000    0.000    0.000    0.000 
#    0.000    0.000    0.000    0.000    0.000    0.000 
#
# Total GULP energy -178689.273378 kJ/mol
# GULP energy per Si atom -5584.039793 kJ/mol
# Density = 1.970813 g / cm^3
# Si number density = 19.753086 Si / 1000 Ang^3
#
#
#
# Elastic Constant Matrix: (Units=GPa)
#
#
# Indices 1 2 3 4 5 6 
#
# 1 73.4113 11.3605 3.3244 0.0000 23.2098 0.0000
# 2 11.3605 42.4860 30.2619 0.0000 9.2337 0.0000
# 3 3.3244 30.2619 80.8461 0.0000 32.3300 0.0000
# 4 0.0000 0.0000 0.0000 34.0580 0.0000 8.2948
# 5 23.2098 9.2337 32.3300 0.0000 41.4745 0.0000
# 6 0.0000 0.0000 0.0000 8.2948 0.0000 26.9746
#
#
#
# Elastic Compliance Matrix: (Units=1/GPa)
#
#
# Indices 1 2 3 4 5 6 
#
# 1 0.019383 -0.007732 0.008349 0.000000 -0.015634 0.000000
# 2 -0.007732 0.035478 -0.016757 0.000000 0.009491 0.000000
# 3 0.008349 -0.016757 0.027133 0.000000 -0.022092 0.000000
# 4 0.000000 0.000000 0.000000 0.031739 0.000000 -0.009760
# 5 -0.015634 0.009491 -0.022092 0.000000 0.047968 0.000000
# 6 0.000000 0.000000 0.000000 -0.009760 0.000000 0.040073
#
#
# Mechanical properties :
#
#
# Convention : Reuss Voigt Hill
#
# Bulk Modulus (GPa) = 20.11527 31.84857 25.98192
# Shear Modulus (GPa) = 19.95008 30.62120 25.28564
#
# Velocity S-wave (km/s) = 3.18145 3.94153 3.58171
# Velocity P-wave (km/s) = 4.86837 6.07227 5.50334
#
# Compressibility (1/GPa) = 0.04971348
#
# Stress axis : x y z
#
# Youngs Moduli (GPa) = 51.59106 28.18663 36.85563
#
# Poissons Ratio (x) = 0.21794 -0.30771
# Poissons Ratio (y) = 0.39890 0.61760
# Poissons Ratio (z) = -0.43074 0.47233
#
# Static dielectric constant tensor:
#      x y z
#    x 1.719840 0.000000 -0.043100 
#    y 0.000000 1.680740 0.000000 
#    z -0.043100 0.000000 1.685970 
# 
# From -- ./inp_files/55511.got.cif
#   From: 2010.05.17/outbox.ucp.g08.bks.cvg/sg11_28_cif.got.tgz:55511.got - 2010.06.11 11:38:39.
