data_PCOD9168755
_publ_section_title
;
Structure prediction by ZEFSAII (Michael W. Deem and Ramdas Pophale) SiO2 
 PCOD9168755
Probable space group: C 2/M
;
_chemical_formula_sum "Si O2"
_cell_formula_units_Z 44
_cell_length_a 12.225219
_cell_length_b 20.827457
_cell_length_c 11.931442
_cell_angle_alpha 90.000000
_cell_angle_beta 130.281449
_cell_angle_gamma 90.000000
_cell_volume 2317.612110
_symmetry_space_group_name_H-M "C 2/M"
_symmetry_group_IT_number 12
_symmetry_cell_setting 'monoclinic'
loop_
_space_group_symop_operation_xyz
x,y,z
-x,y,-z
-x,-y,-z
x,-y,z
1/2+x,1/2+y,z
1/2-x,1/2+y,-z
1/2-x,1/2-y,-z
1/2+x,1/2-y,z
loop_
_atom_site_type_symbol
_atom_site_label
_atom_site_fract_x
_atom_site_fract_y
_atom_site_fract_z
Si Si1 0.000000 0.270892 0.000000
Si Si2 0.241186 0.682896 0.733923
Si Si3 0.434685 0.657959 0.270683
Si Si4 0.966474 0.302840 0.212989
Si Si5 0.296055 0.688337 0.400473
Si Si6 0.049021 0.074750 0.162216
O O1 0.126401 0.224719 0.127898
O O2 0.940598 0.312271 0.063980
O O3 0.174611 0.735526 0.604808
O O4 0.311545 0.619600 0.730458
O O5 0.132311 0.664466 0.760348
O O6 0.431416 0.727376 0.209343
O O7 0.318628 0.655852 0.293348
O O8 0.585769 0.660335 0.438383
O O9 0.436666 0.604307 0.176762
O O10 0.135028 0.316571 0.337613
O O11 0.073767 0.000000 0.200059
O O12 0.000000 0.081794 0.000000
#
# Coordination Sequence:
#
# PCOD9168755 Si02
#       6
#     4   8   8   8   8   8
#     4  10  16  28  45  78 107 134 164 210 266 314
#     4  10  18  31  49  77 107 135 169 214 262 315
#     4  10  18  34  52  78 107 133 180 213 259 313
#     4  10  18  27  49  79 108 133 159 216 277 315
#     4   9  19  31  53  81 102 137 166 220 274 311
#     4  11  22  36  54  75 104 145 183 213 246 304
#
# _framework density 18.985057999999999
#
# number of rings (size 3 to 8) (size 9 to 14) (size 15 to 20)
#    0.000    2.000    4.545    1.091    0.000    2.909 
#    0.000    1.818    0.000    3.273    0.000    3.182 
#    0.000    0.000    0.000    0.000    0.000    0.000 
#
# Total GULP energy -122723.834080 kJ/mol
# GULP energy per Si atom -5578.356095 kJ/mol
# Density = 1.894185 g / cm^3
# Si number density = 18.985058 Si / 1000 Ang^3
#
#
#
# Elastic Constant Matrix: (Units=GPa)
#
#
# Indices 1 2 3 4 5 6 
#
# 1 135.5083 22.3228 15.0123 0.0000 -21.2141 0.0000
# 2 22.3228 69.1107 6.8402 0.0000 -10.0633 0.0000
# 3 15.0123 6.8402 58.3808 0.0000 -17.1567 0.0000
# 4 0.0000 0.0000 0.0000 12.6827 0.0000 -2.1248
# 5 -21.2141 -10.0633 -17.1567 0.0000 36.0054 0.0000
# 6 0.0000 0.0000 0.0000 -2.1248 0.0000 13.1636
#
#
#
# Elastic Compliance Matrix: (Units=1/GPa)
#
#
# Indices 1 2 3 4 5 6 
#
# 1 0.008434 -0.002063 -0.000740 0.000000 0.004040 0.000000
# 2 -0.002063 0.015607 -0.000434 0.000000 0.002940 0.000000
# 3 -0.000740 -0.000434 0.020008 0.000000 0.008977 0.000000
# 4 0.000000 0.000000 0.000000 0.081039 0.000000 0.013081
# 5 0.004040 0.002940 0.008977 0.000000 0.035253 0.000000
# 6 0.000000 0.000000 0.000000 0.013081 0.000000 0.078078
#
#
# Mechanical properties :
#
#
# Convention : Reuss Voigt Hill
#
# Bulk Modulus (GPa) = 26.61306 39.03893 32.82599
# Shear Modulus (GPa) = 19.42370 26.95865 23.19118
#
# Velocity S-wave (km/s) = 3.20207 3.77237 3.49886
# Velocity P-wave (km/s) = 5.26492 6.29142 5.80092
#
# Compressibility (1/GPa) = 0.03757554
#
# Stress axis : x y z
#
# Youngs Moduli (GPa) = 118.56975 64.07457 49.97983
#
# Poissons Ratio (x) = 0.13216 0.03697
# Poissons Ratio (y) = 0.24457 0.02170
# Poissons Ratio (z) = 0.08771 0.02782
#
# Static dielectric constant tensor:
#      x y z
#    x 1.726320 0.000000 -0.014350 
#    y 0.000000 1.623880 0.000000 
#    z -0.014350 0.000000 1.759610 
# 
# From -- ./inp_files/134559.got.cif
#   From: 2010.05.17/outbox.cif.g08.bks.cpg/sg12_68_cif.got.tgz:134559.got - 2010.06.03 13:09:07.
