data_PCOD9168484
_publ_section_title
;
Structure prediction by ZEFSAII (Michael W. Deem and Ramdas Pophale) SiO2 
 PCOD9168484
Probable space group: C 2/M
;
_chemical_formula_sum "Si O2"
_cell_formula_units_Z 32
_cell_length_a 9.496142
_cell_length_b 15.060224
_cell_length_c 13.158736
_cell_angle_alpha 90.000000
_cell_angle_beta 35.765907
_cell_angle_gamma 90.000000
_cell_volume 1099.913963
_symmetry_space_group_name_H-M "C 2/M"
_symmetry_group_IT_number 12
_symmetry_cell_setting 'monoclinic'
loop_
_space_group_symop_operation_xyz
x,y,z
-x,y,-z
-x,-y,-z
x,-y,z
1/2+x,1/2+y,z
1/2-x,1/2+y,-z
1/2-x,1/2-y,-z
1/2+x,1/2-y,z
loop_
_atom_site_type_symbol
_atom_site_label
_atom_site_fract_x
_atom_site_fract_y
_atom_site_fract_z
Si Si1 0.906109 0.839992 0.909999
Si Si2 0.591461 0.894208 0.329870
Si Si3 0.570364 0.897505 0.847578
Si Si4 0.420333 0.392476 0.418930
O O1 0.154448 0.843461 0.826692
O O2 0.998244 0.872295 0.745169
O O3 0.750000 0.750000 0.000000
O O4 0.676447 0.900717 0.071942
O O5 0.500000 0.885785 0.500000
O O6 0.354036 0.857856 0.410515
O O7 0.633677 0.000000 0.291886
O O8 0.835787 0.860849 0.665934
O O9 0.630303 0.000000 0.829179
O O10 0.500000 0.860338 0.000000
O O11 0.386460 0.500000 0.451806
#
# Coordination Sequence:
#
# PCOD9168484 Si02
#       4
#     8   8   8   8
#     4  10  16  20  30  55  84  97 108 139 186 225
#     4   8  13  23  38  52  68  93 123 150 173 206
#     4   8  13  23  38  52  68  93 123 150 173 206
#     4   8  14  26  43  55  66  93 128 153 172 205
#
# _framework density 29.093185999999999
#
# number of rings (size 3 to 8) (size 9 to 14) (size 15 to 20)
#    0.000    3.500    0.000    5.250    0.000    0.000 
#    0.000    1.250    0.000    0.000    0.000    0.000 
#    0.000  162.000    0.000    0.000    0.000    0.000 
#
# Total GULP energy -89287.347535 kJ/mol
# GULP energy per Si atom -5580.459221 kJ/mol
# Density = 2.902697 g / cm^3
# Si number density = 29.093186 Si / 1000 Ang^3
#
#
#
# Elastic Constant Matrix: (Units=GPa)
#
#
# Indices 1 2 3 4 5 6 
#
# 1 172.0590 19.5783 93.7557 -0.0060 -70.3180 0.0013
# 2 19.5783 79.7814 42.2583 -0.0144 -10.9716 0.0034
# 3 93.7557 42.2583 381.4889 -0.0191 -71.4944 0.0034
# 4 -0.0060 -0.0144 -0.0191 24.6862 0.0075 -14.3713
# 5 -70.3180 -10.9716 -71.4944 0.0075 85.3696 -0.0013
# 6 0.0013 0.0034 0.0034 -14.3713 -0.0013 14.4525
#
#
#
# Elastic Compliance Matrix: (Units=1/GPa)
#
#
# Indices 1 2 3 4 5 6 
#
# 1 0.009115 -0.000846 -0.000901 -0.000002 0.006644 -0.000002
# 2 -0.000846 0.013417 -0.001288 0.000012 -0.000051 0.000009
# 3 -0.000901 -0.001288 0.003339 0.000002 0.001889 0.000002
# 4 -0.000002 0.000012 0.000002 0.096194 -0.000005 0.095654
# 5 0.006644 -0.000051 0.001889 -0.000005 0.018762 -0.000005
# 6 -0.000002 0.000009 0.000002 0.095654 -0.000005 0.164309
#
#
# Mechanical properties :
#
#
# Convention : Reuss Voigt Hill
#
# Bulk Modulus (GPa) = 50.50116 104.94598 77.72357
# Shear Modulus (GPa) = 15.73285 56.75082 36.24183
#
# Velocity S-wave (km/s) = 2.32798 4.42142 3.53330
# Velocity P-wave (km/s) = 4.96206 7.88770 6.58931
#
# Compressibility (1/GPa) = 0.01980153
#
# Stress axis : x y z
#
# Youngs Moduli (GPa) = 109.71358 74.53246 299.45147
#
# Poissons Ratio (x) = 0.06303 0.26986
# Poissons Ratio (y) = 0.09278 0.38567
# Poissons Ratio (z) = 0.09887 0.09599
#
# Static dielectric constant tensor:
#      x y z
#    x 2.803000 0.000010 0.012810 
#    y 0.000010 3.165770 0.000000 
#    z 0.012810 0.000000 2.222130 
# 
# From -- ./inp_files/74279.got.cif
#   From: 2010.05.17/outbox.cif.g08.bks.cpg/sg12_38_cif.got.tgz:74279.got - 2010.06.03 13:09:07.
