data_PCOD9168032
_publ_section_title
;
Structure prediction by ZEFSAII (Michael W. Deem and Ramdas Pophale) SiO2 
 PCOD9168032
Probable space group: P 21/M
;
_chemical_formula_sum "Si O2"
_cell_formula_units_Z 24
_cell_length_a 12.000000
_cell_length_b 9.000000
_cell_length_c 12.000000
_cell_angle_alpha 90.000000
_cell_angle_beta 110.000000
_cell_angle_gamma 90.000000
_cell_volume 1217.841637
_symmetry_space_group_name_H-M "P 21/M"
_symmetry_group_IT_number 11
_symmetry_cell_setting 'monoclinic'
loop_
_space_group_symop_operation_xyz
x,y,z
-x,1/2+y,-z
-x,-y,-z
x,1/2-y,z
loop_
_atom_site_type_symbol
_atom_site_label
_atom_site_fract_x
_atom_site_fract_y
_atom_site_fract_z
Si Si1 0.960993 0.428030 0.284816
Si Si2 0.749282 0.072473 0.356827
Si Si3 0.762791 0.571250 0.591933
Si Si4 0.892631 0.928792 0.031455
Si Si5 0.324232 0.429845 0.199916
Si Si6 0.456735 0.571597 0.870945
O O1 0.953804 0.250000 0.262492
O O2 0.883485 0.462146 0.366962
O O3 0.905044 0.510220 0.159960
O O4 0.098210 0.467065 0.346169
O O5 0.736124 0.250000 0.364786
O O6 0.669026 0.027151 0.223710
O O7 0.716965 0.997008 0.461623
O O8 0.753773 0.750000 0.582789
O O9 0.700282 0.516853 0.683675
O O10 0.899429 0.750000 0.033191
O O11 0.774698 0.975048 0.924132
O O12 0.000000 0.000000 0.000000
O O13 0.317678 0.250000 0.202778
O O14 0.450125 0.469964 0.193224
O O15 0.457806 0.750000 0.885998
O O16 0.500000 0.500000 0.000000
#
# Coordination Sequence:
#
# PCOD9168032 Si02
#       6
#     4   4   4   4   4   4
#     4  10  20  36  55  79 114 147 181 226 275 321
#     4  10  22  37  55  82 113 143 180 232 275 311
#     4  10  20  36  56  77 108 149 187 222 268 331
#     4  11  20  33  55  82 111 142 180 224 272 325
#     4   9  19  36  56  79 110 147 180 219 272 324
#     4  10  21  39  60  81 109 142 180 225 272 323
#
# _framework density 19.706996
#
# number of rings (size 3 to 8) (size 9 to 14) (size 15 to 20)
#    0.000    2.000    1.667    2.000    0.000    2.667 
#    0.000    1.667    0.000    0.000    0.000    0.000 
#    0.000    0.000    0.000    0.000    0.000    0.000 
#
# Total GULP energy -133933.430880 kJ/mol
# GULP energy per Si atom -5580.559620 kJ/mol
# Density = 1.966214 g / cm^3
# Si number density = 19.706996 Si / 1000 Ang^3
#
#
#
# Elastic Constant Matrix: (Units=GPa)
#
#
# Indices 1 2 3 4 5 6 
#
# 1 83.3546 19.3835 35.7232 0.0000 -5.3320 0.0000
# 2 19.3835 7.2020 29.0754 0.0000 -1.7393 0.0000
# 3 35.7232 29.0754 136.7517 0.0000 -18.8761 0.0000
# 4 0.0000 0.0000 0.0000 40.4816 0.0000 -3.7922
# 5 -5.3320 -1.7393 -18.8761 0.0000 19.6200 0.0000
# 6 0.0000 0.0000 0.0000 -3.7922 0.0000 12.1036
#
#
#
# Elastic Compliance Matrix: (Units=1/GPa)
#
#
# Indices 1 2 3 4 5 6 
#
# 1 -0.008212 0.135775 -0.029254 0.000000 -0.018340 0.000000
# 2 0.135775 -0.848616 0.161057 0.000000 0.116618 0.000000
# 3 -0.029254 0.161057 -0.021235 0.000000 -0.014102 0.000000
# 4 0.000000 0.000000 0.000000 0.025450 0.000000 0.007974
# 5 -0.018340 0.116618 -0.014102 0.000000 0.042755 0.000000
# 6 0.000000 0.000000 0.000000 0.007974 0.000000 0.085118
#
#
# Mechanical properties :
#
#
# Convention : Reuss Voigt Hill
#
# Bulk Modulus (GPa) = -2.91624 43.96362 20.52369
# Shear Modulus (GPa) = -3.63848 23.98279 10.17216
#
# Velocity S-wave (km/s) = -1.36026 3.49229 2.27440
# Velocity P-wave (km/s) = 1.98748 6.21438 4.16344
#
# Compressibility (1/GPa) = -0.34290724
#
# Stress axis : x y z
#
# Youngs Moduli (GPa) = -121.76723 -1.17839 -47.09159
#
# Poissons Ratio (x) = 0.16000 -1.37762
# Poissons Ratio (y) = 16.53297 7.58444
# Poissons Ratio (z) = -3.56218 0.18979
#
# Static dielectric constant tensor:
#      x y z
#    x 1.745720 0.000000 0.038180 
#    y 0.000000 1.667570 0.000000 
#    z 0.038180 0.000000 1.706310 
# 
# From -- ./inp_files/33698.got.cif
#   From: 2010.05.17/outbox.ucp.g08.bks.cvg/sg11_17_cif.got.tgz:33698.got - 2010.06.11 11:38:39.
