data_PCOD9168350
_publ_section_title
;
Structure prediction by ZEFSAII (Michael W. Deem and Ramdas Pophale) SiO2 
 PCOD9168350
Probable space group: C 2/M
;
_chemical_formula_sum "Si O2"
_cell_formula_units_Z 32
_cell_length_a 7.787531
_cell_length_b 19.448040
_cell_length_c 9.429253
_cell_angle_alpha 90.000000
_cell_angle_beta 110.907624
_cell_angle_gamma 90.000000
_cell_volume 1334.052089
_symmetry_space_group_name_H-M "C 2/M"
_symmetry_group_IT_number 12
_symmetry_cell_setting 'monoclinic'
loop_
_space_group_symop_operation_xyz
x,y,z
-x,y,-z
-x,-y,-z
x,-y,z
1/2+x,1/2+y,z
1/2-x,1/2+y,-z
1/2-x,1/2-y,-z
1/2+x,1/2-y,z
loop_
_atom_site_type_symbol
_atom_site_label
_atom_site_fract_x
_atom_site_fract_y
_atom_site_fract_z
Si Si1 0.090399 0.500000 0.681681
Si Si2 0.019603 0.000000 0.835048
Si Si3 0.626929 0.646487 0.892665
Si Si4 0.688006 0.735519 0.323194
Si Si5 0.447732 0.148427 0.199040
O O1 0.310396 0.500000 0.721424
O O2 0.041639 0.568633 0.756170
O O3 0.000000 0.500000 0.500000
O O4 0.122255 0.930079 0.827684
O O5 0.000000 0.000000 0.000000
O O6 0.505501 0.695833 0.757903
O O7 0.500000 0.645578 0.000000
O O8 0.822059 0.660751 0.024147
O O9 0.750000 0.750000 0.500000
O O10 0.639289 0.810907 0.245944
O O11 0.835146 0.685689 0.293055
#
# Coordination Sequence:
#
# PCOD9168350 Si02
#       5
#     4   4   8   8   8
#     4  12  20  32  56  85 109 141 188 236 268 318
#     4  10  14  32  54  77 108 137 188 225 271 322
#     4   9  17  32  54  78 106 143 182 222 269 326
#     4  11  21  34  52  82 114 144 180 230 277 322
#     4  11  22  37  57  82 113 147 185 224 276 331
#
# _framework density 23.987069999999999
#
# number of rings (size 3 to 8) (size 9 to 14) (size 15 to 20)
#    0.000    1.500    7.500    3.000    0.000    0.000 
#    0.000    0.000    0.000    3.000    0.000   21.875 
#    0.000    0.000    0.000    0.000    0.000    0.000 
#
# Total GULP energy -89455.843887 kJ/mol
# GULP energy per Si atom -5590.990243 kJ/mol
# Density = 2.393247 g / cm^3
# Si number density = 23.987070 Si / 1000 Ang^3
#
#
#
# Elastic Constant Matrix: (Units=GPa)
#
#
# Indices 1 2 3 4 5 6 
#
# 1 76.0001 12.8661 20.9997 0.0000 10.5820 0.0000
# 2 12.8661 191.0359 63.3278 0.0000 -9.5204 0.0000
# 3 20.9997 63.3278 227.6401 0.0000 9.9636 0.0000
# 4 0.0000 0.0000 0.0000 8.9492 0.0000 6.9415
# 5 10.5820 -9.5204 9.9636 0.0000 26.1584 0.0000
# 6 0.0000 0.0000 0.0000 6.9415 0.0000 22.9797
#
#
#
# Elastic Compliance Matrix: (Units=1/GPa)
#
#
# Indices 1 2 3 4 5 6 
#
# 1 0.014363 -0.000998 -0.000790 0.000000 -0.005872 0.000000
# 2 -0.000998 0.006038 -0.001730 0.000000 0.003260 0.000000
# 3 -0.000790 -0.001730 0.005045 0.000000 -0.002232 0.000000
# 4 0.000000 0.000000 0.000000 0.145934 0.000000 -0.044082
# 5 -0.005872 0.003260 -0.002232 0.000000 0.042641 0.000000
# 6 0.000000 0.000000 0.000000 -0.044082 0.000000 0.056832
#
#
# Mechanical properties :
#
#
# Convention : Reuss Voigt Hill
#
# Bulk Modulus (GPa) = 54.32319 76.56258 65.44288
# Shear Modulus (GPa) = 17.60400 38.11629 27.86014
#
# Velocity S-wave (km/s) = 2.71199 3.99059 3.41172
# Velocity P-wave (km/s) = 5.70110 7.29525 6.54688
#
# Compressibility (1/GPa) = 0.01840835
#
# Stress axis : x y z
#
# Youngs Moduli (GPa) = 69.62401 165.62005 198.22201
#
# Poissons Ratio (x) = 0.16529 0.15665
# Poissons Ratio (y) = 0.06948 0.34299
# Poissons Ratio (z) = 0.05502 0.28658
#
# Static dielectric constant tensor:
#      x y z
#    x 2.124110 0.000000 -0.032860 
#    y 0.000000 1.964000 0.000000 
#    z -0.032860 0.000000 1.783860 
# 
# From -- ./inp_files/130252.got.cif
#   From: 2010.05.17/outbox.cif.g08.bks.cpg/sg12_66_cif.got.tgz:130252.got - 2010.06.03 13:09:07.
