data_PCOD9168383
_publ_section_title
;
Structure prediction by ZEFSAII (Michael W. Deem and Ramdas Pophale) SiO2 
 PCOD9168383
Probable space group: C 2/M
;
_chemical_formula_sum "Si O2"
_cell_formula_units_Z 48
_cell_length_a 8.921323
_cell_length_b 20.830279
_cell_length_c 12.544018
_cell_angle_alpha 90.000000
_cell_angle_beta 116.684293
_cell_angle_gamma 90.000000
_cell_volume 2082.825649
_symmetry_space_group_name_H-M "C 2/M"
_symmetry_group_IT_number 12
_symmetry_cell_setting 'monoclinic'
loop_
_space_group_symop_operation_xyz
x,y,z
-x,y,-z
-x,-y,-z
x,-y,z
1/2+x,1/2+y,z
1/2-x,1/2+y,-z
1/2-x,1/2-y,-z
1/2+x,1/2-y,z
loop_
_atom_site_type_symbol
_atom_site_label
_atom_site_fract_x
_atom_site_fract_y
_atom_site_fract_z
Si Si1 0.368903 0.500000 0.700551
Si Si2 0.814510 0.147655 0.961317
Si Si3 0.774281 0.361782 0.819076
Si Si4 0.213501 0.500000 0.128582
Si Si5 0.753729 0.000000 0.897518
Si Si6 0.241630 0.724192 0.748783
Si Si7 0.599126 0.634587 0.369646
Si Si8 0.500000 0.723098 0.500000
O O1 0.573681 0.500000 0.799573
O O2 0.248974 0.500000 0.765880
O O3 0.334646 0.563276 0.620805
O O4 0.822616 0.073107 0.929816
O O5 0.700165 0.189678 0.846576
O O6 0.760269 0.148973 0.066195
O O7 0.000000 0.174886 0.000000
O O8 0.850180 0.433545 0.838488
O O9 0.832061 0.292470 0.796697
O O10 0.600880 0.370797 0.700355
O O11 0.167237 0.500000 0.988659
O O12 0.352771 0.674314 0.719115
O O13 0.083910 0.736722 0.620912
O O14 0.635793 0.677184 0.484648
#
# Coordination Sequence:
#
# PCOD9168383 Si02
#       8
#     4   8   8   4   4   8   8   4
#     4  10  15  27  50  76  98 126 166 211 262 295
#     4  11  17  29  51  80 109 129 163 205 258 303
#     4   9  18  30  49  82 107 131 162 204 260 305
#     4   8  15  26  45  73 111 132 153 201 255 310
#     4  10  15  24  47  77 106 133 154 200 258 310
#     4  11  20  33  52  72 108 136 169 207 247 308
#     4  10  19  34  53  74 102 133 169 215 255 304
#     4  10  24  37  48  69 100 142 178 204 254 293
#
# _framework density 23.045615999999999
#
# number of rings (size 3 to 8) (size 9 to 14) (size 15 to 20)
#    0.000    2.000    3.333    3.500    0.000    0.333 
#    0.000    0.833    0.000    2.000    0.000    9.917 
#    0.000    0.000    0.000    0.000    0.000    0.000 
#
# Total GULP energy -133603.661440 kJ/mol
# GULP energy per Si atom -5566.819227 kJ/mol
# Density = 2.299316 g / cm^3
# Si number density = 23.045616 Si / 1000 Ang^3
#
#
#
# Elastic Constant Matrix: (Units=GPa)
#
#
# Indices 1 2 3 4 5 6 
#
# 1 15.3298 16.7753 2.5407 0.0000 8.4958 0.0000
# 2 16.7753 177.5621 27.8988 0.0000 9.6975 0.0000
# 3 2.5407 27.8988 98.4446 0.0000 6.6255 0.0000
# 4 0.0000 0.0000 0.0000 62.3406 0.0000 -8.1558
# 5 8.4958 9.6975 6.6255 0.0000 15.0393 0.0000
# 6 0.0000 0.0000 0.0000 -8.1558 0.0000 9.2198
#
#
#
# Elastic Compliance Matrix: (Units=1/GPa)
#
#
# Indices 1 2 3 4 5 6 
#
# 1 0.103061 -0.007222 0.003083 0.000000 -0.054922 0.000000
# 2 -0.007222 0.006550 -0.001711 0.000000 0.000610 0.000000
# 3 0.003083 -0.001711 0.010930 0.000000 -0.005454 0.000000
# 4 0.000000 0.000000 0.000000 0.018140 0.000000 0.016047
# 5 -0.054922 0.000610 -0.005454 0.000000 0.099527 0.000000
# 6 0.000000 0.000000 0.000000 0.016047 0.000000 0.122658
#
#
# Mechanical properties :
#
#
# Convention : Reuss Voigt Hill
#
# Bulk Modulus (GPa) = 9.18759 42.86291 26.02525
# Shear Modulus (GPa) = 12.22955 33.59471 22.91213
#
# Velocity S-wave (km/s) = 2.30612 3.82219 3.15653
# Velocity P-wave (km/s) = 3.32961 6.17401 4.96007
#
# Compressibility (1/GPa) = 0.10884244
#
# Stress axis : x y z
#
# Youngs Moduli (GPa) = 9.70296 152.68114 91.48870
#
# Poissons Ratio (x) = 1.10262 -0.28207
# Poissons Ratio (y) = 0.07007 0.15652
# Poissons Ratio (z) = -0.02992 0.26121
#
# Static dielectric constant tensor:
#      x y z
#    x 1.996910 0.000000 0.024540 
#    y 0.000000 1.905290 0.000000 
#    z 0.024540 0.000000 1.858640 
# 
# From -- ./inp_files/131822.got.cif
#   From: 2010.05.17/outbox.cif.g08.bks.cpg/sg12_66_cif.got.tgz:131822.got - 2010.06.03 13:09:07.
