data_PCOD9168228
_publ_section_title
;
Structure prediction by ZEFSAII (Michael W. Deem and Ramdas Pophale) SiO2 
 PCOD9168228
Probable space group: P 21/M
;
_chemical_formula_sum "Si O2"
_cell_formula_units_Z 32
_cell_length_a 15.000000
_cell_length_b 18.000000
_cell_length_c 12.000000
_cell_angle_alpha 90.000000
_cell_angle_beta 150.000000
_cell_angle_gamma 90.000000
_cell_volume 1620.000000
_symmetry_space_group_name_H-M "P 21/M"
_symmetry_group_IT_number 11
_symmetry_cell_setting 'monoclinic'
loop_
_space_group_symop_operation_xyz
x,y,z
-x,1/2+y,-z
-x,-y,-z
x,1/2-y,z
loop_
_atom_site_type_symbol
_atom_site_label
_atom_site_fract_x
_atom_site_fract_y
_atom_site_fract_z
Si Si1 0.461105 0.418993 0.903417
Si Si2 0.648356 0.336498 0.302434
Si Si3 0.367523 0.337608 0.188215
Si Si4 0.980584 0.088027 0.994609
Si Si5 0.391420 0.663011 0.354183
Si Si6 0.718761 0.337165 0.015881
Si Si7 0.990467 0.910585 0.229712
Si Si8 0.911605 0.915025 0.645212
O O1 0.269430 0.412797 0.628260
O O2 0.500000 0.500000 0.000000
O O3 0.507507 0.365179 0.057743
O O4 0.613832 0.393008 0.982522
O O5 0.680620 0.250000 0.318197
O O6 0.546818 0.346745 0.309736
O O7 0.841989 0.375559 0.522480
O O8 0.317562 0.250000 0.133515
O O9 0.433356 0.358874 0.384935
O O10 0.210311 0.384671 0.959783
O O11 0.778223 0.112453 0.800228
O O12 0.010639 0.116852 0.901399
O O13 0.098069 0.108307 0.232373
O O14 0.000000 0.000000 0.000000
O O15 0.356092 0.750000 0.345897
O O16 0.389689 0.660022 0.218596
O O17 0.718406 0.250000 0.051266
O O18 0.923206 0.365411 0.222050
O O19 0.020570 0.999120 0.274992
#
# Coordination Sequence:
#
# PCOD9168228 Si02
#       8
#     4   4   4   4   4   4   4   4
#     4  12  26  44  70  93 128 175 225 268 320 388
#     4  11  24  43  63  92 135 174 218 271 319 382
#     4  10  22  37  62  97 129 169 216 263 325 392
#     4   9  19  37  60  95 131 163 204 261 324 387
#     4   9  18  38  63  93 132 169 209 267 326 385
#     4  10  24  45  68  96 131 169 216 273 333 387
#     4  11  21  38  65  96 133 171 211 264 333 392
#     4  10  24  43  65  98 129 168 219 270 327 386
#
# _framework density 19.753086
#
# number of rings (size 3 to 8) (size 9 to 14) (size 15 to 20)
#    0.000    1.750    2.500    0.750    3.500    3.000 
#    0.000    3.125    0.000    0.000    0.000    0.000 
#    0.000    0.000    0.000    0.000    0.000    0.000 
#
# Total GULP energy -178287.184336 kJ/mol
# GULP energy per Si atom -5571.474511 kJ/mol
# Density = 1.970813 g / cm^3
# Si number density = 19.753086 Si / 1000 Ang^3
#
#
#
# Elastic Constant Matrix: (Units=GPa)
#
#
# Indices 1 2 3 4 5 6 
#
# 1 61.4408 21.6804 20.0799 0.0000 -5.4451 0.0000
# 2 21.6804 81.0723 33.3425 0.0000 5.6031 0.0000
# 3 20.0799 33.3425 172.1728 0.0000 -12.3609 0.0000
# 4 0.0000 0.0000 0.0000 40.0340 0.0000 -0.9456
# 5 -5.4451 5.6031 -12.3609 0.0000 30.4315 0.0000
# 6 0.0000 0.0000 0.0000 -0.9456 0.0000 28.9609
#
#
#
# Elastic Compliance Matrix: (Units=1/GPa)
#
#
# Indices 1 2 3 4 5 6 
#
# 1 0.018643 -0.004857 -0.000958 0.000000 0.003841 0.000000
# 2 -0.004857 0.015068 -0.002692 0.000000 -0.004737 0.000000
# 3 -0.000958 -0.002692 0.006659 0.000000 0.003029 0.000000
# 4 0.000000 0.000000 0.000000 0.024998 0.000000 0.000816
# 5 0.003841 -0.004737 0.003029 0.000000 0.035650 0.000000
# 6 0.000000 0.000000 0.000000 0.000816 0.000000 0.034556
#
#
# Mechanical properties :
#
#
# Convention : Reuss Voigt Hill
#
# Bulk Modulus (GPa) = 42.81478 51.65461 47.23469
# Shear Modulus (GPa) = 31.17737 35.85748 33.51743
#
# Velocity S-wave (km/s) = 3.97716 4.26524 4.12372
# Velocity P-wave (km/s) = 6.54312 7.10375 6.82919
#
# Compressibility (1/GPa) = 0.02335642
#
# Stress axis : x y z
#
# Youngs Moduli (GPa) = 53.63885 66.36623 150.18319
#
# Poissons Ratio (x) = 0.32235 0.14386
# Poissons Ratio (y) = 0.26053 0.40424
# Poissons Ratio (z) = 0.05138 0.17863
#
# Static dielectric constant tensor:
#      x y z
#    x 1.796230 0.000000 -0.024340 
#    y 0.000000 1.691560 0.000000 
#    z -0.024340 0.000000 1.679030 
# 
# From -- ./inp_files/40005.got.cif
#   From: 2010.05.17/outbox.ucp.g08.bks.cvg/sg11_21_cif.got.tgz:40005.got - 2010.06.11 11:38:39.
