data_PCOD9168951
_publ_section_title
;
Structure prediction by ZEFSAII (Michael W. Deem and Ramdas Pophale) SiO2 
 PCOD9168951
Probable space group: C 2/M
;
_chemical_formula_sum "Si O2"
_cell_formula_units_Z 40
_cell_length_a 10.658519
_cell_length_b 24.484936
_cell_length_c 10.883775
_cell_angle_alpha 90.000000
_cell_angle_beta 139.844123
_cell_angle_gamma 90.000000
_cell_volume 1831.669427
_symmetry_space_group_name_H-M "C 2/M"
_symmetry_group_IT_number 12
_symmetry_cell_setting 'monoclinic'
loop_
_space_group_symop_operation_xyz
x,y,z
-x,y,-z
-x,-y,-z
x,-y,z
1/2+x,1/2+y,z
1/2-x,1/2+y,-z
1/2-x,1/2-y,-z
1/2+x,1/2-y,z
loop_
_atom_site_type_symbol
_atom_site_label
_atom_site_fract_x
_atom_site_fract_y
_atom_site_fract_z
Si Si1 0.302320 0.000000 0.776953
Si Si2 0.544919 0.404118 0.702028
Si Si3 0.204279 0.883340 0.078088
Si Si4 0.500000 0.689909 0.500000
Si Si5 0.260880 0.500000 0.819184
Si Si6 0.236853 0.000000 0.451307
Si Si7 0.226880 0.764597 0.128143
O O1 0.179249 0.945324 0.720851
O O2 0.337530 0.000000 0.658359
O O3 0.500000 0.000000 0.000000
O O4 0.434022 0.354759 0.552060
O O5 0.394419 0.445952 0.646429
O O6 0.667019 0.378885 0.904753
O O7 0.299792 0.942449 0.167698
O O8 0.300615 0.827384 0.194656
O O9 0.000000 0.885155 0.000000
O O10 0.345908 0.726390 0.311128
O O11 0.185874 0.500000 0.625897
O O12 0.500000 0.500000 0.000000
O O13 0.250000 0.750000 0.000000
O O14 0.000000 0.762391 0.000000
#
# Coordination Sequence:
#
# PCOD9168951 Si02
#       7
#     4   8   8   4   4   4   8
#     4  11  24  37  56  97 138 178 218 284 348 416
#     4  11  19  38  66  91 130 173 226 277 348 418
#     4  10  19  38  65  97 128 168 223 286 348 417
#     4  12  24  43  70 101 132 198 238 288 352 422
#     4  10  16  30  66  97 120 161 215 272 349 412
#     4  11  18  35  62  99 120 163 223 271 339 427
#     4  11  26  47  70 102 143 185 241 299 350 416
#
# _framework density 21.838001999999999
#
# number of rings (size 3 to 8) (size 9 to 14) (size 15 to 20)
#    0.000    1.200    8.000    1.200    0.000    1.600 
#    0.000    2.000    0.000    1.800    0.000    0.000 
#    0.000    0.000    0.000    0.000    0.000    0.000 
#
# Total GULP energy -111504.769102 kJ/mol
# GULP energy per Si atom -5575.238455 kJ/mol
# Density = 2.178830 g / cm^3
# Si number density = 21.838002 Si / 1000 Ang^3
#
#
#
# Elastic Constant Matrix: (Units=GPa)
#
#
# Indices 1 2 3 4 5 6 
#
# 1 67.7063 28.9449 49.5129 0.0000 -9.3729 0.0000
# 2 28.9449 207.0626 60.5487 0.0000 -6.3560 0.0000
# 3 49.5129 60.5487 125.2583 0.0000 -23.6348 0.0000
# 4 0.0000 0.0000 0.0000 61.7681 0.0000 -23.1032
# 5 -9.3729 -6.3560 -23.6348 0.0000 37.5444 0.0000
# 6 0.0000 0.0000 0.0000 -23.1032 0.0000 1.0919
#
#
#
# Elastic Compliance Matrix: (Units=1/GPa)
#
#
# Indices 1 2 3 4 5 6 
#
# 1 0.020837 -0.000590 -0.007930 0.000000 0.000110 0.000000
# 2 -0.000590 0.005666 -0.002669 0.000000 -0.000869 0.000000
# 3 -0.007930 -0.002669 0.013561 0.000000 0.006105 0.000000
# 4 0.000000 0.000000 0.000000 -0.002342 0.000000 -0.049544
# 5 0.000110 -0.000869 0.006105 0.000000 0.030359 0.000000
# 6 0.000000 0.000000 0.000000 -0.049544 0.000000 -0.132460
#
#
# Mechanical properties :
#
#
# Convention : Reuss Voigt Hill
#
# Bulk Modulus (GPa) = 56.55207 75.33780 65.94493
# Shear Modulus (GPa) = -138.48423 37.48226 -50.50098
#
# Velocity S-wave (km/s) = -7.97195 4.14741 -4.81409
# Velocity P-wave (km/s) = 7.66705 7.58341 0.79860
#
# Compressibility (1/GPa) = 0.01768282
#
# Stress axis : x y z
#
# Youngs Moduli (GPa) = 47.99240 176.49475 73.74329
#
# Poissons Ratio (x) = 0.10420 0.58481
# Poissons Ratio (y) = 0.02833 0.19685
# Poissons Ratio (z) = 0.38060 0.47113
#
# Static dielectric constant tensor:
#      x y z
#    x 1.890000 0.000000 -0.009110 
#    y 0.000000 1.810210 0.000000 
#    z -0.009110 0.000000 1.842190 
# 
# From -- ./inp_files/135649.got.cif
#   From: 2010.05.17/outbox.cif.g08.bks.cpg/sg12_68_cif.got.tgz:135649.got - 2010.06.03 13:09:07.
