data_PCOD9168178
_publ_section_title
;
Structure prediction by ZEFSAII (Michael W. Deem and Ramdas Pophale) SiO2 
 PCOD9168178
Probable space group: P 21/M
;
_chemical_formula_sum "Si O2"
_cell_formula_units_Z 28
_cell_length_a 9.000000
_cell_length_b 9.000000
_cell_length_c 27.000000
_cell_angle_alpha 90.000000
_cell_angle_beta 140.000000
_cell_angle_gamma 90.000000
_cell_volume 1405.776502
_symmetry_space_group_name_H-M "P 21/M"
_symmetry_group_IT_number 11
_symmetry_cell_setting 'monoclinic'
loop_
_space_group_symop_operation_xyz
x,y,z
-x,1/2+y,-z
-x,-y,-z
x,1/2-y,z
loop_
_atom_site_type_symbol
_atom_site_label
_atom_site_fract_x
_atom_site_fract_y
_atom_site_fract_z
Si Si1 0.664403 0.571560 0.620866
Si Si2 0.946369 0.583767 0.340884
Si Si3 0.744735 0.430303 0.076187
Si Si4 0.523117 0.920225 0.766898
Si Si5 0.154356 0.571579 0.232678
Si Si6 0.047205 0.416141 0.060735
Si Si7 0.851291 0.085754 0.501083
O O1 0.679088 0.750000 0.621011
O O2 0.752426 0.509293 0.695178
O O3 0.398215 0.522733 0.548446
O O4 0.832275 0.496520 0.624686
O O5 0.919527 0.750000 0.312887
O O6 0.717753 0.487453 0.278410
O O7 0.995786 0.596484 0.411371
O O8 0.736787 0.250000 0.080202
O O9 0.895635 0.506919 0.157638
O O10 0.902881 0.472990 0.069832
O O11 0.500000 0.500000 0.000000
O O12 0.503403 0.750000 0.743167
O O13 0.687724 0.916888 0.856467
O O14 0.663008 0.018838 0.762884
O O15 0.150787 0.750000 0.234889
O O16 0.965846 0.250000 0.032717
O O17 0.000000 0.500000 0.000000
O O18 0.803682 0.250000 0.468463
O O19 0.000000 0.000000 0.500000
#
# Coordination Sequence:
#
# PCOD9168178 Si02
#       7
#     4   4   4   4   4   4   4
#     4  11  23  40  60  85 117 155 192 235 291 348
#     4  11  23  39  59  88 119 150 191 241 289 340
#     4  10  21  38  58  84 116 152 193 239 290 348
#     4  10  21  39  59  83 115 153 193 236 287 349
#     4  11  22  38  60  86 114 150 195 244 291 344
#     4   9  20  36  56  81 111 145 186 231 279 334
#     4  10  23  40  61  87 116 151 193 236 285 343
#
# _framework density 19.917818
#
# number of rings (size 3 to 8) (size 9 to 14) (size 15 to 20)
#    0.000    1.714    0.000    5.143    0.000    9.143 
#    0.000    2.857    0.000    0.000    0.000    0.000 
#    0.000    0.000    0.000    0.000    0.000    0.000 
#
# Total GULP energy -156046.420792 kJ/mol
# GULP energy per Si atom -5573.086457 kJ/mol
# Density = 1.987248 g / cm^3
# Si number density = 19.917818 Si / 1000 Ang^3
#
#
#
# Elastic Constant Matrix: (Units=GPa)
#
#
# Indices 1 2 3 4 5 6 
#
# 1 71.3729 26.2579 11.7069 0.0000 24.0544 0.0000
# 2 26.2579 2.4215 0.1756 0.0000 10.9151 0.0000
# 3 11.7069 0.1756 13.5247 0.0000 21.0813 0.0000
# 4 0.0000 0.0000 0.0000 23.1788 0.0000 5.4267
# 5 24.0544 10.9151 21.0813 0.0000 41.8313 0.0000
# 6 0.0000 0.0000 0.0000 5.4267 0.0000 29.3635
#
#
#
# Elastic Compliance Matrix: (Units=1/GPa)
#
#
# Indices 1 2 3 4 5 6 
#
# 1 0.010675 0.020106 0.038443 0.000000 -0.030758 0.000000
# 2 0.020106 -0.060136 -0.107526 0.000000 0.058319 0.000000
# 3 0.038443 -0.107526 0.152861 0.000000 -0.071085 0.000000
# 4 0.000000 0.000000 0.000000 0.045094 0.000000 -0.008334
# 5 -0.030758 0.058319 -0.071085 0.000000 0.062199 0.000000
# 6 0.000000 0.000000 0.000000 -0.008334 0.000000 0.035596
#
#
# Mechanical properties :
#
#
# Convention : Reuss Voigt Hill
#
# Bulk Modulus (GPa) = 183.64537 18.17777 100.91157
# Shear Modulus (GPa) = 14.44841 22.15327 18.30084
#
# Velocity S-wave (km/s) = 2.69625 3.33863 3.03449
# Velocity P-wave (km/s) = 10.10419 4.89981 7.94049
#
# Compressibility (1/GPa) = 0.00544528
#
# Stress axis : x y z
#
# Youngs Moduli (GPa) = 93.68029 -16.62886 6.54187
#
# Poissons Ratio (x) = 0.33434 -0.25149
# Poissons Ratio (y) = -1.88355 0.70342
# Poissons Ratio (z) = -3.60133 -1.78804
#
# Static dielectric constant tensor:
#      x y z
#    x 1.727990 0.000000 -0.086540 
#    y 0.000000 1.702610 0.000000 
#    z -0.086540 0.000000 1.819580 
# 
# From -- ./inp_files/70908.got.cif
#   From: 2010.05.17/outbox.ucp.g08.bks.cvg/sg11_36_cif.got.tgz:70908.got - 2010.06.11 11:38:39.
