data_PCOD9168365
_publ_section_title
;
Structure prediction by ZEFSAII (Michael W. Deem and Ramdas Pophale) SiO2 
 PCOD9168365
Probable space group: C 2/M
;
_chemical_formula_sum "Si O2"
_cell_formula_units_Z 64
_cell_length_a 27.227273
_cell_length_b 18.377560
_cell_length_c 8.082795
_cell_angle_alpha 90.000000
_cell_angle_beta 116.963268
_cell_angle_gamma 90.000000
_cell_volume 3604.758670
_symmetry_space_group_name_H-M "C 2/M"
_symmetry_group_IT_number 12
_symmetry_cell_setting 'monoclinic'
loop_
_space_group_symop_operation_xyz
x,y,z
-x,y,-z
-x,-y,-z
x,-y,z
1/2+x,1/2+y,z
1/2-x,1/2+y,-z
1/2-x,1/2-y,-z
1/2+x,1/2-y,z
loop_
_atom_site_type_symbol
_atom_site_label
_atom_site_fract_x
_atom_site_fract_y
_atom_site_fract_z
Si Si1 0.367170 0.147890 0.830661
Si Si2 0.038083 0.416764 0.224069
Si Si3 0.752050 0.080847 0.311051
Si Si4 0.347853 0.828298 0.310034
Si Si5 0.683169 0.268062 0.052584
Si Si6 0.568303 0.086844 0.749642
Si Si7 0.739102 0.416730 0.074846
Si Si8 0.787074 0.775035 0.406155
O O1 0.409665 0.130330 0.749969
O O2 0.307640 0.109493 0.720248
O O3 0.355148 0.231919 0.863310
O O4 0.393949 0.109119 0.034461
O O5 0.055788 0.500000 0.285079
O O6 0.994096 0.393643 0.296083
O O7 0.000000 0.419065 0.000000
O O8 0.753954 0.080679 0.113931
O O9 0.796704 0.139833 0.436476
O O10 0.761517 0.000000 0.386437
O O11 0.403389 0.871463 0.358661
O O12 0.337785 0.777096 0.451706
O O13 0.339435 0.770841 0.145941
O O14 0.297580 0.886259 0.230633
O O15 0.744132 0.236352 0.187416
O O16 0.694004 0.354402 0.052949
O O17 0.570601 0.000000 0.731524
O O18 0.728164 0.500000 0.112672
O O19 0.750000 0.750000 0.500000
#
# Coordination Sequence:
#
# PCOD9168365 Si02
#       8
#     8   8   8   8   8   8   8   8
#     4   9  14  20  36  52  78 102 126 162 189 222
#     4   8  13  19  28  51  81 102 122 154 195 223
#     4  10  16  24  39  56  72  98 134 158 186 227
#     4  10  15  26  39  55  75 100 133 156 186 226
#     4   9  16  27  38  55  73  95 132 158 186 230
#     4   9  14  20  33  54  79 103 127 159 192 220
#     4  10  15  22  38  56  73  94 128 164 187 214
#     4  10  18  28  38  53  78 104 124 158 196 224
#
# _framework density 17.754308999999999
#
# number of rings (size 3 to 8) (size 9 to 14) (size 15 to 20)
#    0.000    2.625    5.000    3.000    0.000    0.000 
#    0.000    3.125    0.000    0.000    0.000    3.500 
#    0.000   22.500    0.000    0.000    0.000   10.250 
#
# Total GULP energy -178325.655284 kJ/mol
# GULP energy per Si atom -5572.676728 kJ/mol
# Density = 1.771390 g / cm^3
# Si number density = 17.754309 Si / 1000 Ang^3
#
#
#
# Elastic Constant Matrix: (Units=GPa)
#
#
# Indices 1 2 3 4 5 6 
#
# 1 139.9581 77.3260 22.1707 0.0000 -21.8215 0.0000
# 2 77.3260 169.9190 18.2949 0.0000 -6.4374 0.0000
# 3 22.1707 18.2949 34.1532 0.0000 -4.8792 0.0000
# 4 0.0000 0.0000 0.0000 10.8505 0.0000 -2.4717
# 5 -21.8215 -6.4374 -4.8792 0.0000 26.6541 0.0000
# 6 0.0000 0.0000 0.0000 -2.4717 0.0000 36.3938
#
#
#
# Elastic Compliance Matrix: (Units=1/GPa)
#
#
# Indices 1 2 3 4 5 6 
#
# 1 0.011426 -0.004490 -0.003933 0.000000 0.007550 0.000000
# 2 -0.004490 0.008032 -0.001680 0.000000 -0.002044 0.000000
# 3 -0.003933 -0.001680 0.033080 0.000000 0.002430 0.000000
# 4 0.000000 0.000000 0.000000 0.093610 0.000000 0.006358
# 5 0.007550 -0.002044 0.002430 0.000000 0.043650 0.000000
# 6 0.000000 0.000000 0.000000 0.006358 0.000000 0.027909
#
#
# Mechanical properties :
#
#
# Convention : Reuss Voigt Hill
#
# Bulk Modulus (GPa) = 30.92945 64.40150 47.66547
# Shear Modulus (GPa) = 20.10535 29.86227 24.98381
#
# Velocity S-wave (km/s) = 3.36880 4.10564 3.75533
# Velocity P-wave (km/s) = 5.70880 7.66991 6.76084
#
# Compressibility (1/GPa) = 0.03233165
#
# Stress axis : x y z
#
# Youngs Moduli (GPa) = 87.51968 124.50298 30.22965
#
# Poissons Ratio (x) = 0.55904 0.11891
# Poissons Ratio (y) = 0.39298 0.05077
# Poissons Ratio (z) = 0.34425 0.20912
#
# Static dielectric constant tensor:
#      x y z
#    x 1.613420 0.000000 -0.044650 
#    y 0.000000 1.640580 0.000000 
#    z -0.044650 0.000000 1.711010 
# 
# From -- ./inp_files/112335.got.cif
#   From: 2010.05.17/outbox.cif.g08.bks.cpg/sg12_57_cif.got.tgz:112335.got - 2010.06.03 13:09:07.
