data_PCOD9168204
_publ_section_title
;
Structure prediction by ZEFSAII (Michael W. Deem and Ramdas Pophale) SiO2 
 PCOD9168204
Probable space group: P 21/M
;
_chemical_formula_sum "Si O2"
_cell_formula_units_Z 28
_cell_length_a 21.000000
_cell_length_b 9.000000
_cell_length_c 15.000000
_cell_angle_alpha 90.000000
_cell_angle_beta 30.000000
_cell_angle_gamma 90.000000
_cell_volume 1417.500000
_symmetry_space_group_name_H-M "P 21/M"
_symmetry_group_IT_number 11
_symmetry_cell_setting 'monoclinic'
loop_
_space_group_symop_operation_xyz
x,y,z
-x,1/2+y,-z
-x,-y,-z
x,1/2-y,z
loop_
_atom_site_type_symbol
_atom_site_label
_atom_site_fract_x
_atom_site_fract_y
_atom_site_fract_z
Si Si1 0.499903 0.584732 0.591236
Si Si2 0.888798 0.428290 0.575814
Si Si3 0.023304 0.072903 0.069410
Si Si4 0.798605 0.079392 0.998732
Si Si5 0.192549 0.925218 0.521768
Si Si6 0.560263 0.570654 0.706828
Si Si7 0.287160 0.071650 0.074316
O O1 0.500000 0.500000 0.500000
O O2 0.547295 0.750000 0.516277
O O3 0.578775 0.526338 0.580047
O O4 0.352283 0.588731 0.798850
O O5 0.894743 0.250000 0.576985
O O6 0.882352 0.464764 0.478471
O O7 0.764925 0.495710 0.773342
O O8 0.000000 0.500000 0.500000
O O9 0.049229 0.250000 0.028110
O O10 0.897617 0.055559 0.283229
O O11 0.131186 0.996519 0.001966
O O12 0.000000 0.000000 0.000000
O O13 0.844999 0.250000 0.930015
O O14 0.797791 0.986712 0.907111
O O15 0.225583 0.750000 0.474952
O O16 0.319787 0.019835 0.381352
O O17 0.542193 0.750000 0.731399
O O18 0.431079 0.486849 0.889640
O O19 0.281024 0.250000 0.084385
#
# Coordination Sequence:
#
# PCOD9168204 Si02
#       7
#     4   4   4   4   4   4   4
#     4   9  20  35  55  84 115 151 197 249 301 358
#     4  11  23  41  66  95 126 162 209 261 310 367
#     4  11  24  41  61  88 122 163 208 254 310 374
#     4  10  21  39  60  87 119 156 204 255 305 362
#     4  10  24  43  62  88 123 162 206 255 308 369
#     4  10  22  40  61  89 123 161 207 255 307 367
#     4  11  22  39  64  93 125 164 204 249 311 373
#
# _framework density 19.753086
#
# number of rings (size 3 to 8) (size 9 to 14) (size 15 to 20)
#    0.000    1.714    0.000    4.714    2.000    7.429 
#    0.000    0.000    0.000    0.000    0.000    0.000 
#    0.000    0.000    0.000    0.000    0.000    0.000 
#
# Total GULP energy -156294.779463 kJ/mol
# GULP energy per Si atom -5581.956409 kJ/mol
# Density = 1.970813 g / cm^3
# Si number density = 19.753086 Si / 1000 Ang^3
#
#
#
# Elastic Constant Matrix: (Units=GPa)
#
#
# Indices 1 2 3 4 5 6 
#
# 1 148.3138 65.5160 45.9343 0.0000 0.7862 0.0000
# 2 65.5160 108.9419 35.5698 0.0000 3.4629 0.0000
# 3 45.9343 35.5698 48.3702 0.0000 13.2134 0.0000
# 4 0.0000 0.0000 0.0000 29.5546 0.0000 -1.8512
# 5 0.7862 3.4629 13.2134 0.0000 39.4916 0.0000
# 6 0.0000 0.0000 0.0000 -1.8512 0.0000 38.6575
#
#
#
# Elastic Compliance Matrix: (Units=1/GPa)
#
#
# Indices 1 2 3 4 5 6 
#
# 1 0.011105 -0.004036 -0.008380 0.000000 0.002937 0.000000
# 2 -0.004036 0.013707 -0.006539 0.000000 0.001066 0.000000
# 3 -0.008380 -0.006539 0.036582 0.000000 -0.011500 0.000000
# 4 0.000000 0.000000 0.000000 0.033938 0.000000 0.001625
# 5 0.002937 0.001066 -0.011500 0.000000 0.029018 0.000000
# 6 0.000000 0.000000 0.000000 0.001625 0.000000 0.025946
#
#
# Mechanical properties :
#
#
# Convention : Reuss Voigt Hill
#
# Bulk Modulus (GPa) = 42.58062 66.62957 54.60509
# Shear Modulus (GPa) = 25.50590 32.11446 28.81018
#
# Velocity S-wave (km/s) = 3.59728 4.03649 3.82319
# Velocity P-wave (km/s) = 6.23355 7.45176 6.86971
#
# Compressibility (1/GPa) = 0.02348486
#
# Stress axis : x y z
#
# Youngs Moduli (GPa) = 90.04904 72.95477 27.33575
#
# Poissons Ratio (x) = 0.29441 0.22909
# Poissons Ratio (y) = 0.36339 0.17874
# Poissons Ratio (z) = 0.75466 0.47703
#
# Static dielectric constant tensor:
#      x y z
#    x 1.684320 0.000000 0.021870 
#    y 0.000000 1.675470 0.000000 
#    z 0.021870 0.000000 1.783560 
# 
# From -- ./inp_files/54533.got.cif
#   From: 2010.05.17/outbox.ucp.g08.bks.cvg/sg11_28_cif.got.tgz:54533.got - 2010.06.11 11:38:39.
