data_PCOD9168688
_publ_section_title
;
Structure prediction by ZEFSAII (Michael W. Deem and Ramdas Pophale) SiO2 
 PCOD9168688
Probable space group: C 2/M
;
_chemical_formula_sum "Si O2"
_cell_formula_units_Z 56
_cell_length_a 8.628337
_cell_length_b 28.871376
_cell_length_c 13.703505
_cell_angle_alpha 90.000000
_cell_angle_beta 43.610088
_cell_angle_gamma 90.000000
_cell_volume 2354.594298
_symmetry_space_group_name_H-M "C 2/M"
_symmetry_group_IT_number 12
_symmetry_cell_setting 'monoclinic'
loop_
_space_group_symop_operation_xyz
x,y,z
-x,y,-z
-x,-y,-z
x,-y,z
1/2+x,1/2+y,z
1/2-x,1/2+y,-z
1/2-x,1/2-y,-z
1/2+x,1/2-y,z
loop_
_atom_site_type_symbol
_atom_site_label
_atom_site_fract_x
_atom_site_fract_y
_atom_site_fract_z
Si Si1 0.017232 0.201140 0.738987
Si Si2 0.131257 0.050996 0.336564
Si Si3 0.314460 0.634036 0.462434
Si Si4 0.508977 0.949160 0.379016
Si Si5 0.324264 0.051550 0.892344
Si Si6 0.673014 0.144015 0.011819
Si Si7 0.186688 0.696335 0.702579
O O1 0.858153 0.200028 0.715295
O O2 0.209951 0.164376 0.623349
O O3 0.110620 0.251863 0.712316
O O4 0.866109 0.179884 0.893045
O O5 0.401060 0.054466 0.219932
O O6 0.000000 0.049394 0.500000
O O7 0.030472 0.099767 0.343612
O O8 0.084862 0.000000 0.310104
O O9 0.130302 0.596625 0.572448
O O10 0.289146 0.669521 0.563867
O O11 0.500000 0.951518 0.500000
O O12 0.711674 0.944822 0.208791
O O13 0.414796 0.000000 0.393036
O O14 0.236386 0.094593 0.993577
O O15 0.254971 0.000000 0.955850
O O16 0.526626 0.167281 0.163465
O O17 0.500000 0.137523 0.000000
#
# Coordination Sequence:
#
# PCOD9168688 Si02
#       7
#     8   8   8   8   8   8   8
#     4  11  25  39  61  88 121 154 205 260 311 365
#     4  10  16  26  51  86 116 148 185 230 292 352
#     4  12  21  36  60  87 120 154 195 254 306 348
#     4  10  21  36  58  89 126 165 201 237 291 366
#     4  10  19  34  59  90 125 159 194 241 298 362
#     4  10  20  39  61  86 117 160 200 244 302 367
#     4  11  23  41  62  84 118 160 205 258 312 366
#
# _framework density 23.783289
#
# number of rings (size 3 to 8) (size 9 to 14) (size 15 to 20)
#    0.000    1.429    2.857    4.286    0.000    1.429 
#    0.000    1.429    0.000    0.000    0.000    3.000 
#    0.000    0.000    0.000    0.000    0.000    0.000 
#
# Total GULP energy -156198.103521 kJ/mol
# GULP energy per Si atom -5578.503697 kJ/mol
# Density = 2.372916 g / cm^3
# Si number density = 23.783289 Si / 1000 Ang^3
#
#
#
# Elastic Constant Matrix: (Units=GPa)
#
#
# Indices 1 2 3 4 5 6 
#
# 1 9.6881 34.6903 12.8905 0.0000 -3.7940 0.0000
# 2 34.6903 226.8055 59.2424 0.0000 0.7645 0.0000
# 3 12.8905 59.2424 87.5297 0.0000 0.5776 0.0000
# 4 0.0000 0.0000 0.0000 17.3131 0.0000 32.2401
# 5 -3.7940 0.7645 0.5776 0.0000 21.5533 0.0000
# 6 0.0000 0.0000 0.0000 32.2401 0.0000 66.7072
#
#
#
# Elastic Compliance Matrix: (Units=1/GPa)
#
#
# Indices 1 2 3 4 5 6 
#
# 1 0.288892 -0.040282 -0.015629 0.000000 0.052701 0.000000
# 2 -0.040282 0.010973 -0.001445 0.000000 -0.007441 0.000000
# 3 -0.015629 -0.001445 0.014725 0.000000 -0.003095 0.000000
# 4 0.000000 0.000000 0.000000 0.577608 0.000000 -0.279162
# 5 0.052701 -0.007441 -0.003095 0.000000 0.056020 0.000000
# 6 0.000000 0.000000 0.000000 -0.279162 0.000000 0.149912
#
#
# Mechanical properties :
#
#
# Convention : Reuss Voigt Hill
#
# Bulk Modulus (GPa) = 5.00307 59.74107 32.37207
# Shear Modulus (GPa) = 3.90787 35.59472 19.75130
#
# Velocity S-wave (km/s) = 1.28323 3.87282 2.88491
# Velocity P-wave (km/s) = 2.07455 6.72100 4.97371
#
# Compressibility (1/GPa) = 0.19987735
#
# Stress axis : x y z
#
# Youngs Moduli (GPa) = 3.46150 91.13415 67.91156
#
# Poissons Ratio (x) = 3.67105 1.06140
# Poissons Ratio (y) = 0.13944 0.09815
# Poissons Ratio (z) = 0.05410 0.13172
#
# Static dielectric constant tensor:
#      x y z
#    x 2.043540 0.000000 0.006010 
#    y 0.000000 1.889540 0.000000 
#    z 0.006010 0.000000 1.915650 
# 
# From -- ./inp_files/209102.got.cif
#   From: 2010.05.17/outbox.cif.g08.bks.cpg/sg12_105_cif.got.tgz:209102.got - 2010.06.03 13:09:07.
