data_PCOD9168781
_publ_section_title
;
Structure prediction by ZEFSAII (Michael W. Deem and Ramdas Pophale) SiO2 
 PCOD9168781
Probable space group: C 2/M
;
_chemical_formula_sum "Si O2"
_cell_formula_units_Z 44
_cell_length_a 12.487769
_cell_length_b 19.168409
_cell_length_c 9.406500
_cell_angle_alpha 90.000000
_cell_angle_beta 62.637634
_cell_angle_gamma 90.000000
_cell_volume 1999.720951
_symmetry_space_group_name_H-M "C 2/M"
_symmetry_group_IT_number 12
_symmetry_cell_setting 'monoclinic'
loop_
_space_group_symop_operation_xyz
x,y,z
-x,y,-z
-x,-y,-z
x,-y,z
1/2+x,1/2+y,z
1/2-x,1/2+y,-z
1/2-x,1/2-y,-z
1/2+x,1/2-y,z
loop_
_atom_site_type_symbol
_atom_site_label
_atom_site_fract_x
_atom_site_fract_y
_atom_site_fract_z
Si Si1 0.099989 0.651685 0.560641
Si Si2 0.370056 0.500000 0.150991
Si Si3 0.450591 0.000000 0.364829
Si Si4 0.767207 0.345935 0.042514
Si Si5 0.178933 0.500000 0.014723
Si Si6 0.458075 0.258952 0.842879
Si Si7 0.815076 0.149915 0.237103
O O1 0.116801 0.573670 0.611869
O O2 0.220845 0.676990 0.409960
O O3 0.000000 0.643044 0.500000
O O4 0.037603 0.705753 0.702756
O O5 0.281285 0.500000 0.071890
O O6 0.343689 0.569483 0.252585
O O7 0.500000 0.500000 0.000000
O O8 0.500000 0.000000 0.500000
O O9 0.555929 0.000000 0.181469
O O10 0.801418 0.424188 0.071301
O O11 0.877102 0.291951 0.991764
O O12 0.744018 0.349160 0.884526
O O13 0.644610 0.308029 0.170349
O O14 0.558768 0.311293 0.838183
#
# Coordination Sequence:
#
# PCOD9168781 Si02
#       7
#     8   4   4   8   4   8   8
#     4  11  19  34  50  77 110 137 173 212 260 314
#     4  10  18  30  50  80 106 135 168 214 269 313
#     4  10  16  28  50  74  99 135 166 208 266 307
#     4  10  20  35  53  80 108 132 176 215 263 312
#     4  10  16  32  52  72 101 135 162 220 265 307
#     4  11  21  32  50  79 111 139 168 210 267 319
#     4  11  20  34  53  78 111 139 172 213 261 315
#
# _framework density 22.003072
#
# number of rings (size 3 to 8) (size 9 to 14) (size 15 to 20)
#    0.000    1.455    3.636    7.091    0.000    0.000 
#    0.000    0.000    0.000    0.000    0.000   29.273 
#    0.000    0.000    0.000    0.000    0.000    0.000 
#
# Total GULP energy -122741.795072 kJ/mol
# GULP energy per Si atom -5579.172503 kJ/mol
# Density = 2.195299 g / cm^3
# Si number density = 22.003072 Si / 1000 Ang^3
#
#
#
# Elastic Constant Matrix: (Units=GPa)
#
#
# Indices 1 2 3 4 5 6 
#
# 1 63.2560 22.1333 22.0999 0.0000 -28.7744 0.0000
# 2 22.1333 157.7743 32.1806 0.0000 -5.6428 0.0000
# 3 22.0999 32.1806 102.8412 0.0000 -36.9243 0.0000
# 4 0.0000 0.0000 0.0000 28.8697 0.0000 -4.5487
# 5 -28.7744 -5.6428 -36.9243 0.0000 36.8957 0.0000
# 6 0.0000 0.0000 0.0000 -4.5487 0.0000 19.2625
#
#
#
# Elastic Compliance Matrix: (Units=1/GPa)
#
#
# Indices 1 2 3 4 5 6 
#
# 1 0.026824 -0.003748 0.004235 0.000000 0.024585 0.000000
# 2 -0.003748 0.007362 -0.003346 0.000000 -0.005145 0.000000
# 3 0.004235 -0.003346 0.016955 0.000000 0.019760 0.000000
# 4 0.000000 0.000000 0.000000 0.035977 0.000000 0.008496
# 5 0.024585 -0.005145 0.019760 0.000000 0.065265 0.000000
# 6 0.000000 0.000000 0.000000 0.008496 0.000000 0.053921
#
#
# Mechanical properties :
#
#
# Convention : Reuss Voigt Hill
#
# Bulk Modulus (GPa) = 22.01416 52.96657 37.49036
# Shear Modulus (GPa) = 22.01085 33.50276 27.75681
#
# Velocity S-wave (km/s) = 3.16627 3.90634 3.55561
# Velocity P-wave (km/s) = 4.83671 6.66862 5.82513
#
# Compressibility (1/GPa) = 0.04542532
#
# Stress axis : x y z
#
# Youngs Moduli (GPa) = 37.28048 135.82736 58.97973
#
# Poissons Ratio (x) = 0.50902 -0.24980
# Poissons Ratio (y) = 0.13971 0.19733
# Poissons Ratio (z) = -0.15790 0.45444
#
# Static dielectric constant tensor:
#      x y z
#    x 1.789780 0.000000 0.010230 
#    y 0.000000 1.918330 0.000000 
#    z 0.010230 0.000000 1.781490 
# 
# From -- ./inp_files/145020.got.cif
#   From: 2010.05.17/outbox.cif.g08.bks.cpg/sg12_73_cif.got.tgz:145020.got - 2010.06.03 13:09:07.
