data_PCOD9168283
_publ_section_title
;
Structure prediction by ZEFSAII (Michael W. Deem and Ramdas Pophale) SiO2 
 PCOD9168283
Probable space group: C 2/M
;
_chemical_formula_sum "Si O2"
_cell_formula_units_Z 52
_cell_length_a 17.973419
_cell_length_b 11.806593
_cell_length_c 21.794215
_cell_angle_alpha 90.000000
_cell_angle_beta 141.639870
_cell_angle_gamma 90.000000
_cell_volume 2870.185021
_symmetry_space_group_name_H-M "C 2/M"
_symmetry_group_IT_number 12
_symmetry_cell_setting 'monoclinic'
loop_
_space_group_symop_operation_xyz
x,y,z
-x,y,-z
-x,-y,-z
x,-y,z
1/2+x,1/2+y,z
1/2-x,1/2+y,-z
1/2-x,1/2-y,-z
1/2+x,1/2-y,z
loop_
_atom_site_type_symbol
_atom_site_label
_atom_site_fract_x
_atom_site_fract_y
_atom_site_fract_z
Si Si1 0.067884 0.251056 0.976775
Si Si2 0.284506 0.748112 0.189113
Si Si3 0.060266 0.225380 0.393907
Si Si4 0.245934 0.135505 0.414927
Si Si5 0.758982 0.500000 0.794543
Si Si6 0.497782 0.500000 0.426282
Si Si7 0.485881 0.000000 0.065398
Si Si8 0.156480 0.864901 0.220970
O O1 0.070295 0.380255 0.953951
O O2 0.979676 0.179629 0.876488
O O3 0.202061 0.209227 0.079260
O O4 0.000000 0.251215 0.000000
O O5 0.427876 0.756741 0.283452
O O6 0.248684 0.615000 0.171429
O O7 0.234814 0.807753 0.218184
O O8 0.146104 0.194544 0.392811
O O9 0.126357 0.319322 0.478091
O O10 0.050512 0.112342 0.429086
O O11 0.214324 0.163346 0.324082
O O12 0.238978 0.000000 0.417397
O O13 0.641476 0.500000 0.679078
O O14 0.874849 0.500000 0.826508
O O15 0.500000 0.500000 0.500000
O O16 0.500000 0.000000 0.000000
O O17 0.156958 0.000000 0.214050
#
# Coordination Sequence:
#
# PCOD9168283 Si02
#       8
#     8   8   8   8   4   4   4   8
#     4   9  16  28  49  79 112 136 172 217 272 313
#     4  10  19  32  53  86 107 135 176 227 273 311
#     4  10  22  38  60  78 108 144 176 226 277 320
#     4  10  22  42  56  74 106 149 187 212 266 336
#     4  10  16  28  48  80 116 130 162 215 279 322
#     4  10  22  32  56  92 112 129 172 234 282 308
#     4  10  12  24  46  74 110 136 159 205 271 320
#     4  10  21  34  54  79 109 146 181 214 254 320
#
# _framework density 18.117298999999999
#
# number of rings (size 3 to 8) (size 9 to 14) (size 15 to 20)
#    0.000    2.154    5.385    0.000    4.308    3.385 
#    0.000    2.308    0.000    0.000    0.000    0.000 
#    0.000    0.000    0.000    0.000    0.000    0.000 
#
# Total GULP energy -144822.464671 kJ/mol
# GULP energy per Si atom -5570.094795 kJ/mol
# Density = 1.807606 g / cm^3
# Si number density = 18.117299 Si / 1000 Ang^3
#
#
#
# Elastic Constant Matrix: (Units=GPa)
#
#
# Indices 1 2 3 4 5 6 
#
# 1 32.6329 15.4789 30.7248 0.0000 14.7402 0.0000
# 2 15.4789 62.4062 41.1651 0.0000 0.9677 0.0000
# 3 30.7248 41.1651 111.9447 0.0000 32.2917 0.0000
# 4 0.0000 0.0000 0.0000 24.3402 0.0000 5.7109
# 5 14.7402 0.9677 32.2917 0.0000 24.6914 0.0000
# 6 0.0000 0.0000 0.0000 5.7109 0.0000 3.9278
#
#
#
# Elastic Compliance Matrix: (Units=1/GPa)
#
#
# Indices 1 2 3 4 5 6 
#
# 1 0.049529 -0.010461 -0.002146 0.000000 -0.026352 0.000000
# 2 -0.010461 0.027505 -0.014025 0.000000 0.023508 0.000000
# 3 -0.002146 -0.014025 0.022724 0.000000 -0.027888 0.000000
# 4 0.000000 0.000000 0.000000 0.062357 0.000000 -0.090665
# 5 -0.026352 0.023508 -0.027888 0.000000 0.091782 0.000000
# 6 0.000000 0.000000 0.000000 -0.090665 0.000000 0.386420
#
#
# Mechanical properties :
#
#
# Convention : Reuss Voigt Hill
#
# Bulk Modulus (GPa) = 21.50744 42.41349 31.96046
# Shear Modulus (GPa) = 7.05142 18.56621 12.80882
#
# Velocity S-wave (km/s) = 1.97498 3.20469 2.66182
# Velocity P-wave (km/s) = 4.13494 6.09546 5.20828
#
# Compressibility (1/GPa) = 0.04649554
#
# Stress axis : x y z
#
# Youngs Moduli (GPa) = 20.19008 36.35676 44.00709
#
# Poissons Ratio (x) = 0.38032 0.09444
# Poissons Ratio (y) = 0.21121 0.61718
# Poissons Ratio (z) = 0.04333 0.50989
#
# Static dielectric constant tensor:
#      x y z
#    x 1.609810 0.000000 0.023280 
#    y 0.000000 1.641810 0.000000 
#    z 0.023280 0.000000 1.710320 
# 
# From -- ./inp_files/315828.got.cif
#   From: 2010.05.17/outbox.cif.g08.bks.cpg/sg12_158_cif.got.tgz:315828.got - 2010.06.03 13:09:07.
