data_PCOD9168022
_publ_section_title
;
Structure prediction by ZEFSAII (Michael W. Deem and Ramdas Pophale) SiO2 
 PCOD9168022
Probable space group: P 21/M
;
_chemical_formula_sum "Si O2"
_cell_formula_units_Z 32
_cell_length_a 27.000000
_cell_length_b 9.000000
_cell_length_c 21.000000
_cell_angle_alpha 90.000000
_cell_angle_beta 160.000000
_cell_angle_gamma 90.000000
_cell_volume 1745.328791
_symmetry_space_group_name_H-M "P 21/M"
_symmetry_group_IT_number 11
_symmetry_cell_setting 'monoclinic'
loop_
_space_group_symop_operation_xyz
x,y,z
-x,1/2+y,-z
-x,-y,-z
x,1/2-y,z
loop_
_atom_site_type_symbol
_atom_site_label
_atom_site_fract_x
_atom_site_fract_y
_atom_site_fract_z
Si Si1 0.206621 0.424391 0.280618
Si Si2 0.103845 0.573937 0.573161
Si Si3 0.386446 0.074854 0.061789
Si Si4 0.044496 0.425116 0.951222
Si Si5 0.416374 0.072889 0.957519
Si Si6 0.902886 0.420958 0.242474
Si Si7 0.503358 0.575686 0.664221
Si Si8 0.791176 0.077715 0.965280
O O1 0.195858 0.250000 0.281494
O O2 0.141086 0.449353 0.131242
O O3 0.368906 0.481040 0.478710
O O4 0.111862 0.514297 0.217195
O O5 0.115260 0.750000 0.595208
O O6 0.256212 0.493493 0.761637
O O7 0.000000 0.500000 0.500000
O O8 0.028811 0.530497 0.416182
O O9 0.342350 0.250000 0.005989
O O10 0.477068 0.055164 0.235854
O O11 0.464270 0.041289 0.088750
O O12 0.244016 0.975050 0.900120
O O13 0.039362 0.250000 0.931446
O O14 0.113830 0.512309 0.976572
O O15 0.417205 0.250000 0.950371
O O16 0.500000 0.000000 0.000000
O O17 0.934800 0.250000 0.298704
O O18 0.875073 0.428245 0.133802
O O19 0.482040 0.750000 0.626301
O O20 0.647526 0.518403 0.803758
O O21 0.753661 0.250000 0.907740
#
# Coordination Sequence:
#
# PCOD9168022 Si02
#       8
#     4   4   4   4   4   4   4   4
#     4  10  21  38  59  84 114 150 191 233 280 335
#     4  12  23  37  60  87 113 149 193 236 281 336
#     4   9  19  36  58  81 111 149 188 231 281 337
#     4  10  21  38  60  84 113 151 190 231 282 336
#     4  11  23  40  59  83 115 151 191 236 287 339
#     4  10  20  35  58  86 114 146 188 234 284 336
#     4  10  20  36  59  86 113 148 191 232 280 338
#     4  10  21  37  58  86 118 149 186 235 285 331
#
# _framework density 18.334654
#
# number of rings (size 3 to 8) (size 9 to 14) (size 15 to 20)
#    0.000    1.750    1.250    3.375    0.000    4.500 
#    2.250    0.000    0.000    0.000    0.000    0.000 
#    0.000    0.000    0.000    0.000    0.000    0.000 
#
# Total GULP energy -178622.095787 kJ/mol
# GULP energy per Si atom -5581.940493 kJ/mol
# Density = 1.829292 g / cm^3
# Si number density = 18.334654 Si / 1000 Ang^3
#
#
#
# Elastic Constant Matrix: (Units=GPa)
#
#
# Indices 1 2 3 4 5 6 
#
# 1 93.6145 41.9620 -4.2544 0.0000 14.3503 0.0000
# 2 41.9620 52.2837 -1.1113 0.0000 -6.9493 0.0000
# 3 -4.2544 -1.1113 21.5271 0.0000 3.7544 0.0000
# 4 0.0000 0.0000 0.0000 28.8175 0.0000 4.4133
# 5 14.3503 -6.9493 3.7544 0.0000 10.9308 0.0000
# 6 0.0000 0.0000 0.0000 4.4133 0.0000 34.0408
#
#
#
# Elastic Compliance Matrix: (Units=1/GPa)
#
#
# Indices 1 2 3 4 5 6 
#
# 1 0.067793 -0.073296 0.035382 0.000000 -0.147751 0.000000
# 2 -0.073296 0.100172 -0.039573 0.000000 0.173501 0.000000
# 3 0.035382 -0.039573 0.067962 0.000000 -0.094952 0.000000
# 4 0.000000 0.000000 0.000000 0.035404 0.000000 -0.004590
# 5 -0.147751 0.173501 -0.094952 0.000000 0.428371 0.000000
# 6 0.000000 0.000000 0.000000 -0.004590 0.000000 0.029972
#
#
# Mechanical properties :
#
#
# Convention : Reuss Voigt Hill
#
# Bulk Modulus (GPa) = 12.35268 26.73534 19.54401
# Shear Modulus (GPa) = 5.48466 23.47978 14.48222
#
# Velocity S-wave (km/s) = 1.73145 3.58246 2.81353
# Velocity P-wave (km/s) = 3.27859 5.63254 4.60840
#
# Compressibility (1/GPa) = 0.08095412
#
# Stress axis : x y z
#
# Youngs Moduli (GPa) = 14.75068 9.98279 14.71404
#
# Poissons Ratio (x) = 0.73170 -0.52061
# Poissons Ratio (y) = 1.08117 0.58228
# Poissons Ratio (z) = -0.52191 0.39505
#
# Static dielectric constant tensor:
#      x y z
#    x 1.611940 0.000000 -0.044540 
#    y 0.000000 1.608610 0.000000 
#    z -0.044540 0.000000 1.630900 
# 
# From -- ./inp_files/67153.got.cif
#   From: 2010.05.17/outbox.ucp.g08.bks.cvg/sg11_34_cif.got.tgz:67153.got - 2010.06.11 11:38:39.
