data_PCOD9168089
_publ_section_title
;
Structure prediction by ZEFSAII (Michael W. Deem and Ramdas Pophale) SiO2 
 PCOD9168089
Probable space group: P 21/M
;
_chemical_formula_sum "Si O2"
_cell_formula_units_Z 32
_cell_length_a 12.000000
_cell_length_b 9.000000
_cell_length_c 15.000000
_cell_angle_alpha 90.000000
_cell_angle_beta 90.000000
_cell_angle_gamma 90.000000
_cell_volume 1620.000000
_symmetry_space_group_name_H-M "P 21/M"
_symmetry_group_IT_number 11
_symmetry_cell_setting 'monoclinic'
loop_
_space_group_symop_operation_xyz
x,y,z
-x,1/2+y,-z
-x,-y,-z
x,1/2-y,z
loop_
_atom_site_type_symbol
_atom_site_label
_atom_site_fract_x
_atom_site_fract_y
_atom_site_fract_z
Si Si1 0.620085 0.575058 0.495081
Si Si2 0.560855 0.572402 0.836856
Si Si3 0.293736 0.577139 0.021244
Si Si4 0.321478 0.074004 0.838318
Si Si5 0.047007 0.922456 0.086965
Si Si6 0.738965 0.575987 0.684997
Si Si7 0.025938 0.569865 0.286059
Si Si8 0.204445 0.071985 0.649759
O O1 0.500000 0.500000 0.500000
O O2 0.602399 0.750000 0.475800
O O3 0.679177 0.561685 0.590310
O O4 0.706037 0.512646 0.421079
O O5 0.544721 0.750000 0.835112
O O6 0.445120 0.488978 0.822571
O O7 0.650769 0.530833 0.761021
O O8 0.612776 0.519376 0.930085
O O9 0.326939 0.750000 0.015667
O O10 0.273218 0.511990 0.923386
O O11 0.180722 0.567789 0.078588
O O12 0.324395 0.250000 0.856642
O O13 0.251614 0.050113 0.748872
O O14 0.014265 0.750000 0.082653
O O15 0.009532 0.980769 0.183170
O O16 0.000000 0.000000 0.000000
O O17 0.765042 0.750000 0.700523
O O18 0.853316 0.486359 0.685956
O O19 0.025795 0.750000 0.284900
O O20 0.923203 0.517650 0.347446
O O21 0.198659 0.250000 0.633411
#
# Coordination Sequence:
#
# PCOD9168089 Si02
#       8
#     4   4   4   4   4   4   4   4
#     4  10  21  40  63  90 120 152 192 238 290 349
#     4  11  22  37  56  81 115 153 192 239 291 345
#     4  11  22  37  55  81 113 150 194 239 288 345
#     4  11  22  37  58  83 113 151 193 240 292 348
#     4  10  21  35  55  81 112 151 196 242 284 338
#     4  10  22  38  59  87 120 154 191 242 296 341
#     4  10  20  38  60  84 115 153 197 238 282 348
#     4   9  20  38  61  86 116 152 190 235 289 344
#
# _framework density 19.753086
#
# number of rings (size 3 to 8) (size 9 to 14) (size 15 to 20)
#    0.000    1.750    1.250    3.000    0.000    4.000 
#    0.000    2.500    0.000    0.000    0.000    0.000 
#    0.000    0.000    0.000    0.000    0.000    0.000 
#
# Total GULP energy -178731.630608 kJ/mol
# GULP energy per Si atom -5585.363456 kJ/mol
# Density = 1.970813 g / cm^3
# Si number density = 19.753086 Si / 1000 Ang^3
#
#
#
# Elastic Constant Matrix: (Units=GPa)
#
#
# Indices 1 2 3 4 5 6 
#
# 1 61.8382 17.2667 37.5466 0.0000 -14.8724 0.0000
# 2 17.2667 23.4076 24.3428 0.0000 -0.6060 0.0000
# 3 37.5466 24.3428 45.2015 0.0000 -43.2491 0.0000
# 4 0.0000 0.0000 0.0000 15.8421 0.0000 -3.9300
# 5 -14.8724 -0.6060 -43.2491 0.0000 25.7941 0.0000
# 6 0.0000 0.0000 0.0000 -3.9300 0.0000 27.5394
#
#
#
# Elastic Compliance Matrix: (Units=1/GPa)
#
#
# Indices 1 2 3 4 5 6 
#
# 1 0.024162 -0.015444 -0.002035 0.000000 0.010157 0.000000
# 2 -0.015444 0.032959 0.021017 0.000000 0.027109 0.000000
# 3 -0.002035 0.021017 -0.019601 0.000000 -0.033545 0.000000
# 4 0.000000 0.000000 0.000000 0.065440 0.000000 0.009339
# 5 0.010157 0.027109 -0.033545 0.000000 -0.010984 0.000000
# 6 0.000000 0.000000 0.000000 0.009339 0.000000 0.037644
#
#
# Mechanical properties :
#
#
# Convention : Reuss Voigt Hill
#
# Bulk Modulus (GPa) = 22.42379 32.08439 27.25409
# Shear Modulus (GPa) = 36.38782 17.25451 26.82117
#
# Velocity S-wave (km/s) = 4.29666 2.95873 3.68886
# Velocity P-wave (km/s) = 5.99932 5.28678 5.65428
#
# Compressibility (1/GPa) = 0.04459550
#
# Stress axis : x y z
#
# Youngs Moduli (GPa) = 41.38759 30.34100 -51.01723
#
# Poissons Ratio (x) = 0.46859 -0.10381
# Poissons Ratio (y) = 0.63919 1.07223
# Poissons Ratio (z) = 0.08422 -0.63768
#
# Static dielectric constant tensor:
#      x y z
#    x 1.700270 0.000000 -0.018690 
#    y 0.000000 1.675580 0.000000 
#    z -0.018690 0.000000 1.695600 
# 
# From -- ./inp_files/49375.got.cif
#   From: 2010.05.17/outbox.ucp.g08.bks.cvg/sg11_25_cif.got.tgz:49375.got - 2010.06.11 11:38:39.
