data_PCOD9168832
_publ_section_title
;
Structure prediction by ZEFSAII (Michael W. Deem and Ramdas Pophale) SiO2 
 PCOD9168832
Probable space group: C 2/M
;
_chemical_formula_sum "Si O2"
_cell_formula_units_Z 58
_cell_length_a 5.386322
_cell_length_b 33.921317
_cell_length_c 21.549776
_cell_angle_alpha 90.000000
_cell_angle_beta 63.281672
_cell_angle_gamma 90.000000
_cell_volume 3516.980159
_symmetry_space_group_name_H-M "C 2/M"
_symmetry_group_IT_number 12
_symmetry_cell_setting 'monoclinic'
loop_
_space_group_symop_operation_xyz
x,y,z
-x,y,-z
-x,-y,-z
x,-y,z
1/2+x,1/2+y,z
1/2-x,1/2+y,-z
1/2-x,1/2-y,-z
1/2+x,1/2-y,z
loop_
_atom_site_type_symbol
_atom_site_label
_atom_site_fract_x
_atom_site_fract_y
_atom_site_fract_z
Si Si1 0.207991 0.621704 0.023508
Si Si2 0.822070 0.045443 0.702073
Si Si3 0.986911 0.569023 0.146760
Si Si4 0.615856 0.456577 0.074813
Si Si5 0.381296 0.233322 0.420067
Si Si6 0.828801 0.643369 0.455087
Si Si7 0.000000 0.500000 0.500000
Si Si8 0.519765 0.061131 0.384671
O O1 0.064502 0.609856 0.103796
O O2 0.500000 0.642327 0.000000
O O3 0.286614 0.579586 0.979979
O O4 0.000000 0.642157 0.000000
O O5 0.667675 0.071477 0.770759
O O6 0.667893 0.049249 0.653301
O O7 0.150015 0.054475 0.661909
O O8 0.792591 0.000000 0.725834
O O9 0.782850 0.547920 0.120347
O O10 0.285442 0.548004 0.121607
O O11 0.673882 0.500000 0.041791
O O12 0.250000 0.250000 0.500000
O O13 0.697951 0.246860 0.387662
O O14 0.352836 0.186456 0.422102
O O15 0.500000 0.635455 0.500000
O O16 0.000000 0.646097 0.500000
O O17 0.958271 0.606821 0.404225
O O18 0.945854 0.534450 0.452624
#
# Coordination Sequence:
#
# PCOD9168832 Si02
#       8
#     8   8   8   8   8   8   2   8
#     4   8  16  26  38  60  82 103 129 161 213 277
#     4  12  23  39  49  66  83 112 157 202 245 279
#     4  10  20  30  45  58  81 107 134 179 229 274
#     4  10  17  26  40  62  82 104 130 163 218 281
#     4  10  16  29  50  77 104 116 125 149 202 284
#     4  12  21  34  53  75  94 115 138 172 226 287
#     4  12  24  46  56  62  80 110 152 218 264 270
#     4  12  27  38  55  67  84 112 155 200 246 288
#
# _framework density 16.491420999999999
#
# number of rings (size 3 to 8) (size 9 to 14) (size 15 to 20)
#    0.000    1.379    4.828    2.897    0.000    6.069 
#    0.000    0.000    0.000    0.000    0.000    0.000 
#    0.000    0.000    0.000    0.000    0.000    0.000 
#
# Total GULP energy -161448.811506 kJ/mol
# GULP energy per Si atom -5567.200397 kJ/mol
# Density = 1.645389 g / cm^3
# Si number density = 16.491421 Si / 1000 Ang^3
#
#
#
# Elastic Constant Matrix: (Units=GPa)
#
#
# Indices 1 2 3 4 5 6 
#
# 1 153.7948 0.3921 22.9587 0.0000 -1.8914 0.0000
# 2 0.3921 52.3135 12.3057 0.0000 -2.3029 0.0000
# 3 22.9587 12.3057 40.7260 0.0000 9.5173 0.0000
# 4 0.0000 0.0000 0.0000 5.9154 0.0000 -7.7826
# 5 -1.8914 -2.3029 9.5173 0.0000 16.6420 0.0000
# 6 0.0000 0.0000 0.0000 -7.7826 0.0000 9.5016
#
#
#
# Elastic Compliance Matrix: (Units=1/GPa)
#
#
# Indices 1 2 3 4 5 6 
#
# 1 0.007385 0.001446 -0.005590 0.000000 0.004236 0.000000
# 2 0.001446 0.021680 -0.009356 0.000000 0.008515 0.000000
# 3 -0.005590 -0.009356 0.035763 0.000000 -0.022383 0.000000
# 4 0.000000 0.000000 0.000000 -2.178007 0.000000 -1.783959
# 5 0.004236 0.008515 -0.022383 0.000000 0.074549 0.000000
# 6 0.000000 0.000000 0.000000 -1.783959 0.000000 -1.355957
#
#
# Mechanical properties :
#
#
# Convention : Reuss Voigt Hill
#
# Bulk Modulus (GPa) = 26.43507 35.34972 30.89240
# Shear Modulus (GPa) = -1.49032 20.49032 9.50000
#
# Velocity S-wave (km/s) = -0.95166 3.52871 2.40272
# Velocity P-wave (km/s) = 3.85446 6.17124 5.14495
#
# Compressibility (1/GPa) = 0.03782853
#
# Stress axis : x y z
#
# Youngs Moduli (GPa) = 135.40777 46.12471 27.96161
#
# Poissons Ratio (x) = -0.06670 0.15631
# Poissons Ratio (y) = -0.19582 0.26161
# Poissons Ratio (z) = 0.75696 0.43154
#
# Static dielectric constant tensor:
#      x y z
#    x 2.417280 0.000000 0.160290 
#    y 0.000000 1.539020 0.000000 
#    z 0.160290 0.000000 1.590590 
# 
# From -- ./inp_files/298516.got.cif
#   From: 2010.05.17/outbox.cif.g08.bks.cpg/sg12_150_cif.got.tgz:298516.got - 2010.06.03 13:09:07.
