data_PCOD9168613
_publ_section_title
;
Structure prediction by ZEFSAII (Michael W. Deem and Ramdas Pophale) SiO2 
 PCOD9168613
Probable space group: C 2/M
;
_chemical_formula_sum "Si O2"
_cell_formula_units_Z 44
_cell_length_a 13.290828
_cell_length_b 14.456607
_cell_length_c 9.688250
_cell_angle_alpha 90.000000
_cell_angle_beta 113.538656
_cell_angle_gamma 90.000000
_cell_volume 1706.608935
_symmetry_space_group_name_H-M "C 2/M"
_symmetry_group_IT_number 12
_symmetry_cell_setting 'monoclinic'
loop_
_space_group_symop_operation_xyz
x,y,z
-x,y,-z
-x,-y,-z
x,-y,z
1/2+x,1/2+y,z
1/2-x,1/2+y,-z
1/2-x,1/2-y,-z
1/2+x,1/2-y,z
loop_
_atom_site_type_symbol
_atom_site_label
_atom_site_fract_x
_atom_site_fract_y
_atom_site_fract_z
Si Si1 0.161681 0.000000 0.203313
Si Si2 0.188601 0.802741 0.342368
Si Si3 0.888730 0.500000 0.029817
Si Si4 0.573004 0.303725 0.740029
Si Si5 0.869178 0.699989 0.959064
Si Si6 0.095398 0.000000 0.846320
Si Si7 0.536775 0.000000 0.364684
Si Si8 0.500000 0.159608 0.500000
O O1 0.214964 0.091781 0.302176
O O2 0.032421 0.000000 0.172859
O O3 0.159491 0.000000 0.032218
O O4 0.250000 0.750000 0.500000
O O5 0.058920 0.809907 0.311117
O O6 0.188513 0.741021 0.204570
O O7 0.935671 0.500000 0.208139
O O8 0.832766 0.595796 0.967192
O O9 0.000000 0.500000 0.000000
O O10 0.608972 0.410145 0.756684
O O11 0.582790 0.227400 0.625573
O O12 0.632144 0.263404 0.907611
O O13 0.000000 0.695514 0.000000
O O14 0.500000 0.000000 0.500000
O O15 0.566741 0.108311 0.403381
#
# Coordination Sequence:
#
# PCOD9168613 Si02
#       8
#     4   8   4   8   8   4   4   4
#     4   9  16  31  48  71 101 129 163 199 260 309
#     4  10  20  31  48  74 103 129 158 208 267 307
#     4  10  16  25  45  76  99 123 166 209 244 294
#     4  10  17  31  50  74  96 127 170 207 249 302
#     4   9  16  27  46  69  96 124 160 201 246 293
#     4   9  16  27  52  74  92 126 169 216 245 287
#     4   8  16  28  43  69 105 136 154 196 261 297
#     4   9  18  29  48  70 100 129 166 209 248 304
#
# _framework density 25.782121
#
# number of rings (size 3 to 8) (size 9 to 14) (size 15 to 20)
#    0.545    2.000    3.636    0.000    0.000    1.091 
#    0.000    2.727    0.000    1.091    0.000    0.000 
#    0.000    0.000    0.000    0.000    0.000    0.000 
#
# Total GULP energy -122554.956254 kJ/mol
# GULP energy per Si atom -5570.679830 kJ/mol
# Density = 2.572344 g / cm^3
# Si number density = 25.782121 Si / 1000 Ang^3
#
#
#
# Elastic Constant Matrix: (Units=GPa)
#
#
# Indices 1 2 3 4 5 6 
#
# 1 60.4126 14.7049 24.7576 0.0000 16.6923 0.0000
# 2 14.7049 287.8728 117.9870 0.0000 -2.1837 0.0000
# 3 24.7576 117.9870 230.8649 0.0000 18.3314 0.0000
# 4 0.0000 0.0000 0.0000 45.4966 0.0000 -16.8814
# 5 16.6923 -2.1837 18.3314 0.0000 37.8680 0.0000
# 6 0.0000 0.0000 0.0000 -16.8814 0.0000 29.5583
#
#
#
# Elastic Compliance Matrix: (Units=1/GPa)
#
#
# Indices 1 2 3 4 5 6 
#
# 1 0.019380 -0.000582 -0.001144 0.000000 -0.008023 0.000000
# 2 -0.000582 0.004484 -0.002361 0.000000 0.001658 0.000000
# 3 -0.001144 -0.002361 0.005857 0.000000 -0.002467 0.000000
# 4 0.000000 0.000000 0.000000 0.027890 0.000000 0.015929
# 5 -0.008023 0.001658 -0.002467 0.000000 0.031234 0.000000
# 6 0.000000 0.000000 0.000000 0.015929 0.000000 0.042929
#
#
# Mechanical properties :
#
#
# Convention : Reuss Voigt Hill
#
# Bulk Modulus (GPa) = 46.40989 99.33881 72.87435
# Shear Modulus (GPa) = 33.98410 50.69797 42.34104
#
# Velocity S-wave (km/s) = 3.63454 4.43922 4.05688
# Velocity P-wave (km/s) = 5.97102 8.05539 7.09022
#
# Compressibility (1/GPa) = 0.02154713
#
# Stress axis : x y z
#
# Youngs Moduli (GPa) = 51.59980 223.03587 170.74991
#
# Poissons Ratio (x) = 0.12981 0.19531
# Poissons Ratio (y) = 0.03003 0.40308
# Poissons Ratio (z) = 0.05902 0.52650
#
# Static dielectric constant tensor:
#      x y z
#    x 2.230850 0.000000 0.050620 
#    y 0.000000 1.836690 0.000000 
#    z 0.050620 0.000000 1.921640 
# 
# From -- ./inp_files/155222.got.cif
#   From: 2010.05.17/outbox.cif.g08.bks.cpg/sg12_78_cif.got.tgz:155222.got - 2010.06.03 13:09:07.
