data_PCOD9168785
_publ_section_title
;
Structure prediction by ZEFSAII (Michael W. Deem and Ramdas Pophale) SiO2 
 PCOD9168785
Probable space group: C 2/M
;
_chemical_formula_sum "Si O2"
_cell_formula_units_Z 36
_cell_length_a 7.154397
_cell_length_b 24.224999
_cell_length_c 7.364897
_cell_angle_alpha 90.000000
_cell_angle_beta 86.872078
_cell_angle_gamma 90.000000
_cell_volume 1274.547383
_symmetry_space_group_name_H-M "C 2/M"
_symmetry_group_IT_number 12
_symmetry_cell_setting 'monoclinic'
loop_
_space_group_symop_operation_xyz
x,y,z
-x,y,-z
-x,-y,-z
x,-y,z
1/2+x,1/2+y,z
1/2-x,1/2+y,-z
1/2-x,1/2-y,-z
1/2+x,1/2-y,z
loop_
_atom_site_type_symbol
_atom_site_label
_atom_site_fract_x
_atom_site_fract_y
_atom_site_fract_z
Si Si1 0.729180 0.116415 0.026991
Si Si2 0.786923 0.622237 0.370637
Si Si3 0.500000 0.299271 0.500000
Si Si4 0.200747 0.000000 0.391675
Si Si5 0.078282 0.709081 0.196928
Si Si6 0.223719 0.500000 0.030421
O O1 0.815339 0.118948 0.821673
O O2 0.772763 0.058237 0.117750
O O3 0.500000 0.112287 0.000000
O O4 0.758176 0.173923 0.124273
O O5 0.668383 0.658023 0.515431
O O6 0.805244 0.558370 0.426138
O O7 0.959798 0.661676 0.309665
O O8 0.574106 0.259902 0.333939
O O9 0.184328 0.000000 0.173407
O O10 0.000000 0.000000 0.500000
O O11 0.000000 0.724681 0.000000
O O12 0.000000 0.500000 0.000000
#
# Coordination Sequence:
#
# PCOD9168785 Si02
#       6
#     8   8   4   4   8   4
#     4   7  13  26  43  65  93 125 163 202 245 293
#     4   9  18  31  49  76 104 133 172 215 261 308
#     4  12  20  31  52  75 108 140 170 208 258 316
#     4  10  16  28  50  80 105 129 176 225 263 313
#     4   9  20  34  49  75 104 137 175 212 255 307
#     4   8  12  22  44  66  93 131 165 208 257 299
#
# _framework density 28.24532
#
# number of rings (size 3 to 8) (size 9 to 14) (size 15 to 20)
#    0.000    3.556    1.111    2.000    0.000    3.556 
#    0.000    0.000    0.000    2.667    0.000    9.333 
#    0.000    0.000    0.000    0.000    0.000    0.000 
#
# Total GULP energy -100405.272291 kJ/mol
# GULP energy per Si atom -5578.070683 kJ/mol
# Density = 2.818103 g / cm^3
# Si number density = 28.245320 Si / 1000 Ang^3
#
#
#
# Elastic Constant Matrix: (Units=GPa)
#
#
# Indices 1 2 3 4 5 6 
#
# 1 75.6735 41.5508 27.1885 0.0000 -20.0891 0.0000
# 2 41.5508 285.6208 57.4803 0.0000 5.0297 0.0000
# 3 27.1885 57.4803 162.9517 0.0000 9.0297 0.0000
# 4 0.0000 0.0000 0.0000 13.7250 0.0000 -12.4723
# 5 -20.0891 5.0297 9.0297 0.0000 33.3673 0.0000
# 6 0.0000 0.0000 0.0000 -12.4723 0.0000 27.9316
#
#
#
# Elastic Compliance Matrix: (Units=1/GPa)
#
#
# Indices 1 2 3 4 5 6 
#
# 1 0.018940 -0.002369 -0.003022 0.000000 0.012578 0.000000
# 2 -0.002369 0.004066 -0.000940 0.000000 -0.001785 0.000000
# 3 -0.003022 -0.000940 0.007173 0.000000 -0.003619 0.000000
# 4 0.000000 0.000000 0.000000 0.122613 0.000000 0.054751
# 5 0.012578 -0.001785 -0.003619 0.000000 0.038790 0.000000
# 6 0.000000 0.000000 0.000000 0.054751 0.000000 0.060250
#
#
# Mechanical properties :
#
#
# Convention : Reuss Voigt Hill
#
# Bulk Modulus (GPa) = 57.08310 86.29834 71.69072
# Shear Modulus (GPa) = 18.49569 41.53986 30.01778
#
# Velocity S-wave (km/s) = 2.56173 3.83911 3.26352
# Velocity P-wave (km/s) = 5.38550 7.09021 6.29582
#
# Compressibility (1/GPa) = 0.01751832
#
# Stress axis : x y z
#
# Youngs Moduli (GPa) = 52.79874 245.91849 139.40913
#
# Poissons Ratio (x) = 0.58250 0.42123
# Poissons Ratio (y) = 0.12506 0.13108
# Poissons Ratio (z) = 0.15953 0.23123
#
# Static dielectric constant tensor:
#      x y z
#    x 2.397860 0.000000 0.014250 
#    y 0.000000 2.209210 0.000000 
#    z 0.014250 0.000000 2.186520 
# 
# From -- ./inp_files/51679.got.cif
#   From: 2010.05.17/outbox.cif.g08.bks.cpg/sg12_26_cif.got.tgz:51679.got - 2010.06.03 13:09:07.
