data_PCOD9168225
_publ_section_title
;
Structure prediction by ZEFSAII (Michael W. Deem and Ramdas Pophale) SiO2 
 PCOD9168225
Probable space group: P 21/M
;
_chemical_formula_sum "Si O2"
_cell_formula_units_Z 28
_cell_length_a 27.000000
_cell_length_b 9.000000
_cell_length_c 9.000000
_cell_angle_alpha 90.000000
_cell_angle_beta 140.000000
_cell_angle_gamma 90.000000
_cell_volume 1405.776502
_symmetry_space_group_name_H-M "P 21/M"
_symmetry_group_IT_number 11
_symmetry_cell_setting 'monoclinic'
loop_
_space_group_symop_operation_xyz
x,y,z
-x,1/2+y,-z
-x,-y,-z
x,1/2-y,z
loop_
_atom_site_type_symbol
_atom_site_label
_atom_site_fract_x
_atom_site_fract_y
_atom_site_fract_z
Si Si1 0.422249 0.928429 0.550956
Si Si2 0.352108 0.070649 0.109038
Si Si3 0.868184 0.571541 0.009100
Si Si4 0.303236 0.070994 0.480406
Si Si5 0.982946 0.570086 0.799075
Si Si6 0.169840 0.071106 0.737410
Si Si7 0.579298 0.071785 0.016671
O O1 0.432026 0.750000 0.551467
O O2 0.408817 0.029176 0.375149
O O3 0.341163 0.966042 0.443579
O O4 0.494288 0.994682 0.811681
O O5 0.357954 0.250000 0.091798
O O6 0.384900 0.960456 0.061057
O O7 0.260358 0.034993 0.916812
O O8 0.882387 0.750000 0.035137
O O9 0.789240 0.545467 0.732015
O O10 0.850103 0.529756 0.138501
O O11 0.944107 0.485817 0.130118
O O12 0.313243 0.250000 0.475721
O O13 0.357956 0.018855 0.740775
O O14 0.982540 0.750000 0.807675
O O15 0.899963 0.522846 0.534488
O O16 0.000000 0.500000 0.000000
O O17 0.167827 0.250000 0.726623
O O18 0.574614 0.250000 0.041374
#
# Coordination Sequence:
#
# PCOD9168225 Si02
#       7
#     4   4   4   4   4   4   4
#     4  12  24  42  65  94 127 166 214 265 320 378
#     4  11  22  42  67  93 125 169 217 262 317 379
#     4  10  21  42  68  93 123 165 210 256 314 376
#     4  11  23  42  67  93 125 169 214 263 320 381
#     4  11  24  41  64  97 132 167 206 255 311 372
#     4   9  20  41  67  92 123 166 210 253 310 375
#     4  12  26  42  61  92 131 169 212 266 322 377
#
# _framework density 19.917818
#
# number of rings (size 3 to 8) (size 9 to 14) (size 15 to 20)
#    0.000    1.143    1.429    5.143    2.000    1.143 
#    0.000    2.857    0.000    0.000    0.000    0.000 
#    0.000    0.000    0.000    0.000    0.000    0.000 
#
# Total GULP energy -156134.372569 kJ/mol
# GULP energy per Si atom -5576.227592 kJ/mol
# Density = 1.987248 g / cm^3
# Si number density = 19.917818 Si / 1000 Ang^3
#
#
#
# Elastic Constant Matrix: (Units=GPa)
#
#
# Indices 1 2 3 4 5 6 
#
# 1 40.0058 1.4327 6.5146 0.0000 15.5437 0.0000
# 2 1.4327 98.0555 24.9027 0.0000 17.3559 0.0000
# 3 6.5146 24.9027 149.3213 0.0000 19.0413 0.0000
# 4 0.0000 0.0000 0.0000 39.2226 0.0000 2.8151
# 5 15.5437 17.3559 19.0413 0.0000 33.2687 0.0000
# 6 0.0000 0.0000 0.0000 2.8151 0.0000 36.8846
#
#
#
# Elastic Compliance Matrix: (Units=1/GPa)
#
#
# Indices 1 2 3 4 5 6 
#
# 1 0.031026 0.002279 0.000287 0.000000 -0.015849 0.000000
# 2 0.002279 0.011611 -0.001216 0.000000 -0.006426 0.000000
# 3 0.000287 -0.001216 0.007361 0.000000 -0.003713 0.000000
# 4 0.000000 0.000000 0.000000 0.025636 0.000000 -0.001957
# 5 -0.015849 -0.006426 -0.003713 0.000000 0.042941 0.000000
# 6 0.000000 0.000000 0.000000 -0.001957 0.000000 0.027261
#
#
# Mechanical properties :
#
#
# Convention : Reuss Voigt Hill
#
# Bulk Modulus (GPa) = 18.97604 39.23139 29.10372
# Shear Modulus (GPa) = 31.11357 38.84403 34.97880
#
# Velocity S-wave (km/s) = 3.95663 4.42091 4.19520
# Velocity P-wave (km/s) = 5.51553 6.76747 6.17332
#
# Compressibility (1/GPa) = 0.05269803
#
# Stress axis : x y z
#
# Youngs Moduli (GPa) = 32.23104 86.12255 135.85629
#
# Poissons Ratio (x) = -0.19627 -0.03905
# Poissons Ratio (y) = -0.07345 0.16526
# Poissons Ratio (z) = -0.00926 0.10476
#
# Static dielectric constant tensor:
#      x y z
#    x 1.835440 0.000000 -0.104370 
#    y 0.000000 1.653090 0.000000 
#    z -0.104370 0.000000 1.769080 
# 
# From -- ./inp_files/28566.got.cif
#   From: 2010.05.17/outbox.ucp.g08.bks.cvg/sg11_15_cif.got.tgz:28566.got - 2010.06.11 11:38:39.
