data_PCOD9168080
_publ_section_title
;
Structure prediction by ZEFSAII (Michael W. Deem and Ramdas Pophale) SiO2 
 PCOD9168080
Probable space group: P 21/M
;
_chemical_formula_sum "Si O2"
_cell_formula_units_Z 32
_cell_length_a 12.000000
_cell_length_b 18.000000
_cell_length_c 15.000000
_cell_angle_alpha 90.000000
_cell_angle_beta 30.000000
_cell_angle_gamma 90.000000
_cell_volume 1620.000000
_symmetry_space_group_name_H-M "P 21/M"
_symmetry_group_IT_number 11
_symmetry_cell_setting 'monoclinic'
loop_
_space_group_symop_operation_xyz
x,y,z
-x,1/2+y,-z
-x,-y,-z
x,1/2-y,z
loop_
_atom_site_type_symbol
_atom_site_label
_atom_site_fract_x
_atom_site_fract_y
_atom_site_fract_z
Si Si1 0.608910 0.661691 0.409809
Si Si2 0.261717 0.837949 0.800332
Si Si3 0.075169 0.920569 0.095776
Si Si4 0.445835 0.838410 0.330324
Si Si5 0.731510 0.902334 0.846507
Si Si6 0.120592 0.402097 0.060408
Si Si7 0.212385 0.921416 0.203816
Si Si8 0.020812 0.662674 0.501391
O O1 0.661965 0.750000 0.370928
O O2 0.482201 0.645714 0.589769
O O3 0.452816 0.646659 0.431604
O O4 0.831803 0.614018 0.247539
O O5 0.253464 0.750000 0.825687
O O6 0.061673 0.858695 0.871113
O O7 0.231976 0.884845 0.911064
O O8 0.147318 0.902258 0.147144
O O9 0.073703 0.009789 0.088351
O O10 0.490053 0.750000 0.288818
O O11 0.220660 0.854792 0.432912
O O12 0.643552 0.884279 0.148482
O O13 0.856328 0.879628 0.851543
O O14 0.804261 0.857358 0.709062
O O15 0.788410 0.988995 0.789480
O O16 0.466977 0.896563 0.044972
O O17 0.058427 0.884328 0.385713
O O18 0.027867 0.750000 0.475280
#
# Coordination Sequence:
#
# PCOD9168080 Si02
#       8
#     4   4   4   4   4   4   4   4
#     4  10  22  40  60  85 119 159 198 244 307 360
#     4  11  23  40  63  88 120 162 201 245 305 363
#     4  11  24  40  59  89 123 159 204 248 291 357
#     4  10  20  37  62  90 122 155 191 250 312 356
#     4  10  22  42  65  88 121 160 202 251 306 358
#     4  11  21  39  64  93 119 155 203 252 305 357
#     4  10  23  43  61  86 123 165 203 245 299 360
#     4  11  23  39  64  96 122 153 202 255 306 361
#
# _framework density 19.753086
#
# number of rings (size 3 to 8) (size 9 to 14) (size 15 to 20)
#    0.000    1.500    2.500    2.250    0.000    5.000 
#    4.500    1.250    0.000    0.000    0.000    0.000 
#    0.000    0.000    0.000    0.000    0.000    0.000 
#
# Total GULP energy -178860.255838 kJ/mol
# GULP energy per Si atom -5589.382995 kJ/mol
# Density = 1.970813 g / cm^3
# Si number density = 19.753086 Si / 1000 Ang^3
#
#
#
# Elastic Constant Matrix: (Units=GPa)
#
#
# Indices 1 2 3 4 5 6 
#
# 1 74.0076 0.2194 -5.9657 0.0000 23.5508 0.0000
# 2 0.2194 2.8533 3.1071 0.0000 7.3195 0.0000
# 3 -5.9657 3.1071 52.7004 0.0000 23.1828 0.0000
# 4 0.0000 0.0000 0.0000 21.6977 0.0000 8.3769
# 5 23.5508 7.3195 23.1828 0.0000 35.5428 0.0000
# 6 0.0000 0.0000 0.0000 8.3769 0.0000 22.5027
#
#
#
# Elastic Compliance Matrix: (Units=1/GPa)
#
#
# Indices 1 2 3 4 5 6 
#
# 1 0.045765 0.200641 0.034873 0.000000 -0.094389 0.000000
# 2 0.200641 1.665814 0.187762 0.000000 -0.598463 0.000000
# 3 0.034873 0.187762 0.054730 0.000000 -0.097471 0.000000
# 4 0.000000 0.000000 0.000000 0.053823 0.000000 -0.020036
# 5 -0.094389 -0.598463 -0.097471 0.000000 0.277498 0.000000
# 6 0.000000 0.000000 0.000000 -0.020036 0.000000 0.051898
#
#
# Mechanical properties :
#
#
# Convention : Reuss Voigt Hill
#
# Bulk Modulus (GPa) = 0.38272 13.80923 7.09597
# Shear Modulus (GPa) = 2.29998 24.76200 13.53099
#
# Velocity S-wave (km/s) = 1.08023 3.54443 2.62010
# Velocity P-wave (km/s) = 1.32289 4.87409 3.57119
#
# Compressibility (1/GPa) = 2.61285895
#
# Stress axis : x y z
#
# Youngs Moduli (GPa) = 21.85083 0.60031 18.27152
#
# Poissons Ratio (x) = -0.12045 -0.63717
# Poissons Ratio (y) = -4.38417 -3.43069
# Poissons Ratio (z) = -0.76199 -0.11271
#
# Static dielectric constant tensor:
#      x y z
#    x 1.684930 0.000000 -0.007450 
#    y 0.000000 1.668360 0.000000 
#    z -0.007450 0.000000 1.698630 
# 
# From -- ./inp_files/50686.got.cif
#   From: 2010.05.17/outbox.ucp.g08.bks.cvg/sg11_26_cif.got.tgz:50686.got - 2010.06.11 11:38:39.
