data_PCOD9168061
_publ_section_title
;
Structure prediction by ZEFSAII (Michael W. Deem and Ramdas Pophale) SiO2 
 PCOD9168061
Probable space group: P 21/M
;
_chemical_formula_sum "Si O2"
_cell_formula_units_Z 32
_cell_length_a 24.000000
_cell_length_b 15.000000
_cell_length_c 9.000000
_cell_angle_alpha 90.000000
_cell_angle_beta 150.000000
_cell_angle_gamma 90.000000
_cell_volume 1620.000000
_symmetry_space_group_name_H-M "P 21/M"
_symmetry_group_IT_number 11
_symmetry_cell_setting 'monoclinic'
loop_
_space_group_symop_operation_xyz
x,y,z
-x,1/2+y,-z
-x,-y,-z
x,1/2-y,z
loop_
_atom_site_type_symbol
_atom_site_label
_atom_site_fract_x
_atom_site_fract_y
_atom_site_fract_z
Si Si1 0.863746 0.352972 0.536261
Si Si2 0.895242 0.857154 0.909802
Si Si3 0.353563 0.964046 0.977138
Si Si4 0.704786 0.499432 0.833960
Si Si5 0.334891 0.351590 0.774381
Si Si6 0.875249 0.349930 0.202376
Si Si7 0.126915 0.143774 0.795302
Si Si8 0.541907 0.575545 0.210237
O O1 0.842141 0.250000 0.535585
O O2 0.875856 0.348399 0.384234
O O3 0.765859 0.422090 0.340331
O O4 0.984086 0.387114 0.867715
O O5 0.906011 0.750000 0.943358
O O6 0.791304 0.874850 0.565333
O O7 0.872537 0.883329 0.028477
O O8 0.440530 0.903236 0.086698
O O9 0.360776 0.963031 0.173117
O O10 0.370564 0.066439 0.962134
O O11 0.631066 0.536381 0.531070
O O12 0.784332 0.422518 0.953463
O O13 0.783506 0.580092 0.073380
O O14 0.340666 0.250000 0.847318
O O15 0.403616 0.354689 0.777366
O O16 0.848322 0.250000 0.088610
O O17 0.001579 0.372046 0.448210
O O18 0.149861 0.250000 0.836883
O O19 0.500000 0.500000 0.000000
#
# Coordination Sequence:
#
# PCOD9168061 Si02
#       8
#     4   4   4   4   4   4   4   4
#     4   8  15  30  52  78 110 143 178 221 271 328
#     4   8  14  28  52  79 104 139 184 221 259 323
#     4  10  22  35  52  83 112 140 179 233 284 326
#     4  11  19  33  57  81 109 145 182 229 288 325
#     4  10  20  37  57  78 107 145 184 229 279 330
#     4   8  16  30  50  80 114 143 177 222 272 333
#     4   9  16  28  51  84 112 139 181 223 267 334
#     4  10  22  39  55  75 105 147 195 234 264 321
#
# _framework density 19.753086
#
# number of rings (size 3 to 8) (size 9 to 14) (size 15 to 20)
#    0.000    2.750    1.250    2.250    0.000    1.500 
#    0.000    2.500    0.000    5.250    0.000    0.000 
#    0.000    0.000    0.000    0.000    0.000    0.000 
#
# Total GULP energy -178240.569619 kJ/mol
# GULP energy per Si atom -5570.017801 kJ/mol
# Density = 1.970813 g / cm^3
# Si number density = 19.753086 Si / 1000 Ang^3
#
#
#
# Elastic Constant Matrix: (Units=GPa)
#
#
# Indices 1 2 3 4 5 6 
#
# 1 47.8321 13.9831 20.6514 0.0000 14.3248 0.0000
# 2 13.9831 48.1249 10.9895 0.0000 11.3207 0.0000
# 3 20.6514 10.9895 34.5608 0.0000 22.2312 0.0000
# 4 0.0000 0.0000 0.0000 0.0886 0.0000 -2.0651
# 5 14.3248 11.3207 22.2312 0.0000 22.9200 0.0000
# 6 0.0000 0.0000 0.0000 -2.0651 0.0000 20.5470
#
#
#
# Elastic Compliance Matrix: (Units=1/GPa)
#
#
# Indices 1 2 3 4 5 6 
#
# 1 0.029200 -0.004739 -0.015177 0.000000 -0.001188 0.000000
# 2 -0.004739 0.024280 0.002447 0.000000 -0.011404 0.000000
# 3 -0.015177 0.002447 0.084826 0.000000 -0.074000 0.000000
# 4 0.000000 0.000000 0.000000 -8.405988 0.000000 -0.844872
# 5 -0.001188 -0.011404 -0.074000 0.000000 0.121782 0.000000
# 6 0.000000 0.000000 0.000000 -0.844872 0.000000 -0.036248
#
#
# Mechanical properties :
#
#
# Convention : Reuss Voigt Hill
#
# Bulk Modulus (GPa) = 9.67419 24.64062 17.15740
# Shear Modulus (GPa) = -0.61631 14.37070 6.87719
#
# Velocity S-wave (km/s) = -0.55918 2.70018 1.86792
# Velocity P-wave (km/s) = 2.11926 4.71409 3.65472
#
# Compressibility (1/GPa) = 0.10336783
#
# Stress axis : x y z
#
# Youngs Moduli (GPa) = 34.24609 41.18589 11.78886
#
# Poissons Ratio (x) = 0.19519 0.17892
# Poissons Ratio (y) = 0.16230 -0.02885
# Poissons Ratio (z) = 0.51976 -0.10078
#
# Static dielectric constant tensor:
#      x y z
#    x 1.724030 0.000000 0.042810 
#    y 0.000000 2.081010 0.000000 
#    z 0.042810 0.000000 1.734220 
# 
# From -- ./inp_files/27807.got.cif
#   From: 2010.05.17/outbox.ucp.g08.bks.cvg/sg11_14_cif.got.tgz:27807.got - 2010.06.11 11:38:39.
