data_PCOD9168486
_publ_section_title
;
Structure prediction by ZEFSAII (Michael W. Deem and Ramdas Pophale) SiO2 
 PCOD9168486
Probable space group: C 2/M
;
_chemical_formula_sum "Si O2"
_cell_formula_units_Z 64
_cell_length_a 20.768577
_cell_length_b 8.917954
_cell_length_c 21.161100
_cell_angle_alpha 90.000000
_cell_angle_beta 99.776840
_cell_angle_gamma 90.000000
_cell_volume 3862.393643
_symmetry_space_group_name_H-M "C 2/M"
_symmetry_group_IT_number 12
_symmetry_cell_setting 'monoclinic'
loop_
_space_group_symop_operation_xyz
x,y,z
-x,y,-z
-x,-y,-z
x,-y,z
1/2+x,1/2+y,z
1/2-x,1/2+y,-z
1/2-x,1/2-y,-z
1/2+x,1/2-y,z
loop_
_atom_site_type_symbol
_atom_site_label
_atom_site_fract_x
_atom_site_fract_y
_atom_site_fract_z
Si Si1 0.578495 0.680932 0.066850
Si Si2 0.959446 0.321093 0.325601
Si Si3 0.101631 0.173052 0.207762
Si Si4 0.942899 0.174342 0.192226
Si Si5 0.933702 0.320486 0.061457
Si Si6 0.181969 0.179148 0.468196
Si Si7 0.067147 0.180196 0.546549
Si Si8 0.613701 0.822514 0.338378
O O1 0.570138 0.500000 0.061515
O O2 0.617915 0.713309 0.137920
O O3 0.507968 0.758884 0.065709
O O4 0.603255 0.746956 0.004593
O O5 0.953595 0.500000 0.321028
O O6 0.929261 0.247501 0.257752
O O7 0.929922 0.258104 0.385172
O O8 0.037314 0.284075 0.338791
O O9 0.127870 0.273460 0.268834
O O10 0.022265 0.180912 0.198673
O O11 0.119886 0.000000 0.221889
O O12 0.913710 0.261823 0.127298
O O13 0.924481 0.000000 0.187119
O O14 0.932753 0.500000 0.057995
O O15 0.250000 0.250000 0.500000
O O16 0.126859 0.219334 0.510772
O O17 0.157725 0.239077 0.396692
O O18 0.186890 0.000000 0.466970
O O19 0.000000 0.223265 0.500000
O O20 0.065965 0.000000 0.555189
O O21 0.621183 0.000000 0.346587
#
# Coordination Sequence:
#
# PCOD9168486 Si02
#       8
#     8   8   8   8   8   8   8   8
#     4   9  15  23  33  47  70 106 148 185 226 279
#     4  10  19  29  46  71  95 118 152 201 242 280
#     4   8  15  25  38  55  77 109 149 190 230 275
#     4   9  16  26  38  53  79 114 150 187 230 284
#     4  10  16  21  31  48  73 105 144 189 232 274
#     4  11  23  38  55  73  98 128 161 200 243 295
#     4  10  20  35  54  74  96 127 162 197 241 293
#     4  10  19  30  46  68  93 120 153 194 242 288
#
# _framework density 16.570036000000002
#
# number of rings (size 3 to 8) (size 9 to 14) (size 15 to 20)
#    0.000    2.375    1.250    4.500    0.000    5.750 
#    0.000    0.000    0.000    0.000    0.000    0.000 
#    0.000    0.000    0.000    1.125    0.000   15.500 
#
# Total GULP energy -178305.021532 kJ/mol
# GULP energy per Si atom -5572.031923 kJ/mol
# Density = 1.653232 g / cm^3
# Si number density = 16.570036 Si / 1000 Ang^3
#
#
#
# Elastic Constant Matrix: (Units=GPa)
#
#
# Indices 1 2 3 4 5 6 
#
# 1 42.1435 28.7109 36.4772 0.0000 2.1361 0.0000
# 2 28.7109 79.3372 73.0088 0.0000 4.0057 0.0000
# 3 36.4772 73.0088 179.7772 0.0000 1.6136 0.0000
# 4 0.0000 0.0000 0.0000 26.8541 0.0000 0.4432
# 5 2.1361 4.0057 1.6136 0.0000 6.3067 0.0000
# 6 0.0000 0.0000 0.0000 0.4432 0.0000 12.0809
#
#
#
# Elastic Compliance Matrix: (Units=1/GPa)
#
#
# Indices 1 2 3 4 5 6 
#
# 1 0.032541 -0.008786 -0.002993 0.000000 -0.004676 0.000000
# 2 -0.008786 0.023248 -0.007570 0.000000 -0.009853 0.000000
# 3 -0.002993 -0.007570 0.009213 0.000000 0.003464 0.000000
# 4 0.000000 0.000000 0.000000 0.037261 0.000000 -0.001367
# 5 -0.004676 -0.009853 0.003464 0.000000 0.165516 0.000000
# 6 0.000000 0.000000 0.000000 -0.001367 0.000000 0.082825
#
#
# Mechanical properties :
#
#
# Convention : Reuss Voigt Hill
#
# Bulk Modulus (GPa) = 38.01656 64.18354 51.10005
# Shear Modulus (GPa) = 12.56064 19.91909 16.23986
#
# Velocity S-wave (km/s) = 2.75623 3.47091 3.13401
# Velocity P-wave (km/s) = 5.75516 7.40822 6.63339
#
# Compressibility (1/GPa) = 0.02630432
#
# Stress axis : x y z
#
# Youngs Moduli (GPa) = 30.73002 43.01536 108.54589
#
# Poissons Ratio (x) = 0.37795 0.32483
# Poissons Ratio (y) = 0.27000 0.82167
# Poissons Ratio (z) = 0.09196 0.32562
#
# Static dielectric constant tensor:
#      x y z
#    x 1.525830 0.000000 -0.004690 
#    y 0.000000 1.548590 0.000000 
#    z -0.004690 0.000000 1.596330 
# 
# From -- ./inp_files/314198.got.cif
#   From: 2010.05.17/outbox.cif.g08.bks.cpg/sg12_158_cif.got.tgz:314198.got - 2010.06.03 13:09:07.
