data_PCOD9168291
_publ_section_title
;
Structure prediction by ZEFSAII (Michael W. Deem and Ramdas Pophale) SiO2 
 PCOD9168291
Probable space group: C 2/M
;
_chemical_formula_sum "Si O2"
_cell_formula_units_Z 48
_cell_length_a 5.379540
_cell_length_b 14.633593
_cell_length_c 31.168688
_cell_angle_alpha 90.000000
_cell_angle_beta 105.415548
_cell_angle_gamma 90.000000
_cell_volume 2365.386797
_symmetry_space_group_name_H-M "C 2/M"
_symmetry_group_IT_number 12
_symmetry_cell_setting 'monoclinic'
loop_
_space_group_symop_operation_xyz
x,y,z
-x,y,-z
-x,-y,-z
x,-y,z
1/2+x,1/2+y,z
1/2-x,1/2+y,-z
1/2-x,1/2-y,-z
1/2+x,1/2-y,z
loop_
_atom_site_type_symbol
_atom_site_label
_atom_site_fract_x
_atom_site_fract_y
_atom_site_fract_z
Si Si1 0.173208 0.309419 0.141751
Si Si2 0.078682 0.645950 0.720713
Si Si3 0.114971 0.693178 0.380619
Si Si4 0.877879 0.310081 0.952863
Si Si5 0.712946 0.890689 0.476045
Si Si6 0.362763 0.642982 0.241283
O O1 0.396425 0.233455 0.142308
O O2 0.146307 0.358549 0.094384
O O3 0.277964 0.360650 0.188126
O O4 0.993545 0.648063 0.667590
O O5 0.857247 0.603194 0.739091
O O6 0.356848 0.603361 0.739010
O O7 0.110213 0.750462 0.740985
O O8 0.398370 0.731185 0.382173
O O9 0.138841 0.633278 0.424214
O O10 0.597605 0.268388 0.952890
O O11 0.000000 0.359090 0.000000
O O12 0.500000 0.856139 0.500000
O O13 0.000000 0.856459 0.500000
O O14 0.719133 0.000000 0.480548
#
# Coordination Sequence:
#
# PCOD9168291 Si02
#       6
#     8   8   8   8   8   8
#     4  10  14  18  29  40  53  87 121 143 191 247
#     4  10  16  25  36  57  84 104 121 158 205 245
#     4  12  21  32  53  78  98 117 147 185 224 259
#     4   8  14  20  24  33  49  69 107 159 195 219
#     4  10  23  42  57  71  96 127 152 178 217 264
#     4  10  14  23  34  49  78 105 123 153 203 257
#
# _framework density 20.292666000000001
#
# number of rings (size 3 to 8) (size 9 to 14) (size 15 to 20)
#    0.000    2.000    6.667    1.000    0.000    2.000 
#    0.000    0.000    0.000    0.000    0.000    0.000 
#    0.000    0.000    0.000    0.000    0.000    0.000 
#
# Total GULP energy -133705.273840 kJ/mol
# GULP energy per Si atom -5571.053077 kJ/mol
# Density = 2.024648 g / cm^3
# Si number density = 20.292666 Si / 1000 Ang^3
#
#
#
# Elastic Constant Matrix: (Units=GPa)
#
#
# Indices 1 2 3 4 5 6 
#
# 1 154.0278 10.5913 42.3555 0.0000 -5.1014 0.0000
# 2 10.5913 39.1958 16.7855 0.0000 1.1054 0.0000
# 3 42.3555 16.7855 202.6515 0.0000 -10.5933 0.0000
# 4 0.0000 0.0000 0.0000 -19.5293 0.0000 1.8105
# 5 -5.1014 1.1054 -10.5933 0.0000 38.2480 0.0000
# 6 0.0000 0.0000 0.0000 1.8105 0.0000 -13.0074
#
#
#
# Elastic Compliance Matrix: (Units=1/GPa)
#
#
# Indices 1 2 3 4 5 6 
#
# 1 0.006965 -0.001337 -0.001314 0.000000 0.000604 0.000000
# 2 -0.001337 0.026781 -0.002018 0.000000 -0.001511 0.000000
# 3 -0.001314 -0.002018 0.005449 0.000000 0.001392 0.000000
# 4 0.000000 0.000000 0.000000 -0.051874 0.000000 -0.007220
# 5 0.000604 -0.001511 0.001392 0.000000 0.026655 0.000000
# 6 0.000000 0.000000 0.000000 -0.007220 0.000000 -0.077884
#
#
# Mechanical properties :
#
#
# Convention : Reuss Voigt Hill
#
# Bulk Modulus (GPa) = 33.49047 59.48217 46.48632
# Shear Modulus (GPa) = -112.06030 22.88510 -44.58760
#
# Velocity S-wave (km/s) = -7.43922 3.36185 -4.69254
# Velocity P-wave (km/s) = 7.56635 6.66672 2.53028
#
# Compressibility (1/GPa) = 0.02985924
#
# Stress axis : x y z
#
# Youngs Moduli (GPa) = 143.56563 37.34002 183.51865
#
# Poissons Ratio (x) = 0.04991 0.24106
# Poissons Ratio (y) = 0.19190 0.37031
# Poissons Ratio (z) = 0.18858 0.07535
#
# Static dielectric constant tensor:
#      x y z
#    x 1.764600 0.000000 -0.030550 
#    y 0.000000 1.706630 0.000000 
#    z -0.030550 0.000000 1.772970 
# 
# From -- ./inp_files/371449.got.cif
#   From: 2010.05.17/outbox.cif.g08.bks.cpg/sg12_186_cif.got.tgz:371449.got - 2010.06.03 13:09:07.
