data_PCOD9168429
_publ_section_title
;
Structure prediction by ZEFSAII (Michael W. Deem and Ramdas Pophale) SiO2 
 PCOD9168429
Probable space group: C 2/M
;
_chemical_formula_sum "Si O2"
_cell_formula_units_Z 36
_cell_length_a 9.760304
_cell_length_b 21.415454
_cell_length_c 7.101566
_cell_angle_alpha 90.000000
_cell_angle_beta 80.805208
_cell_angle_gamma 90.000000
_cell_volume 1465.305761
_symmetry_space_group_name_H-M "C 2/M"
_symmetry_group_IT_number 12
_symmetry_cell_setting 'monoclinic'
loop_
_space_group_symop_operation_xyz
x,y,z
-x,y,-z
-x,-y,-z
x,-y,z
1/2+x,1/2+y,z
1/2-x,1/2+y,-z
1/2-x,1/2-y,-z
1/2+x,1/2-y,z
loop_
_atom_site_type_symbol
_atom_site_label
_atom_site_fract_x
_atom_site_fract_y
_atom_site_fract_z
Si Si1 0.609541 0.430573 0.722645
Si Si2 0.875685 0.313450 0.255473
Si Si3 0.000000 0.165361 0.500000
Si Si4 0.652505 0.223388 0.296948
Si Si5 0.219460 0.071522 0.100312
O O1 0.640338 0.500000 0.644871
O O2 0.614509 0.378433 0.566413
O O3 0.445330 0.429026 0.811019
O O4 0.706787 0.417201 0.878286
O O5 0.802128 0.248618 0.199266
O O6 0.850998 0.304346 0.488974
O O7 0.806528 0.375225 0.184465
O O8 0.042849 0.314694 0.197681
O O9 0.928012 0.210294 0.664096
O O10 0.269241 0.000000 0.121386
#
# Coordination Sequence:
#
# PCOD9168429 Si02
#       5
#     8   8   4   8   8
#     4   9  17  27  45  72 100 129 163 209 255 289
#     4   9  16  33  49  72 104 132 165 206 250 294
#     4  10  15  28  46  70  99 128 160 212 244 296
#     4   9  19  29  51  75 100 135 165 204 252 293
#     4   9  17  30  48  70 101 132 164 207 251 294
#
# _framework density 24.568249999999999
#
# number of rings (size 3 to 8) (size 9 to 14) (size 15 to 20)
#    0.000    3.111    2.222    1.667    0.000    0.000 
#    0.000    6.667    0.000    0.000    0.000    0.000 
#    0.000   56.889    0.000    0.000    0.000    0.000 
#
# Total GULP energy -100481.060267 kJ/mol
# GULP energy per Si atom -5582.281126 kJ/mol
# Density = 2.451233 g / cm^3
# Si number density = 24.568250 Si / 1000 Ang^3
#
#
#
# Elastic Constant Matrix: (Units=GPa)
#
#
# Indices 1 2 3 4 5 6 
#
# 1 109.9480 60.7041 28.2266 0.0000 31.0827 0.0000
# 2 60.7041 169.4921 80.6252 0.0000 46.4199 0.0000
# 3 28.2266 80.6252 100.1967 0.0000 35.1125 0.0000
# 4 0.0000 0.0000 0.0000 40.8509 0.0000 17.2871
# 5 31.0827 46.4199 35.1125 0.0000 38.8270 0.0000
# 6 0.0000 0.0000 0.0000 17.2871 0.0000 26.4566
#
#
#
# Elastic Compliance Matrix: (Units=1/GPa)
#
#
# Indices 1 2 3 4 5 6 
#
# 1 0.012645 -0.003221 0.001797 0.000000 -0.007897 0.000000
# 2 -0.003221 0.011669 -0.006584 0.000000 -0.005420 0.000000
# 3 0.001797 -0.006584 0.018325 0.000000 -0.010139 0.000000
# 4 0.000000 0.000000 0.000000 0.033835 0.000000 -0.022108
# 5 -0.007897 -0.005420 -0.010139 0.000000 0.047726 0.000000
# 6 0.000000 0.000000 0.000000 -0.022108 0.000000 0.052244
#
#
# Mechanical properties :
#
#
# Convention : Reuss Voigt Hill
#
# Bulk Modulus (GPa) = 37.55978 79.86097 58.71038
# Shear Modulus (GPa) = 24.83453 35.23230 30.03341
#
# Velocity S-wave (km/s) = 3.18282 3.79100 3.50015
# Velocity P-wave (km/s) = 5.36919 7.19296 6.34692
#
# Compressibility (1/GPa) = 0.02662422
#
# Stress axis : x y z
#
# Youngs Moduli (GPa) = 79.08522 85.69396 54.57055
#
# Poissons Ratio (x) = 0.27599 -0.09805
# Poissons Ratio (y) = 0.25470 0.35927
# Poissons Ratio (z) = -0.14210 0.56417
#
# Static dielectric constant tensor:
#      x y z
#    x 2.086510 0.000000 -0.023290 
#    y 0.000000 1.953350 0.000000 
#    z -0.023290 0.000000 2.107990 
# 
# From -- ./inp_files/39510.got.cif
#   From: 2010.05.17/outbox.cif.g08.bks.cpg/sg12_20_cif.got.tgz:39510.got - 2010.06.03 13:09:07.
