data_PCOD9168741
_publ_section_title
;
Structure prediction by ZEFSAII (Michael W. Deem and Ramdas Pophale) SiO2 
 PCOD9168741
Probable space group: C 2/M
;
_chemical_formula_sum "Si O2"
_cell_formula_units_Z 48
_cell_length_a 13.721515
_cell_length_b 25.195947
_cell_length_c 11.011698
_cell_angle_alpha 90.000000
_cell_angle_beta 149.367193
_cell_angle_gamma 90.000000
_cell_volume 1939.815250
_symmetry_space_group_name_H-M "C 2/M"
_symmetry_group_IT_number 12
_symmetry_cell_setting 'monoclinic'
loop_
_space_group_symop_operation_xyz
x,y,z
-x,y,-z
-x,-y,-z
x,-y,z
1/2+x,1/2+y,z
1/2-x,1/2+y,-z
1/2-x,1/2-y,-z
1/2+x,1/2-y,z
loop_
_atom_site_type_symbol
_atom_site_label
_atom_site_fract_x
_atom_site_fract_y
_atom_site_fract_z
Si Si1 0.297932 0.138494 0.080568
Si Si2 0.132387 0.058903 0.752799
Si Si3 0.142915 0.830752 0.410410
Si Si4 0.599128 0.781484 0.477308
Si Si5 0.227228 0.060447 0.221396
Si Si6 0.751149 0.441989 0.526262
O O1 0.305021 0.095430 0.979571
O O2 0.081801 0.159115 0.835844
O O3 0.440087 0.187884 0.225790
O O4 0.306419 0.104682 0.214764
O O5 0.000000 0.078955 0.500000
O O6 0.980848 0.053694 0.701303
O O7 0.195716 0.000000 0.787052
O O8 0.216367 0.817206 0.353397
O O9 0.160568 0.777646 0.507740
O O10 0.264547 0.881351 0.587664
O O11 0.500000 0.781329 0.500000
O O12 0.305434 0.061615 0.443091
O O13 0.260814 0.000000 0.210933
O O14 0.000000 0.067330 0.000000
O O15 0.822206 0.500000 0.647886
#
# Coordination Sequence:
#
# PCOD9168741 Si02
#       6
#     8   8   8   8   8   8
#     4  11  21  37  63  88 119 164 207 257 314 380
#     4   9  17  30  54  88 124 165 209 251 304 371
#     4  10  22  41  58  86 126 158 202 261 312 386
#     4  11  25  40  61  89 121 164 213 260 322 385
#     4  10  16  27  55  91 120 152 190 241 313 376
#     4   9  17  31  56  84 112 150 191 240 308 370
#
# _framework density 24.744624999999999
#
# number of rings (size 3 to 8) (size 9 to 14) (size 15 to 20)
#    0.000    2.000    3.333    2.000    0.000    2.667 
#    0.000    1.667    0.000   12.500    0.000   10.500 
#    0.000    0.000    0.000    1.667    0.000    0.000 
#
# Total GULP energy -133828.581825 kJ/mol
# GULP energy per Si atom -5576.190909 kJ/mol
# Density = 2.468831 g / cm^3
# Si number density = 24.744625 Si / 1000 Ang^3
#
#
#
# Elastic Constant Matrix: (Units=GPa)
#
#
# Indices 1 2 3 4 5 6 
#
# 1 59.8487 23.0136 6.4558 0.0000 -2.4278 0.0000
# 2 23.0136 180.3135 12.6608 0.0000 -3.5052 0.0000
# 3 6.4558 12.6608 51.6162 0.0000 3.4615 0.0000
# 4 0.0000 0.0000 0.0000 22.9502 0.0000 -2.8725
# 5 -2.4278 -3.5052 3.4615 0.0000 37.4647 0.0000
# 6 0.0000 0.0000 0.0000 -2.8725 0.0000 4.0220
#
#
#
# Elastic Compliance Matrix: (Units=1/GPa)
#
#
# Indices 1 2 3 4 5 6 
#
# 1 0.017761 -0.002120 -0.001776 0.000000 0.001117 0.000000
# 2 -0.002120 0.005913 -0.001220 0.000000 0.000529 0.000000
# 3 -0.001776 -0.001220 0.020035 0.000000 -0.002080 0.000000
# 4 0.000000 0.000000 0.000000 0.047850 0.000000 0.034174
# 5 0.001117 0.000529 -0.002080 0.000000 0.027006 0.000000
# 6 0.000000 0.000000 0.000000 0.034174 0.000000 0.273042
#
#
# Mechanical properties :
#
#
# Convention : Reuss Voigt Hill
#
# Bulk Modulus (GPa) = 29.87384 41.78208 35.82796
# Shear Modulus (GPa) = 12.10660 29.53059 20.81859
#
# Velocity S-wave (km/s) = 2.21433 3.45833 2.90373
# Velocity P-wave (km/s) = 4.31703 5.73312 5.07471
#
# Compressibility (1/GPa) = 0.03347410
#
# Stress axis : x y z
#
# Youngs Moduli (GPa) = 56.30288 169.13311 49.91313
#
# Poissons Ratio (x) = 0.35864 0.08866
# Poissons Ratio (y) = 0.11939 0.06092
# Poissons Ratio (z) = 0.10001 0.20643
#
# Static dielectric constant tensor:
#      x y z
#    x 2.034490 0.000000 -0.011350 
#    y 0.000000 2.064570 0.000000 
#    z -0.011350 0.000000 1.973850 
# 
# From -- ./inp_files/149886.got.cif
#   From: 2010.05.17/outbox.cif.g08.bks.cpg/sg12_75_cif.got.tgz:149886.got - 2010.06.03 13:09:07.
