data_PCOD9168057
_publ_section_title
;
Structure prediction by ZEFSAII (Michael W. Deem and Ramdas Pophale) SiO2 
 PCOD9168057
Probable space group: P 21/M
;
_chemical_formula_sum "Si O2"
_cell_formula_units_Z 32
_cell_length_a 27.000000
_cell_length_b 9.000000
_cell_length_c 21.000000
_cell_angle_alpha 90.000000
_cell_angle_beta 20.000000
_cell_angle_gamma 90.000000
_cell_volume 1745.328791
_symmetry_space_group_name_H-M "P 21/M"
_symmetry_group_IT_number 11
_symmetry_cell_setting 'monoclinic'
loop_
_space_group_symop_operation_xyz
x,y,z
-x,1/2+y,-z
-x,-y,-z
x,1/2-y,z
loop_
_atom_site_type_symbol
_atom_site_label
_atom_site_fract_x
_atom_site_fract_y
_atom_site_fract_z
Si Si1 0.325258 0.925349 0.366834
Si Si2 0.656093 0.574757 0.014564
Si Si3 0.157021 0.571461 0.320697
Si Si4 0.616763 0.929746 0.208051
Si Si5 0.655364 0.570647 0.793398
Si Si6 0.872460 0.429476 0.272872
Si Si7 0.312959 0.071004 0.613193
Si Si8 0.207156 0.070148 0.879890
O O1 0.302280 0.750000 0.379637
O O2 0.488049 0.940089 0.197381
O O3 0.217841 0.967021 0.554229
O O4 0.310160 0.019029 0.320411
O O5 0.695043 0.750000 0.959685
O O6 0.671406 0.535121 0.070700
O O7 0.748216 0.475571 0.855211
O O8 0.150993 0.750000 0.334550
O O9 0.231625 0.497654 0.292598
O O10 0.000000 0.500000 0.500000
O O11 0.599361 0.750000 0.230692
O O12 0.718849 0.976802 0.143449
O O13 0.463256 0.005601 0.406237
O O14 0.650192 0.750000 0.804465
O O15 0.500000 0.500000 0.000000
O O16 0.861906 0.250000 0.277540
O O17 0.807504 0.507950 0.289272
O O18 0.039324 0.472071 0.079899
O O19 0.313476 0.250000 0.610659
O O20 0.284676 0.022450 0.720606
O O21 0.212279 0.250000 0.873807
#
# Coordination Sequence:
#
# PCOD9168057 Si02
#       8
#     4   4   4   4   4   4   4   4
#     4  10  20  36  61  91 119 153 202 250 297 356
#     4  10  20  37  62  90 119 154 201 248 295 359
#     4  12  26  44  66  93 126 163 197 244 301 359
#     4  10  20  38  61  85 115 158 202 244 294 357
#     4  12  24  40  64  93 123 159 201 247 297 356
#     4  10  20  38  60  84 115 157 201 244 296 360
#     4  11  21  34  55  86 118 154 199 250 298 351
#     4   9  20  36  57  85 117 151 198 250 299 352
#
# _framework density 18.334654
#
# number of rings (size 3 to 8) (size 9 to 14) (size 15 to 20)
#    0.000    1.500    2.500    3.375    0.000    2.000 
#    0.000    4.375    0.000    0.000    0.000    0.000 
#    0.000    0.000    0.000    0.000    0.000    0.000 
#
# Total GULP energy -178782.369006 kJ/mol
# GULP energy per Si atom -5586.949031 kJ/mol
# Density = 1.829292 g / cm^3
# Si number density = 18.334654 Si / 1000 Ang^3
#
#
#
# Elastic Constant Matrix: (Units=GPa)
#
#
# Indices 1 2 3 4 5 6 
#
# 1 167.3063 50.7517 32.5448 0.0000 3.5512 0.0000
# 2 50.7517 82.4904 21.6461 0.0000 5.1081 0.0000
# 3 32.5448 21.6461 46.8575 0.0000 3.0406 0.0000
# 4 0.0000 0.0000 0.0000 19.7325 0.0000 4.4227
# 5 3.5512 5.1081 3.0406 0.0000 39.6101 0.0000
# 6 0.0000 0.0000 0.0000 4.4227 0.0000 33.7095
#
#
#
# Elastic Compliance Matrix: (Units=1/GPa)
#
#
# Indices 1 2 3 4 5 6 
#
# 1 0.007868 -0.003881 -0.003677 0.000000 0.000077 0.000000
# 2 -0.003881 0.015775 -0.004505 0.000000 -0.001341 0.000000
# 3 -0.003677 -0.004505 0.026047 0.000000 -0.001089 0.000000
# 4 0.000000 0.000000 0.000000 0.052213 0.000000 -0.006850
# 5 0.000077 -0.001341 -0.001089 0.000000 0.025496 0.000000
# 6 0.000000 0.000000 0.000000 -0.006850 0.000000 0.030564
#
#
# Mechanical properties :
#
#
# Convention : Reuss Voigt Hill
#
# Bulk Modulus (GPa) = 39.11658 56.28215 47.69936
# Shear Modulus (GPa) = 26.23156 31.39120 28.81138
#
# Velocity S-wave (km/s) = 3.78658 4.14227 3.96841
# Velocity P-wave (km/s) = 6.36385 7.32405 6.86077
#
# Compressibility (1/GPa) = 0.02556461
#
# Stress axis : x y z
#
# Youngs Moduli (GPa) = 127.09996 63.39013 38.39210
#
# Poissons Ratio (x) = 0.24599 0.14117
# Poissons Ratio (y) = 0.49322 0.17297
# Poissons Ratio (z) = 0.46734 0.28559
#
# Static dielectric constant tensor:
#      x y z
#    x 1.623280 0.000000 -0.002870 
#    y 0.000000 1.615300 0.000000 
#    z -0.002870 0.000000 1.624100 
# 
# From -- ./inp_files/66915.got.cif
#   From: 2010.05.17/outbox.ucp.g08.bks.cvg/sg11_34_cif.got.tgz:66915.got - 2010.06.11 11:38:39.
