data_PCOD9168035
_publ_section_title
;
Structure prediction by ZEFSAII (Michael W. Deem and Ramdas Pophale) SiO2 
 PCOD9168035
Probable space group: P 21/M
;
_chemical_formula_sum "Si O2"
_cell_formula_units_Z 32
_cell_length_a 15.000000
_cell_length_b 9.000000
_cell_length_c 24.000000
_cell_angle_alpha 90.000000
_cell_angle_beta 30.000000
_cell_angle_gamma 90.000000
_cell_volume 1620.000000
_symmetry_space_group_name_H-M "P 21/M"
_symmetry_group_IT_number 11
_symmetry_cell_setting 'monoclinic'
loop_
_space_group_symop_operation_xyz
x,y,z
-x,1/2+y,-z
-x,-y,-z
x,1/2-y,z
loop_
_atom_site_type_symbol
_atom_site_label
_atom_site_fract_x
_atom_site_fract_y
_atom_site_fract_z
Si Si1 0.658218 0.926489 0.376266
Si Si2 0.403414 0.072455 0.294136
Si Si3 0.795590 0.077649 0.693980
Si Si4 0.795878 0.576928 0.488535
Si Si5 0.775026 0.924094 0.074056
Si Si6 0.130886 0.074982 0.845541
Si Si7 0.664753 0.572291 0.877126
Si Si8 0.072951 0.575294 0.691561
O O1 0.625166 0.750000 0.394177
O O2 0.712628 0.972710 0.282853
O O3 0.500000 0.000000 0.500000
O O4 0.840355 0.971777 0.308968
O O5 0.407582 0.250000 0.290444
O O6 0.349680 0.030683 0.386698
O O7 0.251832 0.009533 0.335942
O O8 0.587948 0.008512 0.170321
O O9 0.742420 0.250000 0.718222
O O10 0.007202 0.073550 0.590624
O O11 0.692336 0.002146 0.801645
O O12 0.762186 0.750000 0.489891
O O13 0.820233 0.470898 0.422395
O O14 0.755675 0.750000 0.071744
O O15 0.813474 0.938990 0.119756
O O16 0.940568 0.989303 0.948726
O O17 0.099051 0.250000 0.851524
O O18 0.637767 0.750000 0.886801
O O19 0.860908 0.549590 0.798976
O O20 0.500000 0.500000 0.000000
O O21 0.100539 0.750000 0.688200
#
# Coordination Sequence:
#
# PCOD9168035 Si02
#       8
#     4   4   4   4   4   4   4   4
#     4  11  24  41  63  91 122 157 200 248 301 357
#     4  11  22  35  55  85 117 150 192 236 287 347
#     4  10  20  36  56  81 114 150 192 239 288 341
#     4   9  20  37  57  82 115 154 193 236 286 343
#     4  10  21  38  61  87 114 151 196 241 294 350
#     4   9  21  42  62  83 116 153 192 242 296 349
#     4  10  21  38  60  85 116 156 198 243 293 350
#     4  10  22  39  59  86 118 154 197 243 296 353
#
# _framework density 19.753086
#
# number of rings (size 3 to 8) (size 9 to 14) (size 15 to 20)
#    0.000    2.000    0.000    2.625    1.750    5.500 
#    0.000    2.500    0.000    0.000    0.000    0.000 
#    0.000    0.000    0.000    0.000    0.000    0.000 
#
# Total GULP energy -178577.843042 kJ/mol
# GULP energy per Si atom -5580.557595 kJ/mol
# Density = 1.970813 g / cm^3
# Si number density = 19.753086 Si / 1000 Ang^3
#
#
#
# Elastic Constant Matrix: (Units=GPa)
#
#
# Indices 1 2 3 4 5 6 
#
# 1 34.8513 13.3452 5.4683 0.0000 7.2823 0.0000
# 2 13.3452 52.8975 33.0752 0.0000 3.4631 0.0000
# 3 5.4683 33.0752 124.5309 0.0000 22.0248 0.0000
# 4 0.0000 0.0000 0.0000 39.0344 0.0000 0.1366
# 5 7.2823 3.4631 22.0248 0.0000 23.7527 0.0000
# 6 0.0000 0.0000 0.0000 0.1366 0.0000 27.9757
#
#
#
# Elastic Compliance Matrix: (Units=1/GPa)
#
#
# Indices 1 2 3 4 5 6 
#
# 1 0.034542 -0.009972 0.003287 0.000000 -0.012184 0.000000
# 2 -0.009972 0.025696 -0.007494 0.000000 0.006260 0.000000
# 3 0.003287 -0.007494 0.011796 0.000000 -0.010853 0.000000
# 4 0.000000 0.000000 0.000000 0.025619 0.000000 -0.000125
# 5 -0.012184 0.006260 -0.010853 0.000000 0.054986 0.000000
# 6 0.000000 0.000000 0.000000 -0.000125 0.000000 0.035746
#
#
# Mechanical properties :
#
#
# Convention : Reuss Voigt Hill
#
# Bulk Modulus (GPa) = 22.89631 35.11746 29.00689
# Shear Modulus (GPa) = 21.61679 28.84529 25.23104
#
# Velocity S-wave (km/s) = 3.31168 3.82552 3.57784
# Velocity P-wave (km/s) = 5.12244 6.10980 5.63778
#
# Compressibility (1/GPa) = 0.04367515
#
# Stress axis : x y z
#
# Youngs Moduli (GPa) = 28.95042 38.91623 84.77698
#
# Poissons Ratio (x) = 0.38806 -0.27862
# Poissons Ratio (y) = 0.28868 0.63533
# Poissons Ratio (z) = -0.09515 0.29164
#
# Static dielectric constant tensor:
#      x y z
#    x 1.747480 0.000000 -0.006230 
#    y 0.000000 1.666180 0.000000 
#    z -0.006230 0.000000 1.680240 
# 
# From -- ./inp_files/55616.got.cif
#   From: 2010.05.17/outbox.ucp.g08.bks.cvg/sg11_28_cif.got.tgz:55616.got - 2010.06.11 11:38:39.
