data_PCOD9168816
_publ_section_title
;
Structure prediction by ZEFSAII (Michael W. Deem and Ramdas Pophale) SiO2 
 PCOD9168816
Probable space group: C 2/M
;
_chemical_formula_sum "Si O2"
_cell_formula_units_Z 56
_cell_length_a 14.362085
_cell_length_b 19.265336
_cell_length_c 28.469600
_cell_angle_alpha 90.000000
_cell_angle_beta 28.166166
_cell_angle_gamma 90.000000
_cell_volume 3718.307359
_symmetry_space_group_name_H-M "C 2/M"
_symmetry_group_IT_number 12
_symmetry_cell_setting 'monoclinic'
loop_
_space_group_symop_operation_xyz
x,y,z
-x,y,-z
-x,-y,-z
x,-y,z
1/2+x,1/2+y,z
1/2-x,1/2+y,-z
1/2-x,1/2-y,-z
1/2+x,1/2-y,z
loop_
_atom_site_type_symbol
_atom_site_label
_atom_site_fract_x
_atom_site_fract_y
_atom_site_fract_z
Si Si1 0.919854 0.344254 0.147526
Si Si2 0.690071 0.915766 0.387129
Si Si3 0.202919 0.298563 0.097725
Si Si4 0.855461 0.807986 0.133857
Si Si5 0.307766 0.580742 0.231902
Si Si6 0.873337 0.082774 0.778384
Si Si7 0.222682 0.134517 0.079502
O O1 0.860523 0.267183 0.156248
O O2 0.729518 0.391046 0.223141
O O3 0.024666 0.337791 0.151333
O O4 0.088564 0.373486 0.037345
O O5 0.500000 0.890482 0.500000
O O6 0.693628 0.898050 0.330329
O O7 0.899609 0.893928 0.316128
O O8 0.689117 0.000000 0.389189
O O9 0.233771 0.305814 0.139563
O O10 0.176503 0.216773 0.098436
O O11 0.413348 0.321093 0.981660
O O12 0.774823 0.867064 0.203927
O O13 0.268655 0.500000 0.238799
O O14 0.538218 0.590575 0.142960
O O15 0.756572 0.113850 0.875292
O O16 0.866885 0.000000 0.784355
#
# Coordination Sequence:
#
# PCOD9168816 Si02
#       7
#     8   8   8   8   8   8   8
#     4  11  18  29  45  66  98 129 157 185 226 280
#     4   8  16  32  52  73  94 115 147 195 247 295
#     4  10  18  29  46  63  89 135 172 182 205 273
#     4  10  18  31  45  64  93 129 173 189 210 274
#     4  10  18  29  48  71  92 118 157 201 235 266
#     4  10  20  29  45  75  97 115 150 196 248 284
#     4  10  16  29  45  67  93 123 158 191 225 273
#
# _framework density 15.060616
#
# number of rings (size 3 to 8) (size 9 to 14) (size 15 to 20)
#    0.000    2.143    4.286    2.571    0.000    1.714 
#    0.000    2.143    0.000    0.857    0.000    1.000 
#    0.000    4.571    0.000    0.000    0.000    0.000 
#
# Total GULP energy -155967.539642 kJ/mol
# GULP energy per Si atom -5570.269273 kJ/mol
# Density = 1.502634 g / cm^3
# Si number density = 15.060616 Si / 1000 Ang^3
#
#
#
# Elastic Constant Matrix: (Units=GPa)
#
#
# Indices 1 2 3 4 5 6 
#
# 1 95.9240 18.0746 26.3749 0.0157 -2.1465 -0.0047
# 2 18.0746 34.8739 27.4809 0.0146 5.7903 -0.0011
# 3 26.3749 27.4809 59.4173 -0.0641 7.3138 -0.0144
# 4 0.0157 0.0146 -0.0641 3.1558 -0.0094 -1.3524
# 5 -2.1465 5.7903 7.3138 -0.0094 12.0813 0.0084
# 6 -0.0047 -0.0011 -0.0144 -1.3524 0.0084 27.0684
#
#
#
# Elastic Compliance Matrix: (Units=1/GPa)
#
#
# Indices 1 2 3 4 5 6 
#
# 1 0.012606 -0.004098 -0.004558 -0.000119 0.006963 -0.000009
# 2 -0.004098 0.047533 -0.018663 -0.000631 -0.012212 -0.000036
# 3 -0.004558 -0.018663 0.028617 0.000685 -0.009188 0.000051
# 4 -0.000119 -0.000631 0.000685 0.323829 0.000108 0.016180
# 5 0.006963 -0.012212 -0.009188 0.000108 0.095425 -0.000028
# 6 -0.000009 -0.000036 0.000051 0.016180 -0.000028 0.037752
#
#
# Mechanical properties :
#
#
# Convention : Reuss Voigt Hill
#
# Bulk Modulus (GPa) = 29.30923 37.11954 33.21439
# Shear Modulus (GPa) = 8.17299 16.34677 12.25988
#
# Velocity S-wave (km/s) = 2.33206 3.29811 2.85623
# Velocity P-wave (km/s) = 5.17247 6.26128 5.74274
#
# Compressibility (1/GPa) = 0.03411895
#
# Stress axis : x y z
#
# Youngs Moduli (GPa) = 79.32688 21.03803 34.94487
#
# Poissons Ratio (x) = 0.08622 0.15926
# Poissons Ratio (y) = 0.32510 0.65216
# Poissons Ratio (z) = 0.36153 0.39262
#
# Static dielectric constant tensor:
#      x y z
#    x 1.531670 0.000000 -0.002380 
#    y 0.000000 1.494890 0.000000 
#    z -0.002380 0.000000 1.494620 
# 
# From -- ./inp_files/215584.got.cif
#   From: 2010.05.17/outbox.cif.g08.bks.cpg/sg12_108_cif.got.tgz:215584.got - 2010.06.03 13:09:07.
