data_PCOD9168975
_publ_section_title
;
Structure prediction by ZEFSAII (Michael W. Deem and Ramdas Pophale) SiO2 
 PCOD9168975
Probable space group: C 2/M
;
_chemical_formula_sum "Si O2"
_cell_formula_units_Z 56
_cell_length_a 17.979618
_cell_length_b 28.925272
_cell_length_c 7.671776
_cell_angle_alpha 90.000000
_cell_angle_beta 142.991908
_cell_angle_gamma 90.000000
_cell_volume 2401.586506
_symmetry_space_group_name_H-M "C 2/M"
_symmetry_group_IT_number 12
_symmetry_cell_setting 'monoclinic'
loop_
_space_group_symop_operation_xyz
x,y,z
-x,y,-z
-x,-y,-z
x,-y,z
1/2+x,1/2+y,z
1/2-x,1/2+y,-z
1/2-x,1/2-y,-z
1/2+x,1/2-y,z
loop_
_atom_site_type_symbol
_atom_site_label
_atom_site_fract_x
_atom_site_fract_y
_atom_site_fract_z
Si Si1 0.101955 0.172098 0.334019
Si Si2 0.855400 0.332515 0.913486
Si Si3 0.033778 0.096070 0.764767
Si Si4 0.601598 0.500000 0.849293
Si Si5 0.250409 0.168688 0.114602
Si Si6 0.386889 0.000000 0.427004
Si Si7 0.954467 0.601577 0.616016
Si Si8 0.949658 0.754905 0.227647
O O1 0.245899 0.175446 0.571546
O O2 0.077562 0.119314 0.341925
O O3 0.056221 0.207199 0.396366
O O4 0.000000 0.183339 0.000000
O O5 0.789311 0.333395 0.982994
O O6 0.937148 0.286501 0.069670
O O7 0.933474 0.379520 0.055441
O O8 0.000000 0.091872 0.500000
O O9 0.075528 0.046469 0.905854
O O10 0.142929 0.132798 0.964743
O O11 0.500000 0.500000 0.500000
O O12 0.748830 0.500000 0.081111
O O13 0.361588 0.145383 0.430436
O O14 0.181914 0.217908 0.016015
O O15 0.500000 0.000000 0.500000
O O16 0.401848 0.049867 0.554139
O O17 0.000000 0.598040 0.500000
O O18 0.000000 0.732337 0.500000
#
# Coordination Sequence:
#
# PCOD9168975 Si02
#       8
#     8   8   8   4   8   4   8   8
#     4  11  24  40  56  79 116 154 193 244 296 353
#     4  11  21  34  56  81 116 145 198 237 288 353
#     4  10  18  35  58  83 111 150 188 238 294 341
#     4  10  20  30  57  92 124 149 194 251 302 357
#     4  10  16  31  53  83 113 139 182 231 282 344
#     4  10  18  32  48  84 131 159 178 239 310 365
#     4   9  19  28  50  82 115 150 180 227 294 343
#     4  11  21  35  60  84 109 152 190 243 290 339
#
# _framework density 23.317920000000001
#
# number of rings (size 3 to 8) (size 9 to 14) (size 15 to 20)
#    0.000    1.714    4.286    2.571    2.000    0.571 
#    0.000    0.357    0.000    0.000    0.000    1.000 
#    0.000    0.000    0.000    0.000    0.000    0.000 
#
# Total GULP energy -156081.656987 kJ/mol
# GULP energy per Si atom -5574.344892 kJ/mol
# Density = 2.326485 g / cm^3
# Si number density = 23.317920 Si / 1000 Ang^3
#
#
#
# Elastic Constant Matrix: (Units=GPa)
#
#
# Indices 1 2 3 4 5 6 
#
# 1 42.8251 15.6777 3.5488 0.0000 8.5021 0.0000
# 2 15.6777 159.2852 49.9098 0.0000 20.1314 0.0000
# 3 3.5488 49.9098 139.1083 0.0000 25.9714 0.0000
# 4 0.0000 0.0000 0.0000 28.9899 0.0000 10.4678
# 5 8.5021 20.1314 25.9714 0.0000 19.7028 0.0000
# 6 0.0000 0.0000 0.0000 10.4678 0.0000 -6.6016
#
#
#
# Elastic Compliance Matrix: (Units=1/GPa)
#
#
# Indices 1 2 3 4 5 6 
#
# 1 0.026295 -0.001713 0.002302 0.000000 -0.012631 0.000000
# 2 -0.001713 0.007602 -0.001819 0.000000 -0.004630 0.000000
# 3 0.002302 -0.001819 0.010109 0.000000 -0.012459 0.000000
# 4 0.000000 0.000000 0.000000 0.021935 0.000000 0.034782
# 5 -0.012631 -0.004630 -0.012459 0.000000 0.077358 0.000000
# 6 0.000000 0.000000 0.000000 0.034782 0.000000 -0.096327
#
#
# Mechanical properties :
#
#
# Convention : Reuss Voigt Hill
#
# Bulk Modulus (GPa) = 24.07057 53.27681 38.67369
# Shear Modulus (GPa) = 79.01212 26.55707 52.78459
#
# Velocity S-wave (km/s) = 5.82737 3.37844 4.76299
# Velocity P-wave (km/s) = 7.45808 6.17382 6.84613
#
# Compressibility (1/GPa) = 0.04154450
#
# Stress axis : x y z
#
# Youngs Moduli (GPa) = 38.03049 131.54669 98.92354
#
# Poissons Ratio (x) = 0.22534 -0.22771
# Poissons Ratio (y) = 0.06515 0.17997
# Poissons Ratio (z) = -0.08754 0.23933
#
# Static dielectric constant tensor:
#      x y z
#    x 1.950460 0.000000 -0.018560 
#    y 0.000000 1.888470 0.000000 
#    z -0.018560 0.000000 1.951860 
# 
# From -- ./inp_files/91666.got.cif
#   From: 2010.05.17/outbox.cif.g08.bks.cpg/sg12_46_cif.got.tgz:91666.got - 2010.06.03 13:09:07.
