data_PCOD9168397
_publ_section_title
;
Structure prediction by ZEFSAII (Michael W. Deem and Ramdas Pophale) SiO2 
 PCOD9168397
Probable space group: C 2/M
;
_chemical_formula_sum "Si O2"
_cell_formula_units_Z 36
_cell_length_a 13.394347
_cell_length_b 17.153291
_cell_length_c 6.834077
_cell_angle_alpha 90.000000
_cell_angle_beta 58.828852
_cell_angle_gamma 90.000000
_cell_volume 1343.483508
_symmetry_space_group_name_H-M "C 2/M"
_symmetry_group_IT_number 12
_symmetry_cell_setting 'monoclinic'
loop_
_space_group_symop_operation_xyz
x,y,z
-x,y,-z
-x,-y,-z
x,-y,z
1/2+x,1/2+y,z
1/2-x,1/2+y,-z
1/2-x,1/2-y,-z
1/2+x,1/2-y,z
loop_
_atom_site_type_symbol
_atom_site_label
_atom_site_fract_x
_atom_site_fract_y
_atom_site_fract_z
Si Si1 0.765411 0.000000 0.001520
Si Si2 0.774764 0.833860 0.064523
Si Si3 0.466400 0.500000 0.260223
Si Si4 0.534206 0.667706 0.694356
Si Si5 0.097553 0.665637 0.574208
Si Si6 0.389841 0.000000 0.461344
O O1 0.726718 0.089523 0.997170
O O2 0.723667 0.000000 0.276847
O O3 0.900458 0.000000 0.788135
O O4 0.716724 0.830609 0.333571
O O5 0.750000 0.750000 0.000000
O O6 0.912871 0.844257 0.931711
O O7 0.406010 0.582560 0.364020
O O8 0.500000 0.500000 0.000000
O O9 0.500000 0.676979 0.500000
O O10 0.581436 0.753361 0.701545
O O11 0.099062 0.580347 0.668752
O O12 0.000000 0.662547 0.500000
O O13 0.500000 0.000000 0.500000
#
# Coordination Sequence:
#
# PCOD9168397 Si02
#       6
#     4   8   4   8   8   4
#     4   8  18  27  43  62  89 128 155 183 237 283
#     4  10  15  26  40  65  99 122 146 190 242 280
#     4  10  21  35  48  64  95 136 170 197 236 286
#     4  10  18  29  48  72  95 124 160 202 243 279
#     4   9  15  24  40  67  96 125 147 186 240 294
#     4   8  14  24  41  66  96 118 148 186 243 291
#
# _framework density 26.796009000000002
#
# number of rings (size 3 to 8) (size 9 to 14) (size 15 to 20)
#    0.000    2.667    4.444    0.333    0.000    0.000 
#    0.000    0.000    0.000   12.000    0.000    0.778 
#    0.000    0.000    0.000    7.778    0.000    0.000 
#
# Total GULP energy -100355.656535 kJ/mol
# GULP energy per Si atom -5575.314252 kJ/mol
# Density = 2.673502 g / cm^3
# Si number density = 26.796009 Si / 1000 Ang^3
#
#
#
# Elastic Constant Matrix: (Units=GPa)
#
#
# Indices 1 2 3 4 5 6 
#
# 1 64.2324 22.1525 12.4889 0.0000 -12.0868 0.0000
# 2 22.1525 408.4443 25.6261 0.0000 6.3013 0.0000
# 3 12.4889 25.6261 72.3650 0.0000 -27.0130 0.0000
# 4 0.0000 0.0000 0.0000 -3.8680 0.0000 -31.7095
# 5 -12.0868 6.3013 -27.0130 0.0000 31.9190 0.0000
# 6 0.0000 0.0000 0.0000 -31.7095 0.0000 7.3974
#
#
#
# Elastic Compliance Matrix: (Units=1/GPa)
#
#
# Indices 1 2 3 4 5 6 
#
# 1 0.017190 -0.001025 -0.000144 0.000000 0.006590 0.000000
# 2 -0.001025 0.002640 -0.001604 0.000000 -0.002267 0.000000
# 3 -0.000144 -0.001604 0.021210 0.000000 0.018212 0.000000
# 4 0.000000 0.000000 0.000000 -0.007153 0.000000 -0.030664
# 5 0.006590 -0.002267 0.018212 0.000000 0.049685 0.000000
# 6 0.000000 0.000000 0.000000 -0.030664 0.000000 0.003740
#
#
# Mechanical properties :
#
#
# Convention : Reuss Voigt Hill
#
# Bulk Modulus (GPa) = 28.17358 73.95297 51.06328
# Shear Modulus (GPa) = 47.76086 39.40795 43.58441
#
# Velocity S-wave (km/s) = 4.22641 3.83909 4.03740
# Velocity P-wave (km/s) = 5.86120 6.87822 6.38997
#
# Compressibility (1/GPa) = 0.03549424
#
# Stress axis : x y z
#
# Youngs Moduli (GPa) = 58.17343 378.85922 47.14757
#
# Poissons Ratio (x) = 0.38832 0.00678
# Poissons Ratio (y) = 0.05963 0.07562
# Poissons Ratio (z) = 0.00836 0.60765
#
# Static dielectric constant tensor:
#      x y z
#    x 2.848220 0.000000 -0.281470 
#    y 0.000000 2.131980 0.000000 
#    z -0.281470 0.000000 2.473150 
# 
# From -- ./inp_files/60480.got.cif
#   From: 2010.05.17/outbox.cif.g08.bks.cpg/sg12_31_cif.got.tgz:60480.got - 2010.06.03 13:09:07.
