data_PCOD9168171
_publ_section_title
;
Structure prediction by ZEFSAII (Michael W. Deem and Ramdas Pophale) SiO2 
 PCOD9168171
Probable space group: P 21/M
;
_chemical_formula_sum "Si O2"
_cell_formula_units_Z 32
_cell_length_a 15.000000
_cell_length_b 9.000000
_cell_length_c 12.000000
_cell_angle_alpha 90.000000
_cell_angle_beta 90.000000
_cell_angle_gamma 90.000000
_cell_volume 1620.000000
_symmetry_space_group_name_H-M "P 21/M"
_symmetry_group_IT_number 11
_symmetry_cell_setting 'monoclinic'
loop_
_space_group_symop_operation_xyz
x,y,z
-x,1/2+y,-z
-x,-y,-z
x,1/2-y,z
loop_
_atom_site_type_symbol
_atom_site_label
_atom_site_fract_x
_atom_site_fract_y
_atom_site_fract_z
Si Si1 0.903910 0.078189 0.488095
Si Si2 0.818586 0.420506 0.245107
Si Si3 0.632408 0.929325 0.204813
Si Si4 0.563102 0.069538 0.734489
Si Si5 0.267230 0.580668 0.384071
Si Si6 0.660285 0.068645 0.966141
Si Si7 0.831430 0.082195 0.850702
Si Si8 0.977033 0.571824 0.118044
O O1 0.913951 0.250000 0.528465
O O2 0.872295 0.080344 0.360792
O O3 0.815751 0.010562 0.548982
O O4 0.000000 0.000000 0.500000
O O5 0.802118 0.250000 0.210383
O O6 0.723733 0.502864 0.253695
O O7 0.887014 0.500829 0.162841
O O8 0.637196 0.750000 0.202088
O O9 0.540978 0.972598 0.269176
O O10 0.627244 0.993729 0.079070
O O11 0.567443 0.250000 0.728502
O O12 0.633868 0.015598 0.639987
O O13 0.600680 0.029946 0.857819
O O14 0.278191 0.750000 0.429350
O O15 0.226913 0.590351 0.260123
O O16 0.660156 0.250000 0.975366
O O17 0.762181 0.014780 0.939589
O O18 0.847551 0.250000 0.892296
O O19 0.930306 0.028540 0.818836
O O20 0.965915 0.750000 0.116553
O O21 0.000000 0.500000 0.000000
#
# Coordination Sequence:
#
# PCOD9168171 Si02
#       8
#     4   4   4   4   4   4   4   4
#     4  10  21  37  61  85 106 135 175 223 276 329
#     4  11  24  39  52  75 109 145 183 223 269 328
#     4  11  21  33  50  75 105 142 184 227 269 314
#     4   8  16  30  52  80 107 136 178 223 267 321
#     4   8  14  30  54  78 100 128 168 215 264 319
#     4   9  16  30  52  78 108 141 171 211 265 324
#     4   8  15  27  48  75 100 127 164 207 258 315
#     4  11  21  34  53  78 108 144 180 217 260 314
#
# _framework density 19.753086
#
# number of rings (size 3 to 8) (size 9 to 14) (size 15 to 20)
#    0.000    2.500    0.000    4.500    0.000    3.000 
#    0.000    1.875    0.000    4.500    0.000    0.000 
#    0.000    0.000    0.000    0.000    0.000    0.000 
#
# Total GULP energy -178167.705788 kJ/mol
# GULP energy per Si atom -5567.740806 kJ/mol
# Density = 1.970813 g / cm^3
# Si number density = 19.753086 Si / 1000 Ang^3
#
#
#
# Elastic Constant Matrix: (Units=GPa)
#
#
# Indices 1 2 3 4 5 6 
#
# 1 200.8860 43.9554 33.9499 0.0000 -29.3319 0.0000
# 2 43.9554 54.4816 11.9171 0.0000 -8.2721 0.0000
# 3 33.9499 11.9171 37.1425 0.0000 -20.6255 0.0000
# 4 0.0000 0.0000 0.0000 14.5500 0.0000 -1.6288
# 5 -29.3319 -8.2721 -20.6255 0.0000 35.3826 0.0000
# 6 0.0000 0.0000 0.0000 -1.6288 0.0000 26.4240
#
#
#
# Elastic Compliance Matrix: (Units=1/GPa)
#
#
# Indices 1 2 3 4 5 6 
#
# 1 0.006917 -0.004425 -0.003390 0.000000 0.002723 0.000000
# 2 -0.004425 0.022616 -0.003419 0.000000 -0.000374 0.000000
# 3 -0.003390 -0.003419 0.043050 0.000000 0.021485 0.000000
# 4 0.000000 0.000000 0.000000 0.069206 0.000000 0.004266
# 5 0.002723 -0.000374 0.021485 0.000000 0.042957 0.000000
# 6 0.000000 0.000000 0.000000 0.004266 0.000000 0.038107
#
#
# Mechanical properties :
#
#
# Convention : Reuss Voigt Hill
#
# Bulk Modulus (GPa) = 19.95471 52.46166 36.20818
# Shear Modulus (GPa) = 19.08195 28.78385 23.93290
#
# Velocity S-wave (km/s) = 3.11146 3.82145 3.48458
# Velocity P-wave (km/s) = 4.79920 6.78879 5.87877
#
# Compressibility (1/GPa) = 0.05011348
#
# Stress axis : x y z
#
# Youngs Moduli (GPa) = 144.57502 44.21590 23.22868
#
# Poissons Ratio (x) = 0.19567 0.07875
# Poissons Ratio (y) = 0.63981 0.07943
# Poissons Ratio (z) = 0.49014 0.15119
#
# Static dielectric constant tensor:
#      x y z
#    x 1.861300 0.000000 0.047310 
#    y 0.000000 1.706240 0.000000 
#    z 0.047310 0.000000 1.780230 
# 
# From -- ./inp_files/38199.got.cif
#   From: 2010.05.17/outbox.ucp.g08.bks.cvg/sg11_20_cif.got.tgz:38199.got - 2010.06.11 11:38:39.
