data_PCOD9168290
_publ_section_title
;
Structure prediction by ZEFSAII (Michael W. Deem and Ramdas Pophale) SiO2 
 PCOD9168290
Probable space group: C 2/M
;
_chemical_formula_sum "Si O2"
_cell_formula_units_Z 48
_cell_length_a 5.251633
_cell_length_b 14.269413
_cell_length_c 31.151363
_cell_angle_alpha 90.000000
_cell_angle_beta 75.380908
_cell_angle_gamma 90.000000
_cell_volume 2258.835818
_symmetry_space_group_name_H-M "C 2/M"
_symmetry_group_IT_number 12
_symmetry_cell_setting 'monoclinic'
loop_
_space_group_symop_operation_xyz
x,y,z
-x,y,-z
-x,-y,-z
x,-y,z
1/2+x,1/2+y,z
1/2-x,1/2+y,-z
1/2-x,1/2-y,-z
1/2+x,1/2-y,z
loop_
_atom_site_type_symbol
_atom_site_label
_atom_site_fract_x
_atom_site_fract_y
_atom_site_fract_z
Si Si1 0.618625 0.811449 0.619991
Si Si2 0.837604 0.689630 0.806828
Si Si3 0.720170 0.857441 0.519931
Si Si4 0.009137 0.614618 0.048965
Si Si5 0.563385 0.611862 0.901988
Si Si6 0.134408 0.313268 0.286842
O O1 0.405908 0.728079 0.620310
O O2 0.645631 0.859163 0.572859
O O3 0.490480 0.863481 0.666355
O O4 0.627876 0.773582 0.806547
O O5 0.713180 0.636431 0.852073
O O6 0.848366 0.637736 0.760221
O O7 0.500000 0.900116 0.500000
O O8 0.750000 0.750000 0.500000
O O9 0.000000 0.900308 0.500000
O O10 0.015477 0.500000 0.048194
O O11 0.738504 0.644340 0.083616
O O12 0.263918 0.645118 0.064814
O O13 0.000000 0.645140 0.000000
O O14 0.551632 0.500000 0.905979
O O15 0.419285 0.270316 0.286968
#
# Coordination Sequence:
#
# PCOD9168290 Si02
#       6
#     8   8   8   8   8   8
#     4  10  14  20  29  41  61  85 121 162 191 233
#     4  10  19  33  48  65  90 120 151 182 222 264
#     4  10  14  18  24  38  57  83 113 151 195 234
#     4   9  17  30  49  73  96 117 145 181 218 260
#     4  10  19  31  51  74  92 116 150 185 218 256
#     4   8  16  25  37  52  69  99 136 171 198 243
#
# _framework density 21.249884000000002
#
# number of rings (size 3 to 8) (size 9 to 14) (size 15 to 20)
#    0.000    2.500    3.333    1.500    0.000    2.000 
#    0.000    0.000    0.000   10.000    0.000    0.000 
#    0.000    0.000    0.000    0.000    0.000    1.667 
#
# Total GULP energy -133760.547430 kJ/mol
# GULP energy per Si atom -5573.356143 kJ/mol
# Density = 2.120152 g / cm^3
# Si number density = 21.249884 Si / 1000 Ang^3
#
#
#
# Elastic Constant Matrix: (Units=GPa)
#
#
# Indices 1 2 3 4 5 6 
#
# 1 119.1519 -2.8297 -6.7554 0.0000 0.8535 0.0000
# 2 -2.8297 44.9746 -7.1658 0.0000 2.4887 0.0000
# 3 -6.7554 -7.1658 117.5623 0.0000 1.1047 0.0000
# 4 0.0000 0.0000 0.0000 -66.1108 0.0000 7.5865
# 5 0.8535 2.4887 1.1047 0.0000 39.0578 0.0000
# 6 0.0000 0.0000 0.0000 7.5865 0.0000 -9.3048
#
#
#
# Elastic Compliance Matrix: (Units=1/GPa)
#
#
# Indices 1 2 3 4 5 6 
#
# 1 0.008439 0.000628 0.000525 0.000000 -0.000239 0.000000
# 2 0.000628 0.022584 0.001427 0.000000 -0.001493 0.000000
# 3 0.000525 0.001427 0.008627 0.000000 -0.000346 0.000000
# 4 0.000000 0.000000 0.000000 -0.016687 0.000000 -0.013606
# 5 -0.000239 -0.001493 -0.000346 0.000000 0.025713 0.000000
# 6 0.000000 0.000000 0.000000 -0.013606 0.000000 -0.118564
#
#
# Mechanical properties :
#
#
# Convention : Reuss Voigt Hill
#
# Bulk Modulus (GPa) = 22.31645 27.57631 24.94638
# Shear Modulus (GPa) = -83.17760 12.62443 -35.27658
#
# Velocity S-wave (km/s) = -6.26319 2.44005 -4.07883
# Velocity P-wave (km/s) = 6.46365 4.57644 3.22761
#
# Compressibility (1/GPa) = 0.04480999
#
# Stress axis : x y z
#
# Youngs Moduli (GPa) = 118.49655 44.27872 115.92131
#
# Poissons Ratio (x) = -0.02780 -0.06091
# Poissons Ratio (y) = -0.07441 -0.16539
# Poissons Ratio (z) = -0.06226 -0.06317
#
# Static dielectric constant tensor:
#      x y z
#    x 1.754740 0.000000 -0.000430 
#    y 0.000000 1.754070 0.000000 
#    z -0.000430 0.000000 1.819210 
# 
# From -- ./inp_files/371430.got.cif
#   From: 2010.05.17/outbox.cif.g08.bks.cpg/sg12_186_cif.got.tgz:371430.got - 2010.06.03 13:09:07.
