data_PCOD9168617
_publ_section_title
;
Structure prediction by ZEFSAII (Michael W. Deem and Ramdas Pophale) SiO2 
 PCOD9168617
Probable space group: C 2/M
;
_chemical_formula_sum "Si O2"
_cell_formula_units_Z 56
_cell_length_a 23.623204
_cell_length_b 16.998629
_cell_length_c 20.879642
_cell_angle_alpha 90.000000
_cell_angle_beta 24.029323
_cell_angle_gamma 90.000000
_cell_volume 3414.191796
_symmetry_space_group_name_H-M "C 2/M"
_symmetry_group_IT_number 12
_symmetry_cell_setting 'monoclinic'
loop_
_space_group_symop_operation_xyz
x,y,z
-x,y,-z
-x,-y,-z
x,-y,z
1/2+x,1/2+y,z
1/2-x,1/2+y,-z
1/2-x,1/2-y,-z
1/2+x,1/2-y,z
loop_
_atom_site_type_symbol
_atom_site_label
_atom_site_fract_x
_atom_site_fract_y
_atom_site_fract_z
Si Si1 0.521874 0.410793 0.274164
Si Si2 0.320809 0.500000 0.255091
Si Si3 0.653240 0.500000 0.922719
Si Si4 0.940963 0.744692 0.234871
Si Si5 0.332606 0.355623 0.006153
Si Si6 0.440275 0.759480 0.742408
Si Si7 0.186132 0.586502 0.615192
Si Si8 0.312944 0.860658 0.527332
O O1 0.556874 0.500000 0.259462
O O2 0.572305 0.333301 0.260656
O O3 0.353750 0.405171 0.445931
O O4 0.587130 0.398759 0.135657
O O5 0.311955 0.500000 0.187839
O O6 0.248732 0.423273 0.359846
O O7 0.484566 0.500000 0.103839
O O8 0.707172 0.422326 0.902557
O O9 0.893466 0.657009 0.267488
O O10 0.804950 0.798324 0.371175
O O11 0.000490 0.741243 0.245936
O O12 0.060510 0.791987 0.074486
O O13 0.202493 0.306669 0.114402
O O14 0.555975 0.809547 0.585082
O O15 0.148065 0.500000 0.677741
O O16 0.150920 0.594281 0.576047
#
# Coordination Sequence:
#
# PCOD9168617 Si02
#       8
#     8   4   4   8   8   8   8   8
#     4  10  16  27  47  69  97 131 162 193 241 300
#     4  11  22  35  57  75  91 135 187 221 242 284
#     4  11  22  37  53  75  95 133 189 215 246 296
#     4  10  17  30  48  68  95 130 166 196 243 300
#     4  11  20  33  47  64 103 134 162 207 252 292
#     4  10  20  30  44  73  96 133 167 192 251 318
#     4  10  16  25  46  73  99 123 165 198 239 294
#     4  11  17  32  49  68  97 130 168 210 241 281
#
# _framework density 16.402125999999999
#
# number of rings (size 3 to 8) (size 9 to 14) (size 15 to 20)
#    0.000    1.571    7.143    2.571    0.000    0.571 
#    1.286    2.143    0.000    0.000    0.000    0.000 
#    0.000    6.857    0.000    0.000    0.000    0.000 
#
# Total GULP energy -155927.497824 kJ/mol
# GULP energy per Si atom -5568.839208 kJ/mol
# Density = 1.636479 g / cm^3
# Si number density = 16.402126 Si / 1000 Ang^3
#
#
#
# Elastic Constant Matrix: (Units=GPa)
#
#
# Indices 1 2 3 4 5 6 
#
# 1 21.7564 28.5047 14.5367 0.0002 -0.8077 0.0002
# 2 28.5047 164.0606 38.0730 0.0029 -7.0929 -0.0018
# 3 14.5367 38.0730 47.8558 0.0009 -11.5184 -0.0008
# 4 0.0002 0.0029 0.0009 24.8515 -0.0004 -7.9492
# 5 -0.8077 -7.0929 -11.5184 -0.0004 18.0120 0.0005
# 6 0.0002 -0.0018 -0.0008 -7.9492 0.0005 12.2884
#
#
#
# Elastic Compliance Matrix: (Units=1/GPa)
#
#
# Indices 1 2 3 4 5 6 
#
# 1 0.067532 -0.008385 -0.016439 0.000000 -0.010786 -0.000003
# 2 -0.008385 0.008532 -0.004164 -0.000001 0.000321 0.000001
# 3 -0.016439 -0.004164 0.033839 0.000000 0.019262 0.000001
# 4 0.000000 -0.000001 0.000000 0.050737 0.000000 0.032821
# 5 -0.010786 0.000321 0.019262 0.000000 0.067480 -0.000001
# 6 -0.000003 0.000001 0.000001 0.032821 -0.000001 0.102609
#
#
# Mechanical properties :
#
#
# Convention : Reuss Voigt Hill
#
# Bulk Modulus (GPa) = 19.25745 43.98908 31.62327
# Shear Modulus (GPa) = 12.31483 21.20092 16.75788
#
# Velocity S-wave (km/s) = 2.74306 3.59914 3.19986
# Velocity P-wave (km/s) = 4.66892 6.64448 5.74229
#
# Compressibility (1/GPa) = 0.05192796
#
# Stress axis : x y z
#
# Youngs Moduli (GPa) = 14.80769 117.20174 29.55207
#
# Poissons Ratio (x) = 0.98271 0.48581
# Poissons Ratio (y) = 0.12416 0.12305
# Poissons Ratio (z) = 0.24342 0.48801
#
# Static dielectric constant tensor:
#      x y z
#    x 1.528010 0.000000 -0.014140 
#    y 0.000000 1.613680 0.000000 
#    z -0.014140 0.000000 1.579570 
# 
# From -- ./inp_files/326006.got.cif
#   From: 2010.05.17/outbox.cif.g08.bks.cpg/sg12_164_cif.got.tgz:326006.got - 2010.06.03 13:09:07.
