data_PCOD9168088
_publ_section_title
;
Structure prediction by ZEFSAII (Michael W. Deem and Ramdas Pophale) SiO2 
 PCOD9168088
Probable space group: P 21/M
;
_chemical_formula_sum "Si O2"
_cell_formula_units_Z 28
_cell_length_a 27.000000
_cell_length_b 9.000000
_cell_length_c 12.000000
_cell_angle_alpha 90.000000
_cell_angle_beta 30.000000
_cell_angle_gamma 90.000000
_cell_volume 1458.000000
_symmetry_space_group_name_H-M "P 21/M"
_symmetry_group_IT_number 11
_symmetry_cell_setting 'monoclinic'
loop_
_space_group_symop_operation_xyz
x,y,z
-x,1/2+y,-z
-x,-y,-z
x,1/2-y,z
loop_
_atom_site_type_symbol
_atom_site_label
_atom_site_fract_x
_atom_site_fract_y
_atom_site_fract_z
Si Si1 0.031020 0.922440 0.745275
Si Si2 0.371631 0.072174 0.556663
Si Si3 0.309009 0.427844 0.923873
Si Si4 0.814745 0.072610 0.196974
Si Si5 0.903662 0.078647 0.639153
Si Si6 0.765101 0.429084 0.547597
Si Si7 0.409893 0.569892 0.943418
O O1 0.015105 0.750000 0.811097
O O2 0.072247 0.921099 0.539130
O O3 0.127229 0.987439 0.621357
O O4 0.925295 0.004355 0.965324
O O5 0.362089 0.250000 0.559468
O O6 0.372639 0.044074 0.687830
O O7 0.473142 0.024893 0.294419
O O8 0.269716 0.995707 0.716968
O O9 0.303453 0.250000 0.950561
O O10 0.359219 0.506581 0.931162
O O11 0.197385 0.493055 0.134242
O O12 0.822478 0.250000 0.167072
O O13 0.769436 0.042383 0.408047
O O14 0.895079 0.250000 0.693368
O O15 0.000000 0.000000 0.500000
O O16 0.768878 0.250000 0.557536
O O17 0.665332 0.477534 0.808833
O O18 0.409566 0.750000 0.942416
#
# Coordination Sequence:
#
# PCOD9168088 Si02
#       7
#     4   4   4   4   4   4   4
#     4  10  20  38  60  81 113 153 193 233 286 348
#     4  10  23  40  59  84 118 157 193 233 288 348
#     4  11  22  37  57  87 120 149 190 241 287 341
#     4  11  23  37  58  87 118 150 192 243 289 337
#     4  11  22  36  57  84 116 157 193 233 287 344
#     4   9  19  38  61  86 114 149 192 240 289 341
#     4  10  20  40  65  85 112 155 197 234 287 347
#
# _framework density 19.20439
#
# number of rings (size 3 to 8) (size 9 to 14) (size 15 to 20)
#    0.000    1.714    1.429    3.000    0.000    6.857 
#    0.000    2.143    0.000    0.000    0.000    0.000 
#    0.000    0.000    0.000    0.000    0.000    0.000 
#
# Total GULP energy -156159.551848 kJ/mol
# GULP energy per Si atom -5577.126852 kJ/mol
# Density = 1.916068 g / cm^3
# Si number density = 19.204390 Si / 1000 Ang^3
#
#
#
# Elastic Constant Matrix: (Units=GPa)
#
#
# Indices 1 2 3 4 5 6 
#
# 1 40.3796 7.3021 14.8740 0.0000 1.9373 0.0000
# 2 7.3021 35.4973 27.4204 0.0000 1.4259 0.0000
# 3 14.8740 27.4204 162.1377 0.0000 -8.9222 0.0000
# 4 0.0000 0.0000 0.0000 29.3327 0.0000 -0.0577
# 5 1.9373 1.4259 -8.9222 0.0000 24.6349 0.0000
# 6 0.0000 0.0000 0.0000 -0.0577 0.0000 19.9383
#
#
#
# Elastic Compliance Matrix: (Units=1/GPa)
#
#
# Indices 1 2 3 4 5 6 
#
# 1 0.026281 -0.003835 -0.001902 0.000000 -0.002533 0.000000
# 2 -0.003835 0.033343 -0.005486 0.000000 -0.003615 0.000000
# 3 -0.001902 -0.005486 0.007444 0.000000 0.003163 0.000000
# 4 0.000000 0.000000 0.000000 0.034092 0.000000 0.000099
# 5 -0.002533 -0.003615 0.003163 0.000000 0.042147 0.000000
# 6 0.000000 0.000000 0.000000 0.000099 0.000000 0.050155
#
#
# Mechanical properties :
#
#
# Convention : Reuss Voigt Hill
#
# Bulk Modulus (GPa) = 22.41075 37.46751 29.93913
# Shear Modulus (GPa) = 21.66555 27.34240 24.50397
#
# Velocity S-wave (km/s) = 3.36245 3.77736 3.57593
# Velocity P-wave (km/s) = 5.17394 6.21103 5.71605
#
# Compressibility (1/GPa) = 0.04462145
#
# Stress axis : x y z
#
# Youngs Moduli (GPa) = 38.05089 29.99122 134.33823
#
# Poissons Ratio (x) = 0.11503 0.25547
# Poissons Ratio (y) = 0.14594 0.73698
# Poissons Ratio (z) = 0.07236 0.16453
#
# Static dielectric constant tensor:
#      x y z
#    x 1.786110 0.000000 0.033240 
#    y 0.000000 1.650060 0.000000 
#    z 0.033240 0.000000 1.654070 
# 
# From -- ./inp_files/44607.got.cif
#   From: 2010.05.17/outbox.ucp.g08.bks.cvg/sg11_23_cif.got.tgz:44607.got - 2010.06.11 11:38:39.
