data_PCOD9168670
_publ_section_title
;
Structure prediction by ZEFSAII (Michael W. Deem and Ramdas Pophale) SiO2 
 PCOD9168670
Probable space group: C 2/M
;
_chemical_formula_sum "Si O2"
_cell_formula_units_Z 56
_cell_length_a 29.299653
_cell_length_b 13.578295
_cell_length_c 9.790681
_cell_angle_alpha 90.000000
_cell_angle_beta 101.362809
_cell_angle_gamma 90.000000
_cell_volume 3818.770826
_symmetry_space_group_name_H-M "C 2/M"
_symmetry_group_IT_number 12
_symmetry_cell_setting 'monoclinic'
loop_
_space_group_symop_operation_xyz
x,y,z
-x,y,-z
-x,-y,-z
x,-y,z
1/2+x,1/2+y,z
1/2-x,1/2+y,-z
1/2-x,1/2-y,-z
1/2+x,1/2-y,z
loop_
_atom_site_type_symbol
_atom_site_label
_atom_site_fract_x
_atom_site_fract_y
_atom_site_fract_z
Si Si1 0.294885 0.112600 0.867721
Si Si2 0.381042 0.618460 0.163819
Si Si3 0.260610 0.886352 0.160491
Si Si4 0.948366 0.119250 0.437885
Si Si5 0.702017 0.306619 0.690742
Si Si6 0.138315 0.118235 0.423254
Si Si7 0.344375 0.309991 0.867045
O O1 0.249789 0.135770 0.748621
O O2 0.333445 0.193982 0.858537
O O3 0.309575 0.000000 0.859702
O O4 0.278307 0.127200 0.015333
O O5 0.378868 0.500000 0.156003
O O6 0.426105 0.647874 0.279208
O O7 0.336341 0.655419 0.223296
O O8 0.377705 0.661964 0.011287
O O9 0.286533 0.807184 0.270811
O O10 0.205838 0.860961 0.132895
O O11 0.267753 0.000000 0.203535
O O12 0.909807 0.145002 0.528812
O O13 0.000000 0.156661 0.500000
O O14 0.950562 0.000000 0.438242
O O15 0.680144 0.330004 0.531077
O O16 0.138371 0.150821 0.267331
O O17 0.144283 0.000000 0.437873
#
# Coordination Sequence:
#
# PCOD9168670 Si02
#       7
#     8   8   8   8   8   8   8
#     4  10  18  29  45  63  89 122 158 192 220 251
#     4  10  16  26  47  65  85 118 153 180 213 266
#     4  10  18  28  44  64  91 121 157 197 220 245
#     4   8  16  31  48  66  88 116 144 174 219 274
#     4  10  17  30  43  63  85 124 163 184 212 262
#     4  10  20  30  45  66  94 120 145 185 225 263
#     4  11  19  30  42  67  92 119 154 188 220 256
#
# _framework density 14.664403999999999
#
# number of rings (size 3 to 8) (size 9 to 14) (size 15 to 20)
#    0.000    2.143    2.857    4.286    0.000    2.286 
#    0.000    2.857    0.000    3.429    0.000    0.000 
#    0.000   21.714    0.000    0.000    0.000    0.000 
#
# Total GULP energy -156109.719907 kJ/mol
# GULP energy per Si atom -5575.347140 kJ/mol
# Density = 1.463103 g / cm^3
# Si number density = 14.664404 Si / 1000 Ang^3
#
#
#
# Elastic Constant Matrix: (Units=GPa)
#
#
# Indices 1 2 3 4 5 6 
#
# 1 56.6749 27.1745 43.2269 0.0000 19.9848 0.0000
# 2 27.1745 79.0102 25.3453 0.0000 11.3067 0.0000
# 3 43.2269 25.3453 112.6201 0.0000 15.2102 0.0000
# 4 0.0000 0.0000 0.0000 20.0107 0.0000 0.3818
# 5 19.9848 11.3067 15.2102 0.0000 17.5447 0.0000
# 6 0.0000 0.0000 0.0000 0.3818 0.0000 12.2822
#
#
#
# Elastic Compliance Matrix: (Units=1/GPa)
#
#
# Indices 1 2 3 4 5 6 
#
# 1 0.038989 -0.005765 -0.009255 0.000000 -0.032672 0.000000
# 2 -0.005765 0.015284 -0.000887 0.000000 -0.002513 0.000000
# 3 -0.009255 -0.000887 0.012606 0.000000 0.000185 0.000000
# 4 0.000000 0.000000 0.000000 0.050003 0.000000 -0.001554
# 5 -0.032672 -0.002513 0.000185 0.000000 0.095673 0.000000
# 6 0.000000 0.000000 0.000000 -0.001554 0.000000 0.081467
#
#
# Mechanical properties :
#
#
# Convention : Reuss Voigt Hill
#
# Bulk Modulus (GPa) = 28.51936 48.86651 38.69294
# Shear Modulus (GPa) = 14.81374 20.13808 17.47591
#
# Velocity S-wave (km/s) = 3.18179 3.70978 3.45588
# Velocity P-wave (km/s) = 5.74357 7.19343 6.50900
#
# Compressibility (1/GPa) = 0.03506390
#
# Stress axis : x y z
#
# Youngs Moduli (GPa) = 25.64858 65.42882 79.32466
#
# Poissons Ratio (x) = 0.37721 0.73414
# Poissons Ratio (y) = 0.14787 0.07039
# Poissons Ratio (z) = 0.23737 0.05806
#
# Static dielectric constant tensor:
#      x y z
#    x 1.467810 0.000000 0.001780 
#    y 0.000000 1.485060 0.000000 
#    z 0.001780 0.000000 1.499490 
# 
# From -- ./inp_files/110827.got.cif
#   From: 2010.05.17/outbox.cif.g08.bks.cpg/sg12_56_cif.got.tgz:110827.got - 2010.06.03 13:09:07.
