data_PCOD9168939
_publ_section_title
;
Structure prediction by ZEFSAII (Michael W. Deem and Ramdas Pophale) SiO2 
 PCOD9168939
Probable space group: C 2/M
;
_chemical_formula_sum "Si O2"
_cell_formula_units_Z 38
_cell_length_a 8.099672
_cell_length_b 25.601809
_cell_length_c 8.816759
_cell_angle_alpha 90.000000
_cell_angle_beta 95.012094
_cell_angle_gamma 90.000000
_cell_volume 1821.307397
_symmetry_space_group_name_H-M "C 2/M"
_symmetry_group_IT_number 12
_symmetry_cell_setting 'monoclinic'
loop_
_space_group_symop_operation_xyz
x,y,z
-x,y,-z
-x,-y,-z
x,-y,z
1/2+x,1/2+y,z
1/2-x,1/2+y,-z
1/2-x,1/2-y,-z
1/2+x,1/2-y,z
loop_
_atom_site_type_symbol
_atom_site_label
_atom_site_fract_x
_atom_site_fract_y
_atom_site_fract_z
Si Si1 0.000000 0.500000 0.000000
Si Si2 0.084062 0.000000 0.271252
Si Si3 0.940533 0.612021 0.661724
Si Si4 0.714478 0.325098 0.859286
Si Si5 0.500000 0.251197 0.000000
Si Si6 0.272091 0.000000 0.604065
Si Si7 0.242328 0.586646 0.902114
O O1 0.141329 0.544974 0.991813
O O2 0.126935 0.947598 0.182081
O O3 0.209946 0.000000 0.425090
O O4 0.896539 0.000000 0.313041
O O5 0.790820 0.646897 0.717229
O O6 0.878817 0.551602 0.646579
O O7 0.000000 0.628335 0.500000
O O8 0.102535 0.612191 0.781674
O O9 0.554716 0.288022 0.862837
O O10 0.689763 0.370430 0.980199
O O11 0.857271 0.286818 0.931440
#
# Coordination Sequence:
#
# PCOD9168939 Si02
#       7
#     2   4   8   8   4   4   8
#     4  10  16  30  56  82 116 150 194 226 262 360
#     4  10  23  37  54  89 132 166 190 240 284 356
#     4  12  22  38  60  91 120 163 199 233 291 370
#     4  11  23  42  66  89 115 155 199 257 303 353
#     4  10  23  44  68  84 116 148 205 258 316 344
#     4  11  23  36  55  89 134 163 195 231 295 348
#     4  11  20  37  59  88 119 160 197 238 292 350
#
# _framework density 20.864132999999999
#
# number of rings (size 3 to 8) (size 9 to 14) (size 15 to 20)
#    0.000    1.053    6.316    1.579    2.947    0.000 
#    0.000    2.105    0.000    0.000    0.000    0.000 
#    0.000    0.000    0.000    0.000    0.000    0.000 
#
# Total GULP energy -105933.673212 kJ/mol
# GULP energy per Si atom -5575.456485 kJ/mol
# Density = 2.081664 g / cm^3
# Si number density = 20.864133 Si / 1000 Ang^3
#
#
#
# Elastic Constant Matrix: (Units=GPa)
#
#
# Indices 1 2 3 4 5 6 
#
# 1 63.1613 27.7715 25.1691 0.0000 -27.9880 0.0000
# 2 27.7715 105.3837 35.8816 0.0000 -28.8502 0.0000
# 3 25.1691 35.8816 96.3511 0.0000 -27.3308 0.0000
# 4 0.0000 0.0000 0.0000 11.4704 0.0000 -5.4007
# 5 -27.9880 -28.8502 -27.3308 0.0000 34.2878 0.0000
# 6 0.0000 0.0000 0.0000 -5.4007 0.0000 1.6922
#
#
#
# Elastic Compliance Matrix: (Units=1/GPa)
#
#
# Indices 1 2 3 4 5 6 
#
# 1 0.024981 -0.001181 -0.000754 0.000000 0.018797 0.000000
# 2 -0.001181 0.012733 -0.002155 0.000000 0.008032 0.000000
# 3 -0.000754 -0.002155 0.013812 0.000000 0.008581 0.000000
# 4 0.000000 0.000000 0.000000 -0.173436 0.000000 -0.553518
# 5 0.018797 0.008032 0.008581 0.000000 0.058107 0.000000
# 6 0.000000 0.000000 0.000000 -0.553518 0.000000 -1.175606
#
#
# Mechanical properties :
#
#
# Convention : Reuss Voigt Hill
#
# Bulk Modulus (GPa) = 23.06948 49.17115 36.12031
# Shear Modulus (GPa) = -4.10921 21.22835 8.55957
#
# Velocity S-wave (km/s) = -1.40491 3.19322 2.02767
# Velocity P-wave (km/s) = 2.90677 6.10033 4.77825
#
# Compressibility (1/GPa) = 0.04334731
#
# Stress axis : x y z
#
# Youngs Moduli (GPa) = 40.02976 78.53652 72.39936
#
# Poissons Ratio (x) = 0.09272 0.05460
# Poissons Ratio (y) = 0.04726 0.15602
# Poissons Ratio (z) = 0.03019 0.16925
#
# Static dielectric constant tensor:
#      x y z
#    x 1.771270 0.000000 -0.026700 
#    y 0.000000 1.714870 0.000000 
#    z -0.026700 0.000000 1.807920 
# 
# From -- ./inp_files/39405.got.cif
#   From: 2010.05.17/outbox.cif.g08.bks.cpg/sg12_20_cif.got.tgz:39405.got - 2010.06.03 13:09:07.
