data_PCOD9168306
_publ_section_title
;
Structure prediction by ZEFSAII (Michael W. Deem and Ramdas Pophale) SiO2 
 PCOD9168306
Probable space group: C 2/M
;
_chemical_formula_sum "Si O2"
_cell_formula_units_Z 48
_cell_length_a 5.481425
_cell_length_b 25.553600
_cell_length_c 24.500864
_cell_angle_alpha 90.000000
_cell_angle_beta 122.706100
_cell_angle_gamma 90.000000
_cell_volume 2887.732534
_symmetry_space_group_name_H-M "C 2/M"
_symmetry_group_IT_number 12
_symmetry_cell_setting 'monoclinic'
loop_
_space_group_symop_operation_xyz
x,y,z
-x,y,-z
-x,-y,-z
x,-y,z
1/2+x,1/2+y,z
1/2-x,1/2+y,-z
1/2-x,1/2-y,-z
1/2+x,1/2-y,z
loop_
_atom_site_type_symbol
_atom_site_label
_atom_site_fract_x
_atom_site_fract_y
_atom_site_fract_z
Si Si1 0.811595 0.185140 0.628927
Si Si2 0.849959 0.217138 0.233719
Si Si3 0.502910 0.217644 0.916836
Si Si4 0.185404 0.195371 0.576673
Si Si5 0.912333 0.602776 0.065492
Si Si6 0.053689 0.061159 0.920676
O O1 0.998184 0.177696 0.706118
O O2 0.483417 0.166803 0.597353
O O3 0.773593 0.248134 0.613002
O O4 0.987512 0.166783 0.597401
O O5 0.114304 0.251600 0.241483
O O6 0.673931 0.200059 0.158927
O O7 0.768494 0.253809 0.927624
O O8 0.622917 0.163416 0.954390
O O9 0.000000 0.205753 0.500000
O O10 0.745939 0.590010 0.101218
O O11 0.247672 0.586820 0.101919
O O12 0.746892 0.569452 0.998932
O O13 0.009189 0.000000 0.905969
#
# Coordination Sequence:
#
# PCOD9168306 Si02
#       6
#     8   8   8   8   8   8
#     4  10  14  22  31  42  59  83 118 151 201 243
#     4  10  16  27  38  48  63  97 135 169 190 231
#     4  10  21  32  44  59  86 115 148 174 204 232
#     4  10  16  20  29  45  64  80 108 158 220 246
#     4  10  18  32  48  69  89 109 136 170 203 250
#     4  10  19  33  53  71  88 106 129 163 219 265
#
# _framework density 16.622039000000001
#
# number of rings (size 3 to 8) (size 9 to 14) (size 15 to 20)
#    0.000    2.000    3.333    6.000    0.000    0.000 
#    0.000   10.000    0.000    0.000    0.000    0.000 
#    0.000    0.000    0.000    0.000    0.000    0.000 
#
# Total GULP energy -133649.042551 kJ/mol
# GULP energy per Si atom -5568.710106 kJ/mol
# Density = 1.658421 g / cm^3
# Si number density = 16.622039 Si / 1000 Ang^3
#
#
#
# Elastic Constant Matrix: (Units=GPa)
#
#
# Indices 1 2 3 4 5 6 
#
# 1 188.3600 31.5750 2.2280 0.0000 0.8780 0.0000
# 2 31.5750 61.0926 -10.7224 0.0000 0.0158 0.0000
# 3 2.2280 -10.7224 52.4412 0.0000 10.3548 0.0000
# 4 0.0000 0.0000 0.0000 0.6917 0.0000 -0.7144
# 5 0.8780 0.0158 10.3548 0.0000 11.1766 0.0000
# 6 0.0000 0.0000 0.0000 -0.7144 0.0000 17.1838
#
#
#
# Elastic Compliance Matrix: (Units=1/GPa)
#
#
# Indices 1 2 3 4 5 6 
#
# 1 0.005855 -0.003201 -0.000995 0.000000 0.000467 0.000000
# 2 -0.003201 0.018873 0.004835 0.000000 -0.004255 0.000000
# 3 -0.000995 0.004835 0.024583 0.000000 -0.022704 0.000000
# 4 0.000000 0.000000 0.000000 1.510576 0.000000 0.062804
# 5 0.000467 -0.004255 -0.022704 0.000000 0.110476 0.000000
# 6 0.000000 0.000000 0.000000 0.062804 0.000000 0.060805
#
#
# Mechanical properties :
#
#
# Convention : Reuss Voigt Hill
#
# Bulk Modulus (GPa) = 19.76769 38.67276 29.22023
# Shear Modulus (GPa) = 2.86245 24.39798 13.63022
#
# Velocity S-wave (km/s) = 1.31371 3.83536 2.86669
# Velocity P-wave (km/s) = 3.77086 6.55208 5.34552
#
# Compressibility (1/GPa) = 0.05058759
#
# Stress axis : x y z
#
# Youngs Moduli (GPa) = 170.78928 52.98665 40.67883
#
# Poissons Ratio (x) = 0.16961 0.04049
# Poissons Ratio (y) = 0.54670 -0.19668
# Poissons Ratio (z) = 0.17001 -0.25618
#
# Static dielectric constant tensor:
#      x y z
#    x 1.697260 0.000000 -0.000820 
#    y 0.000000 1.528980 0.000000 
#    z -0.000820 0.000000 1.593570 
# 
# From -- ./inp_files/297944.got.cif
#   From: 2010.05.17/outbox.cif.g08.bks.cpg/sg12_149_cif.got.tgz:297944.got - 2010.06.03 13:09:07.
