data_PCOD9168886
_publ_section_title
;
Structure prediction by ZEFSAII (Michael W. Deem and Ramdas Pophale) SiO2 
 PCOD9168886
Probable space group: C 2/M
;
_chemical_formula_sum "Si O2"
_cell_formula_units_Z 56
_cell_length_a 5.502397
_cell_length_b 18.481370
_cell_length_c 27.020270
_cell_angle_alpha 90.000000
_cell_angle_beta 71.933554
_cell_angle_gamma 90.000000
_cell_volume 2612.270368
_symmetry_space_group_name_H-M "C 2/M"
_symmetry_group_IT_number 12
_symmetry_cell_setting 'monoclinic'
loop_
_space_group_symop_operation_xyz
x,y,z
-x,y,-z
-x,-y,-z
x,-y,z
1/2+x,1/2+y,z
1/2-x,1/2+y,-z
1/2-x,1/2-y,-z
1/2+x,1/2-y,z
loop_
_atom_site_type_symbol
_atom_site_label
_atom_site_fract_x
_atom_site_fract_y
_atom_site_fract_z
Si Si1 0.579764 0.840161 0.713184
Si Si2 0.522338 0.296353 0.141507
Si Si3 0.397877 0.500000 0.319736
Si Si4 0.986310 0.338192 0.559026
Si Si5 0.482038 0.359129 0.246134
Si Si6 0.072648 0.826156 0.402464
Si Si7 0.608399 0.000000 0.674718
Si Si8 0.717324 0.666810 0.021442
O O1 0.747429 0.828181 0.751518
O O2 0.753954 0.814738 0.656641
O O3 0.560163 0.927414 0.708565
O O4 0.285215 0.817217 0.726128
O O5 0.251073 0.256886 0.146553
O O6 0.488341 0.356529 0.186470
O O7 0.621849 0.328544 0.083566
O O8 0.453565 0.431909 0.280231
O O9 0.592218 0.500000 0.352853
O O10 0.103801 0.500000 0.353529
O O11 0.998078 0.251495 0.569291
O O12 0.701007 0.360212 0.594056
O O13 0.000000 0.351294 0.500000
O O14 0.235266 0.366765 0.572193
O O15 0.500000 0.633609 0.000000
O O16 0.750000 0.750000 0.000000
O O17 0.000000 0.633671 0.000000
#
# Coordination Sequence:
#
# PCOD9168886 Si02
#       8
#     8   8   4   8   8   8   4   8
#     4  10  19  35  49  72  98 125 163 193 240 281
#     4  12  21  33  47  74 104 131 165 194 249 300
#     4   8  16  34  54  64  88 125 177 204 226 272
#     4  10  19  33  48  67  90 124 164 194 224 275
#     4  10  21  35  49  72  98 135 163 200 238 287
#     4  10  18  30  48  69  91 119 157 194 228 279
#     4   8  16  30  54  68  87 121 160 208 228 272
#     4  10  16  30  49  64  91 125 168 205 228 279
#
# _framework density 21.437290999999998
#
# number of rings (size 3 to 8) (size 9 to 14) (size 15 to 20)
#    0.000    2.000    2.857    3.857    0.000    0.000 
#   15.429    0.000    0.000    0.000    0.000    6.500 
#    0.000    0.000    0.000    0.000    0.000    0.000 
#
# Total GULP energy -155995.350239 kJ/mol
# GULP energy per Si atom -5571.262509 kJ/mol
# Density = 2.138850 g / cm^3
# Si number density = 21.437291 Si / 1000 Ang^3
#
#
#
# Elastic Constant Matrix: (Units=GPa)
#
#
# Indices 1 2 3 4 5 6 
#
# 1 224.6800 -1.5299 5.1442 0.0000 -4.6032 0.0000
# 2 -1.5299 50.9068 -14.0556 0.0000 -2.6367 0.0000
# 3 5.1442 -14.0556 80.0433 0.0000 9.0420 0.0000
# 4 0.0000 0.0000 0.0000 17.6865 0.0000 -23.8210
# 5 -4.6032 -2.6367 9.0420 0.0000 40.0166 0.0000
# 6 0.0000 0.0000 0.0000 -23.8210 0.0000 -44.0064
#
#
#
# Elastic Compliance Matrix: (Units=1/GPa)
#
#
# Indices 1 2 3 4 5 6 
#
# 1 0.004471 0.000071 -0.000342 0.000000 0.000596 0.000000
# 2 0.000071 0.020658 0.003559 0.000000 0.000565 0.000000
# 3 -0.000342 0.003559 0.013462 0.000000 -0.002847 0.000000
# 4 0.000000 0.000000 0.000000 0.032700 0.000000 -0.017701
# 5 0.000596 0.000565 -0.002847 0.000000 0.025739 0.000000
# 6 0.000000 0.000000 0.000000 -0.017701 0.000000 -0.013142
#
#
# Mechanical properties :
#
#
# Convention : Reuss Voigt Hill
#
# Bulk Modulus (GPa) = 22.14048 37.19415 29.66732
# Shear Modulus (GPa) = 54.13161 27.14410 40.63786
#
# Velocity S-wave (km/s) = 5.03050 3.56224 4.35864
# Velocity P-wave (km/s) = 6.64016 5.85724 6.26095
#
# Compressibility (1/GPa) = 0.04516613
#
# Stress axis : x y z
#
# Youngs Moduli (GPa) = 223.64805 48.40781 74.28428
#
# Poissons Ratio (x) = -0.00343 0.02543
# Poissons Ratio (y) = -0.01582 -0.26439
# Poissons Ratio (z) = 0.07656 -0.17229
#
# Static dielectric constant tensor:
#      x y z
#    x 1.923480 0.000000 -0.014680 
#    y 0.000000 1.817470 0.000000 
#    z -0.014680 0.000000 1.748170 
# 
# From -- ./inp_files/355151.got.cif
#   From: 2010.05.17/outbox.cif.g08.bks.cpg/sg12_178_cif.got.tgz:355151.got - 2010.06.03 13:09:07.
