data_PCOD9168695
_publ_section_title
;
Structure prediction by ZEFSAII (Michael W. Deem and Ramdas Pophale) SiO2 
 PCOD9168695
Probable space group: C 2/M
;
_chemical_formula_sum "Si O2"
_cell_formula_units_Z 42
_cell_length_a 22.371416
_cell_length_b 11.727106
_cell_length_c 11.313425
_cell_angle_alpha 90.000000
_cell_angle_beta 51.625933
_cell_angle_gamma 90.000000
_cell_volume 2326.914220
_symmetry_space_group_name_H-M "C 2/M"
_symmetry_group_IT_number 12
_symmetry_cell_setting 'monoclinic'
loop_
_space_group_symop_operation_xyz
x,y,z
-x,y,-z
-x,-y,-z
x,-y,z
1/2+x,1/2+y,z
1/2-x,1/2+y,-z
1/2-x,1/2-y,-z
1/2+x,1/2-y,z
loop_
_atom_site_type_symbol
_atom_site_label
_atom_site_fract_x
_atom_site_fract_y
_atom_site_fract_z
Si Si1 0.593602 0.000000 0.246750
Si Si2 0.615369 0.164767 0.011656
Si Si3 0.000000 0.500000 0.000000
Si Si4 0.233887 0.365885 0.673797
Si Si5 0.014384 0.130882 0.123123
Si Si6 0.410620 0.000000 0.480920
Si Si7 0.870140 0.735549 0.402747
O O1 0.615911 0.107444 0.139183
O O2 0.502049 0.000000 0.368243
O O3 0.621485 0.000000 0.346730
O O4 0.589701 0.294885 0.051067
O O5 0.551247 0.098537 0.009041
O O6 0.695566 0.147699 0.848227
O O7 0.233413 0.500000 0.643108
O O8 0.177601 0.296990 0.655548
O O9 0.316569 0.312484 0.551550
O O10 0.945546 0.197083 0.272326
O O11 0.019116 0.000000 0.156774
O O12 0.000000 0.130426 0.000000
O O13 0.387274 0.114646 0.442154
#
# Coordination Sequence:
#
# PCOD9168695 Si02
#       7
#     4   8   2   8   8   4   8
#     4  10  22  35  67  86 104 139 208 248 274 316
#     4  11  19  34  59  83 110 143 194 241 278 336
#     4  10  16  26  58  86 102 138 178 240 292 304
#     4  11  21  34  55  86 114 149 184 224 289 354
#     4  11  21  33  52  82 118 153 178 225 290 344
#     4  11  22  39  58  89 112 147 190 248 280 324
#     4  11  22  35  55  82 122 151 178 231 291 340
#
# _framework density 18.049655999999999
#
# number of rings (size 3 to 8) (size 9 to 14) (size 15 to 20)
#    0.000    1.143    7.619    0.571    2.667    0.000 
#    1.714    0.952    0.000    3.429    0.000    0.000 
#    0.000    0.000    0.000    0.000    0.000    0.000 
#
# Total GULP energy -116947.129165 kJ/mol
# GULP energy per Si atom -5568.910913 kJ/mol
# Density = 1.800857 g / cm^3
# Si number density = 18.049656 Si / 1000 Ang^3
#
#
#
# Elastic Constant Matrix: (Units=GPa)
#
#
# Indices 1 2 3 4 5 6 
#
# 1 6.3475 1.3680 13.3164 0.0000 4.2681 0.0000
# 2 1.3680 137.1566 41.9627 0.0000 -5.4901 0.0000
# 3 13.3164 41.9627 124.7333 0.0000 2.9279 0.0000
# 4 0.0000 0.0000 0.0000 20.8398 0.0000 -3.4488
# 5 4.2681 -5.4901 2.9279 0.0000 23.3849 0.0000
# 6 0.0000 0.0000 0.0000 -3.4488 0.0000 -2.2009
#
#
#
# Elastic Compliance Matrix: (Units=1/GPa)
#
#
# Indices 1 2 3 4 5 6 
#
# 1 0.236889 0.003934 -0.025696 0.000000 -0.039095 0.000000
# 2 0.003934 0.008313 -0.003255 0.000000 0.001641 0.000000
# 3 -0.025696 -0.003255 0.011798 0.000000 0.002448 0.000000
# 4 0.000000 0.000000 0.000000 0.038104 0.000000 -0.059707
# 5 -0.039095 0.001641 0.002448 0.000000 0.049977 0.000000
# 6 0.000000 0.000000 0.000000 -0.059707 0.000000 -0.360792
#
#
# Mechanical properties :
#
#
# Convention : Reuss Voigt Hill
#
# Bulk Modulus (GPa) = 4.83171 42.39240 23.61205
# Shear Modulus (GPa) = 48.39689 22.51077 35.45383
#
# Velocity S-wave (km/s) = 5.18376 3.53534 4.43678
# Velocity P-wave (km/s) = 6.20574 6.34054 6.27350
#
# Compressibility (1/GPa) = 0.20696620
#
# Stress axis : x y z
#
# Youngs Moduli (GPa) = 4.22138 120.28862 84.75978
#
# Poissons Ratio (x) = -0.47321 2.17798
# Poissons Ratio (y) = -0.01661 0.27592
# Poissons Ratio (z) = 0.10847 0.39157
#
# Static dielectric constant tensor:
#      x y z
#    x 1.602210 0.000000 0.000460 
#    y 0.000000 1.628690 0.000000 
#    z 0.000460 0.000000 1.649810 
# 
# From -- ./inp_files/173737.got.cif
#   From: 2010.05.17/outbox.cif.g08.bks.cpg/sg12_87_cif.got.tgz:173737.got - 2010.06.03 13:09:07.
