data_PCOD9168349
_publ_section_title
;
Structure prediction by ZEFSAII (Michael W. Deem and Ramdas Pophale) SiO2 
 PCOD9168349
Probable space group: C 2/M
;
_chemical_formula_sum "Si O2"
_cell_formula_units_Z 56
_cell_length_a 20.923153
_cell_length_b 33.721914
_cell_length_c 9.064097
_cell_angle_alpha 90.000000
_cell_angle_beta 150.448428
_cell_angle_gamma 90.000000
_cell_volume 3154.226819
_symmetry_space_group_name_H-M "C 2/M"
_symmetry_group_IT_number 12
_symmetry_cell_setting 'monoclinic'
loop_
_space_group_symop_operation_xyz
x,y,z
-x,y,-z
-x,-y,-z
x,-y,z
1/2+x,1/2+y,z
1/2-x,1/2+y,-z
1/2-x,1/2-y,-z
1/2+x,1/2-y,z
loop_
_atom_site_type_symbol
_atom_site_label
_atom_site_fract_x
_atom_site_fract_y
_atom_site_fract_z
Si Si1 0.406244 0.000000 0.957163
Si Si2 0.757409 0.365839 0.666654
Si Si3 0.283795 0.412986 0.722313
Si Si4 0.505368 0.916135 0.830265
Si Si5 0.502478 0.730135 0.680387
Si Si6 0.766142 0.272466 0.686557
Si Si7 0.151257 0.000000 0.259230
Si Si8 0.004752 0.862800 0.682820
O O1 0.257353 0.000000 0.604963
O O2 0.500000 0.000000 0.000000
O O3 0.441899 0.959285 0.108511
O O4 0.725919 0.390783 0.455583
O O5 0.774496 0.319324 0.670888
O O6 0.635760 0.370120 0.529604
O O7 0.889524 0.383382 0.999075
O O8 0.317381 0.459156 0.763240
O O9 0.142152 0.409795 0.511768
O O10 0.392126 0.390846 0.032365
O O11 0.500000 0.915821 0.000000
O O12 0.500000 0.737959 0.500000
O O13 0.360645 0.735154 0.467263
O O14 0.538273 0.683659 0.774460
O O15 0.607520 0.756877 0.974406
O O16 0.750000 0.250000 0.500000
O O17 0.000000 0.000000 0.000000
O O18 0.000000 0.869840 0.500000
#
# Coordination Sequence:
#
# PCOD9168349 Si02
#       8
#     4   8   8   8   8   8   4   8
#     4  10  14  32  48  77 118 137 171 224 273 320
#     4  10  20  35  55  83 108 139 180 226 281 333
#     4  11  20  34  56  83 112 141 184 229 275 330
#     4   9  17  30  52  79 109 135 171 220 272 317
#     4  10  22  40  58  77 109 155 192 225 281 351
#     4  11  22  35  56  85 113 139 184 242 289 330
#     4  12  20  28  53  89 112 146 186 224 273 333
#     4  10  22  39  55  75 110 150 185 227 275 326
#
# _framework density 17.753955000000001
#
# number of rings (size 3 to 8) (size 9 to 14) (size 15 to 20)
#    0.000    1.714    4.286    3.000    0.000    6.857 
#    0.000    1.071    0.000    0.000    0.000    2.000 
#    0.000    0.000    0.000    0.000    0.000    0.000 
#
# Total GULP energy -156240.208180 kJ/mol
# GULP energy per Si atom -5580.007435 kJ/mol
# Density = 1.771355 g / cm^3
# Si number density = 17.753955 Si / 1000 Ang^3
#
#
#
# Elastic Constant Matrix: (Units=GPa)
#
#
# Indices 1 2 3 4 5 6 
#
# 1 56.2839 57.6316 42.5004 0.0000 10.7155 0.0000
# 2 57.6316 122.7937 67.0465 0.0000 16.6321 0.0000
# 3 42.5004 67.0465 93.5188 0.0000 31.9304 0.0000
# 4 0.0000 0.0000 0.0000 33.7831 0.0000 9.6810
# 5 10.7155 16.6321 31.9304 0.0000 25.0790 0.0000
# 6 0.0000 0.0000 0.0000 9.6810 0.0000 13.9039
#
#
#
# Elastic Compliance Matrix: (Units=1/GPa)
#
#
# Indices 1 2 3 4 5 6 
#
# 1 0.037137 -0.013153 -0.008860 0.000000 0.004135 0.000000
# 2 -0.013153 0.018554 -0.008920 0.000000 0.004671 0.000000
# 3 -0.008860 -0.008920 0.031492 0.000000 -0.030394 0.000000
# 4 0.000000 0.000000 0.000000 0.036979 0.000000 -0.025748
# 5 0.004135 0.004671 -0.030394 0.000000 0.073707 0.000000
# 6 0.000000 0.000000 0.000000 -0.025748 0.000000 0.089850
#
#
# Mechanical properties :
#
#
# Convention : Reuss Voigt Hill
#
# Bulk Modulus (GPa) = 39.49556 67.43925 53.46741
# Shear Modulus (GPa) = 13.96555 21.58106 17.77330
#
# Velocity S-wave (km/s) = 2.80771 3.49028 3.16743
# Velocity P-wave (km/s) = 5.72759 7.36958 6.59985
#
# Compressibility (1/GPa) = 0.02531930
#
# Stress axis : x y z
#
# Youngs Moduli (GPa) = 26.92702 53.89591 31.75414
#
# Poissons Ratio (x) = 0.70887 0.28134
# Poissons Ratio (y) = 0.35416 0.28324
# Poissons Ratio (z) = 0.23857 0.48074
#
# Static dielectric constant tensor:
#      x y z
#    x 1.592600 0.000000 0.015980 
#    y 0.000000 1.614240 0.000000 
#    z 0.015980 0.000000 1.599610 
# 
# From -- ./inp_files/91669.got.cif
#   From: 2010.05.17/outbox.cif.g08.bks.cpg/sg12_46_cif.got.tgz:91669.got - 2010.06.03 13:09:07.
