data_PCOD9168914
_publ_section_title
;
Structure prediction by ZEFSAII (Michael W. Deem and Ramdas Pophale) SiO2 
 PCOD9168914
Probable space group: C 2/M
;
_chemical_formula_sum "Si O2"
_cell_formula_units_Z 58
_cell_length_a 5.286768
_cell_length_b 24.521840
_cell_length_c 25.378517
_cell_angle_alpha 90.000000
_cell_angle_beta 109.088713
_cell_angle_gamma 90.000000
_cell_volume 3109.191653
_symmetry_space_group_name_H-M "C 2/M"
_symmetry_group_IT_number 12
_symmetry_cell_setting 'monoclinic'
loop_
_space_group_symop_operation_xyz
x,y,z
-x,y,-z
-x,-y,-z
x,-y,z
1/2+x,1/2+y,z
1/2-x,1/2+y,-z
1/2-x,1/2-y,-z
1/2+x,1/2-y,z
loop_
_atom_site_type_symbol
_atom_site_label
_atom_site_fract_x
_atom_site_fract_y
_atom_site_fract_z
Si Si1 0.000000 0.000000 0.500000
Si Si2 0.603867 0.825963 0.562299
Si Si3 0.001474 0.786620 0.844748
Si Si4 0.878179 0.121502 0.751469
Si Si5 0.637258 0.602706 0.585018
Si Si6 0.788932 0.188185 0.024791
Si Si7 0.680767 0.064901 0.286294
Si Si8 0.340945 0.721701 0.676402
O O1 0.895807 0.951811 0.451775
O O2 0.500000 0.803382 0.500000
O O3 0.362588 0.858856 0.573990
O O4 0.721326 0.781438 0.609915
O O5 0.850651 0.867053 0.567577
O O6 0.229511 0.747605 0.835441
O O7 0.952481 0.838439 0.804338
O O8 0.106782 0.805886 0.909036
O O9 0.123394 0.086612 0.745928
O O10 0.619067 0.085426 0.744850
O O11 0.804291 0.162985 0.699265
O O12 0.723471 0.588635 0.650639
O O13 0.500000 0.161441 0.000000
O O14 0.750000 0.250000 0.000000
O O15 0.000000 0.161420 0.000000
O O16 0.691535 0.000000 0.290137
O O17 0.651441 0.737409 0.695751
#
# Coordination Sequence:
#
# PCOD9168914 Si02
#       8
#     2   8   8   8   8   8   8   8
#     4  12  24  38  68  98 108 130 200 242 348 394
#     4  12  24  41  60  81 116 143 186 238 298 352
#     4  12  21  35  58  90 130 175 205 239 290 348
#     4  12  25  41  61  89 121 154 211 245 292 363
#     4  12  23  40  61  89 113 140 174 252 312 389
#     4  10  16  30  51  82 127 173 196 239 288 342
#     4  12  24  44  65  85 113 158 195 253 319 364
#     4  12  24  40  61  82 115 155 195 238 286 343
#
# _framework density 18.654368000000002
#
# number of rings (size 3 to 8) (size 9 to 14) (size 15 to 20)
#    0.000    0.276    7.586    3.724    0.000    1.655 
#    0.000    0.000    0.000    0.000    0.000    0.000 
#    0.000   11.034    0.000    0.000    0.000    0.000 
#
# Total GULP energy -161893.795034 kJ/mol
# GULP energy per Si atom -5582.544656 kJ/mol
# Density = 1.861191 g / cm^3
# Si number density = 18.654368 Si / 1000 Ang^3
#
#
#
# Elastic Constant Matrix: (Units=GPa)
#
#
# Indices 1 2 3 4 5 6 
#
# 1 141.1832 21.6658 29.4716 0.0000 0.5133 0.0000
# 2 21.6658 23.8670 3.7640 0.0000 -1.2248 0.0000
# 3 29.4716 3.7640 105.2633 0.0000 -7.9576 0.0000
# 4 0.0000 0.0000 0.0000 3.9337 0.0000 0.6311
# 5 0.5133 -1.2248 -7.9576 0.0000 11.7144 0.0000
# 6 0.0000 0.0000 0.0000 0.6311 0.0000 7.1290
#
#
#
# Elastic Compliance Matrix: (Units=1/GPa)
#
#
# Indices 1 2 3 4 5 6 
#
# 1 0.008781 -0.007738 -0.002395 0.000000 -0.002821 0.000000
# 2 -0.007738 0.049097 0.000869 0.000000 0.006063 0.000000
# 3 -0.002395 0.000869 0.010704 0.000000 0.007467 0.000000
# 4 0.000000 0.000000 0.000000 0.257877 0.000000 -0.022828
# 5 -0.002821 0.006063 0.007467 0.000000 0.091195 0.000000
# 6 0.000000 0.000000 0.000000 -0.022828 0.000000 0.142293
#
#
# Mechanical properties :
#
#
# Convention : Reuss Voigt Hill
#
# Bulk Modulus (GPa) = 19.97828 42.23516 31.10672
# Shear Modulus (GPa) = 8.40114 18.91623 13.65868
#
# Velocity S-wave (km/s) = 2.12447 3.18785 2.70885
# Velocity P-wave (km/s) = 4.09277 6.01996 5.14736
#
# Compressibility (1/GPa) = 0.05005436
#
# Stress axis : x y z
#
# Youngs Moduli (GPa) = 113.88697 20.36780 93.42377
#
# Poissons Ratio (x) = 0.15760 0.22374
# Poissons Ratio (y) = 0.88124 -0.08120
# Poissons Ratio (z) = 0.27275 -0.01770
#
# Static dielectric constant tensor:
#      x y z
#    x 1.646110 0.000000 -0.008770 
#    y 0.000000 1.586960 0.000000 
#    z -0.008770 0.000000 1.653280 
# 
# From -- ./inp_files/355119.got.cif
#   From: 2010.05.17/outbox.cif.g08.bks.cpg/sg12_178_cif.got.tgz:355119.got - 2010.06.03 13:09:07.
