data_PCOD9168699
_publ_section_title
;
Structure prediction by ZEFSAII (Michael W. Deem and Ramdas Pophale) SiO2 
 PCOD9168699
Probable space group: C 2/M
;
_chemical_formula_sum "Si O2"
_cell_formula_units_Z 64
_cell_length_a 18.997595
_cell_length_b 18.723958
_cell_length_c 22.303712
_cell_angle_alpha 90.000000
_cell_angle_beta 31.579245
_cell_angle_gamma 90.000000
_cell_volume 4154.676498
_symmetry_space_group_name_H-M "C 2/M"
_symmetry_group_IT_number 12
_symmetry_cell_setting 'monoclinic'
loop_
_space_group_symop_operation_xyz
x,y,z
-x,y,-z
-x,-y,-z
x,-y,z
1/2+x,1/2+y,z
1/2-x,1/2+y,-z
1/2-x,1/2-y,-z
1/2+x,1/2-y,z
loop_
_atom_site_type_symbol
_atom_site_label
_atom_site_fract_x
_atom_site_fract_y
_atom_site_fract_z
Si Si1 0.440156 0.263164 0.806142
Si Si2 0.184399 0.354951 0.016069
Si Si3 0.898291 0.842734 0.217876
Si Si4 0.132399 0.416288 0.363301
Si Si5 0.543688 0.077886 0.899438
Si Si6 0.168722 0.081369 0.981258
Si Si7 0.630066 0.222801 0.861602
Si Si8 0.842476 0.682268 0.769531
O O1 0.395556 0.206851 0.890044
O O2 0.561009 0.310019 0.746666
O O3 0.449196 0.216594 0.738756
O O4 0.311401 0.315837 0.893470
O O5 0.085169 0.394619 0.043604
O O6 0.242842 0.408763 0.023058
O O7 0.759122 0.884341 0.308427
O O8 0.896153 0.776692 0.173494
O O9 0.020510 0.892705 0.106916
O O10 0.156946 0.500000 0.330753
O O11 0.112494 0.368691 0.317680
O O12 0.000000 0.411925 0.500000
O O13 0.647415 0.143121 0.823943
O O14 0.588721 0.000000 0.845277
O O15 0.500000 0.071292 0.000000
O O16 0.168708 0.000000 0.960087
O O17 0.236184 0.134969 0.884899
O O18 0.758301 0.252669 0.802878
O O19 0.500000 0.224162 0.000000
#
# Coordination Sequence:
#
# PCOD9168699 Si02
#       8
#     8   8   8   8   8   8   8   8
#     4   9  16  28  45  70  90 124 158 190 229 278
#     4   9  16  26  40  60 100 130 149 179 230 282
#     4  10  18  30  50  70  96 130 160 194 235 287
#     4  10  22  38  52  69  97 129 160 202 256 298
#     4  10  18  24  35  54  85 128 163 185 215 267
#     4  10  18  27  44  74 101 125 158 192 230 282
#     4  10  16  27  41  63  92 125 160 192 227 275
#     4  10  19  30  50  71  97 128 160 196 238 284
#
# _framework density 15.404328
#
# number of rings (size 3 to 8) (size 9 to 14) (size 15 to 20)
#    0.000    2.250    2.500    3.375    0.000    0.000 
#    0.000    2.500    0.000    0.750    0.000    0.000 
#    0.000    8.000    0.000    0.000    0.000    0.500 
#
# Total GULP energy -178166.472871 kJ/mol
# GULP energy per Si atom -5567.702277 kJ/mol
# Density = 1.536927 g / cm^3
# Si number density = 15.404328 Si / 1000 Ang^3
#
#
#
# Elastic Constant Matrix: (Units=GPa)
#
#
# Indices 1 2 3 4 5 6 
#
# 1 101.8832 44.7966 28.8068 0.0004 7.7031 -0.0012
# 2 44.7966 110.3336 20.7925 0.0002 -2.1880 -0.0022
# 3 28.8068 20.7925 39.5979 -0.0011 -0.0904 -0.0020
# 4 0.0004 0.0002 -0.0011 18.0004 0.0002 -11.3259
# 5 7.7031 -2.1880 -0.0904 0.0002 9.5251 0.0006
# 6 -0.0012 -0.0022 -0.0020 -11.3259 0.0006 68.9522
#
#
#
# Elastic Compliance Matrix: (Units=1/GPa)
#
#
# Indices 1 2 3 4 5 6 
#
# 1 0.015477 -0.004915 -0.008710 -0.000001 -0.013728 0.000000
# 2 -0.004915 0.011668 -0.002537 0.000000 0.006631 0.000000
# 3 -0.008710 -0.002537 0.032937 0.000003 0.006774 0.000001
# 4 -0.000001 0.000000 0.000003 0.061958 -0.000002 0.010177
# 5 -0.013728 0.006631 0.006774 -0.000002 0.117675 -0.000001
# 6 0.000000 0.000000 0.000001 0.010177 -0.000001 0.016174
#
#
# Mechanical properties :
#
#
# Convention : Reuss Voigt Hill
#
# Bulk Modulus (GPa) = 36.02210 48.95627 42.48918
# Shear Modulus (GPa) = 16.80876 29.79015 23.29945
#
# Velocity S-wave (km/s) = 3.30687 4.40236 3.89334
# Velocity P-wave (km/s) = 6.16569 7.59545 6.91761
#
# Compressibility (1/GPa) = 0.02776074
#
# Stress axis : x y z
#
# Youngs Moduli (GPa) = 64.61394 85.70258 30.36055
#
# Poissons Ratio (x) = 0.42119 0.26443
# Poissons Ratio (y) = 0.31755 0.07701
# Poissons Ratio (z) = 0.56277 0.21739
#
# Static dielectric constant tensor:
#      x y z
#    x 1.553410 0.000000 0.011230 
#    y 0.000000 1.547500 0.000000 
#    z 0.011230 0.000000 1.478070 
# 
# From -- ./inp_files/322425.got.cif
#   From: 2010.05.17/outbox.cif.g08.bks.cpg/sg12_162_cif.got.tgz:322425.got - 2010.06.03 13:09:07.
