data_PCOD9168277
_publ_section_title
;
Structure prediction by ZEFSAII (Michael W. Deem and Ramdas Pophale) SiO2 
 PCOD9168277
Probable space group: P 21/M
;
_chemical_formula_sum "Si O2"
_cell_formula_units_Z 28
_cell_length_a 30.000000
_cell_length_b 9.000000
_cell_length_c 30.000000
_cell_angle_alpha 90.000000
_cell_angle_beta 170.000000
_cell_angle_gamma 90.000000
_cell_volume 1406.550239
_symmetry_space_group_name_H-M "P 21/M"
_symmetry_group_IT_number 11
_symmetry_cell_setting 'monoclinic'
loop_
_space_group_symop_operation_xyz
x,y,z
-x,1/2+y,-z
-x,-y,-z
x,1/2-y,z
loop_
_atom_site_type_symbol
_atom_site_label
_atom_site_fract_x
_atom_site_fract_y
_atom_site_fract_z
Si Si1 0.021004 0.432143 0.141489
Si Si2 0.380916 0.070854 0.646367
Si Si3 0.233715 0.567412 0.258338
Si Si4 0.845041 0.576535 0.151696
Si Si5 0.360786 0.422621 0.949814
Si Si6 0.486442 0.568358 0.653906
Si Si7 0.897635 0.928089 0.445303
O O1 0.007038 0.250000 0.125510
O O2 0.740787 0.500206 0.879348
O O3 0.149775 0.502434 0.223718
O O4 0.229136 0.492846 0.381210
O O5 0.342024 0.250000 0.602607
O O6 0.636650 0.035101 0.925832
O O7 0.459764 0.986833 0.678309
O O8 0.128223 0.993721 0.420350
O O9 0.500000 0.500000 0.500000
O O10 0.244043 0.750000 0.268420
O O11 0.000000 0.500000 0.000000
O O12 0.845610 0.750000 0.135233
O O13 0.732346 0.587734 0.090759
O O14 0.352825 0.250000 0.924741
O O15 0.640433 0.491419 0.211956
O O16 0.142834 0.532056 0.716651
O O17 0.488372 0.750000 0.651978
O O18 0.855362 0.750000 0.400088
O O19 0.000000 0.000000 0.500000
#
# Coordination Sequence:
#
# PCOD9168277 Si02
#       7
#     4   4   4   4   4   4   4
#     4  12  25  44  67  96 130 167 211 263 318 375
#     4  12  25  42  65  95 129 166 210 262 313 370
#     4  12  25  44  67  96 130 170 214 261 316 375
#     4  11  24  43  66  93 127 168 209 256 313 376
#     4  11  24  43  66  93 127 165 209 258 313 372
#     4  12  25  44  67  94 128 169 213 260 315 378
#     4  12  25  42  65  93 127 165 209 258 313 372
#
# _framework density 19.906860999999999
#
# number of rings (size 3 to 8) (size 9 to 14) (size 15 to 20)
#    0.000    0.286    0.000   10.286    0.000    5.714 
#    0.000    0.000    0.000    0.000    0.000    0.000 
#    0.000    0.000    0.000    0.000    0.000    0.000 
#
# Total GULP energy -156182.484238 kJ/mol
# GULP energy per Si atom -5577.945866 kJ/mol
# Density = 1.986155 g / cm^3
# Si number density = 19.906861 Si / 1000 Ang^3
#
#
#
# Elastic Constant Matrix: (Units=GPa)
#
#
# Indices 1 2 3 4 5 6 
#
# 1 97.5635 11.9673 -0.0918 0.0000 16.6608 0.0000
# 2 11.9673 214.0674 29.1148 0.0000 21.4411 0.0000
# 3 -0.0918 29.1148 117.3068 0.0000 34.2909 0.0000
# 4 0.0000 0.0000 0.0000 37.0031 0.0000 3.9310
# 5 16.6608 21.4411 34.2909 0.0000 49.0912 0.0000
# 6 0.0000 0.0000 0.0000 3.9310 0.0000 32.6177
#
#
#
# Elastic Compliance Matrix: (Units=1/GPa)
#
#
# Indices 1 2 3 4 5 6 
#
# 1 0.011083 -0.000354 0.001446 0.000000 -0.004617 0.000000
# 2 -0.000354 0.004948 -0.000794 0.000000 -0.001487 0.000000
# 3 0.001446 -0.000794 0.011014 0.000000 -0.007837 0.000000
# 4 0.000000 0.000000 0.000000 0.027375 0.000000 -0.003299
# 5 -0.004617 -0.001487 -0.007837 0.000000 0.028061 0.000000
# 6 0.000000 0.000000 0.000000 -0.003299 0.000000 0.031056
#
#
# Mechanical properties :
#
#
# Convention : Reuss Voigt Hill
#
# Bulk Modulus (GPa) = 36.17718 56.76870 46.47294
# Shear Modulus (GPa) = 40.93202 49.60556 45.26879
#
# Velocity S-wave (km/s) = 4.53943 4.99729 4.77385
# Velocity P-wave (km/s) = 6.75928 7.86615 7.33363
#
# Compressibility (1/GPa) = 0.02764174
#
# Stress axis : x y z
#
# Youngs Moduli (GPa) = 90.22893 202.09919 90.79513
#
# Poissons Ratio (x) = 0.07151 -0.13130
# Poissons Ratio (y) = 0.03193 0.07207
# Poissons Ratio (z) = -0.13048 0.16043
#
# Static dielectric constant tensor:
#      x y z
#    x 1.998980 0.000000 -0.181230 
#    y 0.000000 1.685230 0.000000 
#    z -0.181230 0.000000 1.738820 
# 
# From -- ./inp_files/73874.got.cif
#   From: 2010.05.17/outbox.ucp.g08.bks.cvg/sg11_37_cif.got.tgz:73874.got - 2010.06.11 11:38:39.
