data_PCOD9168084
_publ_section_title
;
Structure prediction by ZEFSAII (Michael W. Deem and Ramdas Pophale) SiO2 
 PCOD9168084
Probable space group: P 21/M
;
_chemical_formula_sum "Si O2"
_cell_formula_units_Z 32
_cell_length_a 12.000000
_cell_length_b 15.000000
_cell_length_c 18.000000
_cell_angle_alpha 90.000000
_cell_angle_beta 150.000000
_cell_angle_gamma 90.000000
_cell_volume 1620.000000
_symmetry_space_group_name_H-M "P 21/M"
_symmetry_group_IT_number 11
_symmetry_cell_setting 'monoclinic'
loop_
_space_group_symop_operation_xyz
x,y,z
-x,1/2+y,-z
-x,-y,-z
x,1/2-y,z
loop_
_atom_site_type_symbol
_atom_site_label
_atom_site_fract_x
_atom_site_fract_y
_atom_site_fract_z
Si Si1 0.420573 0.854857 0.656141
Si Si2 0.004626 0.395412 0.490236
Si Si3 0.809631 0.642386 0.569734
Si Si4 0.140179 0.642457 0.897970
Si Si5 0.954753 0.897905 0.959133
Si Si6 0.712242 0.145933 0.712298
Si Si7 0.336682 0.354402 0.816946
Si Si8 0.088668 0.640374 0.332444
O O1 0.441071 0.750000 0.656504
O O2 0.278211 0.889208 0.502109
O O3 0.683363 0.884181 0.812287
O O4 0.243992 0.865998 0.623704
O O5 0.077994 0.377637 0.446758
O O6 0.196512 0.360586 0.658313
O O7 0.000000 0.500000 0.500000
O O8 0.802788 0.750000 0.570110
O O9 0.545512 0.611137 0.422677
O O10 0.971134 0.612678 0.732675
O O11 0.147965 0.750000 0.897886
O O12 0.038157 0.623155 0.922268
O O13 0.403827 0.610933 0.040648
O O14 0.119389 0.857292 0.118835
O O15 0.000000 0.000000 0.000000
O O16 0.677556 0.250000 0.676571
O O17 0.836018 0.111312 0.707693
O O18 0.363714 0.250000 0.849726
O O19 0.155192 0.388949 0.774590
O O20 0.082299 0.750000 0.329571
#
# Coordination Sequence:
#
# PCOD9168084 Si02
#       8
#     4   4   4   4   4   4   4   4
#     4  10  21  40  63  85 120 168 209 247 298 373
#     4  11  23  37  60  92 127 160 199 251 312 366
#     4  10  21  39  65  93 118 157 209 252 295 366
#     4  10  21  40  65  89 118 161 206 253 303 364
#     4  12  26  39  56  88 126 159 203 256 312 363
#     4  10  20  37  64  88 117 156 200 249 297 361
#     4   9  18  36  64  89 120 159 200 246 298 365
#     4   8  16  34  60  92 115 147 200 246 291 356
#
# _framework density 19.753086
#
# number of rings (size 3 to 8) (size 9 to 14) (size 15 to 20)
#    0.000    2.000    0.000    4.500    3.500    5.000 
#    4.500    4.375    0.000    0.000    0.000    0.000 
#    0.000    0.000    0.000    0.000    0.000    0.000 
#
# Total GULP energy -178143.490457 kJ/mol
# GULP energy per Si atom -5566.984077 kJ/mol
# Density = 1.970813 g / cm^3
# Si number density = 19.753086 Si / 1000 Ang^3
#
#
#
# Elastic Constant Matrix: (Units=GPa)
#
#
# Indices 1 2 3 4 5 6 
#
# 1 207.8300 -7.6858 96.4930 0.0000 2.4918 0.0000
# 2 -7.6858 26.5067 -9.8808 0.0000 -0.5778 0.0000
# 3 96.4930 -9.8808 170.3608 0.0000 17.3649 0.0000
# 4 0.0000 0.0000 0.0000 16.0869 0.0000 7.1066
# 5 2.4918 -0.5778 17.3649 0.0000 49.6974 0.0000
# 6 0.0000 0.0000 0.0000 7.1066 0.0000 15.9645
#
#
#
# Elastic Compliance Matrix: (Units=1/GPa)
#
#
# Indices 1 2 3 4 5 6 
#
# 1 0.006584 0.000514 -0.003802 0.000000 0.001004 0.000000
# 2 0.000514 0.038606 0.001975 0.000000 -0.000267 0.000000
# 3 -0.003802 0.001975 0.008416 0.000000 -0.002727 0.000000
# 4 0.000000 0.000000 0.000000 0.077379 0.000000 -0.034445
# 5 0.001004 -0.000267 -0.002727 0.000000 0.021021 0.000000
# 6 0.000000 0.000000 0.000000 -0.034445 0.000000 0.077972
#
#
# Mechanical properties :
#
#
# Convention : Reuss Voigt Hill
#
# Bulk Modulus (GPa) = 19.61548 62.50558 41.06053
# Shear Modulus (GPa) = 20.03242 38.06784 29.05013
#
# Velocity S-wave (km/s) = 3.18801 4.39473 3.83908
# Velocity P-wave (km/s) = 4.84800 7.58048 6.36266
#
# Compressibility (1/GPa) = 0.05098015
#
# Stress axis : x y z
#
# Youngs Moduli (GPa) = 151.89292 25.90285 118.82675
#
# Poissons Ratio (x) = -0.01331 0.45172
# Poissons Ratio (y) = -0.07804 -0.23472
# Poissons Ratio (z) = 0.57742 -0.05117
#
# Static dielectric constant tensor:
#      x y z
#    x 1.748350 0.000000 0.013410 
#    y 0.000000 1.683630 0.000000 
#    z 0.013410 0.000000 1.751290 
# 
# From -- ./inp_files/59524.got.cif
#   From: 2010.05.17/outbox.ucp.g08.bks.cvg/sg11_30_cif.got.tgz:59524.got - 2010.06.11 11:38:39.
