data_PCOD9168238
_publ_section_title
;
Structure prediction by ZEFSAII (Michael W. Deem and Ramdas Pophale) SiO2 
 PCOD9168238
Probable space group: P 21/M
;
_chemical_formula_sum "Si O2"
_cell_formula_units_Z 32
_cell_length_a 15.000000
_cell_length_b 9.000000
_cell_length_c 12.000000
_cell_angle_alpha 90.000000
_cell_angle_beta 90.000000
_cell_angle_gamma 90.000000
_cell_volume 1620.000000
_symmetry_space_group_name_H-M "P 21/M"
_symmetry_group_IT_number 11
_symmetry_cell_setting 'monoclinic'
loop_
_space_group_symop_operation_xyz
x,y,z
-x,1/2+y,-z
-x,-y,-z
x,1/2-y,z
loop_
_atom_site_type_symbol
_atom_site_label
_atom_site_fract_x
_atom_site_fract_y
_atom_site_fract_z
Si Si1 0.159970 0.076189 0.715332
Si Si2 0.249907 0.569375 0.326351
Si Si3 0.659566 0.076932 0.261830
Si Si4 0.903331 0.072763 0.506252
Si Si5 0.580180 0.927860 0.066205
Si Si6 0.405646 0.922508 0.486467
Si Si7 0.256395 0.929016 0.065270
Si Si8 0.913047 0.573135 0.049895
O O1 0.161939 0.250000 0.684401
O O2 0.090965 0.056325 0.816124
O O3 0.254332 0.022505 0.762346
O O4 0.142036 0.975218 0.609041
O O5 0.250642 0.750000 0.333655
O O6 0.160412 0.521967 0.392105
O O7 0.336745 0.515815 0.394769
O O8 0.253278 0.531597 0.196541
O O9 0.672219 0.250000 0.230722
O O10 0.640730 0.070611 0.392823
O O11 0.583125 0.001905 0.188434
O O12 0.912045 0.250000 0.513302
O O13 0.000000 0.000000 0.500000
O O14 0.576022 0.750000 0.072559
O O15 0.500000 0.000000 0.000000
O O16 0.665900 0.984635 0.998364
O O17 0.421690 0.750000 0.459065
O O18 0.500000 0.000000 0.500000
O O19 0.267381 0.750000 0.055840
O O20 0.167027 0.984057 0.006639
O O21 0.906210 0.750000 0.027348
O O22 0.000000 0.500000 0.000000
#
# Coordination Sequence:
#
# PCOD9168238 Si02
#       8
#     4   4   4   4   4   4   4   4
#     4  11  23  41  65  93 125 164 211 263 315 373
#     4   9  21  42  63  87 126 168 204 251 312 371
#     4  11  22  41  68  94 124 164 210 261 317 376
#     4  11  23  42  65  93 127 165 210 261 314 377
#     4  12  26  44  65  94 129 166 212 264 316 379
#     4  10  22  41  63  93 126 164 208 254 308 370
#     4  11  23  42  67  93 127 170 211 259 318 379
#     4  11  25  43  64  93 128 167 214 265 317 377
#
# _framework density 19.753086
#
# number of rings (size 3 to 8) (size 9 to 14) (size 15 to 20)
#    0.000    1.250    2.500    3.000    3.500    2.500 
#    0.000    2.500    0.000    0.000    0.000    0.000 
#    0.000    0.000    0.000    0.000    0.000    0.000 
#
# Total GULP energy -178741.404498 kJ/mol
# GULP energy per Si atom -5585.668891 kJ/mol
# Density = 1.970813 g / cm^3
# Si number density = 19.753086 Si / 1000 Ang^3
#
#
#
# Elastic Constant Matrix: (Units=GPa)
#
#
# Indices 1 2 3 4 5 6 
#
# 1 83.5892 1.0815 2.4628 0.0000 -0.0021 0.0000
# 2 1.0815 55.1629 9.0283 0.0000 -11.0408 0.0000
# 3 2.4628 9.0283 76.8738 0.0000 7.3495 0.0000
# 4 0.0000 0.0000 0.0000 31.6923 0.0000 1.5471
# 5 -0.0021 -11.0408 7.3495 0.0000 26.8001 0.0000
# 6 0.0000 0.0000 0.0000 1.5471 0.0000 35.2760
#
#
#
# Elastic Compliance Matrix: (Units=1/GPa)
#
#
# Indices 1 2 3 4 5 6 
#
# 1 0.011976 -0.000168 -0.000367 0.000000 0.000032 0.000000
# 2 -0.000168 0.020548 -0.003304 0.000000 0.009371 0.000000
# 3 -0.000367 -0.003304 0.013903 0.000000 -0.005174 0.000000
# 4 0.000000 0.000000 0.000000 0.031621 0.000000 -0.001387
# 5 0.000032 0.009371 -0.005174 0.000000 0.042593 0.000000
# 6 0.000000 0.000000 0.000000 -0.001387 0.000000 0.028409
#
#
# Mechanical properties :
#
#
# Convention : Reuss Voigt Hill
#
# Bulk Modulus (GPa) = 25.80730 26.75234 26.27982
# Shear Modulus (GPa) = 29.47358 32.29056 30.88207
#
# Velocity S-wave (km/s) = 3.86696 4.04754 3.95828
# Velocity P-wave (km/s) = 5.74727 5.95115 5.85010
#
# Compressibility (1/GPa) = 0.03874872
#
# Stress axis : x y z
#
# Youngs Moduli (GPa) = 83.49855 48.66720 71.92841
#
# Poissons Ratio (x) = 0.00819 0.02640
# Poissons Ratio (y) = 0.01405 0.23763
# Poissons Ratio (z) = 0.03064 0.16078
#
# Static dielectric constant tensor:
#      x y z
#    x 4.071070 0.000000 1.290260 
#    y 0.000000 1.655480 0.000000 
#    z 1.290260 0.000000 2.374460 
# 
# From -- ./inp_files/38077.got.cif
#   From: 2010.05.17/outbox.ucp.g08.bks.cvg/sg11_20_cif.got.tgz:38077.got - 2010.06.11 11:38:39.
