data_PCOD9168454
_publ_section_title
;
Structure prediction by ZEFSAII (Michael W. Deem and Ramdas Pophale) SiO2 
 PCOD9168454
Probable space group: C 2/M
;
_chemical_formula_sum "Si O2"
_cell_formula_units_Z 52
_cell_length_a 20.006466
_cell_length_b 14.878605
_cell_length_c 27.579828
_cell_angle_alpha 90.000000
_cell_angle_beta 160.050743
_cell_angle_gamma 90.000000
_cell_volume 2801.029127
_symmetry_space_group_name_H-M "C 2/M"
_symmetry_group_IT_number 12
_symmetry_cell_setting 'monoclinic'
loop_
_space_group_symop_operation_xyz
x,y,z
-x,y,-z
-x,-y,-z
x,-y,z
1/2+x,1/2+y,z
1/2-x,1/2+y,-z
1/2-x,1/2-y,-z
1/2+x,1/2-y,z
loop_
_atom_site_type_symbol
_atom_site_label
_atom_site_fract_x
_atom_site_fract_y
_atom_site_fract_z
Si Si1 0.714847 0.233284 0.155315
Si Si2 0.532093 0.767927 0.294866
Si Si3 0.127160 0.103264 0.658636
Si Si4 0.000000 0.339948 0.500000
Si Si5 0.686207 0.096252 0.720928
Si Si6 0.255855 0.176895 0.646833
Si Si7 0.228761 0.396231 0.506236
O O1 0.843851 0.162821 0.273835
O O2 0.697317 0.320651 0.177776
O O3 0.825829 0.262745 0.182010
O O4 0.500000 0.195487 0.000000
O O5 0.551519 0.805737 0.253563
O O6 0.622054 0.667848 0.362932
O O7 0.668657 0.837803 0.418224
O O8 0.260069 0.144553 0.705412
O O9 0.903504 0.111852 0.487297
O O10 0.176594 0.000000 0.700333
O O11 0.867463 0.392888 0.371959
O O12 0.858027 0.272044 0.431707
O O13 0.474523 0.098593 0.602748
O O14 0.780632 0.000000 0.794746
O O15 0.292318 0.500000 0.540467
#
# Coordination Sequence:
#
# PCOD9168454 Si02
#       7
#     8   8   8   4   8   8   8
#     4  11  23  38  52  74 106 152 192 217 252 309
#     4  10  19  32  50  76 107 139 175 220 268 315
#     4  10  20  35  58  84 111 140 174 220 274 329
#     4  10  15  30  53  82 108 128 157 212 279 332
#     4  10  18  32  54  79 105 135 170 216 268 320
#     4  10  17  32  57  83 109 131 165 222 282 327
#     4   9  17  28  48  78 106 129 163 215 274 322
#
# _framework density 18.564605
#
# number of rings (size 3 to 8) (size 9 to 14) (size 15 to 20)
#    0.000    2.154    4.615    3.000    0.000    3.692 
#    0.000    0.769    0.000    0.000    0.000    0.000 
#    0.000    0.000    0.000    0.000    0.000    0.000 
#
# Total GULP energy -144799.795341 kJ/mol
# GULP energy per Si atom -5569.222898 kJ/mol
# Density = 1.852235 g / cm^3
# Si number density = 18.564605 Si / 1000 Ang^3
#
#
#
# Elastic Constant Matrix: (Units=GPa)
#
#
# Indices 1 2 3 4 5 6 
#
# 1 89.5520 5.9016 7.3271 0.0059 16.9382 0.0067
# 2 5.9016 110.3785 -6.2645 0.0107 -0.2917 -0.0091
# 3 7.3271 -6.2645 22.8499 0.0530 7.4957 -0.0584
# 4 0.0059 0.0107 0.0530 -1.1606 0.0008 17.6350
# 5 16.9382 -0.2917 7.4957 0.0008 12.6067 0.0032
# 6 0.0067 -0.0091 -0.0584 17.6350 0.0032 -34.9755
#
#
#
# Elastic Compliance Matrix: (Units=1/GPa)
#
#
# Indices 1 2 3 4 5 6 
#
# 1 0.015125 -0.000752 0.002008 -0.000017 -0.021532 -0.000011
# 2 -0.000752 0.009266 0.002957 -0.000015 -0.000534 -0.000015
# 3 0.002008 0.002957 0.055647 -0.000164 -0.035715 -0.000179
# 4 -0.000017 -0.000015 -0.000164 0.129348 0.000095 0.065219
# 5 -0.021532 -0.000534 -0.035715 0.000095 0.129476 0.000115
# 6 -0.000011 -0.000015 -0.000179 0.065219 0.000115 0.004293
#
#
# Mechanical properties :
#
#
# Convention : Reuss Voigt Hill
#
# Bulk Modulus (GPa) = 11.30420 26.30098 18.80259
# Shear Modulus (GPa) = 13.72803 9.68187 11.70495
#
# Velocity S-wave (km/s) = 2.72228 2.28617 2.51370
# Velocity P-wave (km/s) = 3.99792 4.60073 4.30988
#
# Compressibility (1/GPa) = 0.08846271
#
# Stress axis : x y z
#
# Youngs Moduli (GPa) = 66.11724 107.91786 17.97045
#
# Poissons Ratio (x) = 0.08111 -0.03608
# Poissons Ratio (y) = 0.04970 -0.05313
# Poissons Ratio (z) = -0.13273 -0.31906
#
# Static dielectric constant tensor:
#      x y z
#    x 1.711300 -0.000010 0.021290 
#    y -0.000010 1.661270 -0.000020 
#    z 0.021290 -0.000020 1.618720 
# 
# From -- ./inp_files/381359.got.cif
#   From: 2010.05.17/outbox.cif.g08.bks.cpg/sg12_191_cif.got.tgz:381359.got - 2010.06.03 13:09:07.
