data_PCOD9168019
_publ_section_title
;
Structure prediction by ZEFSAII (Michael W. Deem and Ramdas Pophale) SiO2 
 PCOD9168019
Probable space group: P 21/M
;
_chemical_formula_sum "Si O2"
_cell_formula_units_Z 32
_cell_length_a 21.000000
_cell_length_b 9.000000
_cell_length_c 27.000000
_cell_angle_alpha 90.000000
_cell_angle_beta 20.000000
_cell_angle_gamma 90.000000
_cell_volume 1745.328791
_symmetry_space_group_name_H-M "P 21/M"
_symmetry_group_IT_number 11
_symmetry_cell_setting 'monoclinic'
loop_
_space_group_symop_operation_xyz
x,y,z
-x,1/2+y,-z
-x,-y,-z
x,1/2-y,z
loop_
_atom_site_type_symbol
_atom_site_label
_atom_site_fract_x
_atom_site_fract_y
_atom_site_fract_z
Si Si1 0.581416 0.927448 0.709869
Si Si2 0.194954 0.427583 0.002033
Si Si3 0.289055 0.581667 0.200315
Si Si4 0.009492 0.571578 0.749422
Si Si5 0.171843 0.427541 0.902843
Si Si6 0.596429 0.070167 0.590128
Si Si7 0.649967 0.419237 0.961946
Si Si8 0.941578 0.073837 0.491702
O O1 0.587414 0.750000 0.705840
O O2 0.385211 0.985797 0.874528
O O3 0.607210 0.989738 0.635193
O O4 0.750767 0.998729 0.615339
O O5 0.231384 0.250000 0.977116
O O6 0.154163 0.465193 0.974411
O O7 0.036821 0.459244 0.158643
O O8 0.244638 0.750000 0.249596
O O9 0.336612 0.590353 0.107498
O O10 0.111853 0.474448 0.332275
O O11 0.462314 0.516748 0.105279
O O12 0.992343 0.750000 0.754679
O O13 0.839837 0.491836 0.844140
O O14 0.219310 0.531207 0.577239
O O15 0.156697 0.250000 0.909698
O O16 0.382423 0.466708 0.729975
O O17 0.000000 0.500000 0.000000
O O18 0.600645 0.250000 0.593857
O O19 0.628138 0.250000 0.997017
O O20 0.924177 0.250000 0.506342
O O21 0.000000 0.000000 0.500000
#
# Coordination Sequence:
#
# PCOD9168019 Si02
#       8
#     4   4   4   4   4   4   4   4
#     4  11  22  37  57  81 110 147 189 235 284 341
#     4   9  20  38  58  83 114 150 189 231 279 338
#     4  10  21  38  55  75 103 140 187 233 284 342
#     4  10  20  35  58  82 109 145 188 233 282 334
#     4   9  18  35  59  85 116 151 189 227 272 329
#     4   9  19  37  60  86 113 148 189 230 275 333
#     4  10  21  35  54  78 108 143 180 228 283 340
#     4  12  25  39  55  75 104 141 185 238 290 340
#
# _framework density 18.334654
#
# number of rings (size 3 to 8) (size 9 to 14) (size 15 to 20)
#    0.000    2.000    0.000    4.500    1.750    6.500 
#    0.000    0.625    0.000    0.000    0.000    0.000 
#    0.000    0.000    0.000    0.000    0.000    0.000 
#
# Total GULP energy -178511.774260 kJ/mol
# GULP energy per Si atom -5578.492946 kJ/mol
# Density = 1.829292 g / cm^3
# Si number density = 18.334654 Si / 1000 Ang^3
#
#
#
# Elastic Constant Matrix: (Units=GPa)
#
#
# Indices 1 2 3 4 5 6 
#
# 1 79.6779 39.4407 62.2228 0.0000 -25.0079 0.0000
# 2 39.4407 72.9360 48.8653 0.0000 -9.4292 0.0000
# 3 62.2228 48.8653 136.1114 0.0000 -11.0634 0.0000
# 4 0.0000 0.0000 0.0000 31.9733 0.0000 -6.3545
# 5 -25.0079 -9.4292 -11.0634 0.0000 36.7740 0.0000
# 6 0.0000 0.0000 0.0000 -6.3545 0.0000 27.5673
#
#
#
# Elastic Compliance Matrix: (Units=1/GPa)
#
#
# Indices 1 2 3 4 5 6 
#
# 1 0.027389 -0.007061 -0.008835 0.000000 0.014157 0.000000
# 2 -0.007061 0.020148 -0.004075 0.000000 -0.000862 0.000000
# 3 -0.008835 -0.004075 0.012583 0.000000 -0.003267 0.000000
# 4 0.000000 0.000000 0.000000 0.032778 0.000000 0.007556
# 5 0.014157 -0.000862 -0.003267 0.000000 0.035616 0.000000
# 6 0.000000 0.000000 0.000000 0.007556 0.000000 0.038016
#
#
# Mechanical properties :
#
#
# Convention : Reuss Voigt Hill
#
# Bulk Modulus (GPa) = 49.56149 65.53143 57.54646
# Shear Modulus (GPa) = 23.45226 28.47600 25.96413
#
# Velocity S-wave (km/s) = 3.58036 3.94525 3.76722
# Velocity P-wave (km/s) = 6.64697 7.52148 7.09771
#
# Compressibility (1/GPa) = 0.02017695
#
# Stress axis : x y z
#
# Youngs Moduli (GPa) = 36.51164 49.63254 79.47083
#
# Poissons Ratio (x) = 0.35047 0.70211
# Poissons Ratio (y) = 0.25782 0.32387
# Poissons Ratio (z) = 0.32257 0.20227
#
# Static dielectric constant tensor:
#      x y z
#    x 1.850220 0.000000 0.367010 
#    y 0.000000 1.626090 0.000000 
#    z 0.367010 0.000000 2.129810 
# 
# From -- ./inp_files/67112.got.cif
#   From: 2010.05.17/outbox.ucp.g08.bks.cvg/sg11_34_cif.got.tgz:67112.got - 2010.06.11 11:38:39.
