data_PCOD9168829
_publ_section_title
;
Structure prediction by ZEFSAII (Michael W. Deem and Ramdas Pophale) SiO2 
 PCOD9168829
Probable space group: C 2/M
;
_chemical_formula_sum "Si O2"
_cell_formula_units_Z 64
_cell_length_a 14.223890
_cell_length_b 20.028944
_cell_length_c 12.044587
_cell_angle_alpha 90.000000
_cell_angle_beta 68.119371
_cell_angle_gamma 90.000000
_cell_volume 3184.187877
_symmetry_space_group_name_H-M "C 2/M"
_symmetry_group_IT_number 12
_symmetry_cell_setting 'monoclinic'
loop_
_space_group_symop_operation_xyz
x,y,z
-x,y,-z
-x,-y,-z
x,-y,z
1/2+x,1/2+y,z
1/2-x,1/2+y,-z
1/2-x,1/2-y,-z
1/2+x,1/2-y,z
loop_
_atom_site_type_symbol
_atom_site_label
_atom_site_fract_x
_atom_site_fract_y
_atom_site_fract_z
Si Si1 0.999402 0.659408 0.779738
Si Si2 0.897880 0.248539 0.986122
Si Si3 0.709672 0.920199 0.701722
Si Si4 0.383740 0.289999 0.348478
Si Si5 0.095132 0.396944 0.398002
Si Si6 0.294495 0.311293 0.825420
Si Si7 0.349108 0.247072 0.587884
Si Si8 0.802151 0.926166 0.411272
O O1 0.097206 0.612245 0.753485
O O2 0.044729 0.732957 0.730698
O O3 0.928323 0.681111 0.913243
O O4 0.933340 0.622523 0.714581
O O5 0.852048 0.196157 0.917378
O O6 0.808889 0.269096 0.109567
O O7 0.000000 0.223832 0.000000
O O8 0.768932 0.880386 0.773620
O O9 0.759373 0.909654 0.555853
O O10 0.706429 0.000000 0.720039
O O11 0.398647 0.292000 0.473897
O O12 0.271480 0.259823 0.376500
O O13 0.373092 0.368406 0.327476
O O14 0.108050 0.325685 0.452509
O O15 0.202575 0.428989 0.376570
O O16 0.000000 0.430125 0.500000
O O17 0.361108 0.272141 0.705972
O O18 0.848456 0.000000 0.396685
#
# Coordination Sequence:
#
# PCOD9168829 Si02
#       8
#     8   8   8   8   8   8   8   8
#     4  12  20  34  54  86 115 149 196 237 294 342
#     4  11  23  37  59  85 112 144 191 264 294 337
#     4  11  21  35  57  84 122 159 189 231 291 362
#     4  10  17  29  54  77 111 146 185 235 270 331
#     4  11  19  28  48  83 117 148 184 229 286 346
#     4  11  21  37  57  84 117 147 196 240 297 342
#     4  10  16  29  49  78 107 142 182 229 276 332
#     4  10  21  33  50  81 122 163 191 222 282 355
#
# _framework density 20.099316999999999
#
# number of rings (size 3 to 8) (size 9 to 14) (size 15 to 20)
#    0.000    1.250    7.500    0.750    0.000    0.750 
#    0.000    1.250    0.000    1.125    0.000    2.625 
#    0.000    0.000    0.000    0.000    0.000    0.000 
#
# Total GULP energy -178286.021360 kJ/mol
# GULP energy per Si atom -5571.438168 kJ/mol
# Density = 2.005357 g / cm^3
# Si number density = 20.099317 Si / 1000 Ang^3
#
#
#
# Elastic Constant Matrix: (Units=GPa)
#
#
# Indices 1 2 3 4 5 6 
#
# 1 100.9896 30.9068 21.9464 0.0000 22.0849 0.0000
# 2 30.9068 127.8243 17.9234 0.0000 6.5294 0.0000
# 3 21.9464 17.9234 64.2198 0.0000 12.6412 0.0000
# 4 0.0000 0.0000 0.0000 4.9650 0.0000 4.2261
# 5 22.0849 6.5294 12.6412 0.0000 32.3072 0.0000
# 6 0.0000 0.0000 0.0000 4.2261 0.0000 6.7220
#
#
#
# Elastic Compliance Matrix: (Units=1/GPa)
#
#
# Indices 1 2 3 4 5 6 
#
# 1 0.012724 -0.002388 -0.002237 0.000000 -0.007340 0.000000
# 2 -0.002388 0.008610 -0.001696 0.000000 0.000556 0.000000
# 3 -0.002237 -0.001696 0.017813 0.000000 -0.005098 0.000000
# 4 0.000000 0.000000 0.000000 0.433246 0.000000 -0.272376
# 5 -0.007340 0.000556 -0.005098 0.000000 0.037853 0.000000
# 6 0.000000 0.000000 0.000000 -0.272376 0.000000 0.320004
#
#
# Mechanical properties :
#
#
# Convention : Reuss Voigt Hill
#
# Bulk Modulus (GPa) = 37.72963 48.28743 43.00853
# Shear Modulus (GPa) = 5.87042 23.61600 14.74321
#
# Velocity S-wave (km/s) = 1.71086 3.43150 2.71129
# Velocity P-wave (km/s) = 4.76603 6.30688 5.58981
#
# Compressibility (1/GPa) = 0.02650437
#
# Stress axis : x y z
#
# Youngs Moduli (GPa) = 78.59080 116.14274 56.13906
#
# Poissons Ratio (x) = 0.27735 0.12558
# Poissons Ratio (y) = 0.18767 0.09524
# Poissons Ratio (z) = 0.17581 0.19703
#
# Static dielectric constant tensor:
#      x y z
#    x 1.799640 0.000000 0.011600 
#    y 0.000000 1.709140 0.000000 
#    z 0.011600 0.000000 1.767230 
# 
# From -- ./inp_files/147629.got.cif
#   From: 2010.05.17/outbox.cif.g08.bks.cpg/sg12_74_cif.got.tgz:147629.got - 2010.06.03 13:09:07.
