data_PCOD9168723
_publ_section_title
;
Structure prediction by ZEFSAII (Michael W. Deem and Ramdas Pophale) SiO2 
 PCOD9168723
Probable space group: C 2/M
;
_chemical_formula_sum "Si O2"
_cell_formula_units_Z 64
_cell_length_a 31.649649
_cell_length_b 7.850413
_cell_length_c 15.313895
_cell_angle_alpha 90.000000
_cell_angle_beta 78.632253
_cell_angle_gamma 90.000000
_cell_volume 3730.289374
_symmetry_space_group_name_H-M "C 2/M"
_symmetry_group_IT_number 12
_symmetry_cell_setting 'monoclinic'
loop_
_space_group_symop_operation_xyz
x,y,z
-x,y,-z
-x,-y,-z
x,-y,z
1/2+x,1/2+y,z
1/2-x,1/2+y,-z
1/2-x,1/2-y,-z
1/2+x,1/2-y,z
loop_
_atom_site_type_symbol
_atom_site_label
_atom_site_fract_x
_atom_site_fract_y
_atom_site_fract_z
Si Si1 0.855309 0.701280 0.923943
Si Si2 0.210757 0.802313 0.191563
Si Si3 0.551706 0.792490 0.072337
Si Si4 0.369969 0.794183 0.249963
Si Si5 0.689481 0.701827 0.573215
Si Si6 0.307292 0.208924 0.117624
Si Si7 0.778775 0.300831 0.620186
Si Si8 0.543238 0.792546 0.871721
O O1 0.859703 0.500000 0.938624
O O2 0.827497 0.723173 0.848656
O O3 0.904152 0.769346 0.901999
O O4 0.828899 0.767814 0.018624
O O5 0.258126 0.731406 0.147930
O O6 0.205954 0.784660 0.297344
O O7 0.211039 0.000000 0.167605
O O8 0.505448 0.733112 0.127306
O O9 0.550409 0.000000 0.077596
O O10 0.553328 0.749315 0.968601
O O11 0.351436 0.738123 0.350274
O O12 0.336671 0.738039 0.187637
O O13 0.417752 0.733587 0.205024
O O14 0.370228 0.000000 0.248472
O O15 0.694996 0.500000 0.560865
O O16 0.732013 0.767945 0.607717
O O17 0.690710 0.778505 0.476092
O O18 0.306550 0.000000 0.118829
O O19 0.773856 0.500000 0.641701
O O20 0.543114 0.000000 0.868175
#
# Coordination Sequence:
#
# PCOD9168723 Si02
#       8
#     8   8   8   8   8   8   8   8
#     4  10  18  30  46  65  92 127 165 199 230 266
#     4  11  21  32  45  64  93 127 162 196 230 271
#     4   8  13  23  41  67  93 118 154 200 236 265
#     4  10  16  27  47  70  95 125 156 188 229 277
#     4  10  20  32  48  70  95 120 149 188 233 280
#     4   9  17  28  43  64  92 126 161 194 225 261
#     4  10  20  34  50  68  89 119 156 193 231 273
#     4   8  13  22  42  69  93 118 153 195 236 271
#
# _framework density 17.156845000000001
#
# number of rings (size 3 to 8) (size 9 to 14) (size 15 to 20)
#    0.000    2.500    2.500    2.250    0.000    1.000 
#    0.000    1.250    0.000    0.750    0.000    2.625 
#    0.000    7.000    0.000    0.000    0.000    0.000 
#
# Total GULP energy -178433.183218 kJ/mol
# GULP energy per Si atom -5576.036976 kJ/mol
# Density = 1.711780 g / cm^3
# Si number density = 17.156845 Si / 1000 Ang^3
#
#
#
# Elastic Constant Matrix: (Units=GPa)
#
#
# Indices 1 2 3 4 5 6 
#
# 1 141.6230 2.4675 62.5392 0.0000 -12.9944 0.0000
# 2 2.4675 16.7408 -8.5941 0.0000 -0.4357 0.0000
# 3 62.5392 -8.5941 77.0007 0.0000 -12.3305 0.0000
# 4 0.0000 0.0000 0.0000 9.9693 0.0000 -1.2047
# 5 -12.9944 -0.4357 -12.3305 0.0000 25.5027 0.0000
# 6 0.0000 0.0000 0.0000 -1.2047 0.0000 9.9709
#
#
#
# Elastic Compliance Matrix: (Units=1/GPa)
#
#
# Indices 1 2 3 4 5 6 
#
# 1 0.011762 -0.006932 -0.010174 0.000000 0.000956 0.000000
# 2 -0.006932 0.068015 0.013919 0.000000 0.004360 0.000000
# 3 -0.010174 0.013919 0.023859 0.000000 0.006590 0.000000
# 4 0.000000 0.000000 0.000000 0.101795 0.000000 0.012299
# 5 0.000956 0.004360 0.006590 0.000000 0.042959 0.000000
# 6 0.000000 0.000000 0.000000 0.012299 0.000000 0.101778
#
#
# Mechanical properties :
#
#
# Convention : Reuss Voigt Hill
#
# Bulk Modulus (GPa) = 10.28131 38.68774 24.48452
# Shear Modulus (GPa) = 12.85477 21.01869 16.93673
#
# Velocity S-wave (km/s) = 2.74021 3.50393 3.14534
# Velocity P-wave (km/s) = 4.00216 6.24247 5.24336
#
# Compressibility (1/GPa) = 0.09726385
#
# Stress axis : x y z
#
# Youngs Moduli (GPa) = 85.01954 14.70260 41.91373
#
# Poissons Ratio (x) = 0.10191 0.42641
# Poissons Ratio (y) = 0.58931 -0.58340
# Poissons Ratio (z) = 0.86495 -0.20465
#
# Static dielectric constant tensor:
#      x y z
#    x 1.599910 0.000000 -0.022560 
#    y 0.000000 1.629470 0.000000 
#    z -0.022560 0.000000 1.558210 
# 
# From -- ./inp_files/248232.got.cif
#   From: 2010.05.17/outbox.cif.g08.bks.cpg/sg12_125_cif.got.tgz:248232.got - 2010.06.03 13:09:07.
