data_PCOD9168494
_publ_section_title
;
Structure prediction by ZEFSAII (Michael W. Deem and Ramdas Pophale) SiO2 
 PCOD9168494
Probable space group: C 2/M
;
_chemical_formula_sum "Si O2"
_cell_formula_units_Z 64
_cell_length_a 5.578223
_cell_length_b 18.770017
_cell_length_c 30.235118
_cell_angle_alpha 90.000000
_cell_angle_beta 78.610079
_cell_angle_gamma 90.000000
_cell_volume 3103.371986
_symmetry_space_group_name_H-M "C 2/M"
_symmetry_group_IT_number 12
_symmetry_cell_setting 'monoclinic'
loop_
_space_group_symop_operation_xyz
x,y,z
-x,y,-z
-x,-y,-z
x,-y,z
1/2+x,1/2+y,z
1/2-x,1/2+y,-z
1/2-x,1/2-y,-z
1/2+x,1/2-y,z
loop_
_atom_site_type_symbol
_atom_site_label
_atom_site_fract_x
_atom_site_fract_y
_atom_site_fract_z
Si Si1 0.290711 0.744147 0.074192
Si Si2 0.672628 0.124556 0.147205
Si Si3 0.880949 0.794528 0.379492
Si Si4 0.300898 0.605823 0.879750
Si Si5 0.959546 0.163737 0.280204
Si Si6 0.002588 0.672074 0.754911
Si Si7 0.734406 0.419277 0.016414
Si Si8 0.769321 0.167287 0.481952
O O1 0.567718 0.748250 0.049375
O O2 0.249647 0.671508 0.102090
O O3 0.241611 0.808500 0.111444
O O4 0.435059 0.081824 0.139396
O O5 0.584197 0.172328 0.191347
O O6 0.933326 0.089995 0.150151
O O7 0.634150 0.749167 0.377879
O O8 0.925189 0.840392 0.334000
O O9 0.827261 0.831989 0.427955
O O10 0.301018 0.578034 0.929876
O O11 0.966862 0.248026 0.265670
O O12 0.717762 0.135868 0.264418
O O13 0.229497 0.136766 0.257742
O O14 0.754809 0.500000 0.997133
O O15 0.500000 0.388051 0.000000
O O16 0.000000 0.385277 0.000000
O O17 0.500000 0.135925 0.500000
O O18 0.750000 0.250000 0.500000
O O19 0.000000 0.135915 0.500000
#
# Coordination Sequence:
#
# PCOD9168494 Si02
#       8
#     8   8   8   8   8   8   8   8
#     4   8  16  25  39  59  85 110 133 152 184 208
#     4  10  19  28  45  64  90 116 136 165 184 225
#     4  12  16  25  30  41  61  82 112 157 207 239
#     4  10  19  31  48  70  89 108 136 162 195 220
#     4  10  19  24  33  48  70  98 125 162 186 232
#     4  10  18  25  36  51  74 100 135 150 181 218
#     4  10  21  38  59  76  90 109 133 164 199 236
#     4  10  16  22  31  41  49  71 106 151 204 264
#
# _framework density 20.622729
#
# number of rings (size 3 to 8) (size 9 to 14) (size 15 to 20)
#    0.000    2.000    5.000    1.500   10.500    0.000 
#    0.000    0.000    0.000   20.250    0.000    0.000 
#    0.000    0.000    0.000    0.000    0.000    0.000 
#
# Total GULP energy -178307.640221 kJ/mol
# GULP energy per Si atom -5572.113757 kJ/mol
# Density = 2.057579 g / cm^3
# Si number density = 20.622729 Si / 1000 Ang^3
#
#
#
# Elastic Constant Matrix: (Units=GPa)
#
#
# Indices 1 2 3 4 5 6 
#
# 1 250.7688 4.4872 25.0650 0.0000 -12.9501 0.0000
# 2 4.4872 30.3626 0.6179 0.0000 2.6913 0.0000
# 3 25.0650 0.6179 94.2985 0.0000 -3.5765 0.0000
# 4 0.0000 0.0000 0.0000 11.2217 0.0000 -1.4691
# 5 -12.9501 2.6913 -3.5765 0.0000 39.7808 0.0000
# 6 0.0000 0.0000 0.0000 -1.4691 0.0000 -12.2381
#
#
#
# Elastic Compliance Matrix: (Units=1/GPa)
#
#
# Indices 1 2 3 4 5 6 
#
# 1 0.004174 -0.000712 -0.001055 0.000000 0.001312 0.000000
# 2 -0.000712 0.033264 -0.000123 0.000000 -0.002493 0.000000
# 3 -0.001055 -0.000123 0.010910 0.000000 0.000646 0.000000
# 4 0.000000 0.000000 0.000000 0.087734 0.000000 -0.010532
# 5 0.001312 -0.002493 0.000646 0.000000 0.025792 0.000000
# 6 0.000000 0.000000 0.000000 -0.010532 0.000000 -0.080448
#
#
# Mechanical properties :
#
#
# Convention : Reuss Voigt Hill
#
# Bulk Modulus (GPa) = 22.43763 48.41891 35.42827
# Shear Modulus (GPa) = 49.96896 30.77019 40.36957
#
# Velocity S-wave (km/s) = 4.92774 3.86690 4.42920
# Velocity P-wave (km/s) = 6.57879 6.59292 6.58586
#
# Compressibility (1/GPa) = 0.04456799
#
# Stress axis : x y z
#
# Youngs Moduli (GPa) = 239.59732 30.06259 91.65621
#
# Poissons Ratio (x) = 0.02139 0.09669
# Poissons Ratio (y) = 0.17051 0.01131
# Poissons Ratio (z) = 0.25276 0.00371
#
# Static dielectric constant tensor:
#      x y z
#    x 1.881440 0.000000 -0.010540 
#    y 0.000000 1.749350 0.000000 
#    z -0.010540 0.000000 1.710680 
# 
# From -- ./inp_files/371673.got.cif
#   From: 2010.05.17/outbox.cif.g08.bks.cpg/sg12_186_cif.got.tgz:371673.got - 2010.06.03 13:09:07.
