data_PCOD9168352
_publ_section_title
;
Structure prediction by ZEFSAII (Michael W. Deem and Ramdas Pophale) SiO2 
 PCOD9168352
Probable space group: C 2/M
;
_chemical_formula_sum "Si O2"
_cell_formula_units_Z 32
_cell_length_a 14.476113
_cell_length_b 19.104845
_cell_length_c 11.640010
_cell_angle_alpha 90.000000
_cell_angle_beta 151.010747
_cell_angle_gamma 90.000000
_cell_volume 1560.174135
_symmetry_space_group_name_H-M "C 2/M"
_symmetry_group_IT_number 12
_symmetry_cell_setting 'monoclinic'
loop_
_space_group_symop_operation_xyz
x,y,z
-x,y,-z
-x,-y,-z
x,-y,z
1/2+x,1/2+y,z
1/2-x,1/2+y,-z
1/2-x,1/2-y,-z
1/2+x,1/2-y,z
loop_
_atom_site_type_symbol
_atom_site_label
_atom_site_fract_x
_atom_site_fract_y
_atom_site_fract_z
Si Si1 0.230545 0.000000 0.776332
Si Si2 0.500000 0.733055 0.000000
Si Si3 0.232191 0.000000 0.282635
Si Si4 0.292270 0.350596 0.332334
Si Si5 0.123825 0.880052 0.319090
Si Si6 0.688311 0.500000 0.987150
O O1 0.291450 0.073534 0.790571
O O2 0.285094 0.000000 0.969331
O O3 0.000000 0.000000 0.500000
O O4 0.671345 0.785386 0.157192
O O5 0.555136 0.682354 0.164002
O O6 0.259213 0.068932 0.389591
O O7 0.309613 0.000000 0.236619
O O8 0.000000 0.000000 0.000000
O O9 0.500000 0.346566 0.500000
O O10 0.298180 0.350690 0.477031
O O11 0.948122 0.931642 0.160340
#
# Coordination Sequence:
#
# PCOD9168352 Si02
#       6
#     4   4   4   8   8   4
#     4  10  17  35  58  80 108 143 196 229 267 325
#     4  12  24  36  56  88 120 146 180 228 290 344
#     4   8  15  28  59  83 102 148 197 234 256 324
#     4  11  23  38  58  84 113 152 185 232 280 328
#     4  10  17  35  56  86 112 144 195 226 273 336
#     4  10  14  32  64  82 101 154 197 230 266 324
#
# _framework density 20.510531
#
# number of rings (size 3 to 8) (size 9 to 14) (size 15 to 20)
#    0.000    2.000    8.750    1.500    0.000    1.500 
#    0.000    0.000    0.000    0.000    0.000    8.750 
#    0.000    0.000    0.000    0.000    0.000    0.000 
#
# Total GULP energy -89257.312867 kJ/mol
# GULP energy per Si atom -5578.582054 kJ/mol
# Density = 2.046385 g / cm^3
# Si number density = 20.510531 Si / 1000 Ang^3
#
#
#
# Elastic Constant Matrix: (Units=GPa)
#
#
# Indices 1 2 3 4 5 6 
#
# 1 94.3089 45.3461 48.2055 0.0000 -39.4720 0.0000
# 2 45.3461 179.0060 41.1197 0.0000 -7.7087 0.0000
# 3 48.2055 41.1197 46.6577 0.0000 -8.7959 0.0000
# 4 0.0000 0.0000 0.0000 18.7119 0.0000 -8.6598
# 5 -39.4720 -7.7087 -8.7959 0.0000 44.3531 -0.0001
# 6 0.0000 0.0000 0.0000 -8.6598 -0.0001 -2.4645
#
#
#
# Elastic Compliance Matrix: (Units=1/GPa)
#
#
# Indices 1 2 3 4 5 6 
#
# 1 0.043817 -0.000888 -0.038610 0.000000 0.031184 0.000000
# 2 -0.000888 0.007022 -0.005392 0.000000 -0.000639 0.000000
# 3 -0.038610 -0.005392 0.061729 0.000000 -0.023056 0.000000
# 4 0.000000 0.000000 0.000000 0.020350 0.000000 -0.071505
# 5 0.031184 -0.000639 -0.023056 0.000000 0.045615 0.000000
# 6 0.000000 0.000000 0.000000 -0.071505 0.000000 -0.154507
#
#
# Mechanical properties :
#
#
# Convention : Reuss Voigt Hill
#
# Bulk Modulus (GPa) = 43.88019 65.47947 54.67983
# Shear Modulus (GPa) = 41.18589 24.47351 32.82970
#
# Velocity S-wave (km/s) = 4.48597 3.45804 4.00512
# Velocity P-wave (km/s) = 6.94783 6.92374 6.93580
#
# Compressibility (1/GPa) = 0.02278933
#
# Stress axis : x y z
#
# Youngs Moduli (GPa) = 22.82209 142.40118 16.19997
#
# Poissons Ratio (x) = 0.12644 0.62547
# Poissons Ratio (y) = 0.02026 0.08735
# Poissons Ratio (z) = 0.88115 0.76782
#
# Static dielectric constant tensor:
#      x y z
#    x 1.815140 0.000000 0.039020 
#    y 0.000000 1.689040 0.000000 
#    z 0.039020 0.000000 1.784800 
# 
# From -- ./inp_files/146307.got.cif
#   From: 2010.05.17/outbox.cif.g08.bks.cpg/sg12_74_cif.got.tgz:146307.got - 2010.06.03 13:09:07.
