data_PCOD9168753
_publ_section_title
;
Structure prediction by ZEFSAII (Michael W. Deem and Ramdas Pophale) SiO2 
 PCOD9168753
Probable space group: C 2/M
;
_chemical_formula_sum "Si O2"
_cell_formula_units_Z 48
_cell_length_a 10.565339
_cell_length_b 31.500774
_cell_length_c 16.341304
_cell_angle_alpha 90.000000
_cell_angle_beta 24.065920
_cell_angle_gamma 90.000000
_cell_volume 2217.814415
_symmetry_space_group_name_H-M "C 2/M"
_symmetry_group_IT_number 12
_symmetry_cell_setting 'monoclinic'
loop_
_space_group_symop_operation_xyz
x,y,z
-x,y,-z
-x,-y,-z
x,-y,z
1/2+x,1/2+y,z
1/2-x,1/2+y,-z
1/2-x,1/2-y,-z
1/2+x,1/2-y,z
loop_
_atom_site_type_symbol
_atom_site_label
_atom_site_fract_x
_atom_site_fract_y
_atom_site_fract_z
Si Si1 0.194409 0.638318 0.466676
Si Si2 0.528630 0.724764 0.287580
Si Si3 0.487990 0.546966 0.297909
Si Si4 0.969908 0.453458 0.157558
Si Si5 0.867690 0.369951 0.307910
Si Si6 0.854702 0.282392 0.252106
O O1 0.453160 0.675119 0.320135
O O2 0.296381 0.589464 0.397384
O O3 0.065394 0.639094 0.636158
O O4 0.000000 0.649421 0.500000
O O5 0.250000 0.750000 0.500000
O O6 0.806865 0.728056 0.186516
O O7 0.531954 0.747700 0.199433
O O8 0.335873 0.500000 0.385729
O O9 0.663421 0.551196 0.281707
O O10 0.750943 0.546799 0.072550
O O11 0.958563 0.500000 0.204086
O O12 0.002051 0.414625 0.199730
O O13 0.500000 0.372574 0.500000
O O14 0.989073 0.329280 0.186606
O O15 0.500000 0.284062 0.500000
#
# Coordination Sequence:
#
# PCOD9168753 Si02
#       6
#     8   8   8   8   8   8
#     4  12  22  32  51  80 109 138 171 216 261 302
#     4  10  16  28  45  73 104 136 166 207 257 306
#     4   9  19  36  54  77 106 135 172 212 261 316
#     4   9  18  34  58  78  99 136 174 214 260 312
#     4  11  18  32  51  81 106 129 175 222 255 294
#     4   9  16  26  44  71 105 131 164 210 251 301
#
# _framework density 21.642928000000001
#
# number of rings (size 3 to 8) (size 9 to 14) (size 15 to 20)
#    0.000    2.000    6.667    2.500    0.000    1.333 
#    0.000    0.833    0.000    3.000    0.000    0.000 
#    0.000    0.000    0.000    0.000    0.000    0.000 
#
# Total GULP energy -133894.853282 kJ/mol
# GULP energy per Si atom -5578.952220 kJ/mol
# Density = 2.159367 g / cm^3
# Si number density = 21.642928 Si / 1000 Ang^3
#
#
#
# Elastic Constant Matrix: (Units=GPa)
#
#
# Indices 1 2 3 4 5 6 
#
# 1 172.9978 66.5117 23.4904 0.0000 26.1798 0.0000
# 2 66.5117 162.9837 14.2407 -0.0001 11.9729 0.0000
# 3 23.4904 14.2407 25.2236 0.0003 10.7214 -0.0003
# 4 0.0000 -0.0001 0.0003 -45.1217 -0.0001 28.7448
# 5 26.1798 11.9729 10.7214 -0.0001 25.8665 0.0000
# 6 0.0000 0.0000 -0.0003 28.7448 0.0000 25.9243
#
#
#
# Elastic Compliance Matrix: (Units=1/GPa)
#
#
# Indices 1 2 3 4 5 6 
#
# 1 0.008110 -0.002579 -0.003781 0.000000 -0.005447 0.000000
# 2 -0.002579 0.007343 -0.001710 0.000000 -0.000080 0.000000
# 3 -0.003781 -0.001710 0.051187 0.000000 -0.016598 0.000000
# 4 0.000000 0.000000 0.000000 -0.012988 0.000000 0.014401
# 5 -0.005447 -0.000080 -0.016598 0.000000 0.051090 0.000000
# 6 0.000000 0.000000 0.000000 0.014401 0.000000 0.022606
#
#
# Mechanical properties :
#
#
# Convention : Reuss Voigt Hill
#
# Bulk Modulus (GPa) = 19.80204 63.29898 41.55051
# Shear Modulus (GPa) = 31.18728 18.46462 24.82595
#
# Velocity S-wave (km/s) = 3.80016 2.92404 3.39052
# Velocity P-wave (km/s) = 5.33144 6.38047 5.87940
#
# Compressibility (1/GPa) = 0.05049985
#
# Stress axis : x y z
#
# Youngs Moduli (GPa) = 123.31011 136.17825 19.53607
#
# Poissons Ratio (x) = 0.35119 0.07387
# Poissons Ratio (y) = 0.31801 0.03341
# Poissons Ratio (z) = 0.46625 0.23289
#
# Static dielectric constant tensor:
#      x y z
#    x 1.778980 0.000000 -0.000640 
#    y 0.000000 1.783870 0.000000 
#    z -0.000640 0.000000 1.863250 
# 
# From -- ./inp_files/200791.got.cif
#   From: 2010.05.17/outbox.cif.g08.bks.cpg/sg12_101_cif.got.tgz:200791.got - 2010.06.03 13:09:07.
