data_PCOD9168041
_publ_section_title
;
Structure prediction by ZEFSAII (Michael W. Deem and Ramdas Pophale) SiO2 
 PCOD9168041
Probable space group: P 21/M
;
_chemical_formula_sum "Si O2"
_cell_formula_units_Z 20
_cell_length_a 15.000000
_cell_length_b 9.000000
_cell_length_c 21.000000
_cell_angle_alpha 90.000000
_cell_angle_beta 160.000000
_cell_angle_gamma 90.000000
_cell_volume 969.627106
_symmetry_space_group_name_H-M "P 21/M"
_symmetry_group_IT_number 11
_symmetry_cell_setting 'monoclinic'
loop_
_space_group_symop_operation_xyz
x,y,z
-x,1/2+y,-z
-x,-y,-z
x,1/2-y,z
loop_
_atom_site_type_symbol
_atom_site_label
_atom_site_fract_x
_atom_site_fract_y
_atom_site_fract_z
Si Si1 0.803482 0.074312 0.466232
Si Si2 0.600226 0.913588 0.703334
Si Si3 0.996790 0.913832 0.091182
Si Si4 0.357932 0.924091 0.846402
Si Si5 0.402172 0.921012 0.104179
O O1 0.784079 0.250000 0.434469
O O2 0.682187 0.063793 0.455530
O O3 0.622840 0.966470 0.303244
O O4 0.093013 0.014029 0.655813
O O5 0.610383 0.750000 0.680136
O O6 0.802551 0.908601 0.899343
O O7 0.715496 0.041876 0.737394
O O8 0.985991 0.750000 0.112981
O O9 0.876328 0.043924 0.052441
O O10 0.307950 0.750000 0.821364
O O11 0.549302 0.958265 0.917082
O O12 0.500000 0.000000 0.000000
O O13 0.428859 0.750000 0.102238
#
# Coordination Sequence:
#
# PCOD9168041 Si02
#       5
#     4   4   4   4   4
#     4  10  20  36  57  83 112 143 181 223 267 316
#     4   8  15  27  46  74 108 141 173 213 261 313
#     4   9  16  27  46  75 109 141 175 217 264 313
#     4  12  25  41  58  78 106 141 181 224 273 325
#     4  11  21  35  56  82 111 144 182 223 268 317
#
# _framework density 20.626486
#
# number of rings (size 3 to 8) (size 9 to 14) (size 15 to 20)
#    0.000    2.000    0.000    6.600    0.000    5.600 
#    0.000    0.000    0.000    1.200    0.000    0.000 
#    0.000    0.000    0.000    0.000    0.000    0.000 
#
# Total GULP energy -111464.443452 kJ/mol
# GULP energy per Si atom -5573.222173 kJ/mol
# Density = 2.057954 g / cm^3
# Si number density = 20.626486 Si / 1000 Ang^3
#
#
#
# Elastic Constant Matrix: (Units=GPa)
#
#
# Indices 1 2 3 4 5 6 
#
# 1 34.6256 11.5487 15.2997 0.0000 13.7289 0.0000
# 2 11.5487 92.0528 5.0751 0.0000 13.3897 0.0000
# 3 15.2997 5.0751 -40.5793 0.0000 -13.4131 0.0000
# 4 0.0000 0.0000 0.0000 15.4198 0.0000 6.8472
# 5 13.7289 13.3897 -13.4131 0.0000 0.6685 0.0000
# 6 0.0000 0.0000 0.0000 6.8472 0.0000 30.1197
#
#
#
# Elastic Compliance Matrix: (Units=1/GPa)
#
#
# Indices 1 2 3 4 5 6 
#
# 1 0.039962 0.003914 0.040978 0.000000 -0.076907 0.000000
# 2 0.003914 0.015581 0.017446 0.000000 -0.042419 0.000000
# 3 0.040978 0.017446 0.050662 0.000000 -0.174482 0.000000
# 4 0.000000 0.000000 0.000000 0.072133 0.000000 -0.016398
# 5 -0.076907 -0.042419 -0.174482 0.000000 0.424095 0.000000
# 6 0.000000 0.000000 0.000000 -0.016398 0.000000 0.036929
#
#
# Mechanical properties :
#
#
# Convention : Reuss Voigt Hill
#
# Bulk Modulus (GPa) = 4.33128 16.66068 10.49598
# Shear Modulus (GPa) = 8.45098 12.85330 10.65214
#
# Velocity S-wave (km/s) = 2.02634 2.49900 2.27498
# Velocity P-wave (km/s) = 2.75303 4.05235 3.46415
#
# Compressibility (1/GPa) = 0.23087872
#
# Stress axis : x y z
#
# Youngs Moduli (GPa) = 25.02367 64.18221 19.73869
#
# Poissons Ratio (x) = -0.25121 -0.80884
# Poissons Ratio (y) = -0.09794 -0.34435
# Poissons Ratio (z) = -1.02541 -1.11969
#
# Static dielectric constant tensor:
#      x y z
#    x 1.662950 0.000000 0.117520 
#    y 0.000000 1.660520 0.000000 
#    z 0.117520 0.000000 1.604530 
# 
# From -- ./inp_files/25670.got.cif
#   From: 2010.05.17/outbox.ucp.g08.bks.cvg/sg11_13_cif.got.tgz:25670.got - 2010.06.11 11:38:39.
