data_PCOD9168933
_publ_section_title
;
Structure prediction by ZEFSAII (Michael W. Deem and Ramdas Pophale) SiO2 
 PCOD9168933
Probable space group: C 2/M
;
_chemical_formula_sum "Si O2"
_cell_formula_units_Z 40
_cell_length_a 20.126603
_cell_length_b 8.760114
_cell_length_c 12.404132
_cell_angle_alpha 90.000000
_cell_angle_beta 104.120918
_cell_angle_gamma 90.000000
_cell_volume 2120.904866
_symmetry_space_group_name_H-M "C 2/M"
_symmetry_group_IT_number 12
_symmetry_cell_setting 'monoclinic'
loop_
_space_group_symop_operation_xyz
x,y,z
-x,y,-z
-x,-y,-z
x,-y,z
1/2+x,1/2+y,z
1/2-x,1/2+y,-z
1/2-x,1/2-y,-z
1/2+x,1/2-y,z
loop_
_atom_site_type_symbol
_atom_site_label
_atom_site_fract_x
_atom_site_fract_y
_atom_site_fract_z
Si Si1 0.000000 0.749160 0.500000
Si Si2 0.390537 0.751413 0.101022
Si Si3 0.026352 0.832788 0.270858
Si Si4 0.320907 0.000000 0.220744
Si Si5 0.281611 0.500000 0.997202
Si Si6 0.362451 0.000000 0.934351
Si Si7 0.618170 0.000000 0.535279
Si Si8 0.897561 0.500000 0.710874
O O1 0.005846 0.834108 0.389032
O O2 0.932586 0.642809 0.467173
O O3 0.459090 0.674389 0.169760
O O4 0.362340 0.857410 0.186838
O O5 0.328805 0.641852 0.044241
O O6 0.401898 0.856047 0.000536
O O7 0.061365 0.663509 0.270710
O O8 0.061113 0.000000 0.262699
O O9 0.324762 0.000000 0.350317
O O10 0.246581 0.000000 0.135950
O O11 0.212503 0.500000 0.040632
O O12 0.356102 0.000000 0.804849
O O13 0.640398 0.000000 0.419471
#
# Coordination Sequence:
#
# PCOD9168933 Si02
#       8
#     4   8   8   4   4   4   4   4
#     4   9  17  30  50  83 115 144 183 239 280 323
#     4  10  19  33  57  85 107 143 190 239 286 321
#     4  11  20  34  56  85 120 147 187 230 286 338
#     4  10  16  30  55  81 108 142 182 237 285 317
#     4  10  20  36  58  88 110 139 195 247 279 322
#     4  10  21  38  57  73 120 152 182 231 288 330
#     4   9  16  29  56  80 108 149 192 222 280 340
#     4  10  23  39  54  84 121 157 182 217 285 366
#
# _framework density 18.859874000000001
#
# number of rings (size 3 to 8) (size 9 to 14) (size 15 to 20)
#    0.000    2.200    3.000    4.500    0.000    1.600 
#    1.800    1.000    0.000    4.800    0.000    0.000 
#    0.000    0.000    0.000    0.000    0.000    0.000 
#
# Total GULP energy -111341.395857 kJ/mol
# GULP energy per Si atom -5567.069793 kJ/mol
# Density = 1.881695 g / cm^3
# Si number density = 18.859874 Si / 1000 Ang^3
#
#
#
# Elastic Constant Matrix: (Units=GPa)
#
#
# Indices 1 2 3 4 5 6 
#
# 1 22.5037 16.4365 39.2955 0.0000 8.5772 0.0000
# 2 16.4365 122.6071 33.7051 0.0000 4.9412 0.0000
# 3 39.2955 33.7051 164.2288 0.0000 12.6758 0.0000
# 4 0.0000 0.0000 0.0000 31.7260 0.0000 12.0163
# 5 8.5772 4.9412 12.6758 0.0000 22.4146 0.0000
# 6 0.0000 0.0000 0.0000 12.0163 0.0000 6.1405
#
#
#
# Elastic Compliance Matrix: (Units=1/GPa)
#
#
# Indices 1 2 3 4 5 6 
#
# 1 0.089728 -0.006037 -0.018490 0.000000 -0.022548 0.000000
# 2 -0.006037 0.009069 -0.000461 0.000000 0.000572 0.000000
# 3 -0.018490 -0.000461 0.010513 0.000000 0.001232 0.000000
# 4 0.000000 0.000000 0.000000 0.121782 0.000000 -0.238314
# 5 -0.022548 0.000572 0.001232 0.000000 0.052420 0.000000
# 6 0.000000 0.000000 0.000000 -0.238314 0.000000 0.629209
#
#
# Mechanical properties :
#
#
# Convention : Reuss Voigt Hill
#
# Bulk Modulus (GPa) = 16.85384 54.24598 35.54991
# Shear Modulus (GPa) = 5.08919 26.71637 15.90278
#
# Velocity S-wave (km/s) = 1.64447 3.76782 2.90695
# Velocity P-wave (km/s) = 3.54421 6.91041 5.49159
#
# Compressibility (1/GPa) = 0.05933364
#
# Stress axis : x y z
#
# Youngs Moduli (GPa) = 11.14481 110.26425 95.12266
#
# Poissons Ratio (x) = 0.66567 1.75883
# Poissons Ratio (y) = 0.06728 0.04384
# Poissons Ratio (z) = 0.20607 0.05082
#
# Static dielectric constant tensor:
#      x y z
#    x 1.616550 0.000000 -0.004290 
#    y 0.000000 0.570220 0.000000 
#    z -0.004290 0.000000 1.648510 
# 
# From -- ./inp_files/162712.got.cif
#   From: 2010.05.17/outbox.cif.g08.bks.cpg/sg12_82_cif.got.tgz:162712.got - 2010.06.03 13:09:07.
