data_PCOD9168836
_publ_section_title
;
Structure prediction by ZEFSAII (Michael W. Deem and Ramdas Pophale) SiO2 
 PCOD9168836
Probable space group: C 2/M
;
_chemical_formula_sum "Si O2"
_cell_formula_units_Z 64
_cell_length_a 11.090156
_cell_length_b 17.371486
_cell_length_c 23.972019
_cell_angle_alpha 90.000000
_cell_angle_beta 142.781975
_cell_angle_gamma 90.000000
_cell_volume 2793.358566
_symmetry_space_group_name_H-M "C 2/M"
_symmetry_group_IT_number 12
_symmetry_cell_setting 'monoclinic'
loop_
_space_group_symop_operation_xyz
x,y,z
-x,y,-z
-x,-y,-z
x,-y,z
1/2+x,1/2+y,z
1/2-x,1/2+y,-z
1/2-x,1/2-y,-z
1/2+x,1/2-y,z
loop_
_atom_site_type_symbol
_atom_site_label
_atom_site_fract_x
_atom_site_fract_y
_atom_site_fract_z
Si Si1 0.833850 0.408224 0.894209
Si Si2 0.702056 0.842643 0.602985
Si Si3 0.277509 0.327508 0.942473
Si Si4 0.135774 0.662612 0.705242
Si Si5 0.601782 0.908787 0.210150
Si Si6 0.996053 0.164761 0.370999
Si Si7 0.920680 0.839458 0.111313
Si Si8 0.208812 0.164598 0.563023
O O1 0.848540 0.500000 0.897167
O O2 0.862721 0.380385 0.841485
O O3 0.633846 0.384438 0.852587
O O4 0.000000 0.379653 0.000000
O O5 0.500000 0.869592 0.500000
O O6 0.686755 0.863258 0.661469
O O7 0.706482 0.748353 0.593946
O O8 0.892766 0.873629 0.640329
O O9 0.167188 0.245900 0.910759
O O10 0.110498 0.375984 0.848622
O O11 0.500000 0.317769 0.000000
O O12 0.312038 0.367970 0.015365
O O13 0.079234 0.752122 0.676345
O O14 0.343878 0.658660 0.813745
O O15 0.927156 0.628238 0.650204
O O16 0.795997 0.879427 0.314234
O O17 0.596233 0.000000 0.208399
O O18 0.164178 0.174745 0.480292
O O19 0.000000 0.123147 0.500000
#
# Coordination Sequence:
#
# PCOD9168836 Si02
#       8
#     8   8   8   8   8   8   8   8
#     4  10  20  39  66  86 112 156 205 246 291 362
#     4  10  16  29  51  83 116 146 182 235 297 354
#     4  11  25  39  58  89 128 157 197 253 307 361
#     4  11  19  31  53  86 119 151 186 242 302 349
#     4  11  24  42  62  86 116 165 211 248 303 363
#     4  11  19  33  54  81 116 150 194 244 290 347
#     4  11  23  37  60  93 125 155 194 252 315 352
#     4  10  19  30  51  81 118 152 190 231 287 356
#
# _framework density 22.911486
#
# number of rings (size 3 to 8) (size 9 to 14) (size 15 to 20)
#    0.000    1.375    6.250    1.875    1.750    3.250 
#    0.000    0.000    0.000    1.500    0.000    0.000 
#    0.000    0.000    0.000    0.000    0.000    0.000 
#
# Total GULP energy -178536.541644 kJ/mol
# GULP energy per Si atom -5579.266926 kJ/mol
# Density = 2.285934 g / cm^3
# Si number density = 22.911486 Si / 1000 Ang^3
#
#
#
# Elastic Constant Matrix: (Units=GPa)
#
#
# Indices 1 2 3 4 5 6 
#
# 1 104.9665 -4.3221 41.0242 0.0000 33.3388 0.0000
# 2 -4.3221 14.7099 6.2376 0.0000 5.4843 0.0000
# 3 41.0242 6.2376 149.2779 0.0001 37.8225 0.0000
# 4 0.0000 0.0000 0.0001 10.7912 0.0000 -0.1752
# 5 33.3388 5.4843 37.8225 0.0000 55.3372 0.0000
# 6 0.0000 0.0000 0.0000 -0.1752 0.0000 13.7678
#
#
#
# Elastic Compliance Matrix: (Units=1/GPa)
#
#
# Indices 1 2 3 4 5 6 
#
# 1 0.012877 0.007292 -0.002050 0.000000 -0.007080 0.000000
# 2 0.007292 0.074970 -0.002589 0.000000 -0.010054 0.000000
# 3 -0.002050 -0.002589 0.008457 0.000000 -0.004289 0.000000
# 4 0.000000 0.000000 0.000000 0.092687 0.000000 0.001180
# 5 -0.007080 -0.010054 -0.004289 0.000000 0.026264 0.000000
# 6 0.000000 0.000000 0.000000 0.001180 0.000000 0.072648
#
#
# Mechanical properties :
#
#
# Convention : Reuss Voigt Hill
#
# Bulk Modulus (GPa) = 9.84154 39.42599 24.63376
# Shear Modulus (GPa) = 15.79939 31.04686 23.42312
#
# Velocity S-wave (km/s) = 2.62884 3.68513 3.20086
# Velocity P-wave (km/s) = 3.67685 5.94578 4.94325
#
# Compressibility (1/GPa) = 0.10161016
#
# Stress axis : x y z
#
# Youngs Moduli (GPa) = 77.65920 13.33862 118.24424
#
# Poissons Ratio (x) = -0.09727 0.24237
# Poissons Ratio (y) = -0.56630 0.30618
# Poissons Ratio (z) = 0.15918 0.03454
#
# Static dielectric constant tensor:
#      x y z
#    x 1.997250 0.000000 0.014100 
#    y 0.000000 1.807610 0.000000 
#    z 0.014100 0.000000 1.905380 
# 
# From -- ./inp_files/359012.got.cif
#   From: 2010.05.17/outbox.cif.g08.bks.cpg/sg12_180_cif.got.tgz:359012.got - 2010.06.03 13:09:07.
