data_PCOD9168668
_publ_section_title
;
Structure prediction by ZEFSAII (Michael W. Deem and Ramdas Pophale) SiO2 
 PCOD9168668
Probable space group: C 2/M
;
_chemical_formula_sum "Si O2"
_cell_formula_units_Z 36
_cell_length_a 15.033610
_cell_length_b 27.329591
_cell_length_c 9.206794
_cell_angle_alpha 90.000000
_cell_angle_beta 155.408628
_cell_angle_gamma 90.000000
_cell_volume 1574.158062
_symmetry_space_group_name_H-M "C 2/M"
_symmetry_group_IT_number 12
_symmetry_cell_setting 'monoclinic'
loop_
_space_group_symop_operation_xyz
x,y,z
-x,y,-z
-x,-y,-z
x,-y,z
1/2+x,1/2+y,z
1/2-x,1/2+y,-z
1/2-x,1/2-y,-z
1/2+x,1/2-y,z
loop_
_atom_site_type_symbol
_atom_site_label
_atom_site_fract_x
_atom_site_fract_y
_atom_site_fract_z
Si Si1 0.500000 0.731495 0.000000
Si Si2 0.090049 0.105918 0.301702
Si Si3 0.187177 0.000000 0.398886
Si Si4 0.399550 0.000000 0.187188
Si Si5 0.910496 0.320614 0.668108
Si Si6 0.810007 0.607699 0.099177
O O1 0.295295 0.697894 0.729559
O O2 0.480873 0.769452 0.840015
O O3 0.161890 0.050728 0.444783
O O4 0.287158 0.143059 0.595269
O O5 0.000000 0.103266 0.000000
O O6 0.906075 0.121057 0.139147
O O7 0.407275 0.000000 0.639180
O O8 0.000000 0.000000 0.000000
O O9 0.500000 0.000000 0.500000
O O10 0.284614 0.052367 0.000992
O O11 0.096554 0.351726 0.870505
O O12 0.000000 0.604100 0.500000
#
# Coordination Sequence:
#
# PCOD9168668 Si02
#       6
#     4   8   4   4   8   8
#     4  10  24  42  64  78 114 146 194 254 284 342
#     4  11  18  32  56  84 120 150 182 229 280 338
#     4  10  16  26  46  85 120 150 178 222 278 330
#     4  10  16  26  46  87 122 146 182 224 277 339
#     4  11  21  42  59  85 112 149 193 238 295 336
#     4  11  18  31  56  87 119 150 185 231 282 342
#
# _framework density 22.869368000000001
#
# number of rings (size 3 to 8) (size 9 to 14) (size 15 to 20)
#    0.000    1.333    5.556    4.667    0.000    0.000 
#    0.000   13.333    0.000    2.667    0.000    3.111 
#    0.000    0.000    0.000    0.000    0.000    0.000 
#
# Total GULP energy -100499.715200 kJ/mol
# GULP energy per Si atom -5583.317511 kJ/mol
# Density = 2.281732 g / cm^3
# Si number density = 22.869368 Si / 1000 Ang^3
#
#
#
# Elastic Constant Matrix: (Units=GPa)
#
#
# Indices 1 2 3 4 5 6 
#
# 1 115.7915 57.1256 55.5690 -0.0001 59.2935 0.0000
# 2 57.1256 187.7147 40.3330 0.0000 30.3394 0.0000
# 3 55.5690 40.3330 60.4503 -0.0002 38.1378 0.0000
# 4 -0.0001 0.0000 -0.0002 -1.2056 -0.0001 25.7084
# 5 59.2935 30.3394 38.1378 -0.0001 52.3624 0.0000
# 6 0.0000 0.0000 0.0000 25.7084 0.0000 34.5940
#
#
#
# Elastic Compliance Matrix: (Units=1/GPa)
#
#
# Indices 1 2 3 4 5 6 
#
# 1 0.023594 -0.002339 -0.007637 0.000000 -0.019800 0.000000
# 2 -0.002339 0.006484 -0.002732 0.000000 0.000882 0.000000
# 3 -0.007637 -0.002732 0.035025 0.000000 -0.015280 0.000000
# 4 0.000000 0.000000 0.000000 -0.049235 0.000000 0.036589
# 5 -0.019800 0.000882 -0.015280 0.000000 0.052136 0.000000
# 6 0.000000 0.000000 0.000000 0.036589 0.000000 0.001716
#
#
# Mechanical properties :
#
#
# Convention : Reuss Voigt Hill
#
# Bulk Modulus (GPa) = 25.19701 74.44577 49.82139
# Shear Modulus (GPa) = 46.14068 31.21209 38.67638
#
# Velocity S-wave (km/s) = 4.49662 3.69833 4.11687
# Velocity P-wave (km/s) = 6.16451 7.13163 6.66563
#
# Compressibility (1/GPa) = 0.03968725
#
# Stress axis : x y z
#
# Youngs Moduli (GPa) = 42.38389 154.23628 28.55072
#
# Poissons Ratio (x) = 0.36079 0.21803
# Poissons Ratio (y) = 0.09914 0.07800
# Poissons Ratio (z) = 0.32366 0.42138
#
# Static dielectric constant tensor:
#      x y z
#    x 1.844630 0.000000 -0.120900 
#    y 0.000000 1.858670 0.000000 
#    z -0.120900 0.000000 1.879150 
# 
# From -- ./inp_files/161046.got.cif
#   From: 2010.05.17/outbox.cif.g08.bks.cpg/sg12_81_cif.got.tgz:161046.got - 2010.06.03 13:09:07.
