data_PCOD9168924
_publ_section_title
;
Structure prediction by ZEFSAII (Michael W. Deem and Ramdas Pophale) SiO2 
 PCOD9168924
Probable space group: C 2/M
;
_chemical_formula_sum "Si O2"
_cell_formula_units_Z 40
_cell_length_a 17.990996
_cell_length_b 15.965864
_cell_length_c 7.270981
_cell_angle_alpha 90.000000
_cell_angle_beta 128.419609
_cell_angle_gamma 90.000000
_cell_volume 1636.322931
_symmetry_space_group_name_H-M "C 2/M"
_symmetry_group_IT_number 12
_symmetry_cell_setting 'monoclinic'
loop_
_space_group_symop_operation_xyz
x,y,z
-x,y,-z
-x,-y,-z
x,-y,z
1/2+x,1/2+y,z
1/2-x,1/2+y,-z
1/2-x,1/2-y,-z
1/2+x,1/2-y,z
loop_
_atom_site_type_symbol
_atom_site_label
_atom_site_fract_x
_atom_site_fract_y
_atom_site_fract_z
Si Si1 0.722217 0.000000 0.264910
Si Si2 0.500000 0.770460 0.500000
Si Si3 0.312643 0.500000 0.043285
Si Si4 0.895803 0.817239 0.667227
Si Si5 0.384590 0.500000 0.783602
Si Si6 0.143970 0.403610 0.651538
Si Si7 0.828245 0.666084 0.718536
O O1 0.658593 0.081948 0.144617
O O2 0.773237 0.000000 0.543025
O O3 0.810613 0.000000 0.258784
O O4 0.536411 0.713801 0.389493
O O5 0.584598 0.835901 0.673714
O O6 0.393876 0.500000 0.018643
O O7 0.249179 0.418911 0.891377
O O8 0.917451 0.911189 0.758933
O O9 0.888855 0.750453 0.824848
O O10 0.784435 0.816409 0.431142
O O11 0.105695 0.500000 0.589743
O O12 0.149535 0.364988 0.455881
#
# Coordination Sequence:
#
# PCOD9168924 Si02
#       7
#     4   4   4   8   4   8   8
#     4  10  16  30  53  86 103 124 159 222 265 290
#     4  10  19  25  50  80 100 142 174 196 250 308
#     4  10  18  29  56  83  98 129 173 206 259 310
#     4   9  17  29  51  74 101 135 175 204 251 298
#     4  10  18  37  53  74 103 132 172 224 246 288
#     4   9  15  30  48  75 106 128 165 203 252 306
#     4   9  15  30  53  73 102 134 162 213 256 297
#
# _framework density 24.445050999999999
#
# number of rings (size 3 to 8) (size 9 to 14) (size 15 to 20)
#    0.600    2.000    5.000    0.300    0.000    0.400 
#    0.000    1.000    0.000    9.600    0.000    5.600 
#    0.000    0.000    0.000    0.000    0.000    0.000 
#
# Total GULP energy -111461.521463 kJ/mol
# GULP energy per Si atom -5573.076073 kJ/mol
# Density = 2.438941 g / cm^3
# Si number density = 24.445051 Si / 1000 Ang^3
#
#
#
# Elastic Constant Matrix: (Units=GPa)
#
#
# Indices 1 2 3 4 5 6 
#
# 1 130.5974 90.7943 29.7066 0.0000 -31.0404 0.0000
# 2 90.7943 242.5076 31.8039 0.0000 -36.0441 0.0000
# 3 29.7066 31.8039 47.6348 0.0000 -22.0923 0.0000
# 4 0.0000 0.0000 0.0000 5.1797 0.0000 -26.5069
# 5 -31.0404 -36.0441 -22.0923 0.0000 39.3805 0.0000
# 6 0.0000 0.0000 0.0000 -26.5069 0.0000 49.5109
#
#
#
# Elastic Compliance Matrix: (Units=1/GPa)
#
#
# Indices 1 2 3 4 5 6 
#
# 1 0.011724 -0.003325 -0.002997 0.000000 0.004516 0.000000
# 2 -0.003325 0.005804 -0.000748 0.000000 0.002272 0.000000
# 3 -0.002997 -0.000748 0.029667 0.000000 0.013597 0.000000
# 4 0.000000 0.000000 0.000000 -0.110971 0.000000 -0.059411
# 5 0.004516 0.002272 0.013597 0.000000 0.038660 0.000000
# 6 0.000000 0.000000 0.000000 -0.059411 0.000000 -0.011610
#
#
# Mechanical properties :
#
#
# Convention : Reuss Voigt Hill
#
# Bulk Modulus (GPa) = 30.25182 80.59435 55.42308
# Shear Modulus (GPa) = -432.28118 36.70991 -197.78563
#
# Velocity S-wave (km/s) = -13.31247 3.87942 -9.00477
# Velocity P-wave (km/s) = 14.96307 7.28751 9.24083
#
# Compressibility (1/GPa) = 0.03305587
#
# Stress axis : x y z
#
# Youngs Moduli (GPa) = 85.29549 172.28665 33.70739
#
# Poissons Ratio (x) = 0.57287 0.10101
# Poissons Ratio (y) = 0.28362 0.02521
# Poissons Ratio (z) = 0.25561 0.12885
#
# Static dielectric constant tensor:
#      x y z
#    x 2.029770 0.000000 0.002840 
#    y 0.000000 2.017310 0.000000 
#    z 0.002840 0.000000 1.968710 
# 
# From -- ./inp_files/74045.got.cif
#   From: 2010.05.17/outbox.cif.g08.bks.cpg/sg12_38_cif.got.tgz:74045.got - 2010.06.03 13:09:07.
