data_PCOD9168127
_publ_section_title
;
Structure prediction by ZEFSAII (Michael W. Deem and Ramdas Pophale) SiO2 
 PCOD9168127
Probable space group: P 21/M
;
_chemical_formula_sum "Si O2"
_cell_formula_units_Z 28
_cell_length_a 15.000000
_cell_length_b 9.000000
_cell_length_c 21.000000
_cell_angle_alpha 90.000000
_cell_angle_beta 150.000000
_cell_angle_gamma 90.000000
_cell_volume 1417.500000
_symmetry_space_group_name_H-M "P 21/M"
_symmetry_group_IT_number 11
_symmetry_cell_setting 'monoclinic'
loop_
_space_group_symop_operation_xyz
x,y,z
-x,1/2+y,-z
-x,-y,-z
x,1/2-y,z
loop_
_atom_site_type_symbol
_atom_site_label
_atom_site_fract_x
_atom_site_fract_y
_atom_site_fract_z
Si Si1 0.628424 0.573256 0.672483
Si Si2 0.811420 0.577538 0.394939
Si Si3 0.696754 0.917020 0.988099
Si Si4 0.923054 0.079939 0.221496
Si Si5 0.681850 0.081691 0.195647
Si Si6 0.491524 0.073151 0.264047
Si Si7 0.246778 0.575929 0.372007
O O1 0.660851 0.750000 0.692834
O O2 0.611395 0.523012 0.735680
O O3 0.433787 0.543069 0.522058
O O4 0.758863 0.500553 0.701117
O O5 0.832573 0.750000 0.421620
O O6 0.721444 0.544842 0.271223
O O7 0.680654 0.505115 0.366568
O O8 0.000000 0.500000 0.500000
O O9 0.776111 0.750000 0.037693
O O10 0.531299 0.913717 0.935470
O O11 0.622941 0.945802 0.871601
O O12 0.825210 0.040237 0.095170
O O13 0.980077 0.250000 0.258726
O O14 0.788731 0.055962 0.197191
O O15 0.094506 0.976937 0.325789
O O16 0.733785 0.250000 0.251091
O O17 0.524795 0.250000 0.291404
O O18 0.236209 0.750000 0.355203
#
# Coordination Sequence:
#
# PCOD9168127 Si02
#       7
#     4   4   4   4   4   4   4
#     4   9  19  38  61  82 108 141 177 222 279 332
#     4  11  22  34  51  78 112 146 183 225 266 321
#     4   9  18  35  56  79 111 145 181 225 273 327
#     4  11  22  35  55  81 112 145 186 231 272 322
#     4   9  20  37  54  77 109 147 185 227 273 319
#     4   9  19  37  59  81 108 143 181 223 276 329
#     4  10  21  36  56  84 112 140 180 225 274 331
#
# _framework density 19.753086
#
# number of rings (size 3 to 8) (size 9 to 14) (size 15 to 20)
#    0.000    2.286    0.000    3.429    2.000    4.571 
#    0.000    0.714    0.000    0.000    0.000    0.000 
#    0.000    0.000    0.000    0.000    0.000    0.000 
#
# Total GULP energy -155998.925087 kJ/mol
# GULP energy per Si atom -5571.390182 kJ/mol
# Density = 1.970813 g / cm^3
# Si number density = 19.753086 Si / 1000 Ang^3
#
#
#
# Elastic Constant Matrix: (Units=GPa)
#
#
# Indices 1 2 3 4 5 6 
#
# 1 94.8215 3.2104 1.1016 0.0000 -15.3090 0.0000
# 2 3.2104 -39.8290 6.7692 0.0000 -10.4213 0.0000
# 3 1.1016 6.7692 13.4819 0.0000 5.5154 0.0000
# 4 0.0000 0.0000 0.0000 22.8057 0.0000 3.8526
# 5 -15.3090 -10.4213 5.5154 0.0000 10.4895 0.0000
# 6 0.0000 0.0000 0.0000 3.8526 0.0000 33.6321
#
#
#
# Elastic Compliance Matrix: (Units=1/GPa)
#
#
# Indices 1 2 3 4 5 6 
#
# 1 0.013794 -0.004842 -0.006324 0.000000 0.018647 0.000000
# 2 -0.004842 -0.013838 0.020205 0.000000 -0.031438 0.000000
# 3 -0.006324 0.020205 0.076583 0.000000 -0.029424 0.000000
# 4 0.000000 0.000000 0.000000 0.044714 0.000000 -0.005122
# 5 0.018647 -0.031438 -0.029424 0.000000 0.106785 0.000000
# 6 0.000000 0.000000 0.000000 -0.005122 0.000000 0.030320
#
#
# Mechanical properties :
#
#
# Convention : Reuss Voigt Hill
#
# Bulk Modulus (GPa) = 10.56904 10.07075 10.31990
# Shear Modulus (GPa) = 18.39460 17.21170 17.80315
#
# Velocity S-wave (km/s) = 3.05491 2.95505 3.00540
# Velocity P-wave (km/s) = 4.21966 4.09298 4.15680
#
# Compressibility (1/GPa) = 0.09461593
#
# Stress axis : x y z
#
# Youngs Moduli (GPa) = 72.49508 -72.26533 13.05780
#
# Poissons Ratio (x) = -0.34990 0.08258
# Poissons Ratio (y) = 0.35101 -0.26383
# Poissons Ratio (z) = 0.45848 1.46010
#
# Static dielectric constant tensor:
#      x y z
#    x 1.686760 0.000000 0.011250 
#    y 0.000000 1.671040 0.000000 
#    z 0.011250 0.000000 1.788950 
# 
# From -- ./inp_files/37948.got.cif
#   From: 2010.05.17/outbox.ucp.g08.bks.cvg/sg11_19_cif.got.tgz:37948.got - 2010.06.11 11:38:39.
