data_PCOD9168313
_publ_section_title
;
Structure prediction by ZEFSAII (Michael W. Deem and Ramdas Pophale) SiO2 
 PCOD9168313
Probable space group: C 2/M
;
_chemical_formula_sum "Si O2"
_cell_formula_units_Z 56
_cell_length_a 5.362801
_cell_length_b 14.333021
_cell_length_c 35.693243
_cell_angle_alpha 90.000000
_cell_angle_beta 112.010479
_cell_angle_gamma 90.000000
_cell_volume 2543.602177
_symmetry_space_group_name_H-M "C 2/M"
_symmetry_group_IT_number 12
_symmetry_cell_setting 'monoclinic'
loop_
_space_group_symop_operation_xyz
x,y,z
-x,y,-z
-x,-y,-z
x,-y,z
1/2+x,1/2+y,z
1/2-x,1/2+y,-z
1/2-x,1/2-y,-z
1/2+x,1/2-y,z
loop_
_atom_site_type_symbol
_atom_site_label
_atom_site_fract_x
_atom_site_fract_y
_atom_site_fract_z
Si Si1 0.944791 0.311485 0.957359
Si Si2 0.552109 0.887515 0.610884
Si Si3 0.793602 0.354354 0.517471
Si Si4 0.327016 0.613232 0.341063
Si Si5 0.650064 0.312688 0.870295
Si Si6 0.809361 0.651486 0.749540
Si Si7 0.107651 0.862834 0.217383
O O1 0.726214 0.231080 0.957540
O O2 0.791638 0.359950 0.914214
O O3 0.000000 0.362096 0.000000
O O4 0.416681 0.850359 0.565618
O O5 0.379587 0.861011 0.637680
O O6 0.865914 0.862826 0.631462
O O7 0.538729 0.000000 0.607603
O O8 0.500000 0.398675 0.500000
O O9 0.750000 0.250000 0.500000
O O10 0.000000 0.398823 0.500000
O O11 0.313079 0.500000 0.335108
O O12 0.248638 0.660170 0.297534
O O13 0.377152 0.260587 0.868502
O O14 0.563934 0.373173 0.829899
O O15 0.842579 0.752099 0.771446
O O16 0.560880 0.604351 0.756558
O O17 0.092789 0.600866 0.769997
#
# Coordination Sequence:
#
# PCOD9168313 Si02
#       7
#     8   8   8   8   8   8   8
#     4   8  14  20  29  45  67 100 143 181 215 259
#     4  10  21  38  58  76  97 127 162 190 220 269
#     4  10  21  38  56  81 110 132 153 187 228 267
#     4  10  21  37  54  73  95 125 160 192 225 260
#     4  10  14  23  36  51  78 110 146 183 221 270
#     4  10  18  30  46  65  91 114 150 191 222 267
#     4  10  17  28  41  65  88 116 150 182 230 276
#
# _framework density 22.016023000000001
#
# number of rings (size 3 to 8) (size 9 to 14) (size 15 to 20)
#    0.000    2.286    2.857    1.714    0.000    0.571 
#    0.000   17.143    0.000    0.000    0.000    0.000 
#    0.000    0.000    0.000    0.000    0.000    7.857 
#
# Total GULP energy -156261.575454 kJ/mol
# GULP energy per Si atom -5580.770552 kJ/mol
# Density = 2.196591 g / cm^3
# Si number density = 22.016023 Si / 1000 Ang^3
#
#
#
# Elastic Constant Matrix: (Units=GPa)
#
#
# Indices 1 2 3 4 5 6 
#
# 1 135.1469 -1.1879 -25.0967 0.0000 -3.5143 0.0001
# 2 -1.1879 75.0851 0.9979 0.0000 0.4104 0.0000
# 3 -25.0967 0.9979 125.4359 0.0000 7.0037 0.0000
# 4 0.0000 0.0000 0.0000 -53.5854 0.0000 21.6342
# 5 -3.5143 0.4104 7.0037 0.0000 41.3906 0.0000
# 6 0.0001 0.0000 0.0000 21.6342 0.0000 -41.2435
#
#
#
# Elastic Compliance Matrix: (Units=1/GPa)
#
#
# Indices 1 2 3 4 5 6 
#
# 1 0.007692 0.000099 0.001516 0.000000 0.000396 0.000000
# 2 0.000099 0.013321 -0.000080 0.000000 -0.000110 0.000000
# 3 0.001516 -0.000080 0.008348 0.000000 -0.001283 0.000000
# 4 0.000000 0.000000 0.000000 -0.023676 0.000000 -0.012419
# 5 0.000396 -0.000110 -0.001283 0.000000 0.024412 0.000000
# 6 0.000000 0.000000 0.000000 -0.012419 0.000000 -0.030761
#
#
# Mechanical properties :
#
#
# Convention : Reuss Voigt Hill
#
# Bulk Modulus (GPa) = 30.83333 31.67716 31.25524
# Shear Modulus (GPa) = 706.57750 13.37600 359.97675
#
# Velocity S-wave (km/s) = 17.93417 2.46754 12.80085
# Velocity P-wave (km/s) = 21.04475 4.74740 15.25482
#
# Compressibility (1/GPa) = 0.03243244
#
# Stress axis : x y z
#
# Youngs Moduli (GPa) = 130.00423 75.06689 119.79187
#
# Poissons Ratio (x) = -0.00746 -0.18162
# Poissons Ratio (y) = -0.01292 0.00958
# Poissons Ratio (z) = -0.19710 0.00600
#
# Static dielectric constant tensor:
#      x y z
#    x 1.819730 0.000000 -0.005540 
#    y 0.000000 2.056130 0.000000 
#    z -0.005540 0.000000 1.794360 
# 
# From -- ./inp_files/371562.got.cif
#   From: 2010.05.17/outbox.cif.g08.bks.cpg/sg12_186_cif.got.tgz:371562.got - 2010.06.03 13:09:07.
