data_PCOD9168186
_publ_section_title
;
Structure prediction by ZEFSAII (Michael W. Deem and Ramdas Pophale) SiO2 
 PCOD9168186
Probable space group: P 21/M
;
_chemical_formula_sum "Si O2"
_cell_formula_units_Z 24
_cell_length_a 18.000000
_cell_length_b 9.000000
_cell_length_c 15.000000
_cell_angle_alpha 90.000000
_cell_angle_beta 150.000000
_cell_angle_gamma 90.000000
_cell_volume 1215.000000
_symmetry_space_group_name_H-M "P 21/M"
_symmetry_group_IT_number 11
_symmetry_cell_setting 'monoclinic'
loop_
_space_group_symop_operation_xyz
x,y,z
-x,1/2+y,-z
-x,-y,-z
x,1/2-y,z
loop_
_atom_site_type_symbol
_atom_site_label
_atom_site_fract_x
_atom_site_fract_y
_atom_site_fract_z
Si Si1 0.570986 0.427494 0.984405
Si Si2 0.305446 0.078609 0.413607
Si Si3 0.924759 0.072556 0.335488
Si Si4 0.789989 0.927432 0.886936
Si Si5 0.976993 0.579908 0.760502
Si Si6 0.455587 0.424823 0.230417
O O1 0.547432 0.250000 0.963496
O O2 0.748425 0.456765 0.160909
O O3 0.500000 0.500000 0.000000
O O4 0.512436 0.492801 0.829493
O O5 0.363423 0.250000 0.465459
O O6 0.249250 0.034238 0.256054
O O7 0.189388 0.084256 0.375076
O O8 0.420936 0.958348 0.567633
O O9 0.947732 0.250000 0.363827
O O10 0.991134 0.023987 0.307445
O O11 0.000000 0.000000 0.500000
O O12 0.783883 0.750000 0.883339
O O13 0.687472 0.981938 0.863066
O O14 0.946450 0.986087 0.082104
O O15 0.034287 0.750000 0.821959
O O16 0.440503 0.250000 0.195925
#
# Coordination Sequence:
#
# PCOD9168186 Si02
#       6
#     4   4   4   4   4   4
#     4  11  24  43  65  90 120 155 197 245 299 356
#     4  10  22  38  59  89 123 160 201 247 295 349
#     4  10  23  41  62  89 118 154 196 243 297 355
#     4  10  21  38  60  88 121 159 202 246 297 350
#     4  10  21  39  61  87 119 156 199 244 300 357
#     4  11  23  39  60  89 122 159 202 245 295 353
#
# _framework density 19.753086
#
# number of rings (size 3 to 8) (size 9 to 14) (size 15 to 20)
#    0.000    1.667    1.667    2.000    2.333    4.000 
#    0.000    0.000    0.000    0.000    0.000    0.000 
#    0.000    0.000    0.000    0.000    0.000    0.000 
#
# Total GULP energy -133718.008098 kJ/mol
# GULP energy per Si atom -5571.583671 kJ/mol
# Density = 1.970813 g / cm^3
# Si number density = 19.753086 Si / 1000 Ang^3
#
#
#
# Elastic Constant Matrix: (Units=GPa)
#
#
# Indices 1 2 3 4 5 6 
#
# 1 91.4287 24.2473 4.3134 0.0000 -25.2866 0.0000
# 2 24.2473 7.6632 7.5423 0.0000 -5.3332 0.0000
# 3 4.3134 7.5423 46.4467 0.0000 -27.8511 0.0000
# 4 0.0000 0.0000 0.0000 31.0527 0.0000 -12.9112
# 5 -25.2866 -5.3332 -27.8511 0.0000 37.7552 0.0000
# 6 0.0000 0.0000 0.0000 -12.9112 0.0000 28.3126
#
#
#
# Elastic Compliance Matrix: (Units=1/GPa)
#
#
# Indices 1 2 3 4 5 6 
#
# 1 -0.073118 0.258737 -0.076522 0.000000 -0.068870 0.000000
# 2 0.258737 -0.759497 0.249041 0.000000 0.249715 0.000000
# 3 -0.076522 0.249041 -0.038448 0.000000 -0.044434 0.000000
# 4 0.000000 0.000000 0.000000 0.039738 0.000000 0.018121
# 5 -0.068870 0.249715 -0.044434 0.000000 -0.017143 0.000000
# 6 0.000000 0.000000 0.000000 0.018121 0.000000 0.043584
#
#
# Mechanical properties :
#
#
# Convention : Reuss Voigt Hill
#
# Bulk Modulus (GPa) = -116.92742 24.19384 -46.36679
# Shear Modulus (GPa) = -2.99357 26.71980 11.86312
#
# Velocity S-wave (km/s) = -1.23239 3.68188 2.45331
# Velocity P-wave (km/s) = 7.83250 5.50906 3.93690
#
# Compressibility (1/GPa) = -0.00855231
#
# Stress axis : x y z
#
# Youngs Moduli (GPa) = -13.67653 -1.31666 -26.00908
#
# Poissons Ratio (x) = 0.34067 -1.99026
# Poissons Ratio (y) = 3.53862 6.47732
# Poissons Ratio (z) = -1.04655 0.32790
#
# Static dielectric constant tensor:
#      x y z
#    x 1.707040 0.000000 0.076920 
#    y 0.000000 1.680770 0.000000 
#    z 0.076920 0.000000 1.770260 
# 
# From -- ./inp_files/46553.got.cif
#   From: 2010.05.17/outbox.ucp.g08.bks.cvg/sg11_24_cif.got.tgz:46553.got - 2010.06.11 11:38:39.
