data_PCOD9168949
_publ_section_title
;
Structure prediction by ZEFSAII (Michael W. Deem and Ramdas Pophale) SiO2 
 PCOD9168949
Probable space group: C 2/M
;
_chemical_formula_sum "Si O2"
_cell_formula_units_Z 44
_cell_length_a 16.028031
_cell_length_b 12.240057
_cell_length_c 14.096609
_cell_angle_alpha 90.000000
_cell_angle_beta 137.047372
_cell_angle_gamma 90.000000
_cell_volume 1884.413555
_symmetry_space_group_name_H-M "C 2/M"
_symmetry_group_IT_number 12
_symmetry_cell_setting 'monoclinic'
loop_
_space_group_symop_operation_xyz
x,y,z
-x,y,-z
-x,-y,-z
x,-y,z
1/2+x,1/2+y,z
1/2-x,1/2+y,-z
1/2-x,1/2-y,-z
1/2+x,1/2-y,z
loop_
_atom_site_type_symbol
_atom_site_label
_atom_site_fract_x
_atom_site_fract_y
_atom_site_fract_z
Si Si1 0.498744 0.500000 0.112716
Si Si2 0.554355 0.749185 0.338872
Si Si3 0.362372 0.500000 0.588451
Si Si4 0.862749 0.370322 0.420191
Si Si5 0.706862 0.718905 0.790812
Si Si6 0.047339 0.758362 0.932086
Si Si7 0.649320 0.500000 0.627863
O O1 0.622779 0.500000 0.281262
O O2 0.434024 0.385712 0.081163
O O3 0.500000 0.500000 0.000000
O O4 0.583018 0.621985 0.379042
O O5 0.642555 0.822473 0.477966
O O6 0.412888 0.758347 0.253006
O O7 0.550384 0.782868 0.225865
O O8 0.289926 0.500000 0.426665
O O9 0.860843 0.500000 0.417156
O O10 0.771509 0.313619 0.270624
O O11 0.000000 0.336663 0.500000
O O12 0.683040 0.608463 0.713479
O O13 0.820896 0.703490 0.954571
O O14 0.000000 0.750886 0.000000
O O15 0.500000 0.500000 0.500000
#
# Coordination Sequence:
#
# PCOD9168949 Si02
#       7
#     4   8   4   8   8   8   4
#     4   8  18  36  58  74 106 154 188 224 269 318
#     4  10  18  35  58  83 111 142 185 231 279 330
#     4  10  16  30  60  86 106 137 181 235 279 316
#     4   9  18  32  54  82 113 142 172 227 286 328
#     4  11  20  33  59  87 109 143 187 232 277 337
#     4  10  22  38  55  78 116 152 188 229 278 328
#     4  12  18  34  59  90 114 135 182 241 286 326
#
# _framework density 23.349440000000001
#
# number of rings (size 3 to 8) (size 9 to 14) (size 15 to 20)
#    0.000    2.000    3.636    1.091    1.273    0.000 
#    1.636    1.364    0.000    0.000    0.000    0.000 
#    0.000    0.000    0.000    0.000    0.000    0.000 
#
# Total GULP energy -122610.519833 kJ/mol
# GULP energy per Si atom -5573.205447 kJ/mol
# Density = 2.329630 g / cm^3
# Si number density = 23.349440 Si / 1000 Ang^3
#
#
#
# Elastic Constant Matrix: (Units=GPa)
#
#
# Indices 1 2 3 4 5 6 
#
# 1 49.6160 -10.0069 11.0896 0.0000 -10.9110 0.0000
# 2 -10.0069 66.7105 22.1082 0.0000 -18.1456 0.0000
# 3 11.0896 22.1082 101.4451 0.0000 -28.5288 0.0000
# 4 0.0000 0.0000 0.0000 31.1844 0.0000 -11.1386
# 5 -10.9110 -18.1456 -28.5288 0.0000 42.2225 0.0000
# 6 0.0000 0.0000 0.0000 -11.1386 0.0000 9.4256
#
#
#
# Elastic Compliance Matrix: (Units=1/GPa)
#
#
# Indices 1 2 3 4 5 6 
#
# 1 0.023443 0.006148 -0.001797 0.000000 0.007486 0.000000
# 2 0.006148 0.018934 -0.002547 0.000000 0.008005 0.000000
# 3 -0.001797 -0.002547 0.012557 0.000000 0.006925 0.000000
# 4 0.000000 0.000000 0.000000 0.055489 0.000000 0.065574
# 5 0.007486 0.008005 0.006925 0.000000 0.033738 0.000000
# 6 0.000000 0.000000 0.000000 0.065574 0.000000 0.183585
#
#
# Mechanical properties :
#
#
# Convention : Reuss Voigt Hill
#
# Bulk Modulus (GPa) = 17.08209 29.35038 23.21623
# Shear Modulus (GPa) = 14.54961 29.53855 22.04408
#
# Velocity S-wave (km/s) = 2.49895 3.56063 3.07595
# Velocity P-wave (km/s) = 3.95703 5.43153 4.75182
#
# Compressibility (1/GPa) = 0.05854085
#
# Stress axis : x y z
#
# Youngs Moduli (GPa) = 42.65701 52.81517 79.63901
#
# Poissons Ratio (x) = -0.32473 0.14314
# Poissons Ratio (y) = -0.26227 0.20286
# Poissons Ratio (z) = 0.07667 0.13454
#
# Static dielectric constant tensor:
#      x y z
#    x 2.025480 0.000000 -0.046520 
#    y 0.000000 1.811790 0.000000 
#    z -0.046520 0.000000 1.907220 
# 
# From -- ./inp_files/223511.got.cif
#   From: 2010.05.17/outbox.cif.g08.bks.cpg/sg12_112_cif.got.tgz:223511.got - 2010.06.03 13:09:07.
