data_PCOD9168945
_publ_section_title
;
Structure prediction by ZEFSAII (Michael W. Deem and Ramdas Pophale) SiO2 
 PCOD9168945
Probable space group: C 2/M
;
_chemical_formula_sum "Si O2"
_cell_formula_units_Z 36
_cell_length_a 8.852582
_cell_length_b 20.825588
_cell_length_c 10.844564
_cell_angle_alpha 90.000000
_cell_angle_beta 61.952229
_cell_angle_gamma 90.000000
_cell_volume 1764.499457
_symmetry_space_group_name_H-M "C 2/M"
_symmetry_group_IT_number 12
_symmetry_cell_setting 'monoclinic'
loop_
_space_group_symop_operation_xyz
x,y,z
-x,y,-z
-x,-y,-z
x,-y,z
1/2+x,1/2+y,z
1/2-x,1/2+y,-z
1/2-x,1/2-y,-z
1/2+x,1/2-y,z
loop_
_atom_site_type_symbol
_atom_site_label
_atom_site_fract_x
_atom_site_fract_y
_atom_site_fract_z
Si Si1 0.000000 0.242163 0.500000
Si Si2 0.276081 0.926973 0.339986
Si Si3 0.016978 0.325198 0.132265
Si Si4 0.422590 0.622166 0.366268
Si Si5 0.786993 0.197746 0.217556
O O1 0.085899 0.192141 0.562819
O O2 0.129787 0.283276 0.368890
O O3 0.422340 0.875915 0.256261
O O4 0.210256 0.920284 0.505822
O O5 0.110550 0.905553 0.322039
O O6 0.323194 0.000000 0.295037
O O7 0.914089 0.258093 0.170475
O O8 0.204700 0.313686 0.115581
O O9 0.000000 0.350376 0.000000
O O10 0.378099 0.636441 0.243105
#
# Coordination Sequence:
#
# PCOD9168945 Si02
#       5
#     4   8   8   8   8
#     4  10  16  30  57  82 117 132 166 222 292 336
#     4  10  21  40  59  81 113 149 188 227 274 330
#     4  12  24  37  55  81 116 156 188 225 271 329
#     4  10  18  34  61  87 109 138 176 231 294 333
#     4  12  20  36  57  88 116 139 181 233 290 340
#
# _framework density 20.402384999999999
#
# number of rings (size 3 to 8) (size 9 to 14) (size 15 to 20)
#    0.000    1.333    6.667    4.000    0.000    0.444 
#    0.000    3.333    0.000    1.333    0.000    0.000 
#    0.000    0.000    0.000    0.000    0.000    0.000 
#
# Total GULP energy -100555.565178 kJ/mol
# GULP energy per Si atom -5586.420288 kJ/mol
# Density = 2.035595 g / cm^3
# Si number density = 20.402385 Si / 1000 Ang^3
#
#
#
# Elastic Constant Matrix: (Units=GPa)
#
#
# Indices 1 2 3 4 5 6 
#
# 1 88.9727 41.1651 10.9866 0.0000 32.2765 0.0000
# 2 41.1651 85.3708 1.8211 0.0000 3.2622 0.0000
# 3 10.9866 1.8211 15.0036 0.0000 2.2685 0.0000
# 4 0.0000 0.0000 0.0000 7.8187 0.0000 3.2506
# 5 32.2765 3.2622 2.2685 0.0000 23.2392 0.0000
# 6 0.0000 0.0000 0.0000 3.2506 0.0000 5.1157
#
#
#
# Elastic Compliance Matrix: (Units=1/GPa)
#
#
# Indices 1 2 3 4 5 6 
#
# 1 0.040261 -0.017023 -0.019612 0.000000 -0.051614 0.000000
# 2 -0.017023 0.018996 0.007093 0.000000 0.020284 0.000000
# 3 -0.019612 0.007093 0.077324 0.000000 0.018695 0.000000
# 4 0.000000 0.000000 0.000000 0.173815 0.000000 -0.110445
# 5 -0.051614 0.020284 0.018695 0.000000 0.110045 0.000000
# 6 0.000000 0.000000 0.000000 -0.110445 0.000000 0.265656
#
#
# Mechanical properties :
#
#
# Convention : Reuss Voigt Hill
#
# Bulk Modulus (GPa) = 12.90370 33.03252 22.96811
# Shear Modulus (GPa) = 6.48497 16.25967 11.37232
#
# Velocity S-wave (km/s) = 1.78478 2.82609 2.36350
# Velocity P-wave (km/s) = 3.25355 5.18408 4.32783
#
# Compressibility (1/GPa) = 0.07749713
#
# Stress axis : x y z
#
# Youngs Moduli (GPa) = 24.83775 52.64385 12.93252
#
# Poissons Ratio (x) = 0.89616 0.25363
# Poissons Ratio (y) = 0.42281 -0.09173
# Poissons Ratio (z) = 0.48712 -0.37340
#
# Static dielectric constant tensor:
#      x y z
#    x 1.801600 0.000000 0.035750 
#    y 0.000000 1.696340 0.000000 
#    z 0.035750 0.000000 1.775660 
# 
# From -- ./inp_files/119659.got.cif
#   From: 2010.05.17/outbox.cif.g08.bks.cpg/sg12_60_cif.got.tgz:119659.got - 2010.06.03 13:09:07.
