data_PCOD9168156
_publ_section_title
;
Structure prediction by ZEFSAII (Michael W. Deem and Ramdas Pophale) SiO2 
 PCOD9168156
Probable space group: P 21/M
;
_chemical_formula_sum "Si O2"
_cell_formula_units_Z 28
_cell_length_a 21.000000
_cell_length_b 9.000000
_cell_length_c 15.000000
_cell_angle_alpha 90.000000
_cell_angle_beta 150.000000
_cell_angle_gamma 90.000000
_cell_volume 1417.500000
_symmetry_space_group_name_H-M "P 21/M"
_symmetry_group_IT_number 11
_symmetry_cell_setting 'monoclinic'
loop_
_space_group_symop_operation_xyz
x,y,z
-x,1/2+y,-z
-x,-y,-z
x,1/2-y,z
loop_
_atom_site_type_symbol
_atom_site_label
_atom_site_fract_x
_atom_site_fract_y
_atom_site_fract_z
Si Si1 0.123842 0.930137 0.602544
Si Si2 0.214936 0.584877 0.070630
Si Si3 0.694697 0.427177 0.014497
Si Si4 0.953753 0.582712 0.853429
Si Si5 0.615691 0.925100 0.587243
Si Si6 0.575080 0.426355 0.348419
Si Si7 0.195004 0.926724 0.486098
O O1 0.111484 0.750000 0.586526
O O2 0.236738 0.967284 0.809713
O O3 0.150464 0.978420 0.531312
O O4 0.000000 0.000000 0.500000
O O5 0.277618 0.750000 0.156816
O O6 0.272522 0.466917 0.209073
O O7 0.223018 0.545394 0.976106
O O8 0.074140 0.600194 0.935117
O O9 0.670362 0.250000 0.987828
O O10 0.565415 0.513992 0.839949
O O11 0.905082 0.750000 0.816715
O O12 0.864550 0.493102 0.677191
O O13 0.000000 0.500000 0.000000
O O14 0.600288 0.750000 0.559707
O O15 0.500000 0.000000 0.500000
O O16 0.625058 0.995976 0.500135
O O17 0.576254 0.250000 0.366683
O O18 0.657141 0.454229 0.358358
O O19 0.171354 0.750000 0.456350
#
# Coordination Sequence:
#
# PCOD9168156 Si02
#       7
#     4   4   4   4   4   4   4
#     4  10  22  42  66  92 121 158 201 250 305 359
#     4  10  21  37  57  84 119 156 197 249 303 355
#     4  10  21  38  61  87 117 155 199 248 303 357
#     4  11  23  39  61  89 121 159 203 248 300 361
#     4  12  23  36  57  86 120 159 200 245 297 357
#     4  11  23  39  59  87 122 161 203 248 301 360
#     4  10  23  42  62  87 125 164 200 249 304 358
#
# _framework density 19.753086
#
# number of rings (size 3 to 8) (size 9 to 14) (size 15 to 20)
#    0.000    1.429    1.429    3.857    0.000    8.571 
#    0.000    0.000    0.000    0.000    0.000    0.000 
#    0.000    0.000    0.000    0.000    0.000    0.000 
#
# Total GULP energy -156080.343608 kJ/mol
# GULP energy per Si atom -5574.297986 kJ/mol
# Density = 1.970813 g / cm^3
# Si number density = 19.753086 Si / 1000 Ang^3
#
#
#
# Elastic Constant Matrix: (Units=GPa)
#
#
# Indices 1 2 3 4 5 6 
#
# 1 174.7835 52.3906 51.2494 0.0000 -23.9221 0.0000
# 2 52.3906 58.9030 25.0676 0.0000 -9.6993 0.0000
# 3 51.2494 25.0676 58.2453 0.0000 -24.9033 0.0000
# 4 0.0000 0.0000 0.0000 29.8788 0.0000 -5.1932
# 5 -23.9221 -9.6993 -24.9033 0.0000 37.9900 0.0000
# 6 0.0000 0.0000 0.0000 -5.1932 0.0000 25.1602
#
#
#
# Elastic Compliance Matrix: (Units=1/GPa)
#
#
# Indices 1 2 3 4 5 6 
#
# 1 0.009066 -0.005734 -0.005133 0.000000 0.000880 0.000000
# 2 -0.005734 0.024427 -0.006037 0.000000 -0.001331 0.000000
# 3 -0.005133 -0.006037 0.030904 0.000000 0.015485 0.000000
# 4 0.000000 0.000000 0.000000 0.034714 0.000000 0.007165
# 5 0.000880 -0.001331 0.015485 0.000000 0.036688 0.000000
# 6 0.000000 0.000000 0.000000 0.007165 0.000000 0.041224
#
#
# Mechanical properties :
#
#
# Convention : Reuss Voigt Hill
#
# Bulk Modulus (GPa) = 32.69117 61.03853 46.86485
# Shear Modulus (GPa) = 22.62185 29.48743 26.05464
#
# Velocity S-wave (km/s) = 3.38780 3.86787 3.63577
# Velocity P-wave (km/s) = 5.64701 7.13548 6.43443
#
# Compressibility (1/GPa) = 0.03058930
#
# Stress axis : x y z
#
# Youngs Moduli (GPa) = 110.30816 40.93832 32.35859
#
# Poissons Ratio (x) = 0.23474 0.16608
# Poissons Ratio (y) = 0.63251 0.19534
# Poissons Ratio (z) = 0.56617 0.24714
#
# Static dielectric constant tensor:
#      x y z
#    x 1.717660 0.000000 0.146240 
#    y 0.000000 1.731220 0.000000 
#    z 0.146240 0.000000 2.045580 
# 
# From -- ./inp_files/54618.got.cif
#   From: 2010.05.17/outbox.ucp.g08.bks.cvg/sg11_28_cif.got.tgz:54618.got - 2010.06.11 11:38:39.
