data_PCOD9168505
_publ_section_title
;
Structure prediction by ZEFSAII (Michael W. Deem and Ramdas Pophale) SiO2 
 PCOD9168505
Probable space group: C 2/M
;
_chemical_formula_sum "Si O2"
_cell_formula_units_Z 48
_cell_length_a 8.531050
_cell_length_b 18.720253
_cell_length_c 16.563884
_cell_angle_alpha 90.000000
_cell_angle_beta 90.026955
_cell_angle_gamma 90.000000
_cell_volume 2645.308537
_symmetry_space_group_name_H-M "C 2/M"
_symmetry_group_IT_number 12
_symmetry_cell_setting 'monoclinic'
loop_
_space_group_symop_operation_xyz
x,y,z
-x,y,-z
-x,-y,-z
x,-y,z
1/2+x,1/2+y,z
1/2-x,1/2+y,-z
1/2-x,1/2-y,-z
1/2+x,1/2-y,z
loop_
_atom_site_type_symbol
_atom_site_label
_atom_site_fract_x
_atom_site_fract_y
_atom_site_fract_z
Si Si1 0.692759 0.167223 0.656977
Si Si2 0.314230 0.171026 0.656028
Si Si3 0.186554 0.669543 0.166764
Si Si4 0.814093 0.831838 0.000579
Si Si5 0.811069 0.332691 0.165836
Si Si6 0.308286 0.081903 0.500802
O O1 0.503553 0.171630 0.654821
O O2 0.756871 0.247552 0.648995
O O3 0.734420 0.137271 0.746129
O O4 0.744884 0.120111 0.581394
O O5 0.267913 0.141037 0.744556
O O6 0.258013 0.125159 0.580191
O O7 0.246789 0.751436 0.168293
O O8 0.998858 0.669412 0.160048
O O9 0.255496 0.635806 0.085240
O O10 0.754367 0.865736 0.916854
O O11 0.750000 0.750000 0.000000
O O12 0.000000 0.828962 0.000000
O O13 0.500000 0.082668 0.500000
O O14 0.258174 0.000000 0.504026
#
# Coordination Sequence:
#
# PCOD9168505 Si02
#       6
#     8   8   8   8   8   8
#     4   9  17  28  45  67  89 117 148 180 218 257
#     4   9  17  28  45  67  89 117 148 180 218 257
#     4   9  15  23  35  55  83 111 140 172 209 251
#     4  10  16  22  34  54  81 112 141 169 209 253
#     4   9  15  23  35  55  83 111 140 172 209 251
#     4   9  17  30  47  67  90 115 146 182 220 263
#
# _framework density 18.145332
#
# number of rings (size 3 to 8) (size 9 to 14) (size 15 to 20)
#    0.000    2.833    0.000    5.000    0.000    1.333 
#    0.000    0.000    0.000    2.000    0.000    1.167 
#    0.000    9.333    0.000    0.000    0.000    0.000 
#
# Total GULP energy -133605.098938 kJ/mol
# GULP energy per Si atom -5566.879122 kJ/mol
# Density = 1.810403 g / cm^3
# Si number density = 18.145332 Si / 1000 Ang^3
#
#
#
# Elastic Constant Matrix: (Units=GPa)
#
#
# Indices 1 2 3 4 5 6 
#
# 1 42.7119 -4.7448 20.0218 0.0000 -2.0693 0.0000
# 2 -4.7448 16.1266 8.2696 0.0000 -4.3562 0.0000
# 3 20.0218 8.2696 138.3956 0.0000 -7.9339 0.0000
# 4 0.0000 0.0000 0.0000 3.6054 0.0000 -0.6489
# 5 -2.0693 -4.3562 -7.9339 0.0000 19.2114 0.0000
# 6 0.0000 0.0000 0.0000 -0.6489 0.0000 7.7845
#
#
#
# Elastic Compliance Matrix: (Units=1/GPa)
#
#
# Indices 1 2 3 4 5 6 
#
# 1 0.026857 0.011105 -0.004342 0.000000 0.003618 0.000000
# 2 0.011105 0.072028 -0.005025 0.000000 0.015453 0.000000
# 3 -0.004342 -0.005025 0.008257 0.000000 0.001803 0.000000
# 4 0.000000 0.000000 0.000000 0.281584 0.000000 0.023473
# 5 0.003618 0.015453 0.001803 0.000000 0.056691 0.000000
# 6 0.000000 0.000000 0.000000 0.023473 0.000000 0.130417
#
#
# Mechanical properties :
#
#
# Convention : Reuss Voigt Hill
#
# Bulk Modulus (GPa) = 9.03993 27.14746 18.09369
# Shear Modulus (GPa) = 8.20711 17.69945 12.95328
#
# Velocity S-wave (km/s) = 2.12904 3.12657 2.67472
# Velocity P-wave (km/s) = 3.32212 5.29410 4.41950
#
# Compressibility (1/GPa) = 0.11062037
#
# Stress axis : x y z
#
# Youngs Moduli (GPa) = 37.23449 13.88356 121.10396
#
# Poissons Ratio (x) = -0.15418 0.52578
# Poissons Ratio (y) = -0.41351 0.60850
# Poissons Ratio (z) = 0.16166 0.06976
#
# Static dielectric constant tensor:
#      x y z
#    x 1.606100 0.000000 -0.000150 
#    y 0.000000 1.560240 0.000000 
#    z -0.000150 0.000000 1.720010 
# 
# From -- ./inp_files/196518.got.cif
#   From: 2010.05.17/outbox.cif.g08.bks.cpg/sg12_99_cif.got.tgz:196518.got - 2010.06.03 13:09:07.
