data_PCOD9168163
_publ_section_title
;
Structure prediction by ZEFSAII (Michael W. Deem and Ramdas Pophale) SiO2 
 PCOD9168163
Probable space group: P 21/M
;
_chemical_formula_sum "Si O2"
_cell_formula_units_Z 28
_cell_length_a 27.000000
_cell_length_b 9.000000
_cell_length_c 9.000000
_cell_angle_alpha 90.000000
_cell_angle_beta 40.000000
_cell_angle_gamma 90.000000
_cell_volume 1405.776502
_symmetry_space_group_name_H-M "P 21/M"
_symmetry_group_IT_number 11
_symmetry_cell_setting 'monoclinic'
loop_
_space_group_symop_operation_xyz
x,y,z
-x,1/2+y,-z
-x,-y,-z
x,1/2-y,z
loop_
_atom_site_type_symbol
_atom_site_label
_atom_site_fract_x
_atom_site_fract_y
_atom_site_fract_z
Si Si1 0.168331 0.070323 0.482883
Si Si2 0.125297 0.926154 0.894340
Si Si3 0.968480 0.924698 0.421884
Si Si4 0.452752 0.425509 0.873115
Si Si5 0.742108 0.427867 0.189708
Si Si6 0.601541 0.575817 0.660038
Si Si7 0.316560 0.929883 0.004613
O O1 0.174196 0.250000 0.467151
O O2 0.108966 0.023961 0.486222
O O3 0.141301 0.016219 0.707408
O O4 0.249943 0.993435 0.264014
O O5 0.141177 0.750000 0.831424
O O6 0.177398 0.974129 0.917617
O O7 0.037029 0.941007 0.145266
O O8 0.958337 0.750000 0.478107
O O9 0.000000 0.000000 0.500000
O O10 0.463430 0.250000 0.816186
O O11 0.534034 0.507910 0.711781
O O12 0.417046 0.437724 0.121920
O O13 0.396696 0.500373 0.880376
O O14 0.744132 0.250000 0.176974
O O15 0.677802 0.485266 0.450005
O O16 0.713089 0.476779 0.092572
O O17 0.610692 0.750000 0.605968
O O18 0.321351 0.750000 0.998987
#
# Coordination Sequence:
#
# PCOD9168163 Si02
#       7
#     4   4   4   4   4   4   4
#     4  11  23  38  58  87 118 149 190 238 286 337
#     4  10  21  39  61  84 113 152 195 236 281 337
#     4  10  22  39  60  87 119 153 191 236 286 339
#     4  10  21  38  60  86 115 147 188 236 282 335
#     4  10  22  38  57  82 112 148 191 236 282 335
#     4  10  21  37  59  85 113 148 188 231 284 341
#     4  11  23  39  59  83 114 153 192 232 284 341
#
# _framework density 19.917818
#
# number of rings (size 3 to 8) (size 9 to 14) (size 15 to 20)
#    0.000    1.714    0.000    3.857    0.000    9.143 
#    0.000    0.000    0.000    0.000    0.000    0.000 
#    0.000    0.000    0.000    0.000    0.000    0.000 
#
# Total GULP energy -156359.942160 kJ/mol
# GULP energy per Si atom -5584.283649 kJ/mol
# Density = 1.987248 g / cm^3
# Si number density = 19.917818 Si / 1000 Ang^3
#
#
#
# Elastic Constant Matrix: (Units=GPa)
#
#
# Indices 1 2 3 4 5 6 
#
# 1 100.3135 20.1067 -14.5164 0.0000 -10.6448 0.0000
# 2 20.1067 -15.8754 -32.6149 0.0000 15.1391 0.0000
# 3 -14.5164 -32.6149 -2.8383 0.0000 0.1801 0.0000
# 4 0.0000 0.0000 0.0000 24.6460 0.0000 5.7769
# 5 -10.6448 15.1391 0.1801 0.0000 35.5631 0.0000
# 6 0.0000 0.0000 0.0000 5.7769 0.0000 40.4418
#
#
#
# Elastic Compliance Matrix: (Units=1/GPa)
#
#
# Indices 1 2 3 4 5 6 
#
# 1 0.014794 -0.007987 0.016602 0.000000 0.007744 0.000000
# 2 -0.007987 0.007136 -0.041480 0.000000 -0.005218 0.000000
# 3 0.016602 -0.041480 0.040833 0.000000 0.022420 0.000000
# 4 0.000000 0.000000 0.000000 0.041980 0.000000 -0.005997
# 5 0.007744 -0.005218 0.022420 0.000000 0.032545 0.000000
# 6 0.000000 0.000000 0.000000 -0.005997 0.000000 0.025583
#
#
# Mechanical properties :
#
#
# Convention : Reuss Voigt Hill
#
# Bulk Modulus (GPa) = -337.12105 3.06117 -167.02994
# Shear Modulus (GPa) = 21.96741 27.37183 24.66962
#
# Velocity S-wave (km/s) = 3.32460 3.71109 3.52315
# Velocity P-wave (km/s) = 12.44533 4.46130 8.21532
#
# Compressibility (1/GPa) = -0.00296629
#
# Stress axis : x y z
#
# Youngs Moduli (GPa) = 67.59573 140.14073 24.49024
#
# Poissons Ratio (x) = 1.11924 -0.40659
# Poissons Ratio (y) = 0.53986 1.01585
# Poissons Ratio (z) = -1.12224 5.81302
#
# Static dielectric constant tensor:
#      x y z
#    x 1.696440 0.000000 -0.005490 
#    y 0.000000 1.672850 0.000000 
#    z -0.005490 0.000000 1.718300 
# 
# From -- ./inp_files/28365.got.cif
#   From: 2010.05.17/outbox.ucp.g08.bks.cvg/sg11_15_cif.got.tgz:28365.got - 2010.06.11 11:38:39.
