data_PCOD9168759
_publ_section_title
;
Structure prediction by ZEFSAII (Michael W. Deem and Ramdas Pophale) SiO2 
 PCOD9168759
Probable space group: C 2/M
;
_chemical_formula_sum "Si O2"
_cell_formula_units_Z 44
_cell_length_a 22.293107
_cell_length_b 21.710260
_cell_length_c 18.351291
_cell_angle_alpha 90.000000
_cell_angle_beta 162.435434
_cell_angle_gamma 90.000000
_cell_volume 2680.360400
_symmetry_space_group_name_H-M "C 2/M"
_symmetry_group_IT_number 12
_symmetry_cell_setting 'monoclinic'
loop_
_space_group_symop_operation_xyz
x,y,z
-x,y,-z
-x,-y,-z
x,-y,z
1/2+x,1/2+y,z
1/2-x,1/2+y,-z
1/2-x,1/2-y,-z
1/2+x,1/2-y,z
loop_
_atom_site_type_symbol
_atom_site_label
_atom_site_fract_x
_atom_site_fract_y
_atom_site_fract_z
Si Si1 0.242233 0.829909 0.877575
Si Si2 0.262831 0.569782 0.244101
Si Si3 0.000000 0.733615 0.500000
Si Si4 0.171376 0.318020 0.426493
Si Si5 0.689771 0.348833 0.563075
Si Si6 0.291610 0.707032 0.720351
O O1 0.312558 0.885300 0.906429
O O2 0.159690 0.777352 0.726820
O O3 0.048583 0.845960 0.701013
O O4 0.432679 0.813637 0.145892
O O5 0.500000 0.568597 0.500000
O O6 0.189406 0.500000 0.157063
O O7 0.236347 0.601808 0.291934
O O8 0.116286 0.695662 0.574587
O O9 0.250000 0.250000 0.500000
O O10 0.252116 0.359178 0.453333
O O11 0.252644 0.330068 0.601152
O O12 0.773976 0.280942 0.682386
O O13 0.500000 0.695177 0.000000
#
# Coordination Sequence:
#
# PCOD9168759 Si02
#       6
#     8   8   4   8   8   8
#     4  10  17  31  44  64  93 120 153 185 218 264
#     4   9  16  29  49  70  93 128 156 178 221 273
#     4  10  16  28  47  60  88 124 147 186 222 262
#     4  10  21  28  43  63  85 120 157 193 222 265
#     4   9  18  30  45  63  92 123 146 188 220 267
#     4  10  19  30  44  62  85 121 153 193 227 262
#
# _framework density 16.415703000000001
#
# number of rings (size 3 to 8) (size 9 to 14) (size 15 to 20)
#    0.000    2.364    4.545    2.182    0.000    8.000 
#    0.000    1.818    0.000    0.000    0.000    0.000 
#    0.000    2.909    0.000   12.727    0.000    0.000 
#
# Total GULP energy -122590.845171 kJ/mol
# GULP energy per Si atom -5572.311144 kJ/mol
# Density = 1.637834 g / cm^3
# Si number density = 16.415703 Si / 1000 Ang^3
#
#
#
# Elastic Constant Matrix: (Units=GPa)
#
#
# Indices 1 2 3 4 5 6 
#
# 1 135.9453 12.6813 52.5430 -0.0004 -2.7241 0.0001
# 2 12.6813 27.2597 18.6687 0.0000 -1.4424 0.0001
# 3 52.5430 18.6687 119.7946 -0.0009 -17.9102 -0.0006
# 4 -0.0004 0.0000 -0.0009 6.3182 -0.0005 3.2852
# 5 -2.7241 -1.4424 -17.9102 -0.0005 21.1376 -0.0002
# 6 0.0001 0.0001 -0.0006 3.2852 -0.0002 9.7946
#
#
#
# Elastic Compliance Matrix: (Units=1/GPa)
#
#
# Indices 1 2 3 4 5 6 
#
# 1 0.009027 -0.001533 -0.004079 0.000000 -0.002397 0.000000
# 2 -0.001533 0.041494 -0.006184 -0.000001 -0.002605 -0.000001
# 3 -0.004079 -0.006184 0.012548 0.000002 0.009685 0.000000
# 4 0.000000 -0.000001 0.000002 0.191706 0.000006 -0.064301
# 5 -0.002397 -0.002605 0.009685 0.000006 0.055028 0.000000
# 6 0.000000 -0.000001 0.000000 -0.064301 0.000000 0.123665
#
#
# Mechanical properties :
#
#
# Convention : Reuss Voigt Hill
#
# Bulk Modulus (GPa) = 25.33000 50.08727 37.70864
# Shear Modulus (GPa) = 10.63332 20.72385 15.67859
#
# Velocity S-wave (km/s) = 2.54786 3.55694 3.09382
# Velocity P-wave (km/s) = 4.91114 6.88819 5.98191
#
# Compressibility (1/GPa) = 0.03947888
#
# Stress axis : x y z
#
# Youngs Moduli (GPa) = 110.77374 24.09967 79.69195
#
# Poissons Ratio (x) = 0.03694 0.32507
# Poissons Ratio (y) = 0.16981 0.49279
# Poissons Ratio (z) = 0.45185 0.14902
#
# Static dielectric constant tensor:
#      x y z
#    x 1.608490 0.000000 0.017000 
#    y 0.000000 1.533200 0.000000 
#    z 0.017000 0.000000 1.585450 
# 
# From -- ./inp_files/286244.got.cif
#   From: 2010.05.17/outbox.cif.g08.bks.cpg/sg12_144_cif.got.tgz:286244.got - 2010.06.03 13:09:07.
