data_PCOD9168185
_publ_section_title
;
Structure prediction by ZEFSAII (Michael W. Deem and Ramdas Pophale) SiO2 
 PCOD9168185
Probable space group: P 21/M
;
_chemical_formula_sum "Si O2"
_cell_formula_units_Z 32
_cell_length_a 24.000000
_cell_length_b 9.000000
_cell_length_c 15.000000
_cell_angle_alpha 90.000000
_cell_angle_beta 30.000000
_cell_angle_gamma 90.000000
_cell_volume 1620.000000
_symmetry_space_group_name_H-M "P 21/M"
_symmetry_group_IT_number 11
_symmetry_cell_setting 'monoclinic'
loop_
_space_group_symop_operation_xyz
x,y,z
-x,1/2+y,-z
-x,-y,-z
x,1/2-y,z
loop_
_atom_site_type_symbol
_atom_site_label
_atom_site_fract_x
_atom_site_fract_y
_atom_site_fract_z
Si Si1 0.618437 0.929298 0.821800
Si Si2 0.784539 0.576338 0.444797
Si Si3 0.768283 0.072826 0.281021
Si Si4 0.465816 0.071917 0.452142
Si Si5 0.155735 0.077318 0.996142
Si Si6 0.960973 0.924082 0.363757
Si Si7 0.787657 0.570178 0.744914
Si Si8 0.672175 0.926891 0.087154
O O1 0.614349 0.750000 0.826709
O O2 0.673597 0.974524 0.651215
O O3 0.694799 0.972493 0.800408
O O4 0.500000 0.000000 0.000000
O O5 0.773729 0.750000 0.434242
O O6 0.806921 0.484098 0.324605
O O7 0.874825 0.569432 0.399590
O O8 0.757615 0.250000 0.295733
O O9 0.650706 0.994632 0.420454
O O10 0.845093 0.020519 0.091964
O O11 0.459386 0.250000 0.469595
O O12 0.500000 0.000000 0.500000
O O13 0.560493 0.021740 0.250846
O O14 0.147116 0.250000 0.983492
O O15 0.265585 0.056667 0.904308
O O16 0.059865 0.028064 0.196326
O O17 0.993926 0.750000 0.326836
O O18 0.902143 0.974898 0.537158
O O19 0.792279 0.750000 0.740087
O O20 0.749754 0.524487 0.896244
O O21 0.647910 0.750000 0.109466
#
# Coordination Sequence:
#
# PCOD9168185 Si02
#       8
#     4   4   4   4   4   4   4   4
#     4   9  18  33  54  81 113 149 189 237 290 344
#     4   9  20  39  59  83 117 153 193 244 297 346
#     4  12  25  40  61  87 116 155 199 242 294 356
#     4  12  24  40  61  86 120 157 195 242 292 345
#     4  11  23  38  59  86 119 154 194 247 296 347
#     4   9  19  39  64  85 115 156 196 243 294 347
#     4   8  17  36  59  83 114 153 194 236 288 345
#     4  10  21  38  60  87 119 157 198 239 290 347
#
# _framework density 19.753086
#
# number of rings (size 3 to 8) (size 9 to 14) (size 15 to 20)
#    0.000    2.000    1.250    4.125    1.750    2.500 
#    0.000    2.500    0.000    0.000    0.000    0.000 
#    0.000    0.000    0.000    0.000    0.000    0.000 
#
# Total GULP energy -178599.228899 kJ/mol
# GULP energy per Si atom -5581.225903 kJ/mol
# Density = 1.970813 g / cm^3
# Si number density = 19.753086 Si / 1000 Ang^3
#
#
#
# Elastic Constant Matrix: (Units=GPa)
#
#
# Indices 1 2 3 4 5 6 
#
# 1 38.2975 17.5134 5.7746 0.0000 28.3638 0.0000
# 2 17.5134 70.1337 21.1487 0.0000 11.0300 0.0000
# 3 5.7746 21.1487 93.4173 0.0000 20.9829 0.0000
# 4 0.0000 0.0000 0.0000 34.3751 0.0000 4.1765
# 5 28.3638 11.0300 20.9829 0.0000 36.6458 0.0000
# 6 0.0000 0.0000 0.0000 4.1765 0.0000 19.8825
#
#
#
# Elastic Compliance Matrix: (Units=1/GPa)
#
#
# Indices 1 2 3 4 5 6 
#
# 1 0.076041 -0.012909 0.012129 0.000000 -0.061915 0.000000
# 2 -0.012909 0.017789 -0.004901 0.000000 0.007443 0.000000
# 3 0.012129 -0.004901 0.014737 0.000000 -0.016351 0.000000
# 4 0.000000 0.000000 0.000000 0.029853 0.000000 -0.006271
# 5 -0.061915 0.007443 -0.016351 0.000000 0.082332 0.000000
# 6 0.000000 0.000000 0.000000 -0.006271 0.000000 0.051613
#
#
# Mechanical properties :
#
#
# Convention : Reuss Voigt Hill
#
# Bulk Modulus (GPa) = 10.28747 32.30243 21.29495
# Shear Modulus (GPa) = 15.81633 28.67479 22.24556
#
# Velocity S-wave (km/s) = 2.83274 3.81420 3.35950
# Velocity P-wave (km/s) = 3.98980 5.98215 5.08452
#
# Compressibility (1/GPa) = 0.09720567
#
# Stress axis : x y z
#
# Youngs Moduli (GPa) = 13.15078 56.21352 67.85585
#
# Poissons Ratio (x) = 0.72564 -0.82302
# Poissons Ratio (y) = 0.16976 0.33258
# Poissons Ratio (z) = -0.15950 0.27551
#
# Static dielectric constant tensor:
#      x y z
#    x 1.688020 0.000000 -0.025680 
#    y 0.000000 1.651830 0.000000 
#    z -0.025680 0.000000 1.757470 
# 
# From -- ./inp_files/51748.got.cif
#   From: 2010.05.17/outbox.ucp.g08.bks.cvg/sg11_26_cif.got.tgz:51748.got - 2010.06.11 11:38:39.
