data_PCOD9168504
_publ_section_title
;
Structure prediction by ZEFSAII (Michael W. Deem and Ramdas Pophale) SiO2 
 PCOD9168504
Probable space group: C 2/M
;
_chemical_formula_sum "Si O2"
_cell_formula_units_Z 56
_cell_length_a 20.290227
_cell_length_b 8.733886
_cell_length_c 19.732140
_cell_angle_alpha 90.000000
_cell_angle_beta 67.710658
_cell_angle_gamma 90.000000
_cell_volume 3235.503865
_symmetry_space_group_name_H-M "C 2/M"
_symmetry_group_IT_number 12
_symmetry_cell_setting 'monoclinic'
loop_
_space_group_symop_operation_xyz
x,y,z
-x,y,-z
-x,-y,-z
x,-y,z
1/2+x,1/2+y,z
1/2-x,1/2+y,-z
1/2-x,1/2-y,-z
1/2+x,1/2-y,z
loop_
_atom_site_type_symbol
_atom_site_label
_atom_site_fract_x
_atom_site_fract_y
_atom_site_fract_z
Si Si1 0.324975 0.817555 0.999646
Si Si2 0.443166 0.317368 0.688569
Si Si3 0.795856 0.818916 0.542837
Si Si4 0.877928 0.817104 0.852090
Si Si5 0.294634 0.183371 0.689159
Si Si6 0.052045 0.678830 0.544272
Si Si7 0.730242 0.682407 0.851584
O O1 0.383773 0.750955 0.925152
O O2 0.323011 0.000000 0.996735
O O3 0.250000 0.750000 0.000000
O O4 0.326476 0.762348 0.076872
O O5 0.447474 0.500000 0.676795
O O6 0.437116 0.287592 0.771693
O O7 0.369595 0.258073 0.683265
O O8 0.508123 0.235133 0.626349
O O9 0.750000 0.750000 0.500000
O O10 0.775977 0.744084 0.622563
O O11 0.877854 0.776569 0.496375
O O12 0.786608 0.000000 0.550221
O O13 0.807152 0.739316 0.848550
O O14 0.867008 0.000000 0.860581
O O15 0.235397 0.218397 0.769780
O O16 0.304638 0.000000 0.683945
O O17 0.071444 0.500000 0.542827
O O18 0.000000 0.694624 0.500000
O O19 0.724892 0.500000 0.862251
#
# Coordination Sequence:
#
# PCOD9168504 Si02
#       7
#     8   8   8   8   8   8   8
#     4  10  16  22  34  53  82 120 160 197 240 294
#     4  10  19  30  48  73  98 130 170 211 255 301
#     4  12  25  40  58  77 104 136 172 215 262 312
#     4   9  16  25  37  57  88 122 159 200 244 295
#     4  10  19  32  49  71  98 129 168 210 256 305
#     4  11  22  36  56  79 105 135 172 215 258 309
#     4   9  16  25  39  58  85 121 159 200 243 293
#
# _framework density 17.307969
#
# number of rings (size 3 to 8) (size 9 to 14) (size 15 to 20)
#    0.000    1.857    1.429    6.429    0.000    4.000 
#    0.000    0.000    0.000    0.000    0.000    0.000 
#    0.000    1.143    0.000   12.000    0.000    6.571 
#
# Total GULP energy -156121.211021 kJ/mol
# GULP energy per Si atom -5575.757536 kJ/mol
# Density = 1.726858 g / cm^3
# Si number density = 17.307969 Si / 1000 Ang^3
#
#
#
# Elastic Constant Matrix: (Units=GPa)
#
#
# Indices 1 2 3 4 5 6 
#
# 1 18.0022 4.1412 13.3156 0.0000 9.9882 0.0000
# 2 4.1412 61.9621 30.9442 0.0000 4.1808 0.0000
# 3 13.3156 30.9442 151.8328 0.0000 16.0520 0.0000
# 4 0.0000 0.0000 0.0000 26.8149 0.0000 0.7048
# 5 9.9882 4.1808 16.0520 0.0000 10.9615 0.0000
# 6 0.0000 0.0000 0.0000 0.7048 0.0000 15.8622
#
#
#
# Elastic Compliance Matrix: (Units=1/GPa)
#
#
# Indices 1 2 3 4 5 6 
#
# 1 0.112598 -0.001186 0.001380 0.000000 -0.104169 0.000000
# 2 -0.001186 0.018009 -0.003496 0.000000 -0.000669 0.000000
# 3 0.001380 -0.003496 0.008483 0.000000 -0.012347 0.000000
# 4 0.000000 0.000000 0.000000 0.037336 0.000000 -0.001659
# 5 -0.104169 -0.000669 -0.012347 0.000000 0.204485 0.000000
# 6 0.000000 0.000000 0.000000 -0.001659 0.000000 0.063117
#
#
# Mechanical properties :
#
#
# Convention : Reuss Voigt Hill
#
# Bulk Modulus (GPa) = 7.54793 36.51102 22.02948
# Shear Modulus (GPa) = 10.10524 22.95411 16.52967
#
# Velocity S-wave (km/s) = 2.41892 3.64568 3.09371
# Velocity P-wave (km/s) = 3.48884 6.23394 5.05143
#
# Compressibility (1/GPa) = 0.13248664
#
# Stress axis : x y z
#
# Youngs Moduli (GPa) = 8.88117 55.52773 117.88438
#
# Poissons Ratio (x) = 0.06585 -0.16267
# Poissons Ratio (y) = 0.01053 0.41207
# Poissons Ratio (z) = -0.01226 0.19410
#
# Static dielectric constant tensor:
#      x y z
#    x 1.552690 0.000000 0.011860 
#    y 0.000000 1.574200 0.000000 
#    z 0.011860 0.000000 1.667350 
# 
# From -- ./inp_files/319027.got.cif
#   From: 2010.05.17/outbox.cif.g08.bks.cpg/sg12_160_cif.got.tgz:319027.got - 2010.06.03 13:09:07.
