data_PCOD9168661
_publ_section_title
;
Structure prediction by ZEFSAII (Michael W. Deem and Ramdas Pophale) SiO2 
 PCOD9168661
Probable space group: C 2/M
;
_chemical_formula_sum "Si O2"
_cell_formula_units_Z 44
_cell_length_a 13.581984
_cell_length_b 20.655223
_cell_length_c 17.876374
_cell_angle_alpha 90.000000
_cell_angle_beta 36.707222
_cell_angle_gamma 90.000000
_cell_volume 2997.607940
_symmetry_space_group_name_H-M "C 2/M"
_symmetry_group_IT_number 12
_symmetry_cell_setting 'monoclinic'
loop_
_space_group_symop_operation_xyz
x,y,z
-x,y,-z
-x,-y,-z
x,-y,z
1/2+x,1/2+y,z
1/2-x,1/2+y,-z
1/2-x,1/2-y,-z
1/2+x,1/2-y,z
loop_
_atom_site_type_symbol
_atom_site_label
_atom_site_fract_x
_atom_site_fract_y
_atom_site_fract_z
Si Si1 0.680178 0.725289 0.121309
Si Si2 0.453566 0.179850 0.352851
Si Si3 0.613409 0.322149 0.781995
Si Si4 0.343770 0.723268 0.552074
Si Si5 0.000000 0.748690 0.000000
Si Si6 0.386071 0.075494 0.643228
O O1 0.588104 0.783819 0.219972
O O2 0.537734 0.674787 0.184916
O O3 0.839367 0.707820 0.073601
O O4 0.750000 0.750000 0.000000
O O5 0.412317 0.228958 0.445947
O O6 0.285562 0.174881 0.407595
O O7 0.523862 0.114765 0.345464
O O8 0.739375 0.268942 0.671461
O O9 0.715358 0.387369 0.731274
O O10 0.549242 0.293886 0.899817
O O11 0.500000 0.694624 0.500000
O O12 0.500000 0.081630 0.500000
O O13 0.363845 0.000000 0.673265
#
# Coordination Sequence:
#
# PCOD9168661 Si02
#       6
#     8   8   8   8   4   8
#     4   9  18  26  45  65  93 121 143 192 236 280
#     4  10  17  28  45  67  93 121 153 188 237 286
#     4  10  17  29  42  68  93 120 154 182 232 276
#     4  10  16  26  46  69  94 115 145 197 240 278
#     4  10  16  28  45  64  97 120 142 192 238 274
#     4  11  20  32  48  67  97 129 157 191 225 277
#
# _framework density 14.678371
#
# number of rings (size 3 to 8) (size 9 to 14) (size 15 to 20)
#    0.000    2.000    5.455    0.000    0.000    0.000 
#    0.000    0.455    0.000    0.545    0.000    0.636 
#    0.000    0.000    0.000    2.182    0.000    0.000 
#
# Total GULP energy -122482.671886 kJ/mol
# GULP energy per Si atom -5567.394177 kJ/mol
# Density = 1.464496 g / cm^3
# Si number density = 14.678371 Si / 1000 Ang^3
#
#
#
# Elastic Constant Matrix: (Units=GPa)
#
#
# Indices 1 2 3 4 5 6 
#
# 1 158.4223 55.7052 30.0779 -0.0016 -36.0374 0.0009
# 2 55.7052 82.0076 26.9369 -0.0011 -8.5582 0.0008
# 3 30.0779 26.9369 87.2310 -0.0015 5.7386 0.0017
# 4 -0.0016 -0.0011 -0.0015 8.1598 0.0015 0.3328
# 5 -36.0374 -8.5582 5.7386 0.0015 36.7630 -0.0009
# 6 0.0009 0.0008 0.0017 0.3328 -0.0009 17.0141
#
#
#
# Elastic Compliance Matrix: (Units=1/GPa)
#
#
# Indices 1 2 3 4 5 6 
#
# 1 0.011062 -0.005570 -0.002751 -0.000001 0.009977 0.000000
# 2 -0.005570 0.016937 -0.003243 0.000001 -0.001011 0.000000
# 3 -0.002751 -0.003243 0.013782 0.000003 -0.005603 -0.000001
# 4 -0.000001 0.000001 0.000003 0.122650 -0.000006 -0.002399
# 5 0.009977 -0.001011 -0.005603 -0.000006 0.037621 0.000002
# 6 0.000000 0.000000 -0.000001 -0.002399 0.000002 0.058822
#
#
# Mechanical properties :
#
#
# Convention : Reuss Voigt Hill
#
# Bulk Modulus (GPa) = 53.60622 61.45565 57.53094
# Shear Modulus (GPa) = 17.22832 26.71677 21.97255
#
# Velocity S-wave (km/s) = 3.42968 4.27094 3.87322
# Velocity P-wave (km/s) = 7.23073 8.14127 7.69947
#
# Compressibility (1/GPa) = 0.01865455
#
# Stress axis : x y z
#
# Youngs Moduli (GPa) = 90.39581 59.04196 72.55611
#
# Poissons Ratio (x) = 0.32884 0.19959
# Poissons Ratio (y) = 0.50347 0.23532
# Poissons Ratio (z) = 0.24867 0.19149
#
# Static dielectric constant tensor:
#      x y z
#    x 1.546850 0.000000 -0.019840 
#    y 0.000000 1.427070 0.000000 
#    z -0.019840 0.000000 1.509680 
# 
# From -- ./inp_files/134287.got.cif
#   From: 2010.05.17/outbox.cif.g08.bks.cpg/sg12_68_cif.got.tgz:134287.got - 2010.06.03 13:09:07.
