data_PCOD9168673
_publ_section_title
;
Structure prediction by ZEFSAII (Michael W. Deem and Ramdas Pophale) SiO2 
 PCOD9168673
Probable space group: C 2/M
;
_chemical_formula_sum "Si O2"
_cell_formula_units_Z 40
_cell_length_a 8.369667
_cell_length_b 28.448241
_cell_length_c 9.769800
_cell_angle_alpha 90.000000
_cell_angle_beta 135.900669
_cell_angle_gamma 90.000000
_cell_volume 1618.821115
_symmetry_space_group_name_H-M "C 2/M"
_symmetry_group_IT_number 12
_symmetry_cell_setting 'monoclinic'
loop_
_space_group_symop_operation_xyz
x,y,z
-x,y,-z
-x,-y,-z
x,-y,z
1/2+x,1/2+y,z
1/2-x,1/2+y,-z
1/2-x,1/2-y,-z
1/2+x,1/2-y,z
loop_
_atom_site_type_symbol
_atom_site_label
_atom_site_fract_x
_atom_site_fract_y
_atom_site_fract_z
Si Si1 0.809294 0.555106 0.760393
Si Si2 0.768325 0.691488 0.268748
Si Si3 0.166313 0.404399 0.798434
Si Si4 0.961545 0.055716 0.763310
Si Si5 0.485954 0.719019 0.643322
O O1 0.792601 0.500000 0.711641
O O2 0.573633 0.570241 0.688298
O O3 0.916126 0.584044 0.701687
O O4 0.000000 0.557813 0.000000
O O5 0.775504 0.650458 0.163459
O O6 0.558147 0.689478 0.247258
O O7 0.000000 0.683198 0.500000
O O8 0.806966 0.743116 0.227016
O O9 0.240229 0.420246 0.692310
O O10 0.337222 0.432769 0.003399
O O11 0.925411 0.000000 0.736351
O O12 0.500000 0.696246 0.500000
O O13 0.250000 0.750000 0.500000
#
# Coordination Sequence:
#
# PCOD9168673 Si02
#       5
#     8   8   8   8   8
#     4   8  14  26  44  66  90 118 151 186 221 257
#     4   9  17  30  47  70  89 114 152 185 233 273
#     4  10  16  26  47  73  92 112 152 198 218 257
#     4   9  17  30  48  69  92 125 157 180 221 266
#     4   7  13  29  47  61  82 116 147 182 220 273
#
# _framework density 24.709337999999999
#
# number of rings (size 3 to 8) (size 9 to 14) (size 15 to 20)
#    0.000    3.800    0.000    3.600    0.000    0.000 
#   10.800    0.000    0.000   10.200    0.000    2.800 
#    0.000    0.000    0.000    0.000    0.000    0.000 
#
# Total GULP energy -111607.656395 kJ/mol
# GULP energy per Si atom -5580.382820 kJ/mol
# Density = 2.465310 g / cm^3
# Si number density = 24.709338 Si / 1000 Ang^3
#
#
#
# Elastic Constant Matrix: (Units=GPa)
#
#
# Indices 1 2 3 4 5 6 
#
# 1 240.6322 75.2060 57.9180 0.0000 -56.2191 0.0000
# 2 75.2060 66.0710 20.1342 0.0000 -27.7491 0.0000
# 3 57.9180 20.1342 79.6404 0.0000 -9.5782 0.0000
# 4 0.0000 0.0000 0.0000 -30.4702 0.0000 1.7022
# 5 -56.2191 -27.7491 -9.5782 0.0000 49.7323 0.0000
# 6 0.0000 0.0000 0.0000 1.7022 0.0000 22.8923
#
#
#
# Elastic Compliance Matrix: (Units=1/GPa)
#
#
# Indices 1 2 3 4 5 6 
#
# 1 0.008123 -0.005931 -0.003789 0.000000 0.005143 0.000000
# 2 -0.005931 0.025262 -0.001212 0.000000 0.007157 0.000000
# 3 -0.003789 -0.001212 0.015378 0.000000 -0.001998 0.000000
# 4 0.000000 0.000000 0.000000 -0.032683 0.000000 0.002430
# 5 0.005143 0.007157 -0.001998 0.000000 0.029530 0.000000
# 6 0.000000 0.000000 0.000000 0.002430 0.000000 0.043502
#
#
# Mechanical properties :
#
#
# Convention : Reuss Voigt Hill
#
# Bulk Modulus (GPa) = 37.17829 76.98443 57.08136
# Shear Modulus (GPa) = 41.68579 23.96991 32.82785
#
# Velocity S-wave (km/s) = 4.11182 3.11798 3.64890
# Velocity P-wave (km/s) = 6.13365 6.64726 6.39561
#
# Compressibility (1/GPa) = 0.02689742
#
# Stress axis : x y z
#
# Youngs Moduli (GPa) = 123.10362 39.58524 65.02616
#
# Poissons Ratio (x) = 0.23480 0.24641
# Poissons Ratio (y) = 0.73018 0.07883
# Poissons Ratio (z) = 0.46649 0.04799
#
# Static dielectric constant tensor:
#      x y z
#    x 1.942910 0.000000 -0.053250 
#    y 0.000000 1.953940 0.000000 
#    z -0.053250 0.000000 2.044610 
# 
# From -- ./inp_files/121408.got.cif
#   From: 2010.05.17/outbox.cif.g08.bks.cpg/sg12_61_cif.got.tgz:121408.got - 2010.06.03 13:09:07.
