data_PCOD9168615
_publ_section_title
;
Structure prediction by ZEFSAII (Michael W. Deem and Ramdas Pophale) SiO2 
 PCOD9168615
Probable space group: C 2/M
;
_chemical_formula_sum "Si O2"
_cell_formula_units_Z 48
_cell_length_a 20.019372
_cell_length_b 18.081248
_cell_length_c 8.211139
_cell_angle_alpha 90.000000
_cell_angle_beta 121.483156
_cell_angle_gamma 90.000000
_cell_volume 2534.698203
_symmetry_space_group_name_H-M "C 2/M"
_symmetry_group_IT_number 12
_symmetry_cell_setting 'monoclinic'
loop_
_space_group_symop_operation_xyz
x,y,z
-x,y,-z
-x,-y,-z
x,-y,z
1/2+x,1/2+y,z
1/2-x,1/2+y,-z
1/2-x,1/2-y,-z
1/2+x,1/2-y,z
loop_
_atom_site_type_symbol
_atom_site_label
_atom_site_fract_x
_atom_site_fract_y
_atom_site_fract_z
Si Si1 0.286257 0.085270 0.448119
Si Si2 0.289651 0.291168 0.200026
Si Si3 0.193212 0.583523 0.133741
Si Si4 0.905527 0.286835 0.532216
Si Si5 0.945783 0.302787 0.088668
Si Si6 0.163688 0.791914 0.236684
O O1 0.300593 0.084082 0.661596
O O2 0.355648 0.136949 0.465180
O O3 0.204819 0.128646 0.306326
O O4 0.286450 0.000000 0.392381
O O5 0.271666 0.377302 0.166740
O O6 0.375868 0.262519 0.344403
O O7 0.236270 0.261942 0.283343
O O8 0.250000 0.250000 0.000000
O O9 0.183863 0.500000 0.066510
O O10 0.120891 0.634726 0.986611
O O11 0.876707 0.238267 0.651971
O O12 0.995554 0.301670 0.685541
O O13 0.900740 0.226318 0.984714
O O14 0.000000 0.321149 0.000000
#
# Coordination Sequence:
#
# PCOD9168615 Si02
#       6
#     8   8   8   8   8   8
#     4  10  16  25  46  69  93 120 149 190 233 265
#     4  10  18  31  49  66  87 126 163 190 221 269
#     4  10  18  29  45  71  99 120 151 191 234 274
#     4  10  16  31  47  70  94 118 157 189 225 273
#     4   9  16  26  47  70  94 126 148 187 229 275
#     4   9  16  31  45  65  93 117 156 191 223 266
#
# _framework density 18.937163999999999
#
# number of rings (size 3 to 8) (size 9 to 14) (size 15 to 20)
#    0.000    2.333    6.667    1.000    0.000    1.000 
#    0.000    6.667    0.000    6.500    0.000    0.000 
#    0.000   10.667    0.000    0.000    0.000    0.000 
#
# Total GULP energy -133705.239581 kJ/mol
# GULP energy per Si atom -5571.051649 kJ/mol
# Density = 1.889406 g / cm^3
# Si number density = 18.937164 Si / 1000 Ang^3
#
#
#
# Elastic Constant Matrix: (Units=GPa)
#
#
# Indices 1 2 3 4 5 6 
#
# 1 38.4059 53.6276 9.5154 0.0000 7.5802 0.0000
# 2 53.6276 122.7934 71.6101 0.0000 50.2148 0.0000
# 3 9.5154 71.6101 122.0193 0.0000 25.5531 0.0000
# 4 0.0000 0.0000 0.0000 19.3820 0.0000 7.1784
# 5 7.5802 50.2148 25.5531 0.0000 22.7481 0.0000
# 6 0.0000 0.0000 0.0000 7.1784 0.0000 14.7362
#
#
#
# Elastic Compliance Matrix: (Units=1/GPa)
#
#
# Indices 1 2 3 4 5 6 
#
# 1 -0.009381 0.036385 -0.005827 0.000000 -0.070646 0.000000
# 2 0.036385 -0.035531 0.005399 0.000000 0.060243 0.000000
# 3 -0.005827 0.005399 0.009899 0.000000 -0.021095 0.000000
# 4 0.000000 0.000000 0.000000 0.062951 0.000000 -0.030665
# 5 -0.070646 0.060243 -0.021095 0.000000 -0.041785 0.000000
# 6 0.000000 0.000000 0.000000 -0.030665 0.000000 0.082798
#
#
# Mechanical properties :
#
#
# Convention : Reuss Voigt Hill
#
# Bulk Modulus (GPa) = 27.10011 61.41389 44.25700
# Shear Modulus (GPa) = 535.40960 21.27098 278.34029
#
# Velocity S-wave (km/s) = 16.83281 3.35511 12.13672
# Velocity P-wave (km/s) = 19.80234 6.89274 14.82637
#
# Compressibility (1/GPa) = 0.03690022
#
# Stress axis : x y z
#
# Youngs Moduli (GPa) = -106.59723 -28.14467 101.01758
#
# Poissons Ratio (x) = 1.02405 0.58867
# Poissons Ratio (y) = 3.87855 -0.54536
# Poissons Ratio (z) = -0.62119 0.15194
#
# Static dielectric constant tensor:
#      x y z
#    x 1.717220 0.000000 -0.021190 
#    y 0.000000 1.663510 0.000000 
#    z -0.021190 0.000000 1.736510 
# 
# From -- ./inp_files/74549.got.cif
#   From: 2010.05.17/outbox.cif.g08.bks.cpg/sg12_38_cif.got.tgz:74549.got - 2010.06.03 13:09:07.
