data_PCOD9168126
_publ_section_title
;
Structure prediction by ZEFSAII (Michael W. Deem and Ramdas Pophale) SiO2 
 PCOD9168126
Probable space group: P 21/M
;
_chemical_formula_sum "Si O2"
_cell_formula_units_Z 28
_cell_length_a 24.000000
_cell_length_b 9.000000
_cell_length_c 21.000000
_cell_angle_alpha 90.000000
_cell_angle_beta 20.000000
_cell_angle_gamma 90.000000
_cell_volume 1551.403370
_symmetry_space_group_name_H-M "P 21/M"
_symmetry_group_IT_number 11
_symmetry_cell_setting 'monoclinic'
loop_
_space_group_symop_operation_xyz
x,y,z
-x,1/2+y,-z
-x,-y,-z
x,1/2-y,z
loop_
_atom_site_type_symbol
_atom_site_label
_atom_site_fract_x
_atom_site_fract_y
_atom_site_fract_z
Si Si1 0.264143 0.929366 0.075968
Si Si2 0.325738 0.425226 0.876987
Si Si3 0.466276 0.069156 0.105785
Si Si4 0.996949 0.577279 0.201248
Si Si5 0.117921 0.425666 0.821269
Si Si6 0.539328 0.427698 0.525872
Si Si7 0.885836 0.927336 0.458592
O O1 0.261512 0.750000 0.075933
O O2 0.069555 0.978039 0.284994
O O3 0.384819 0.970668 0.005094
O O4 0.343247 0.991498 0.925665
O O5 0.352320 0.250000 0.857772
O O6 0.431676 0.475578 0.702442
O O7 0.142466 0.462585 0.053383
O O8 0.465111 0.250000 0.103051
O O9 0.284789 0.020522 0.326182
O O10 0.500000 0.000000 0.000000
O O11 0.053681 0.750000 0.148550
O O12 0.934952 0.564953 0.195902
O O13 0.880939 0.549113 0.386972
O O14 0.138499 0.250000 0.813948
O O15 0.281567 0.518098 0.650872
O O16 0.000000 0.500000 0.000000
O O17 0.500000 0.500000 0.500000
O O18 0.525547 0.250000 0.534905
O O19 0.887383 0.750000 0.467341
#
# Coordination Sequence:
#
# PCOD9168126 Si02
#       7
#     4   4   4   4   4   4   4
#     4   9  19  36  59  82 109 150 193 230 280 346
#     4  10  21  36  56  83 113 143 180 236 294 334
#     4  10  21  36  57  83 114 149 186 234 285 340
#     4   9  19  36  58  81 106 143 189 230 277 343
#     4  11  23  37  57  82 111 149 191 237 289 344
#     4  11  24  39  55  79 112 150 192 238 290 347
#     4   8  16  34  56  80 109 142 187 234 273 331
#
# _framework density 18.048175000000001
#
# number of rings (size 3 to 8) (size 9 to 14) (size 15 to 20)
#    0.000    2.286    0.000    3.000    2.000    6.857 
#    0.000    2.857    0.000    0.000    0.000    0.000 
#    0.000    0.000    0.000    0.000    0.000    0.000 
#
# Total GULP energy -155946.820274 kJ/mol
# GULP energy per Si atom -5569.529295 kJ/mol
# Density = 1.800710 g / cm^3
# Si number density = 18.048175 Si / 1000 Ang^3
#
#
#
# Elastic Constant Matrix: (Units=GPa)
#
#
# Indices 1 2 3 4 5 6 
#
# 1 144.9936 25.6346 65.6502 0.0000 11.9001 0.0000
# 2 25.6346 18.2712 17.4840 0.0000 7.8845 0.0000
# 3 65.6502 17.4840 144.8622 0.0000 26.3917 0.0000
# 4 0.0000 0.0000 0.0000 25.8946 0.0000 6.0789
# 5 11.9001 7.8845 26.3917 0.0000 29.3811 0.0000
# 6 0.0000 0.0000 0.0000 6.0789 0.0000 33.7228
#
#
#
# Elastic Compliance Matrix: (Units=1/GPa)
#
#
# Indices 1 2 3 4 5 6 
#
# 1 0.010564 -0.012267 -0.003739 0.000000 0.002372 0.000000
# 2 -0.012267 0.079765 -0.001283 0.000000 -0.015284 0.000000
# 3 -0.003739 -0.001283 0.010060 0.000000 -0.007178 0.000000
# 4 0.000000 0.000000 0.000000 0.040324 0.000000 -0.007269
# 5 0.002372 -0.015284 -0.007178 0.000000 0.043624 0.000000
# 6 0.000000 0.000000 0.000000 -0.007269 0.000000 0.030964
#
#
# Mechanical properties :
#
#
# Convention : Reuss Voigt Hill
#
# Bulk Modulus (GPa) = 15.19511 58.40717 36.80114
# Shear Modulus (GPa) = 18.39473 31.09023 24.74248
#
# Velocity S-wave (km/s) = 3.19596 4.15495 3.70660
# Velocity P-wave (km/s) = 4.69642 7.44649 6.22521
#
# Compressibility (1/GPa) = 0.06581064
#
# Stress axis : x y z
#
# Youngs Moduli (GPa) = 94.66206 12.53681 99.40160
#
# Poissons Ratio (x) = 0.15379 0.37167
# Poissons Ratio (y) = 1.16120 0.12758
# Poissons Ratio (z) = 0.35394 0.01609
#
# Static dielectric constant tensor:
#      x y z
#    x 1.660260 0.000000 0.050450 
#    y 0.000000 1.609500 0.000000 
#    z 0.050450 0.000000 1.708370 
# 
# From -- ./inp_files/66671.got.cif
#   From: 2010.05.17/outbox.ucp.g08.bks.cvg/sg11_34_cif.got.tgz:66671.got - 2010.06.11 11:38:39.
