data_PCOD9168177
_publ_section_title
;
Structure prediction by ZEFSAII (Michael W. Deem and Ramdas Pophale) SiO2 
 PCOD9168177
Probable space group: P 21/M
;
_chemical_formula_sum "Si O2"
_cell_formula_units_Z 28
_cell_length_a 12.000000
_cell_length_b 9.000000
_cell_length_c 15.000000
_cell_angle_alpha 90.000000
_cell_angle_beta 120.000000
_cell_angle_gamma 90.000000
_cell_volume 1402.961154
_symmetry_space_group_name_H-M "P 21/M"
_symmetry_group_IT_number 11
_symmetry_cell_setting 'monoclinic'
loop_
_space_group_symop_operation_xyz
x,y,z
-x,1/2+y,-z
-x,-y,-z
x,1/2-y,z
loop_
_atom_site_type_symbol
_atom_site_label
_atom_site_fract_x
_atom_site_fract_y
_atom_site_fract_z
Si Si1 0.931308 0.428297 0.553231
Si Si2 0.903741 0.927527 0.030580
Si Si3 0.407290 0.929660 0.887126
Si Si4 0.665208 0.072532 0.498705
Si Si5 0.633107 0.570297 0.857996
Si Si6 0.376061 0.428664 0.341591
Si Si7 0.875239 0.928555 0.215698
O O1 0.931572 0.250000 0.551089
O O2 0.783968 0.477744 0.488624
O O3 0.000000 0.500000 0.500000
O O4 0.016704 0.473483 0.671297
O O5 0.905223 0.750000 0.016939
O O6 0.937182 0.961021 0.144911
O O7 0.754691 0.978988 0.963874
O O8 0.000000 0.000000 0.000000
O O9 0.403207 0.750000 0.894623
O O10 0.491031 0.971301 0.832912
O O11 0.263596 0.993924 0.828663
O O12 0.500000 0.000000 0.000000
O O13 0.661769 0.250000 0.500970
O O14 0.525499 0.024999 0.411087
O O15 0.694347 0.009029 0.607357
O O16 0.631220 0.750000 0.859219
O O17 0.666658 0.523871 0.772153
O O18 0.367360 0.250000 0.346663
O O19 0.852746 0.750000 0.211546
#
# Coordination Sequence:
#
# PCOD9168177 Si02
#       7
#     4   4   4   4   4   4   4
#     4  10  23  40  59  83 115 153 194 240 289 343
#     4  10  21  38  57  81 116 151 188 231 284 343
#     4  11  21  37  61  85 114 150 191 233 281 340
#     4   9  19  36  56  79 109 144 183 228 286 341
#     4   9  19  35  56  81 109 143 180 230 284 331
#     4   9  18  34  57  81 106 139 183 232 280 335
#     4  10  22  41  59  82 119 156 190 241 296 340
#
# _framework density 19.957787
#
# number of rings (size 3 to 8) (size 9 to 14) (size 15 to 20)
#    0.000    2.286    1.429    0.429    4.000    1.714 
#    0.000    1.429    0.000    0.000    0.000    0.000 
#    0.000    0.000    0.000    0.000    0.000    0.000 
#
# Total GULP energy -155902.206344 kJ/mol
# GULP energy per Si atom -5567.935941 kJ/mol
# Density = 1.991236 g / cm^3
# Si number density = 19.957787 Si / 1000 Ang^3
#
#
#
# Elastic Constant Matrix: (Units=GPa)
#
#
# Indices 1 2 3 4 5 6 
#
# 1 71.3278 2.1912 -15.4502 0.0000 -5.6088 0.0000
# 2 2.1912 -15.6904 -5.1176 0.0000 6.5676 0.0000
# 3 -15.4502 -5.1176 38.9765 0.0000 -8.3591 0.0000
# 4 0.0000 0.0000 0.0000 17.7728 0.0000 -0.7958
# 5 -5.6088 6.5676 -8.3591 0.0000 15.8145 0.0000
# 6 0.0000 0.0000 0.0000 -0.7958 0.0000 31.1850
#
#
#
# Elastic Compliance Matrix: (Units=1/GPa)
#
#
# Indices 1 2 3 4 5 6 
#
# 1 0.016599 0.003270 0.009001 0.000000 0.009287 0.000000
# 2 0.003270 -0.053421 -0.000802 0.000000 0.022921 0.000000
# 3 0.009001 -0.000802 0.033695 0.000000 0.021336 0.000000
# 4 0.000000 0.000000 0.000000 0.056330 0.000000 0.001437
# 5 0.009287 0.022921 0.021336 0.000000 0.068286 0.000000
# 6 0.000000 0.000000 0.000000 0.001437 0.000000 0.032103
#
#
# Mechanical properties :
#
#
# Convention : Reuss Voigt Hill
#
# Bulk Modulus (GPa) = 50.48117 6.42895 28.45506
# Shear Modulus (GPa) = 36.42742 20.48715 28.45729
#
# Velocity S-wave (km/s) = 4.27690 3.20742 3.78017
# Velocity P-wave (km/s) = 7.05252 4.11643 5.77421
#
# Compressibility (1/GPa) = 0.01980937
#
# Stress axis : x y z
#
# Youngs Moduli (GPa) = 60.24350 -18.71925 29.67817
#
# Poissons Ratio (x) = 0.06120 -0.26713
# Poissons Ratio (y) = -0.19697 0.02382
# Poissons Ratio (z) = -0.54225 -0.01502
#
# Static dielectric constant tensor:
#      x y z
#    x 1.747200 0.000000 -0.048960 
#    y 0.000000 1.682070 0.000000 
#    z -0.048960 0.000000 1.735340 
# 
# From -- ./inp_files/37663.got.cif
#   From: 2010.05.17/outbox.ucp.g08.bks.cvg/sg11_19_cif.got.tgz:37663.got - 2010.06.11 11:38:39.
