data_PCOD9168099
_publ_section_title
;
Structure prediction by ZEFSAII (Michael W. Deem and Ramdas Pophale) SiO2 
 PCOD9168099
Probable space group: P 21/M
;
_chemical_formula_sum "Si O2"
_cell_formula_units_Z 32
_cell_length_a 12.000000
_cell_length_b 18.000000
_cell_length_c 15.000000
_cell_angle_alpha 90.000000
_cell_angle_beta 30.000000
_cell_angle_gamma 90.000000
_cell_volume 1620.000000
_symmetry_space_group_name_H-M "P 21/M"
_symmetry_group_IT_number 11
_symmetry_cell_setting 'monoclinic'
loop_
_space_group_symop_operation_xyz
x,y,z
-x,1/2+y,-z
-x,-y,-z
x,1/2-y,z
loop_
_atom_site_type_symbol
_atom_site_label
_atom_site_fract_x
_atom_site_fract_y
_atom_site_fract_z
Si Si1 0.053015 0.591184 0.269954
Si Si2 0.395234 0.339845 0.901166
Si Si3 0.200542 0.338388 0.841940
Si Si4 0.122670 0.916998 0.423466
Si Si5 0.037865 0.414702 0.271466
Si Si6 0.234215 0.838949 0.970745
Si Si7 0.573035 0.660888 0.589356
Si Si8 0.588484 0.082324 0.464549
O O1 0.803060 0.616947 0.417932
O O2 0.081436 0.615927 0.353112
O O3 0.091006 0.502805 0.239626
O O4 0.207220 0.626637 0.086903
O O5 0.450169 0.250000 0.868772
O O6 0.243614 0.349916 0.917053
O O7 0.612976 0.394662 0.746247
O O8 0.238009 0.367520 0.090542
O O9 0.221336 0.250000 0.811527
O O10 0.398428 0.381066 0.656530
O O11 0.969882 0.361809 0.953814
O O12 0.017646 0.888580 0.589273
O O13 0.000000 0.000000 0.500000
O O14 0.818391 0.413287 0.360062
O O15 0.222645 0.750000 0.986898
O O16 0.461826 0.857154 0.761449
O O17 0.605585 0.750000 0.559369
O O18 0.406737 0.631849 0.628214
O O19 0.500000 0.000000 0.500000
#
# Coordination Sequence:
#
# PCOD9168099 Si02
#       8
#     4   4   4   4   4   4   4   4
#     4  11  23  41  64  91 127 171 216 269 321 387
#     4  11  25  44  69  99 130 169 219 270 325 392
#     4  10  20  38  63  90 128 172 208 262 333 388
#     4  10  25  46  68  92 129 176 219 274 328 383
#     4  11  24  43  67  97 130 170 216 270 331 385
#     4  10  21  38  61  93 130 171 214 266 330 390
#     4  11  23  39  63  93 130 174 213 263 331 396
#     4  12  21  37  65  99 131 168 215 267 325 393
#
# _framework density 19.753086
#
# number of rings (size 3 to 8) (size 9 to 14) (size 15 to 20)
#    0.000    1.250    3.750    1.500    0.000    9.500 
#    0.000    3.750    0.000    0.000    0.000    0.000 
#    0.000    0.000    0.000    0.000    0.000    0.000 
#
# Total GULP energy -178471.225331 kJ/mol
# GULP energy per Si atom -5577.225792 kJ/mol
# Density = 1.970813 g / cm^3
# Si number density = 19.753086 Si / 1000 Ang^3
#
#
#
# Elastic Constant Matrix: (Units=GPa)
#
#
# Indices 1 2 3 4 5 6 
#
# 1 82.5868 11.7024 8.9411 0.0000 31.3951 0.0000
# 2 11.7024 46.7564 30.7313 0.0000 9.2644 0.0000
# 3 8.9411 30.7313 102.6965 0.0000 37.2140 0.0000
# 4 0.0000 0.0000 0.0000 27.5412 0.0000 10.2743
# 5 31.3951 9.2644 37.2140 0.0000 41.2971 0.0000
# 6 0.0000 0.0000 0.0000 10.2743 0.0000 28.0863
#
#
#
# Elastic Compliance Matrix: (Units=1/GPa)
#
#
# Indices 1 2 3 4 5 6 
#
# 1 0.019952 -0.005821 0.007466 0.000000 -0.020590 0.000000
# 2 -0.005821 0.028412 -0.010824 0.000000 0.007805 0.000000
# 3 0.007466 -0.010824 0.020051 0.000000 -0.021316 0.000000
# 4 0.000000 0.000000 0.000000 0.042047 0.000000 -0.015381
# 5 -0.020590 0.007805 -0.021316 0.000000 0.057325 0.000000
# 6 0.000000 0.000000 0.000000 -0.015381 0.000000 0.041231
#
#
# Mechanical properties :
#
#
# Convention : Reuss Voigt Hill
#
# Bulk Modulus (GPa) = 19.97704 37.19882 28.58793
# Shear Modulus (GPa) = 20.48663 31.42926 25.95795
#
# Velocity S-wave (km/s) = 3.22395 3.99319 3.62901
# Velocity P-wave (km/s) = 4.89835 6.33511 5.66248
#
# Compressibility (1/GPa) = 0.05005746
#
# Stress axis : x y z
#
# Youngs Moduli (GPa) = 50.11943 35.19662 49.87401
#
# Poissons Ratio (x) = 0.20489 -0.37237
# Poissons Ratio (y) = 0.29175 0.53981
# Poissons Ratio (z) = -0.37420 0.38095
#
# Static dielectric constant tensor:
#      x y z
#    x 1.727200 0.000000 0.006500 
#    y 0.000000 1.684820 0.000000 
#    z 0.006500 0.000000 1.699450 
# 
# From -- ./inp_files/50638.got.cif
#   From: 2010.05.17/outbox.ucp.g08.bks.cvg/sg11_26_cif.got.tgz:50638.got - 2010.06.11 11:38:39.
