data_PCOD9168086
_publ_section_title
;
Structure prediction by ZEFSAII (Michael W. Deem and Ramdas Pophale) SiO2 
 PCOD9168086
Probable space group: P 21/M
;
_chemical_formula_sum "Si O2"
_cell_formula_units_Z 32
_cell_length_a 12.000000
_cell_length_b 9.000000
_cell_length_c 30.000000
_cell_angle_alpha 90.000000
_cell_angle_beta 30.000000
_cell_angle_gamma 90.000000
_cell_volume 1620.000000
_symmetry_space_group_name_H-M "P 21/M"
_symmetry_group_IT_number 11
_symmetry_cell_setting 'monoclinic'
loop_
_space_group_symop_operation_xyz
x,y,z
-x,1/2+y,-z
-x,-y,-z
x,1/2-y,z
loop_
_atom_site_type_symbol
_atom_site_label
_atom_site_fract_x
_atom_site_fract_y
_atom_site_fract_z
Si Si1 0.277420 0.573545 0.019256
Si Si2 0.433958 0.079218 0.243935
Si Si3 0.989464 0.071163 0.368351
Si Si4 0.830151 0.925069 0.336922
Si Si5 0.390142 0.573104 0.435092
Si Si6 0.935436 0.070235 0.069415
Si Si7 0.267294 0.574635 0.127483
Si Si8 0.768344 0.918591 0.588069
O O1 0.260100 0.750000 0.018555
O O2 0.239847 0.539437 0.084625
O O3 0.100273 0.490979 0.049880
O O4 0.528729 0.518394 0.923203
O O5 0.467153 0.250000 0.217159
O O6 0.241726 0.009150 0.279932
O O7 0.679739 0.018510 0.164660
O O8 0.312512 0.080436 0.333527
O O9 0.003274 0.250000 0.366702
O O10 0.836279 0.020659 0.462496
O O11 0.862490 0.024085 0.368601
O O12 0.829550 0.750000 0.349085
O O13 0.599523 0.959698 0.393034
O O14 0.037216 0.950990 0.232411
O O15 0.374311 0.750000 0.434820
O O16 0.412171 0.497524 0.380090
O O17 0.947236 0.250000 0.064904
O O18 0.000000 0.000000 0.000000
O O19 0.323260 0.750000 0.111167
O O20 0.796131 0.750000 0.564138
O O21 0.000000 0.000000 0.500000
#
# Coordination Sequence:
#
# PCOD9168086 Si02
#       8
#     4   4   4   4   4   4   4   4
#     4  10  21  39  62  87 116 151 194 239 295 355
#     4   9  21  40  60  85 119 156 193 239 295 353
#     4  10  20  38  59  81 116 158 195 234 287 348
#     4  10  22  37  57  87 118 150 194 245 291 337
#     4  10  21  38  59  84 121 157 189 239 293 340
#     4  11  24  42  63  89 122 156 196 246 299 355
#     4   9  20  39  60  85 117 152 192 242 296 349
#     4  11  21  38  62  89 119 155 198 241 290 350
#
# _framework density 19.753086
#
# number of rings (size 3 to 8) (size 9 to 14) (size 15 to 20)
#    0.000    2.000    1.250    1.500    3.500    2.000 
#    0.000    2.500    0.000    0.000    0.000    0.000 
#    0.000    0.000    0.000    0.000    0.000    0.000 
#
# Total GULP energy -178477.696789 kJ/mol
# GULP energy per Si atom -5577.428025 kJ/mol
# Density = 1.970813 g / cm^3
# Si number density = 19.753086 Si / 1000 Ang^3
#
#
#
# Elastic Constant Matrix: (Units=GPa)
#
#
# Indices 1 2 3 4 5 6 
#
# 1 147.3147 86.9477 77.4924 0.0000 -28.8626 0.0000
# 2 86.9477 16.6801 39.1174 0.0000 -25.2364 0.0000
# 3 77.4924 39.1174 99.3415 0.0000 -34.5276 0.0000
# 4 0.0000 0.0000 0.0000 16.0686 0.0000 -0.2375
# 5 -28.8626 -25.2364 -34.5276 0.0000 24.4990 0.0000
# 6 0.0000 0.0000 0.0000 -0.2375 0.0000 31.7929
#
#
#
# Elastic Compliance Matrix: (Units=1/GPa)
#
#
# Indices 1 2 3 4 5 6 
#
# 1 0.002508 0.014328 -0.002826 0.000000 0.013732 0.000000
# 2 0.014328 -0.022702 -0.008818 0.000000 -0.018933 0.000000
# 3 -0.002826 -0.008818 0.022402 0.000000 0.019160 0.000000
# 4 0.000000 0.000000 0.000000 0.062240 0.000000 0.000465
# 5 0.013732 -0.018933 0.019160 0.000000 0.064496 0.000000
# 6 0.000000 0.000000 0.000000 0.000465 0.000000 0.031457
#
#
# Mechanical properties :
#
#
# Convention : Reuss Voigt Hill
#
# Bulk Modulus (GPa) = 131.97140 74.49460 103.23300
# Shear Modulus (GPa) = 31.73425 18.45734 25.09580
#
# Velocity S-wave (km/s) = 4.01252 3.06012 3.56824
# Velocity P-wave (km/s) = 9.40333 7.09088 8.32776
#
# Compressibility (1/GPa) = 0.00757740
#
# Stress axis : x y z
#
# Youngs Moduli (GPa) = 398.67514 -44.04883 44.63864
#
# Poissons Ratio (x) = 0.63115 0.12614
# Poissons Ratio (y) = -5.71235 0.39362
# Poissons Ratio (z) = 1.12661 -0.38842
#
# Static dielectric constant tensor:
#      x y z
#    x 1.810430 0.000000 0.025610 
#    y 0.000000 1.624640 0.000000 
#    z 0.025610 0.000000 1.707630 
# 
# From -- ./inp_files/49406.got.cif
#   From: 2010.05.17/outbox.ucp.g08.bks.cvg/sg11_25_cif.got.tgz:49406.got - 2010.06.11 11:38:39.
