data_PCOD9168918
_publ_section_title
;
Structure prediction by ZEFSAII (Michael W. Deem and Ramdas Pophale) SiO2 
 PCOD9168918
Probable space group: C 2/M
;
_chemical_formula_sum "Si O2"
_cell_formula_units_Z 40
_cell_length_a 28.384986
_cell_length_b 17.598711
_cell_length_c 10.135870
_cell_angle_alpha 90.000000
_cell_angle_beta 153.191559
_cell_angle_gamma 90.000000
_cell_volume 2283.577826
_symmetry_space_group_name_H-M "C 2/M"
_symmetry_group_IT_number 12
_symmetry_cell_setting 'monoclinic'
loop_
_space_group_symop_operation_xyz
x,y,z
-x,y,-z
-x,-y,-z
x,-y,z
1/2+x,1/2+y,z
1/2-x,1/2+y,-z
1/2-x,1/2-y,-z
1/2+x,1/2-y,z
loop_
_atom_site_type_symbol
_atom_site_label
_atom_site_fract_x
_atom_site_fract_y
_atom_site_fract_z
Si Si1 0.773519 0.215017 0.200853
Si Si2 0.928296 0.619863 0.938348
Si Si3 0.005593 0.797378 0.862414
Si Si4 0.727609 0.683841 0.336217
Si Si5 0.896306 0.413939 0.159201
O O1 0.755340 0.279930 0.265563
O O2 0.894478 0.191062 0.516528
O O3 0.750000 0.250000 0.000000
O O4 0.694990 0.146341 0.039951
O O5 0.811101 0.621358 0.587154
O O6 0.969671 0.706666 0.067112
O O7 0.924588 0.585976 0.074715
O O8 0.000000 0.588531 0.000000
O O9 0.105685 0.834325 0.042694
O O10 0.000000 0.823958 0.000000
O O11 0.750000 0.750000 0.500000
O O12 0.866848 0.500000 0.124475
O O13 0.000000 0.392110 0.500000
#
# Coordination Sequence:
#
# PCOD9168918 Si02
#       5
#     8   8   8   8   8
#     4  12  22  32  56  85 108 145 194 239 280 327
#     4  10  17  33  58  84 111 143 184 232 286 325
#     4  10  16  30  52  80 109 137 172 238 282 318
#     4  10  17  31  53  83 110 134 174 241 284 321
#     4  11  24  39  53  78 121 156 185 229 287 349
#
# _framework density 17.516373000000002
#
# number of rings (size 3 to 8) (size 9 to 14) (size 15 to 20)
#    0.000    1.400   10.000    1.200    0.000    0.400 
#    0.000    0.000    0.000    5.400    0.000    1.400 
#    0.000    0.000    0.000    0.000    0.000    0.000 
#
# Total GULP energy -111492.694310 kJ/mol
# GULP energy per Si atom -5574.634716 kJ/mol
# Density = 1.747650 g / cm^3
# Si number density = 17.516373 Si / 1000 Ang^3
#
#
#
# Elastic Constant Matrix: (Units=GPa)
#
#
# Indices 1 2 3 4 5 6 
#
# 1 120.0826 11.2859 74.2360 0.0000 -4.7980 0.0000
# 2 11.2859 32.8483 29.2791 0.0000 3.7665 0.0000
# 3 74.2360 29.2791 183.8991 0.0000 12.2526 0.0000
# 4 0.0000 0.0000 0.0000 -4.1914 0.0000 0.6148
# 5 -4.7980 3.7665 12.2526 0.0000 40.5884 0.0000
# 6 0.0000 0.0000 0.0000 0.6148 0.0000 4.2290
#
#
#
# Elastic Compliance Matrix: (Units=1/GPa)
#
#
# Indices 1 2 3 4 5 6 
#
# 1 0.011399 0.000036 -0.004793 0.000000 0.002791 0.000000
# 2 0.000036 0.035583 -0.005572 0.000000 -0.001616 0.000000
# 3 -0.004793 -0.005572 0.008433 0.000000 -0.002595 0.000000
# 4 0.000000 0.000000 0.000000 -0.233600 0.000000 0.033959
# 5 0.002791 -0.001616 -0.002595 0.000000 0.025901 0.000000
# 6 0.000000 0.000000 0.000000 0.033959 0.000000 0.231524
#
#
# Mechanical properties :
#
#
# Convention : Reuss Voigt Hill
#
# Bulk Modulus (GPa) = 28.77236 62.93687 45.85461
# Shear Modulus (GPa) = 44.85008 22.92713 33.88861
#
# Velocity S-wave (km/s) = 5.06559 3.62179 4.40327
# Velocity P-wave (km/s) = 7.11866 7.31424 7.21711
#
# Compressibility (1/GPa) = 0.03475558
#
# Stress axis : x y z
#
# Youngs Moduli (GPa) = 87.72753 28.10369 118.58578
#
# Poissons Ratio (x) = -0.00101 0.56840
# Poissons Ratio (y) = -0.00315 0.66077
# Poissons Ratio (z) = 0.42049 0.15660
#
# Static dielectric constant tensor:
#      x y z
#    x 1.607570 0.000000 0.025390 
#    y 0.000000 1.584130 0.000000 
#    z 0.025390 0.000000 1.610880 
# 
# From -- ./inp_files/61377.got.cif
#   From: 2010.05.17/outbox.cif.g08.bks.cpg/sg12_31_cif.got.tgz:61377.got - 2010.06.03 13:09:07.
