data_PCOD9168690
_publ_section_title
;
Structure prediction by ZEFSAII (Michael W. Deem and Ramdas Pophale) SiO2 
 PCOD9168690
Probable space group: C 2/M
;
_chemical_formula_sum "Si O2"
_cell_formula_units_Z 44
_cell_length_a 5.676373
_cell_length_b 18.193513
_cell_length_c 18.084196
_cell_angle_alpha 90.000000
_cell_angle_beta 82.924750
_cell_angle_gamma 90.000000
_cell_volume 1853.390751
_symmetry_space_group_name_H-M "C 2/M"
_symmetry_group_IT_number 12
_symmetry_cell_setting 'monoclinic'
loop_
_space_group_symop_operation_xyz
x,y,z
-x,y,-z
-x,-y,-z
x,-y,z
1/2+x,1/2+y,z
1/2-x,1/2+y,-z
1/2-x,1/2-y,-z
1/2+x,1/2-y,z
loop_
_atom_site_type_symbol
_atom_site_label
_atom_site_fract_x
_atom_site_fract_y
_atom_site_fract_z
Si Si1 0.801618 0.837309 0.294096
Si Si2 0.921710 0.337383 0.921424
Si Si3 0.500000 0.375703 0.000000
Si Si4 0.600787 0.500000 0.115422
Si Si5 0.323415 0.170317 0.238272
Si Si6 0.761291 0.164505 0.471350
Si Si7 0.409739 0.000000 0.866575
O O1 0.555825 0.867576 0.267344
O O2 0.793939 0.750260 0.276084
O O3 0.793687 0.842096 0.382502
O O4 0.059707 0.863836 0.254630
O O5 0.642684 0.321350 0.938730
O O6 0.086546 0.315686 0.848112
O O7 0.897717 0.426007 0.913856
O O8 0.000000 0.321909 0.000000
O O9 0.386809 0.430889 0.942320
O O10 0.814378 0.500000 0.166130
O O11 0.342730 0.500000 0.164047
O O12 0.500000 0.133124 0.500000
O O13 0.750000 0.250000 0.500000
O O14 0.000000 0.133179 0.500000
#
# Coordination Sequence:
#
# PCOD9168690 Si02
#       7
#     8   8   4   4   8   8   4
#     4  10  20  38  47  69 105 131 154 187 231 285
#     4  11  21  32  50  69  89 121 172 213 249 285
#     4   9  18  28  46  62  90 102 156 208 252 279
#     4   9  16  28  46  64  84 112 122 197 280 293
#     4  10  21  33  51  63  94 138 161 189 246 286
#     4  10  16  26  52  77  92 120 151 183 225 275
#     4  10  19  32  48  70  92 108 146 219 264 287
#
# _framework density 23.740272999999998
#
# number of rings (size 3 to 8) (size 9 to 14) (size 15 to 20)
#    0.000    2.000    1.818    6.273    2.545    0.000 
#    0.000    3.636    0.000    0.000    0.000    0.000 
#    0.000    0.000    0.000   60.545    0.000    0.000 
#
# Total GULP energy -122510.799653 kJ/mol
# GULP energy per Si atom -5568.672711 kJ/mol
# Density = 2.368624 g / cm^3
# Si number density = 23.740273 Si / 1000 Ang^3
#
#
#
# Elastic Constant Matrix: (Units=GPa)
#
#
# Indices 1 2 3 4 5 6 
#
# 1 248.4471 3.3979 59.1053 0.0000 -17.1743 0.0000
# 2 3.3979 47.6142 11.8234 0.0000 -0.2283 0.0000
# 3 59.1053 11.8234 153.2055 0.0000 -6.5033 0.0000
# 4 0.0000 0.0000 0.0000 15.5771 0.0000 33.6935
# 5 -17.1743 -0.2283 -6.5033 0.0000 45.3564 0.0000
# 6 0.0000 0.0000 0.0000 33.6935 0.0000 163.0196
#
#
#
# Elastic Compliance Matrix: (Units=1/GPa)
#
#
# Indices 1 2 3 4 5 6 
#
# 1 0.004528 0.000104 -0.001692 0.000000 0.001472 0.000000
# 2 0.000104 0.021416 -0.001697 0.000000 -0.000096 0.000000
# 3 -0.001692 -0.001697 0.007328 0.000000 0.000401 0.000000
# 4 0.000000 0.000000 0.000000 0.116100 0.000000 -0.023996
# 5 0.001472 -0.000096 0.000401 0.000000 0.022662 0.000000
# 6 0.000000 0.000000 0.000000 -0.023996 0.000000 0.011094
#
#
# Mechanical properties :
#
#
# Convention : Reuss Voigt Hill
#
# Bulk Modulus (GPa) = 37.45137 66.43554 51.94346
# Shear Modulus (GPa) = 25.17640 69.78665 47.48153
#
# Velocity S-wave (km/s) = 3.26005 5.42768 4.47703
# Velocity P-wave (km/s) = 5.47543 8.20516 6.97513
#
# Compressibility (1/GPa) = 0.02670129
#
# Stress axis : x y z
#
# Youngs Moduli (GPa) = 220.84919 46.69489 136.46117
#
# Poissons Ratio (x) = -0.00486 0.23095
# Poissons Ratio (y) = -0.02301 0.23157
# Poissons Ratio (z) = 0.37376 0.07924
#
# Static dielectric constant tensor:
#      x y z
#    x 2.525950 0.000000 -0.196910 
#    y 0.000000 1.984300 0.000000 
#    z -0.196910 0.000000 1.905230 
# 
# From -- ./inp_files/253127.got.cif
#   From: 2010.05.17/outbox.cif.g08.bks.cpg/sg12_127_cif.got.tgz:253127.got - 2010.06.03 13:09:07.
