data_PCOD9168667
_publ_section_title
;
Structure prediction by ZEFSAII (Michael W. Deem and Ramdas Pophale) SiO2 
 PCOD9168667
Probable space group: C 2/M
;
_chemical_formula_sum "Si O2"
_cell_formula_units_Z 28
_cell_length_a 7.787886
_cell_length_b 32.818873
_cell_length_c 5.037364
_cell_angle_alpha 90.000000
_cell_angle_beta 109.529142
_cell_angle_gamma 90.000000
_cell_volume 1213.430339
_symmetry_space_group_name_H-M "C 2/M"
_symmetry_group_IT_number 12
_symmetry_cell_setting 'monoclinic'
loop_
_space_group_symop_operation_xyz
x,y,z
-x,y,-z
-x,-y,-z
x,-y,z
1/2+x,1/2+y,z
1/2-x,1/2+y,-z
1/2-x,1/2-y,-z
1/2+x,1/2-y,z
loop_
_atom_site_type_symbol
_atom_site_label
_atom_site_fract_x
_atom_site_fract_y
_atom_site_fract_z
Si Si1 0.279596 0.083911 0.351314
Si Si2 0.361924 0.000000 0.185199
Si Si3 0.780438 0.369144 0.858133
Si Si4 0.618045 0.716272 0.807396
O O1 0.500000 0.085580 0.500000
O O2 0.247562 0.040968 0.184139
O O3 0.217810 0.096943 0.612058
O O4 0.215628 0.118075 0.114982
O O5 0.500000 0.000000 0.500000
O O6 0.500000 0.000000 0.000000
O O7 0.719080 0.323988 0.752667
O O8 0.000000 0.369735 0.000000
O O9 0.500000 0.732952 0.500000
O O10 0.500000 0.703533 0.000000
O O11 0.750000 0.750000 0.000000
#
# Coordination Sequence:
#
# PCOD9168667 Si02
#       4
#     8   4   8   8
#     4   9  17  29  50  81 119 158 196 245 299 351
#     4  10  16  26  46  82 124 160 198 248 302 350
#     4  10  20  36  57  85 120 158 199 247 305 362
#     4  12  26  44  66  93 122 159 204 258 315 377
#
# _framework density 23.075078000000001
#
# number of rings (size 3 to 8) (size 9 to 14) (size 15 to 20)
#    0.000    1.714    0.000    7.714    0.000    3.429 
#    0.000    0.000    0.000    0.000    0.000   20.000 
#    0.000    0.000    0.000    0.000    0.000    0.000 
#
# Total GULP energy -78087.399537 kJ/mol
# GULP energy per Si atom -5577.671396 kJ/mol
# Density = 2.302256 g / cm^3
# Si number density = 23.075078 Si / 1000 Ang^3
#
#
#
# Elastic Constant Matrix: (Units=GPa)
#
#
# Indices 1 2 3 4 5 6 
#
# 1 53.5985 19.6561 33.1166 0.0000 7.8187 0.0000
# 2 19.6561 144.2494 49.3880 0.0000 12.5702 0.0000
# 3 33.1166 49.3880 169.1535 0.0000 -13.3901 0.0000
# 4 0.0000 0.0000 0.0000 41.0730 0.0000 -6.1927
# 5 7.8187 12.5702 -13.3901 0.0000 28.8711 0.0000
# 6 0.0000 0.0000 0.0000 -6.1927 0.0000 21.7277
#
#
#
# Elastic Compliance Matrix: (Units=1/GPa)
#
#
# Indices 1 2 3 4 5 6 
#
# 1 0.023215 -0.000735 -0.004986 0.000000 -0.008279 0.000000
# 2 -0.000735 0.008352 -0.002665 0.000000 -0.004673 0.000000
# 3 -0.004986 -0.002665 0.008164 0.000000 0.006297 0.000000
# 4 0.000000 0.000000 0.000000 0.025440 0.000000 0.007251
# 5 -0.008279 -0.004673 0.006297 0.000000 0.041834 0.000000
# 6 0.000000 0.000000 0.000000 0.007251 0.000000 0.048091
#
#
# Mechanical properties :
#
#
# Convention : Reuss Voigt Hill
#
# Bulk Modulus (GPa) = 43.55234 63.48029 53.51631
# Shear Modulus (GPa) = 27.85193 35.99042 31.92117
#
# Velocity S-wave (km/s) = 3.47798 3.95360 3.72339
# Velocity P-wave (km/s) = 5.91976 6.95782 6.45968
#
# Compressibility (1/GPa) = 0.02296088
#
# Stress axis : x y z
#
# Youngs Moduli (GPa) = 43.07544 119.72989 122.48326
#
# Poissons Ratio (x) = 0.08798 0.61068
# Poissons Ratio (y) = 0.03165 0.32637
# Poissons Ratio (z) = 0.21477 0.31904
#
# Static dielectric constant tensor:
#      x y z
#    x 1.903120 0.000000 0.019080 
#    y 0.000000 1.964300 0.000000 
#    z 0.019080 0.000000 1.824130 
# 
# From -- ./inp_files/3593.got.cif
#   From: 2010.05.17/outbox.cif.g08.bks.cpg/sg12_2_cif.got.tgz:3593.got - 2010.06.03 13:09:07.
