data_PCOD9168381
_publ_section_title
;
Structure prediction by ZEFSAII (Michael W. Deem and Ramdas Pophale) SiO2 
 PCOD9168381
Probable space group: C 2/M
;
_chemical_formula_sum "Si O2"
_cell_formula_units_Z 56
_cell_length_a 17.398246
_cell_length_b 22.383554
_cell_length_c 14.431074
_cell_angle_alpha 90.000000
_cell_angle_beta 26.371995
_cell_angle_gamma 90.000000
_cell_volume 2496.370830
_symmetry_space_group_name_H-M "C 2/M"
_symmetry_group_IT_number 12
_symmetry_cell_setting 'monoclinic'
loop_
_space_group_symop_operation_xyz
x,y,z
-x,y,-z
-x,-y,-z
x,-y,z
1/2+x,1/2+y,z
1/2-x,1/2+y,-z
1/2-x,1/2-y,-z
1/2+x,1/2-y,z
loop_
_atom_site_type_symbol
_atom_site_label
_atom_site_fract_x
_atom_site_fract_y
_atom_site_fract_z
Si Si1 0.826406 0.622764 0.790553
Si Si2 0.430298 0.638330 0.781007
Si Si3 0.312814 0.346632 0.249052
Si Si4 0.531255 0.754008 0.570886
Si Si5 0.870066 0.568375 0.422658
Si Si6 0.867254 0.572255 0.012752
Si Si7 0.657883 0.568057 0.405316
O O1 0.796554 0.619069 0.713547
O O2 0.910633 0.688103 0.714003
O O3 0.957254 0.577193 0.698641
O O4 0.640134 0.624839 0.041282
O O5 0.477253 0.706169 0.705413
O O6 0.591409 0.603099 0.565150
O O7 0.266262 0.613822 0.899131
O O8 0.223584 0.282196 0.363786
O O9 0.270912 0.386013 0.384752
O O10 0.500000 0.340433 0.000000
O O11 0.500000 0.729198 0.500000
O O12 0.811438 0.500000 0.491363
O O13 0.949164 0.581014 0.235187
O O14 0.829526 0.500000 0.043444
O O15 0.822459 0.586981 0.167229
O O16 0.500000 0.570108 0.500000
O O17 0.682879 0.500000 0.405683
#
# Coordination Sequence:
#
# PCOD9168381 Si02
#       7
#     8   8   8   8   8   8   8
#     4   9  19  31  46  70  97 120 150 196 237 271
#     4  10  15  24  45  70  95 122 153 185 226 281
#     4  10  21  36  48  63  94 128 157 196 238 271
#     4   9  17  30  48  69  92 121 156 193 233 274
#     4   9  17  31  52  74  94 120 154 191 234 281
#     4   8  14  24  41  71 104 123 142 183 233 275
#     4   8  13  21  36  65 101 124 140 175 227 276
#
# _framework density 22.432563999999999
#
# number of rings (size 3 to 8) (size 9 to 14) (size 15 to 20)
#    0.000    3.000    0.000    4.286    0.000    2.000 
#    0.000    0.714    0.000    0.000    0.000    0.000 
#    0.000    5.714    0.000    0.000    0.000    0.571 
#
# Total GULP energy -156170.120759 kJ/mol
# GULP energy per Si atom -5577.504313 kJ/mol
# Density = 2.238151 g / cm^3
# Si number density = 22.432564 Si / 1000 Ang^3
#
#
#
# Elastic Constant Matrix: (Units=GPa)
#
#
# Indices 1 2 3 4 5 6 
#
# 1 52.2774 7.9215 35.0492 0.0222 10.0021 -0.0089
# 2 7.9215 44.4769 50.6994 0.0272 10.4026 -0.0203
# 3 35.0492 50.6994 192.5921 0.0231 6.1833 0.0035
# 4 0.0222 0.0272 0.0231 27.4687 -0.0021 9.2965
# 5 10.0021 10.4026 6.1833 -0.0021 49.7942 -0.0068
# 6 -0.0089 -0.0203 0.0035 9.2965 -0.0068 -1.7457
#
#
#
# Elastic Compliance Matrix: (Units=1/GPa)
#
#
# Indices 1 2 3 4 5 6 
#
# 1 0.022711 0.002208 -0.004571 0.000010 -0.004456 -0.000080
# 2 0.002208 0.034024 -0.009153 0.000038 -0.006415 -0.000196
# 3 -0.004571 -0.009153 0.008376 -0.000015 0.001790 0.000061
# 4 0.000010 0.000038 -0.000015 0.012991 0.000002 0.069181
# 5 -0.004456 -0.006415 0.001790 0.000002 0.022096 0.000025
# 6 -0.000080 -0.000196 0.000061 0.069181 0.000025 -0.204413
#
#
# Mechanical properties :
#
#
# Convention : Reuss Voigt Hill
#
# Bulk Modulus (GPa) = 23.76454 52.96518 38.36486
# Shear Modulus (GPa) = -74.45308 28.14852 -23.15228
#
# Velocity S-wave (km/s) = -5.76730 3.54617 -3.21609
# Velocity P-wave (km/s) = 5.80795 6.35839 1.82988
#
# Compressibility (1/GPa) = 0.04207949
#
# Stress axis : x y z
#
# Youngs Moduli (GPa) = 44.03058 29.39140 119.38646
#
# Poissons Ratio (x) = -0.06490 0.54576
# Poissons Ratio (y) = -0.09722 1.09269
# Poissons Ratio (z) = 0.20128 0.26900
#
# Static dielectric constant tensor:
#      x y z
#    x 1.914300 -0.000020 -0.016930 
#    y -0.000020 1.771410 0.000020 
#    z -0.016930 0.000020 1.868840 
# 
# From -- ./inp_files/291015.got.cif
#   From: 2010.05.17/outbox.cif.g08.bks.cpg/sg12_146_cif.got.tgz:291015.got - 2010.06.03 13:09:07.
