data_PCOD9168874
_publ_section_title
;
Structure prediction by ZEFSAII (Michael W. Deem and Ramdas Pophale) SiO2 
 PCOD9168874
Probable space group: C 2/M
;
_chemical_formula_sum "Si O2"
_cell_formula_units_Z 56
_cell_length_a 5.243886
_cell_length_b 32.267523
_cell_length_c 18.621543
_cell_angle_alpha 90.000000
_cell_angle_beta 93.309373
_cell_angle_gamma 90.000000
_cell_volume 3145.644894
_symmetry_space_group_name_H-M "C 2/M"
_symmetry_group_IT_number 12
_symmetry_cell_setting 'monoclinic'
loop_
_space_group_symop_operation_xyz
x,y,z
-x,y,-z
-x,-y,-z
x,-y,z
1/2+x,1/2+y,z
1/2-x,1/2+y,-z
1/2-x,1/2-y,-z
1/2+x,1/2-y,z
loop_
_atom_site_type_symbol
_atom_site_label
_atom_site_fract_x
_atom_site_fract_y
_atom_site_fract_z
Si Si1 0.743335 0.296568 0.467468
Si Si2 0.581913 0.146852 0.115132
Si Si3 0.616207 0.057607 0.076909
Si Si4 0.095906 0.860953 0.204264
Si Si5 0.950696 0.263408 0.919821
Si Si6 0.133204 0.954306 0.172458
Si Si7 0.210450 0.221381 0.297762
O O1 0.500000 0.317406 0.500000
O O2 0.750000 0.250000 0.500000
O O3 0.725869 0.290701 0.382442
O O4 0.000000 0.317405 0.500000
O O5 0.641006 0.106933 0.070011
O O6 0.296186 0.143816 0.141526
O O7 0.617269 0.189206 0.074326
O O8 0.800033 0.146839 0.179829
O O9 0.400290 0.048658 0.133345
O O10 0.894210 0.045344 0.112066
O O11 0.500000 0.042335 0.000000
O O12 0.112098 0.911293 0.218089
O O13 0.177848 0.823087 0.257520
O O14 0.711698 0.241052 0.881590
O O15 0.000000 0.244863 0.000000
O O16 0.126275 0.000000 0.208530
O O17 0.466147 0.247953 0.283957
#
# Coordination Sequence:
#
# PCOD9168874 Si02
#       7
#     8   8   8   8   8   8   8
#     4  10  16  30  48  71 101 135 162 190 232 282
#     4  10  20  36  47  61  95 125 152 203 248 289
#     4  10  20  33  53  76  93 117 155 201 263 323
#     4  10  23  35  48  72  96 128 168 192 233 293
#     4  10  20  31  46  63  79 112 161 202 237 281
#     4  10  21  37  53  70  99 129 157 206 255 298
#     4  12  21  32  51  75 105 138 166 201 231 277
#
# _framework density 17.802389999999999
#
# number of rings (size 3 to 8) (size 9 to 14) (size 15 to 20)
#    0.000    1.714    2.857    3.000    0.000    5.143 
#    0.000    4.286    0.000    0.000    0.000    0.000 
#    0.000    1.143    0.000    0.000    0.000    2.571 
#
# Total GULP energy -155874.636200 kJ/mol
# GULP energy per Si atom -5566.951293 kJ/mol
# Density = 1.776187 g / cm^3
# Si number density = 17.802390 Si / 1000 Ang^3
#
#
#
# Elastic Constant Matrix: (Units=GPa)
#
#
# Indices 1 2 3 4 5 6 
#
# 1 108.5971 10.4866 -7.6272 0.0000 20.3425 0.0000
# 2 10.4866 145.4899 25.8129 0.0000 7.6765 0.0000
# 3 -7.6272 25.8129 51.0820 0.0000 8.5558 0.0000
# 4 0.0000 0.0000 0.0000 14.8942 0.0000 5.2594
# 5 20.3425 7.6765 8.5558 0.0000 16.3697 0.0000
# 6 0.0000 0.0000 0.0000 5.2594 0.0000 4.9105
#
#
#
# Elastic Compliance Matrix: (Units=1/GPa)
#
#
# Indices 1 2 3 4 5 6 
#
# 1 0.013248 -0.000954 0.005636 0.000000 -0.018962 0.000000
# 2 -0.000954 0.007662 -0.003958 0.000000 -0.000339 0.000000
# 3 0.005636 -0.003958 0.025514 0.000000 -0.018484 0.000000
# 4 0.000000 0.000000 0.000000 0.107979 0.000000 -0.115652
# 5 -0.018962 -0.000339 -0.018484 0.000000 0.094472 0.000000
# 6 0.000000 0.000000 0.000000 -0.115652 0.000000 0.327518
#
#
# Mechanical properties :
#
#
# Convention : Reuss Voigt Hill
#
# Bulk Modulus (GPa) = 20.88864 40.27928 30.58396
# Shear Modulus (GPa) = 8.46164 25.66798 17.06481
#
# Velocity S-wave (km/s) = 2.18252 3.80126 3.09943
# Velocity P-wave (km/s) = 4.25562 6.47619 5.47957
#
# Compressibility (1/GPa) = 0.04787292
#
# Stress axis : x y z
#
# Youngs Moduli (GPa) = 75.48090 130.51151 39.19461
#
# Poissons Ratio (x) = 0.12457 -0.22092
# Poissons Ratio (y) = 0.07204 0.15512
# Poissons Ratio (z) = -0.42544 0.51652
#
# Static dielectric constant tensor:
#      x y z
#    x 1.664880 0.000000 0.023990 
#    y 0.000000 1.655370 0.000000 
#    z 0.023990 0.000000 1.612050 
# 
# From -- ./inp_files/253915.got.cif
#   From: 2010.05.17/outbox.cif.g08.bks.cpg/sg12_127_cif.got.tgz:253915.got - 2010.06.03 13:09:07.
