data_PCOD9168258
_publ_section_title
;
Structure prediction by ZEFSAII (Michael W. Deem and Ramdas Pophale) SiO2 
 PCOD9168258
Probable space group: P 21/M
;
_chemical_formula_sum "Si O2"
_cell_formula_units_Z 32
_cell_length_a 12.000000
_cell_length_b 18.000000
_cell_length_c 15.000000
_cell_angle_alpha 90.000000
_cell_angle_beta 150.000000
_cell_angle_gamma 90.000000
_cell_volume 1620.000000
_symmetry_space_group_name_H-M "P 21/M"
_symmetry_group_IT_number 11
_symmetry_cell_setting 'monoclinic'
loop_
_space_group_symop_operation_xyz
x,y,z
-x,1/2+y,-z
-x,-y,-z
x,1/2-y,z
loop_
_atom_site_type_symbol
_atom_site_label
_atom_site_fract_x
_atom_site_fract_y
_atom_site_fract_z
Si Si1 0.020562 0.066158 0.683093
Si Si2 0.136196 0.162908 0.597502
Si Si3 0.419081 0.088334 0.085911
Si Si4 0.646568 0.837150 0.768129
Si Si5 0.616087 0.088169 0.909490
Si Si6 0.642423 0.430739 0.563146
Si Si7 0.106262 0.583605 0.078757
Si Si8 0.171077 0.599718 0.758124
O O1 0.007815 0.119184 0.588294
O O2 0.805072 0.048579 0.593524
O O3 0.113923 0.987799 0.713043
O O4 0.192044 0.101283 0.873393
O O5 0.134238 0.250000 0.614968
O O6 0.386434 0.131701 0.763755
O O7 0.021066 0.145417 0.423191
O O8 0.423108 0.125943 0.185427
O O9 0.612294 0.112906 0.152674
O O10 0.431354 0.999470 0.108723
O O11 0.613112 0.750000 0.751278
O O12 0.513893 0.870196 0.591952
O O13 0.902531 0.859797 0.931479
O O14 0.728044 0.094493 0.889931
O O15 0.777988 0.113310 0.102640
O O16 0.500000 0.500000 0.500000
O O17 0.778010 0.406639 0.744907
O O18 0.000000 0.500000 0.000000
#
# Coordination Sequence:
#
# PCOD9168258 Si02
#       8
#     4   4   4   4   4   4   4   4
#     4  11  22  43  72 102 131 174 233 286 332 408
#     4  12  27  42  65 103 140 178 222 281 356 414
#     4  11  20  44  72 102 129 176 227 280 341 406
#     4  12  28  45  68 107 143 177 227 294 354 406
#     4  11  23  43  70  98 132 173 235 279 328 409
#     4  12  25  42  74 107 133 183 236 284 339 413
#     4  12  23  45  74  99 134 184 239 283 338 414
#     4  11  23  40  70 100 129 172 224 279 337 403
#
# _framework density 19.753086
#
# number of rings (size 3 to 8) (size 9 to 14) (size 15 to 20)
#    0.000    0.500    6.250    2.625    3.500    4.000 
#    0.000    1.250    0.000    0.000    0.000    0.000 
#    0.000    0.000    0.000    0.000    0.000    0.000 
#
# Total GULP energy -178901.857328 kJ/mol
# GULP energy per Si atom -5590.683041 kJ/mol
# Density = 1.970813 g / cm^3
# Si number density = 19.753086 Si / 1000 Ang^3
#
#
#
# Elastic Constant Matrix: (Units=GPa)
#
#
# Indices 1 2 3 4 5 6 
#
# 1 131.9698 27.0443 22.7744 0.0000 -1.4922 0.0000
# 2 27.0443 73.1178 30.5323 0.0000 -1.0698 0.0000
# 3 22.7744 30.5323 93.5882 0.0000 -6.6442 0.0000
# 4 0.0000 0.0000 0.0000 13.5787 0.0000 5.7345
# 5 -1.4922 -1.0698 -6.6442 0.0000 25.2316 0.0000
# 6 0.0000 0.0000 0.0000 5.7345 0.0000 5.5926
#
#
#
# Elastic Compliance Matrix: (Units=1/GPa)
#
#
# Indices 1 2 3 4 5 6 
#
# 1 0.008310 -0.002582 -0.001175 0.000000 0.000073 0.000000
# 2 -0.002582 0.016648 -0.004854 0.000000 -0.000725 0.000000
# 3 -0.001175 -0.004854 0.012774 0.000000 0.003088 0.000000
# 4 0.000000 0.000000 0.000000 0.129895 0.000000 -0.133193
# 5 0.000073 -0.000725 0.003088 0.000000 0.040420 0.000000
# 6 0.000000 0.000000 0.000000 -0.133193 0.000000 0.315384
#
#
# Mechanical properties :
#
#
# Convention : Reuss Voigt Hill
#
# Bulk Modulus (GPa) = 48.75733 51.04197 49.89965
# Shear Modulus (GPa) = 9.13259 23.43555 16.28407
#
# Velocity S-wave (km/s) = 2.15254 3.44819 2.87432
# Velocity P-wave (km/s) = 5.56011 6.46138 6.02762
#
# Compressibility (1/GPa) = 0.02050974
#
# Stress axis : x y z
#
# Youngs Moduli (GPa) = 120.33430 60.06690 78.28435
#
# Poissons Ratio (x) = 0.15510 0.09196
# Poissons Ratio (y) = 0.31072 0.38002
# Poissons Ratio (z) = 0.14136 0.29159
#
# Static dielectric constant tensor:
#      x y z
#    x 1.668290 0.000000 0.029580 
#    y 0.000000 1.656750 0.000000 
#    z 0.029580 0.000000 1.753110 
# 
# From -- ./inp_files/50722.got.cif
#   From: 2010.05.17/outbox.ucp.g08.bks.cvg/sg11_26_cif.got.tgz:50722.got - 2010.06.11 11:38:39.
