data_PCOD9168147
_publ_section_title
;
Structure prediction by ZEFSAII (Michael W. Deem and Ramdas Pophale) SiO2 
 PCOD9168147
Probable space group: P 21/M
;
_chemical_formula_sum "Si O2"
_cell_formula_units_Z 32
_cell_length_a 30.000000
_cell_length_b 9.000000
_cell_length_c 12.000000
_cell_angle_alpha 90.000000
_cell_angle_beta 30.000000
_cell_angle_gamma 90.000000
_cell_volume 1620.000000
_symmetry_space_group_name_H-M "P 21/M"
_symmetry_group_IT_number 11
_symmetry_cell_setting 'monoclinic'
loop_
_space_group_symop_operation_xyz
x,y,z
-x,1/2+y,-z
-x,-y,-z
x,1/2-y,z
loop_
_atom_site_type_symbol
_atom_site_label
_atom_site_fract_x
_atom_site_fract_y
_atom_site_fract_z
Si Si1 0.580064 0.921587 0.395009
Si Si2 0.004035 0.570515 0.868655
Si Si3 0.486658 0.080781 0.206519
Si Si4 0.774556 0.429415 0.979514
Si Si5 0.181485 0.572381 0.356741
Si Si6 0.693738 0.923826 0.519748
Si Si7 0.671071 0.579394 0.823311
Si Si8 0.849415 0.073552 0.055009
O O1 0.587758 0.750000 0.340973
O O2 0.554511 0.921208 0.580698
O O3 0.500000 0.000000 0.500000
O O4 0.675709 0.001912 0.182629
O O5 0.999440 0.750000 0.886164
O O6 0.097776 0.523700 0.610824
O O7 0.926389 0.511952 0.955198
O O8 0.000000 0.500000 0.000000
O O9 0.516203 0.250000 0.117918
O O10 0.408444 0.040938 0.289977
O O11 0.570416 0.974262 0.028287
O O12 0.764852 0.250000 0.005094
O O13 0.829173 0.473745 0.971490
O O14 0.825705 0.472477 0.756212
O O15 0.183365 0.750000 0.356000
O O16 0.272917 0.514441 0.210867
O O17 0.707674 0.750000 0.456176
O O18 0.711650 0.935306 0.611888
O O19 0.758148 0.032763 0.315456
O O20 0.673920 0.750000 0.851071
O O21 0.866772 0.250000 0.020447
#
# Coordination Sequence:
#
# PCOD9168147 Si02
#       8
#     4   4   4   4   4   4   4   4
#     4  11  22  36  57  84 118 161 207 251 301 356
#     4  11  24  43  68  95 124 159 200 246 301 365
#     4  10  21  37  56  80 116 160 201 244 300 363
#     4  10  22  41  62  87 120 158 203 250 298 356
#     4  10  23  43  63  85 119 160 199 242 299 361
#     4  10  21  39  59  84 120 159 202 249 300 360
#     4  11  23  36  57  88 119 154 200 254 302 354
#     4  11  23  39  64  94 123 157 200 253 306 360
#
# _framework density 19.753086
#
# number of rings (size 3 to 8) (size 9 to 14) (size 15 to 20)
#    0.000    1.500    1.250    3.375    0.000   10.000 
#    0.000    0.000    0.000    0.000    0.000    0.000 
#    0.000    0.000    0.000    0.000    0.000    0.000 
#
# Total GULP energy -178787.514485 kJ/mol
# GULP energy per Si atom -5587.109828 kJ/mol
# Density = 1.970813 g / cm^3
# Si number density = 19.753086 Si / 1000 Ang^3
#
#
#
# Elastic Constant Matrix: (Units=GPa)
#
#
# Indices 1 2 3 4 5 6 
#
# 1 111.0026 24.4932 12.6990 0.0000 -2.7161 0.0000
# 2 24.4932 22.4225 13.8073 0.0000 7.6118 0.0000
# 3 12.6990 13.8073 31.1861 0.0000 10.2612 0.0000
# 4 0.0000 0.0000 0.0000 27.4826 0.0000 -4.0083
# 5 -2.7161 7.6118 10.2612 0.0000 26.4631 0.0000
# 6 0.0000 0.0000 0.0000 -4.0083 0.0000 7.4064
#
#
#
# Elastic Compliance Matrix: (Units=1/GPa)
#
#
# Indices 1 2 3 4 5 6 
#
# 1 0.012634 -0.015721 -0.000113 0.000000 0.005863 0.000000
# 2 -0.015721 0.082450 -0.024951 0.000000 -0.015654 0.000000
# 3 -0.000113 -0.024951 0.046768 0.000000 -0.010969 0.000000
# 4 0.000000 0.000000 0.000000 0.039505 0.000000 0.021380
# 5 0.005863 -0.015654 -0.010969 0.000000 0.047146 0.000000
# 6 0.000000 0.000000 0.000000 0.021380 0.000000 0.146589
#
#
# Mechanical properties :
#
#
# Convention : Reuss Voigt Hill
#
# Bulk Modulus (GPa) = 16.58924 29.62337 23.10630
# Shear Modulus (GPa) = 10.48750 19.84454 15.16602
#
# Velocity S-wave (km/s) = 2.30669 3.17303 2.77389
# Velocity P-wave (km/s) = 3.93840 5.33418 4.68852
#
# Compressibility (1/GPa) = 0.06028004
#
# Stress axis : x y z
#
# Youngs Moduli (GPa) = 79.15028 12.12855 21.38227
#
# Poissons Ratio (x) = 0.19068 0.00242
# Poissons Ratio (y) = 1.24436 0.53352
# Poissons Ratio (z) = 0.00896 0.30262
#
# Static dielectric constant tensor:
#      x y z
#    x 1.683190 0.000000 0.032010 
#    y 0.000000 1.657770 0.000000 
#    z 0.032010 0.000000 1.702290 
# 
# From -- ./inp_files/45214.got.cif
#   From: 2010.05.17/outbox.ucp.g08.bks.cvg/sg11_23_cif.got.tgz:45214.got - 2010.06.11 11:38:39.
