data_PCOD9168393
_publ_section_title
;
Structure prediction by ZEFSAII (Michael W. Deem and Ramdas Pophale) SiO2 
 PCOD9168393
Probable space group: C 2/M
;
_chemical_formula_sum "Si O2"
_cell_formula_units_Z 56
_cell_length_a 16.934588
_cell_length_b 21.736210
_cell_length_c 7.076807
_cell_angle_alpha 90.000000
_cell_angle_beta 105.915808
_cell_angle_gamma 90.000000
_cell_volume 2505.070360
_symmetry_space_group_name_H-M "C 2/M"
_symmetry_group_IT_number 12
_symmetry_cell_setting 'monoclinic'
loop_
_space_group_symop_operation_xyz
x,y,z
-x,y,-z
-x,-y,-z
x,-y,z
1/2+x,1/2+y,z
1/2-x,1/2+y,-z
1/2-x,1/2-y,-z
1/2+x,1/2-y,z
loop_
_atom_site_type_symbol
_atom_site_label
_atom_site_fract_x
_atom_site_fract_y
_atom_site_fract_z
Si Si1 0.439160 0.112243 0.184910
Si Si2 0.712415 0.429688 0.386923
Si Si3 0.109097 0.426162 0.420908
Si Si4 0.188932 0.195164 0.908176
Si Si5 0.768475 0.432151 0.980236
Si Si6 0.072437 0.153624 0.170142
Si Si7 0.959848 0.256415 0.286161
O O1 0.413897 0.099755 0.387341
O O2 0.534225 0.093027 0.235855
O O3 0.366633 0.075863 0.033634
O O4 0.435732 0.185128 0.143826
O O5 0.694227 0.500000 0.428535
O O6 0.795619 0.408175 0.548916
O O7 0.740852 0.431241 0.183933
O O8 0.630200 0.388883 0.337383
O O9 0.108318 0.500000 0.433048
O O10 0.123221 0.220655 0.717106
O O11 0.250000 0.250000 0.000000
O O12 0.228006 0.130318 0.878093
O O13 0.134292 0.182687 0.058597
O O14 0.745527 0.500000 0.891540
O O15 0.023726 0.208248 0.241060
O O16 0.000000 0.120059 0.000000
O O17 0.000000 0.282557 0.500000
#
# Coordination Sequence:
#
# PCOD9168393 Si02
#       7
#     8   8   8   8   8   8   8
#     4  10  15  25  45  73 107 133 163 213 272 317
#     4   8  15  28  47  71 100 129 171 228 273 305
#     4   9  15  24  42  71 106 132 158 215 281 320
#     4  10  19  36  57  78 110 145 179 226 271 316
#     4   9  16  28  52  81 101 130 182 229 265 312
#     4   9  20  34  51  75 104 140 183 223 266 318
#     4  11  21  34  51  78 113 146 179 218 266 324
#
# _framework density 22.354661
#
# number of rings (size 3 to 8) (size 9 to 14) (size 15 to 20)
#    0.000    2.571    2.857    2.571    0.000    0.286 
#    0.000    5.000    0.000    1.714    0.000    4.000 
#    0.000    0.000    0.000    0.000    0.000    0.000 
#
# Total GULP energy -156187.513853 kJ/mol
# GULP energy per Si atom -5578.125495 kJ/mol
# Density = 2.230378 g / cm^3
# Si number density = 22.354661 Si / 1000 Ang^3
#
#
#
# Elastic Constant Matrix: (Units=GPa)
#
#
# Indices 1 2 3 4 5 6 
#
# 1 118.5250 67.2405 33.6038 0.0000 30.6356 0.0000
# 2 67.2405 150.0870 34.2545 0.0000 36.6976 0.0000
# 3 33.6038 34.2545 42.5847 0.0000 23.9504 0.0000
# 4 0.0000 0.0000 0.0000 22.5010 0.0000 14.2218
# 5 30.6356 36.6976 23.9504 0.0000 45.7154 0.0000
# 6 0.0000 0.0000 0.0000 14.2218 0.0000 24.2979
#
#
#
# Elastic Compliance Matrix: (Units=1/GPa)
#
#
# Indices 1 2 3 4 5 6 
#
# 1 0.012887 -0.003858 -0.005601 0.000000 -0.002605 0.000000
# 2 -0.003858 0.009996 -0.002747 0.000000 -0.004000 0.000000
# 3 -0.005601 -0.002747 0.037940 0.000000 -0.013919 0.000000
# 4 0.000000 0.000000 0.000000 0.070537 0.000000 -0.041286
# 5 -0.002605 -0.004000 -0.013919 0.000000 0.034123 0.000000
# 6 0.000000 0.000000 0.000000 -0.041286 0.000000 0.065321
#
#
# Mechanical properties :
#
#
# Convention : Reuss Voigt Hill
#
# Bulk Modulus (GPa) = 27.46396 64.59939 46.03167
# Shear Modulus (GPa) = 18.70191 30.24272 24.47231
#
# Velocity S-wave (km/s) = 2.89554 3.68211 3.31226
# Velocity P-wave (km/s) = 4.84676 6.85839 5.93838
#
# Compressibility (1/GPa) = 0.03641136
#
# Stress axis : x y z
#
# Youngs Moduli (GPa) = 77.59704 100.03742 26.35772
#
# Poissons Ratio (x) = 0.38599 0.14762
# Poissons Ratio (y) = 0.29940 0.07239
# Poissons Ratio (z) = 0.43460 0.27476
#
# Static dielectric constant tensor:
#      x y z
#    x 1.825850 0.000000 -0.009840 
#    y 0.000000 1.810470 0.000000 
#    z -0.009840 0.000000 1.947560 
# 
# From -- ./inp_files/77651.got.cif
#   From: 2010.05.17/outbox.cif.g08.bks.cpg/sg12_39_cif.got.tgz:77651.got - 2010.06.03 13:09:07.
