data_PCOD9168644
_publ_section_title
;
Structure prediction by ZEFSAII (Michael W. Deem and Ramdas Pophale) SiO2 
 PCOD9168644
Probable space group: C 2/M
;
_chemical_formula_sum "Si O2"
_cell_formula_units_Z 56
_cell_length_a 30.278792
_cell_length_b 13.582510
_cell_length_c 8.384885
_cell_angle_alpha 90.000000
_cell_angle_beta 122.479158
_cell_angle_gamma 90.000000
_cell_volume 2909.011808
_symmetry_space_group_name_H-M "C 2/M"
_symmetry_group_IT_number 12
_symmetry_cell_setting 'monoclinic'
loop_
_space_group_symop_operation_xyz
x,y,z
-x,y,-z
-x,-y,-z
x,-y,z
1/2+x,1/2+y,z
1/2-x,1/2+y,-z
1/2-x,1/2-y,-z
1/2+x,1/2-y,z
loop_
_atom_site_type_symbol
_atom_site_label
_atom_site_fract_x
_atom_site_fract_y
_atom_site_fract_z
Si Si1 0.792763 0.786428 0.715528
Si Si2 0.921055 0.117304 0.282801
Si Si3 0.198451 0.390991 0.690179
Si Si4 0.661810 0.686217 0.665539
Si Si5 0.486513 0.382419 0.739578
Si Si6 0.779359 0.610270 0.898561
Si Si7 0.609694 0.612169 0.260121
O O1 0.750000 0.750000 0.500000
O O2 0.757072 0.863207 0.746086
O O3 0.806878 0.688736 0.840205
O O4 0.846232 0.833878 0.757389
O O5 0.868888 0.175197 0.228337
O O6 0.955816 0.130994 0.511453
O O7 0.954814 0.150650 0.194717
O O8 0.910859 0.000000 0.248242
O O9 0.184085 0.500000 0.601594
O O10 0.162345 0.295443 0.588661
O O11 0.198166 0.393736 0.881066
O O12 0.721043 0.653382 0.802935
O O13 0.636565 0.613659 0.487724
O O14 0.489983 0.500000 0.771265
O O15 0.448278 0.346121 0.807145
O O16 0.777769 0.500000 0.828141
O O17 0.603893 0.500000 0.192301
#
# Coordination Sequence:
#
# PCOD9168644 Si02
#       7
#     8   8   8   8   8   8   8
#     4  11  19  29  45  68  90 115 150 181 218 264
#     4   8  12  20  37  61  87 112 140 172 209 261
#     4  10  21  34  44  60  90 121 154 186 216 253
#     4  10  16  26  43  65  85 114 149 179 215 257
#     4   7  12  21  34  57  89 117 136 165 213 263
#     4  10  20  33  46  62  88 121 151 185 217 256
#     4  10  17  26  41  65  95 119 141 174 217 264
#
# _framework density 19.250523999999999
#
# number of rings (size 3 to 8) (size 9 to 14) (size 15 to 20)
#    0.000    2.571    2.857    5.143    0.000    0.571 
#    0.000    0.000    0.000    0.000    0.000   13.000 
#    0.000   18.286    0.000    0.000    0.000    0.000 
#
# Total GULP energy -155945.802413 kJ/mol
# GULP energy per Si atom -5569.492943 kJ/mol
# Density = 1.920671 g / cm^3
# Si number density = 19.250524 Si / 1000 Ang^3
#
#
#
# Elastic Constant Matrix: (Units=GPa)
#
#
# Indices 1 2 3 4 5 6 
#
# 1 187.2332 56.5087 5.2562 0.0000 -29.5144 0.0000
# 2 56.5087 103.6921 9.0440 0.0000 -12.4222 0.0000
# 3 5.2562 9.0440 32.6465 0.0000 -7.0461 0.0000
# 4 0.0000 0.0000 0.0000 12.9952 0.0000 -5.9120
# 5 -29.5144 -12.4222 -7.0461 0.0000 28.3639 0.0000
# 6 0.0000 0.0000 0.0000 -5.9120 0.0000 27.6314
#
#
#
# Elastic Compliance Matrix: (Units=1/GPa)
#
#
# Indices 1 2 3 4 5 6 
#
# 1 0.007328 -0.003319 0.001132 0.000000 0.006453 0.000000
# 2 -0.003319 0.011802 -0.002499 0.000000 0.001094 0.000000
# 3 0.001132 -0.002499 0.032924 0.000000 0.008263 0.000000
# 4 0.000000 0.000000 0.000000 0.085250 0.000000 0.018240
# 5 0.006453 0.001094 0.008263 0.000000 0.044503 0.000000
# 6 0.000000 0.000000 0.000000 0.018240 0.000000 0.040093
#
#
# Mechanical properties :
#
#
# Convention : Reuss Voigt Hill
#
# Bulk Modulus (GPa) = 23.42858 51.68773 37.55816
# Shear Modulus (GPa) = 20.36665 30.64895 25.50780
#
# Velocity S-wave (km/s) = 3.25619 3.99445 3.64407
# Velocity P-wave (km/s) = 5.13165 6.94136 6.10395
#
# Compressibility (1/GPa) = 0.04268291
#
# Stress axis : x y z
#
# Youngs Moduli (GPa) = 136.45998 84.73238 30.37256
#
# Poissons Ratio (x) = 0.28125 -0.03439
# Poissons Ratio (y) = 0.45295 0.07590
# Poissons Ratio (z) = -0.15453 0.21174
#
# Static dielectric constant tensor:
#      x y z
#    x 1.757580 0.000000 -0.021930 
#    y 0.000000 1.694770 0.000000 
#    z -0.021930 0.000000 1.761680 
# 
# From -- ./inp_files/110911.got.cif
#   From: 2010.05.17/outbox.cif.g08.bks.cpg/sg12_56_cif.got.tgz:110911.got - 2010.06.03 13:09:07.
