data_PCOD9168470
_publ_section_title
;
Structure prediction by ZEFSAII (Michael W. Deem and Ramdas Pophale) SiO2 
 PCOD9168470
Probable space group: C 2/M
;
_chemical_formula_sum "Si O2"
_cell_formula_units_Z 44
_cell_length_a 20.362522
_cell_length_b 16.589796
_cell_length_c 19.143265
_cell_angle_alpha 90.000000
_cell_angle_beta 158.737192
_cell_angle_gamma 90.000000
_cell_volume 2345.157205
_symmetry_space_group_name_H-M "C 2/M"
_symmetry_group_IT_number 12
_symmetry_cell_setting 'monoclinic'
loop_
_space_group_symop_operation_xyz
x,y,z
-x,y,-z
-x,-y,-z
x,-y,z
1/2+x,1/2+y,z
1/2-x,1/2+y,-z
1/2-x,1/2-y,-z
1/2+x,1/2-y,z
loop_
_atom_site_type_symbol
_atom_site_label
_atom_site_fract_x
_atom_site_fract_y
_atom_site_fract_z
Si Si1 0.116423 0.746597 0.758827
Si Si2 0.682514 0.410729 0.259337
Si Si3 0.000000 0.667016 0.500000
Si Si4 0.456038 0.089679 0.662184
Si Si5 0.226548 0.819445 0.535686
Si Si6 0.496808 0.244758 0.915299
O O1 0.038315 0.720471 0.605716
O O2 0.089734 0.665273 0.779419
O O3 0.987271 0.816363 0.661323
O O4 0.320856 0.771928 0.946854
O O5 0.608365 0.500000 0.178268
O O6 0.810165 0.408116 0.454385
O O7 0.535575 0.341042 0.118080
O O8 0.823624 0.387180 0.338393
O O9 0.333998 0.106103 0.609449
O O10 0.538688 0.000000 0.744887
O O11 0.250000 0.750000 0.500000
O O12 0.329874 0.793143 0.708123
O O13 0.500000 0.220449 0.000000
#
# Coordination Sequence:
#
# PCOD9168470 Si02
#       6
#     8   8   4   8   8   8
#     4  10  19  31  54  76 106 137 175 204 256 304
#     4  10  19  31  48  74 109 143 172 202 246 308
#     4  10  15  34  46  72 109 142 166 208 247 308
#     4   9  19  36  55  73 101 140 174 212 258 303
#     4  10  19  37  54  73 104 138 175 218 254 299
#     4  12  21  33  53  81 106 138 177 209 253 305
#
# _framework density 18.762069
#
# number of rings (size 3 to 8) (size 9 to 14) (size 15 to 20)
#    0.000    1.818    7.273    0.273    0.000    4.727 
#    0.000    0.000    0.000    0.545    0.000    4.455 
#    0.000    0.000    0.000    0.000    0.000    0.000 
#
# Total GULP energy -122638.496871 kJ/mol
# GULP energy per Si atom -5574.477130 kJ/mol
# Density = 1.871937 g / cm^3
# Si number density = 18.762069 Si / 1000 Ang^3
#
#
#
# Elastic Constant Matrix: (Units=GPa)
#
#
# Indices 1 2 3 4 5 6 
#
# 1 72.0455 7.2349 18.5346 -0.0023 14.6010 -0.0005
# 2 7.2349 17.1452 -3.7054 -0.0027 3.9019 -0.0017
# 3 18.5346 -3.7054 66.5634 -0.0069 23.5469 -0.0016
# 4 -0.0023 -0.0027 -0.0069 11.6853 -0.0018 7.2031
# 5 14.6010 3.9019 23.5469 -0.0018 40.4673 -0.0017
# 6 -0.0005 -0.0017 -0.0016 7.2031 -0.0017 13.6129
#
#
#
# Elastic Compliance Matrix: (Units=1/GPa)
#
#
# Indices 1 2 3 4 5 6 
#
# 1 0.016166 -0.006993 -0.003860 -0.000001 -0.002912 -0.000001
# 2 -0.006993 0.065162 0.008694 0.000019 -0.008819 -0.000002
# 3 -0.003860 0.008694 0.020633 0.000016 -0.011451 -0.000006
# 4 -0.000001 0.000019 0.000016 0.127002 -0.000008 -0.067201
# 5 -0.002912 -0.008819 -0.011451 -0.000008 0.033276 0.000006
# 6 -0.000001 -0.000002 -0.000006 -0.067201 0.000006 0.109018
#
#
# Mechanical properties :
#
#
# Convention : Reuss Voigt Hill
#
# Bulk Modulus (GPa) = 10.24142 22.20915 16.22529
# Shear Modulus (GPa) = 12.25122 22.06577 17.15850
#
# Velocity S-wave (km/s) = 2.55812 3.43313 3.02740
# Velocity P-wave (km/s) = 3.76772 5.25149 4.57022
#
# Compressibility (1/GPa) = 0.09764266
#
# Stress axis : x y z
#
# Youngs Moduli (GPa) = 61.85929 15.34629 48.46571
#
# Poissons Ratio (x) = 0.10732 0.18710
# Poissons Ratio (y) = 0.43259 -0.42138
# Poissons Ratio (z) = 0.23881 -0.13343
#
# Static dielectric constant tensor:
#      x y z
#    x 1.709590 0.000000 0.022770 
#    y 0.000000 1.652970 0.000000 
#    z 0.022770 0.000000 1.700660 
# 
# From -- ./inp_files/322481.got.cif
#   From: 2010.05.17/outbox.cif.g08.bks.cpg/sg12_162_cif.got.tgz:322481.got - 2010.06.03 13:09:07.
