data_PCOD9168207
_publ_section_title
;
Structure prediction by ZEFSAII (Michael W. Deem and Ramdas Pophale) SiO2 
 PCOD9168207
Probable space group: P 21/M
;
_chemical_formula_sum "Si O2"
_cell_formula_units_Z 32
_cell_length_a 24.000000
_cell_length_b 9.000000
_cell_length_c 15.000000
_cell_angle_alpha 90.000000
_cell_angle_beta 150.000000
_cell_angle_gamma 90.000000
_cell_volume 1620.000000
_symmetry_space_group_name_H-M "P 21/M"
_symmetry_group_IT_number 11
_symmetry_cell_setting 'monoclinic'
loop_
_space_group_symop_operation_xyz
x,y,z
-x,1/2+y,-z
-x,-y,-z
x,1/2-y,z
loop_
_atom_site_type_symbol
_atom_site_label
_atom_site_fract_x
_atom_site_fract_y
_atom_site_fract_z
Si Si1 0.474864 0.929558 0.307776
Si Si2 0.891761 0.929017 0.803035
Si Si3 0.710327 0.427554 0.195491
Si Si4 0.757902 0.570923 0.955841
Si Si5 0.229452 0.574230 0.523129
Si Si6 0.713711 0.570707 0.701125
Si Si7 0.885847 0.571339 0.306093
Si Si8 0.513224 0.429178 0.167408
O O1 0.470153 0.750000 0.296707
O O2 0.584267 0.975004 0.516628
O O3 0.358235 0.993836 0.179419
O O4 0.494728 0.000150 0.238682
O O5 0.901467 0.750000 0.817357
O O6 0.785195 0.976950 0.715435
O O7 0.858775 0.986162 0.659108
O O8 0.000000 0.000000 0.000000
O O9 0.700462 0.250000 0.166250
O O10 0.776947 0.449884 0.379909
O O11 0.781765 0.506660 0.217828
O O12 0.586565 0.497910 0.028359
O O13 0.742559 0.750000 0.939046
O O14 0.775573 0.527336 0.877703
O O15 0.854967 0.534727 0.160499
O O16 0.214959 0.750000 0.485154
O O17 0.359009 0.536394 0.681134
O O18 0.712020 0.750000 0.696477
O O19 0.891281 0.750000 0.322566
O O20 0.000000 0.500000 0.500000
O O21 0.500607 0.250000 0.149715
#
# Coordination Sequence:
#
# PCOD9168207 Si02
#       8
#     4   4   4   4   4   4   4   4
#     4  11  20  34  59  90 121 155 193 238 296 359
#     4  11  23  41  63  88 120 160 203 252 301 357
#     4  11  23  40  63  90 123 159 199 250 304 360
#     4  10  21  39  61  86 118 156 195 242 297 354
#     4  10  23  41  62  90 122 160 202 248 303 359
#     4   9  20  38  60  87 119 155 195 239 297 356
#     4  11  24  41  62  87 118 159 205 251 300 354
#     4  11  21  36  60  90 124 159 197 243 299 365
#
# _framework density 19.753086
#
# number of rings (size 3 to 8) (size 9 to 14) (size 15 to 20)
#    0.000    1.500    2.500    2.625    0.000    3.000 
#    0.000    4.375    0.000    0.000    0.000    0.000 
#    0.000    0.000    0.000    0.000    0.000    0.000 
#
# Total GULP energy -178709.725441 kJ/mol
# GULP energy per Si atom -5584.678920 kJ/mol
# Density = 1.970813 g / cm^3
# Si number density = 19.753086 Si / 1000 Ang^3
#
#
#
# Elastic Constant Matrix: (Units=GPa)
#
#
# Indices 1 2 3 4 5 6 
#
# 1 25.5644 3.9112 7.4879 0.0000 -19.6193 0.0000
# 2 3.9112 62.5363 43.4907 0.0000 -11.0741 0.0000
# 3 7.4879 43.4907 152.1986 0.0000 -20.7323 0.0000
# 4 0.0000 0.0000 0.0000 41.1642 0.0000 0.5726
# 5 -19.6193 -11.0741 -20.7323 0.0000 32.4061 0.0000
# 6 0.0000 0.0000 0.0000 0.5726 0.0000 21.4506
#
#
#
# Elastic Compliance Matrix: (Units=1/GPa)
#
#
# Indices 1 2 3 4 5 6 
#
# 1 0.074304 0.002214 0.002128 0.000000 0.047103 0.000000
# 2 0.002214 0.020386 -0.005261 0.000000 0.004941 0.000000
# 3 0.002128 -0.005261 0.008654 0.000000 0.005027 0.000000
# 4 0.000000 0.000000 0.000000 0.024302 0.000000 -0.000649
# 5 0.047103 0.004941 0.005027 0.000000 0.064280 0.000000
# 6 0.000000 0.000000 0.000000 -0.000649 0.000000 0.046636
#
#
# Mechanical properties :
#
#
# Convention : Reuss Voigt Hill
#
# Bulk Modulus (GPa) = 9.85164 38.89766 24.37465
# Shear Modulus (GPa) = 18.23249 31.36481 24.79865
#
# Velocity S-wave (km/s) = 3.04142 3.98910 3.54705
# Velocity P-wave (km/s) = 4.16316 6.39937 5.39832
#
# Compressibility (1/GPa) = 0.10150591
#
# Stress axis : x y z
#
# Youngs Moduli (GPa) = 13.45821 49.05305 115.55606
#
# Poissons Ratio (x) = -0.10861 -0.24591
# Poissons Ratio (y) = -0.02980 0.60796
# Poissons Ratio (z) = -0.02864 0.25808
#
# Static dielectric constant tensor:
#      x y z
#    x 1.732540 0.000000 -0.024890 
#    y 0.000000 1.657720 0.000000 
#    z -0.024890 0.000000 1.691190 
# 
# From -- ./inp_files/55733.got.cif
#   From: 2010.05.17/outbox.ucp.g08.bks.cvg/sg11_28_cif.got.tgz:55733.got - 2010.06.11 11:38:39.
