data_PCOD9168771
_publ_section_title
;
Structure prediction by ZEFSAII (Michael W. Deem and Ramdas Pophale) SiO2 
 PCOD9168771
Probable space group: C 2/M
;
_chemical_formula_sum "Si O2"
_cell_formula_units_Z 40
_cell_length_a 10.438259
_cell_length_b 28.234948
_cell_length_c 6.971939
_cell_angle_alpha 90.000000
_cell_angle_beta 40.181721
_cell_angle_gamma 90.000000
_cell_volume 1325.782889
_symmetry_space_group_name_H-M "C 2/M"
_symmetry_group_IT_number 12
_symmetry_cell_setting 'monoclinic'
loop_
_space_group_symop_operation_xyz
x,y,z
-x,y,-z
-x,-y,-z
x,-y,z
1/2+x,1/2+y,z
1/2-x,1/2+y,-z
1/2-x,1/2-y,-z
1/2+x,1/2-y,z
loop_
_atom_site_type_symbol
_atom_site_label
_atom_site_fract_x
_atom_site_fract_y
_atom_site_fract_z
Si Si1 0.532855 0.854231 0.196301
Si Si2 0.502124 0.351559 0.280797
Si Si3 0.020324 0.747314 0.204697
Si Si4 0.813822 0.550840 0.988654
Si Si5 0.357686 0.554076 0.383523
O O1 0.761164 0.849339 0.017320
O O2 0.523780 0.910202 0.251966
O O3 0.500000 0.853075 0.000000
O O4 0.443954 0.803881 0.362321
O O5 0.500000 0.369668 0.500000
O O6 0.429803 0.297245 0.373510
O O7 0.361422 0.388116 0.325859
O O8 0.250000 0.750000 0.000000
O O9 0.000000 0.748407 0.000000
O O10 0.898884 0.500000 0.850488
O O11 0.600560 0.553602 0.129004
O O12 0.752955 0.552721 0.283172
O O13 0.320536 0.500000 0.346166
#
# Coordination Sequence:
#
# PCOD9168771 Si02
#       5
#     8   8   8   8   8
#     4   9  16  27  39  60  96 121 142 188 244 276
#     4  10  16  28  49  68  87 124 167 197 231 283
#     4   9  19  33  48  67  98 135 157 196 248 288
#     4   8  12  20  37  60  88 115 146 188 239 275
#     4   8  12  21  40  66  90 112 151 204 239 264
#
# _framework density 30.170855
#
# number of rings (size 3 to 8) (size 9 to 14) (size 15 to 20)
#    0.000    3.200    4.000    1.200    0.000    0.400 
#    0.000    9.000    0.000    0.600    0.000    0.000 
#    0.000    0.800    0.000    8.400    0.000    1.800 
#
# Total GULP energy -111401.061139 kJ/mol
# GULP energy per Si atom -5570.053057 kJ/mol
# Density = 3.010218 g / cm^3
# Si number density = 30.170855 Si / 1000 Ang^3
#
#
#
# Elastic Constant Matrix: (Units=GPa)
#
#
# Indices 1 2 3 4 5 6 
#
# 1 133.6633 22.0911 59.3385 0.0000 -13.1922 0.0000
# 2 22.0911 383.7067 11.4861 0.0000 -3.4318 0.0000
# 3 59.3385 11.4861 56.5672 0.0000 -0.8012 0.0000
# 4 0.0000 0.0000 0.0000 11.3056 0.0000 11.2312
# 5 -13.1922 -3.4318 -0.8012 0.0000 72.0837 0.0000
# 6 0.0000 0.0000 0.0000 11.2312 0.0000 13.3593
#
#
#
# Elastic Compliance Matrix: (Units=1/GPa)
#
#
# Indices 1 2 3 4 5 6 
#
# 1 0.014479 -0.000360 -0.015080 0.000000 0.002465 0.000000
# 2 -0.000360 0.002632 -0.000156 0.000000 0.000058 0.000000
# 3 -0.015080 -0.000156 0.033495 0.000000 -0.002395 0.000000
# 4 0.000000 0.000000 0.000000 0.536639 0.000000 -0.451154
# 5 0.002465 0.000058 -0.002395 0.000000 0.014300 0.000000
# 6 0.000000 0.000000 0.000000 -0.451154 0.000000 0.454141
#
#
# Mechanical properties :
#
#
# Convention : Reuss Voigt Hill
#
# Bulk Modulus (GPa) = 51.51075 84.41872 67.96474
# Shear Modulus (GPa) = 4.57310 51.41780 27.99545
#
# Velocity S-wave (km/s) = 1.23249 4.13270 3.04945
# Velocity P-wave (km/s) = 4.37441 7.12834 5.91391
#
# Compressibility (1/GPa) = 0.01941342
#
# Stress axis : x y z
#
# Youngs Moduli (GPa) = 69.06508 379.92873 29.85516
#
# Poissons Ratio (x) = 0.13682 0.45023
# Poissons Ratio (y) = 0.02487 0.00465
# Poissons Ratio (z) = 1.04153 0.05921
#
# Static dielectric constant tensor:
#      x y z
#    x 2.400140 0.000000 -0.033620 
#    y 0.000000 2.513920 0.000000 
#    z -0.033620 0.000000 2.423520 
# 
# From -- ./inp_files/53660.got.cif
#   From: 2010.05.17/outbox.cif.g08.bks.cpg/sg12_27_cif.got.tgz:53660.got - 2010.06.03 13:09:07.
