data_PCOD9169159
_publ_section_title
;
Structure prediction by ZEFSAII (Michael W. Deem and Ramdas Pophale) SiO2 
 PCOD9169159
Probable space group: C 2/M
;
_chemical_formula_sum "Si O2"
_cell_formula_units_Z 56
_cell_length_a 15.044486
_cell_length_b 8.045209
_cell_length_c 22.164480
_cell_angle_alpha 90.000000
_cell_angle_beta 121.673405
_cell_angle_gamma 90.000000
_cell_volume 2283.125696
_symmetry_space_group_name_H-M "C 2/M"
_symmetry_group_IT_number 12
_symmetry_cell_setting 'monoclinic'
loop_
_space_group_symop_operation_xyz
x,y,z
-x,y,-z
-x,-y,-z
x,-y,z
1/2+x,1/2+y,z
1/2-x,1/2+y,-z
1/2-x,1/2-y,-z
1/2+x,1/2-y,z
loop_
_atom_site_type_symbol
_atom_site_label
_atom_site_fract_x
_atom_site_fract_y
_atom_site_fract_z
Si Si1 0.787296 0.307041 0.256182
Si Si2 0.150744 0.299225 0.597062
Si Si3 0.742504 0.298919 0.112006
Si Si4 0.488563 0.313865 0.694263
Si Si5 0.512548 0.190440 0.824733
Si Si6 0.592485 0.802117 0.450651
Si Si7 0.428814 0.685397 0.033119
O O1 0.755634 0.500000 0.248815
O O2 0.784307 0.232513 0.322496
O O3 0.731561 0.234128 0.176922
O O4 0.911190 0.302757 0.282515
O O5 0.166229 0.500000 0.600569
O O6 0.159284 0.236628 0.531300
O O7 0.028882 0.275061 0.572519
O O8 0.722053 0.500000 0.106451
O O9 0.863362 0.278230 0.139257
O O10 0.673187 0.229985 0.032546
O O11 0.527371 0.500000 0.698727
O O12 0.456857 0.293397 0.752475
O O13 0.401567 0.277481 0.613221
O O14 0.503312 0.230084 0.891277
O O15 0.488604 0.000000 0.804168
O O16 0.607860 0.000000 0.450986
O O17 0.402834 0.500000 0.046732
O O18 0.500000 0.671025 0.000000
#
# Coordination Sequence:
#
# PCOD9169159 Si02
#       7
#     8   8   8   8   8   8   8
#     4   8  13  24  39  55  78 110 148 181 208 245
#     4   7  10  17  32  50  71 105 144 177 205 240
#     4   8  15  28  47  68  88 115 149 182 215 253
#     4  10  17  24  36  57  83 109 140 178 220 259
#     4  10  19  32  49  65  84 114 153 188 213 249
#     4   8  12  20  32  48  74 109 144 172 206 251
#     4  10  20  33  48  68  94 117 138 173 223 271
#
# _framework density 24.527777
#
# number of rings (size 3 to 8) (size 9 to 14) (size 15 to 20)
#    0.000    3.286    0.000    4.714    0.000    0.286 
#    0.000    8.571    0.000    0.000    0.000    0.000 
#    0.000    1.143    0.000    2.000    0.000    7.429 
#
# Total GULP energy -156084.731902 kJ/mol
# GULP energy per Si atom -5574.454711 kJ/mol
# Density = 2.447195 g / cm^3
# Si number density = 24.527777 Si / 1000 Ang^3
#
#
#
# Elastic Constant Matrix: (Units=GPa)
#
#
# Indices 1 2 3 4 5 6 
#
# 1 28.1463 7.6629 62.4517 0.0000 20.7149 0.0000
# 2 7.6629 39.3337 11.4576 0.0000 -10.1341 0.0000
# 3 62.4517 11.4576 145.5001 0.0000 -52.5242 0.0000
# 4 0.0000 0.0000 0.0000 3.9196 0.0000 -2.2714
# 5 20.7149 -10.1341 -52.5242 0.0000 26.6372 0.0000
# 6 0.0000 0.0000 0.0000 -2.2714 0.0000 0.8174
#
#
#
# Elastic Compliance Matrix: (Units=1/GPa)
#
#
# Indices 1 2 3 4 5 6 
#
# 1 -0.003546 0.003840 0.009516 0.000000 0.022983 0.000000
# 2 0.003840 0.025475 -0.004281 0.000000 -0.001736 0.000000
# 3 0.009516 -0.004281 -0.000465 0.000000 -0.009945 0.000000
# 4 0.000000 0.000000 0.000000 -0.418059 0.000000 -1.161673
# 5 0.022983 -0.001736 -0.009945 0.000000 -0.000602 0.000000
# 6 0.000000 0.000000 0.000000 -1.161673 0.000000 -2.004621
#
#
# Mechanical properties :
#
#
# Convention : Reuss Voigt Hill
#
# Bulk Modulus (GPa) = 25.24277 41.79159 33.51718
# Shear Modulus (GPa) = -2.07748 15.03539 6.47896
#
# Velocity S-wave (km/s) = -0.92132 2.47856 1.62703
# Velocity P-wave (km/s) = 3.03019 5.02658 4.15021
#
# Compressibility (1/GPa) = 0.03961531
#
# Stress axis : x y z
#
# Youngs Moduli (GPa) = -282.02031 39.25387 -2151.89611
#
# Poissons Ratio (x) = -0.15074 20.47756
# Poissons Ratio (y) = 1.08300 -9.21199
# Poissons Ratio (z) = 2.68372 0.16804
#
# Static dielectric constant tensor:
#      x y z
#    x 2.019140 0.000000 -0.019960 
#    y 0.000000 1.890910 0.000000 
#    z -0.019960 0.000000 2.101110 
# 
# From -- ./inp_files/345316.got.cif
#   From: 2010.05.17/outbox.cif.g08.bks.cpg/sg12_173_cif.got.tgz:345316.got - 2010.06.03 13:09:07.
