data_PCOD9169881
_publ_section_title
;
Structure prediction by ZEFSAII (Michael W. Deem and Ramdas Pophale) SiO2 
 PCOD9169881
Probable space group: C 2/M
;
_chemical_formula_sum "Si O2"
_cell_formula_units_Z 56
_cell_length_a 16.316011
_cell_length_b 15.241622
_cell_length_c 10.072761
_cell_angle_alpha 90.000000
_cell_angle_beta 81.135120
_cell_angle_gamma 90.000000
_cell_volume 2474.996625
_symmetry_space_group_name_H-M "C 2/M"
_symmetry_group_IT_number 12
_symmetry_cell_setting 'monoclinic'
loop_
_space_group_symop_operation_xyz
x,y,z
-x,y,-z
-x,-y,-z
x,-y,z
1/2+x,1/2+y,z
1/2-x,1/2+y,-z
1/2-x,1/2-y,-z
1/2+x,1/2-y,z
loop_
_atom_site_type_symbol
_atom_site_label
_atom_site_fract_x
_atom_site_fract_y
_atom_site_fract_z
Si Si1 0.395570 0.134546 0.413731
Si Si2 0.233287 0.903121 0.302423
Si Si3 0.135835 0.896256 0.991991
Si Si4 0.995997 0.898077 0.216282
Si Si5 0.237415 0.705046 0.205265
Si Si6 0.924418 0.598411 0.705951
Si Si7 0.856119 0.168309 0.424645
O O1 0.324885 0.093290 0.342621
O O2 0.408408 0.090823 0.552119
O O3 0.482094 0.135544 0.312266
O O4 0.362786 0.230562 0.460202
O O5 0.235810 0.810286 0.223288
O O6 0.171902 0.887812 0.442838
O O7 0.216848 0.000000 0.246540
O O8 0.067877 0.889622 0.890808
O O9 0.209229 0.832409 0.930684
O O10 0.159058 0.000000 0.987672
O O11 0.085137 0.870689 0.137485
O O12 0.947487 0.854326 0.348179
O O13 0.003938 0.000000 0.246246
O O14 0.146541 0.662129 0.222133
O O15 0.288079 0.665654 0.322203
O O16 0.920219 0.500000 0.764627
#
# Coordination Sequence:
#
# PCOD9169881 Si02
#       7
#     8   8   8   8   8   8   8
#     4  10  19  30  42  66  96 122 156 187 227 279
#     4  11  19  30  45  67  98 128 155 185 222 275
#     4   8  14  25  42  68  96 115 144 194 237 272
#     4   8  14  24  42  67  91 119 151 185 234 275
#     4  10  18  29  45  70  93 118 155 191 232 275
#     4  11  19  29  46  67  94 126 151 191 235 272
#     4  10  17  29  44  66  96 124 151 189 225 276
#
# _framework density 22.626293
#
# number of rings (size 3 to 8) (size 9 to 14) (size 15 to 20)
#    0.000    2.286    2.857    4.286    0.000    1.143 
#    0.000    0.000    0.000    3.429    0.000   20.000 
#    0.000    0.000    0.000    0.000    0.000    0.000 
#
# Total GULP energy -156363.165753 kJ/mol
# GULP energy per Si atom -5584.398777 kJ/mol
# Density = 2.257479 g / cm^3
# Si number density = 22.626293 Si / 1000 Ang^3
#
#
#
# Elastic Constant Matrix: (Units=GPa)
#
#
# Indices 1 2 3 4 5 6 
#
# 1 87.0080 65.2656 44.4493 0.0000 -34.4556 0.0000
# 2 65.2656 104.2874 35.3704 0.0000 -37.2645 0.0000
# 3 44.4493 35.3704 92.9986 0.0000 -37.0759 0.0000
# 4 0.0000 0.0000 0.0000 9.0350 0.0000 -27.7659
# 5 -34.4556 -37.2645 -37.0759 0.0000 45.0076 0.0000
# 6 0.0000 0.0000 0.0000 -27.7659 0.0000 4.0114
#
#
#
# Elastic Compliance Matrix: (Units=1/GPa)
#
#
# Indices 1 2 3 4 5 6 
#
# 1 0.025498 -0.012398 -0.005631 0.000000 0.004616 0.000000
# 2 -0.012398 0.019711 0.001714 0.000000 0.008241 0.000000
# 3 -0.005631 0.001714 0.017331 0.000000 0.011386 0.000000
# 4 0.000000 0.000000 0.000000 -0.005460 0.000000 -0.037792
# 5 0.004616 0.008241 0.011386 0.000000 0.041955 0.000000
# 6 0.000000 0.000000 0.000000 -0.037792 0.000000 -0.012297
#
#
# Mechanical properties :
#
#
# Convention : Reuss Voigt Hill
#
# Bulk Modulus (GPa) = 33.43269 63.82938 48.63104
# Shear Modulus (GPa) = 38.65878 20.89137 29.77508
#
# Velocity S-wave (km/s) = 4.13798 3.04192 3.63154
# Velocity P-wave (km/s) = 6.13503 6.37254 6.25491
#
# Compressibility (1/GPa) = 0.02991084
#
# Stress axis : x y z
#
# Youngs Moduli (GPa) = 39.21943 50.73314 57.69875
#
# Poissons Ratio (x) = 0.62897 0.32491
# Poissons Ratio (y) = 0.48623 -0.09891
# Poissons Ratio (z) = 0.22085 -0.08697
#
# Static dielectric constant tensor:
#      x y z
#    x 1.850080 0.000000 -0.003260 
#    y 0.000000 1.821190 0.000000 
#    z -0.003260 0.000000 1.858030 
# 
# From -- ./inp_files/155968.got.cif
#   From: 2010.05.17/outbox.cif.g08.bks.cpg/sg12_78_cif.got.tgz:155968.got - 2010.06.03 13:09:07.
