data_PCOD9169581
_publ_section_title
;
Structure prediction by ZEFSAII (Michael W. Deem and Ramdas Pophale) SiO2 
 PCOD9169581
Probable space group: C 2/M
;
_chemical_formula_sum "Si O2"
_cell_formula_units_Z 64
_cell_length_a 16.130583
_cell_length_b 19.818954
_cell_length_c 9.906019
_cell_angle_alpha 90.000000
_cell_angle_beta 108.366421
_cell_angle_gamma 90.000000
_cell_volume 3005.550324
_symmetry_space_group_name_H-M "C 2/M"
_symmetry_group_IT_number 12
_symmetry_cell_setting 'monoclinic'
loop_
_space_group_symop_operation_xyz
x,y,z
-x,y,-z
-x,-y,-z
x,-y,z
1/2+x,1/2+y,z
1/2-x,1/2+y,-z
1/2-x,1/2-y,-z
1/2+x,1/2-y,z
loop_
_atom_site_type_symbol
_atom_site_label
_atom_site_fract_x
_atom_site_fract_y
_atom_site_fract_z
Si Si1 0.431279 0.323014 0.355722
Si Si2 0.056612 0.666283 0.702737
Si Si3 0.068721 0.323014 0.144278
Si Si4 0.176754 0.422954 0.591943
Si Si5 0.443388 0.333717 0.797263
Si Si6 0.676755 0.422954 0.091944
Si Si7 0.791179 0.176365 0.493524
Si Si8 0.708821 0.823634 0.006476
O O1 0.500000 0.351229 0.500000
O O2 0.444870 0.242192 0.353867
O O3 0.464729 0.349343 0.228494
O O4 0.336105 0.331753 0.370546
O O5 0.093585 0.615147 0.612010
O O6 0.129508 0.669317 0.858629
O O7 0.964729 0.650658 0.728494
O O8 0.055129 0.242191 0.146133
O O9 0.163895 0.331753 0.129454
O O10 0.000000 0.351229 0.000000
O O11 0.158456 0.500000 0.545798
O O12 0.250000 0.423304 0.750000
O O13 0.220683 0.379663 0.496007
O O14 0.406415 0.384853 0.887990
O O15 0.370492 0.330683 0.641371
O O16 0.658456 0.500000 0.045798
O O17 0.720684 0.379663 0.996008
O O18 0.750000 0.250000 0.500000
O O19 0.750000 0.750000 0.000000
#
# Coordination Sequence:
#
# PCOD9169581 Si02
#       8
#     8   8   8   8   8   8   8   8
#     4   9  17  28  44  68  93 115 149 193 224 262
#     4   9  17  29  44  67  94 118 149 185 231 262
#     4   9  17  28  44  68  93 115 149 193 224 262
#     4   9  17  29  45  66  94 120 148 185 227 271
#     4   9  17  29  44  67  94 118 149 185 231 262
#     4   9  17  29  45  66  94 120 148 185 227 271
#     4  10  17  27  46  71  92 115 154 189 225 266
#     4  10  17  27  46  71  92 115 154 189 225 266
#
# _framework density 21.293937
#
# number of rings (size 3 to 8) (size 9 to 14) (size 15 to 20)
#    0.000    2.750    2.500    0.000    0.000    0.000 
#    0.000    1.250    0.000    8.250    0.000    3.500 
#    0.000    0.000    0.000    0.000    0.000    0.000 
#
# Total GULP energy -178607.001906 kJ/mol
# GULP energy per Si atom -5581.468810 kJ/mol
# Density = 2.124547 g / cm^3
# Si number density = 21.293937 Si / 1000 Ang^3
#
#
#
# Elastic Constant Matrix: (Units=GPa)
#
#
# Indices 1 2 3 4 5 6 
#
# 1 173.8435 65.0912 79.5801 0.0000 -63.0553 0.0000
# 2 65.0912 101.7663 28.9179 0.0000 -54.1386 0.0000
# 3 79.5801 28.9179 72.9571 0.0000 -35.3562 0.0000
# 4 0.0000 0.0000 0.0000 19.2783 0.0000 -7.7376
# 5 -63.0553 -54.1386 -35.3562 0.0000 72.3348 0.0000
# 6 0.0000 0.0000 0.0000 -7.7376 0.0000 21.0643
#
#
#
# Elastic Compliance Matrix: (Units=1/GPa)
#
#
# Indices 1 2 3 4 5 6 
#
# 1 0.013866 -0.003571 -0.011986 0.000000 0.003556 0.000000
# 2 -0.003571 0.017276 0.002366 0.000000 0.010973 0.000000
# 3 -0.011986 0.002366 0.028354 0.000000 0.005181 0.000000
# 4 0.000000 0.000000 0.000000 0.060842 0.000000 0.022349
# 5 0.003556 0.010973 0.005181 0.000000 0.027670 0.000000
# 6 0.000000 0.000000 0.000000 0.022349 0.000000 0.055683
#
#
# Mechanical properties :
#
#
# Convention : Reuss Voigt Hill
#
# Bulk Modulus (GPa) = 30.19976 77.30502 53.75239
# Shear Modulus (GPa) = 20.73725 34.20068 27.46897
#
# Velocity S-wave (km/s) = 3.12405 4.01199 3.59554
# Velocity P-wave (km/s) = 5.21786 7.60553 6.52189
#
# Compressibility (1/GPa) = 0.03311284
#
# Stress axis : x y z
#
# Youngs Moduli (GPa) = 72.11871 57.88294 35.26833
#
# Poissons Ratio (x) = 0.20672 0.42273
# Poissons Ratio (y) = 0.25757 -0.08344
# Poissons Ratio (z) = 0.86442 -0.13694
#
# Static dielectric constant tensor:
#      x y z
#    x 1.842190 0.000000 0.068230 
#    y 0.000000 1.686870 0.000000 
#    z 0.068230 0.000000 1.927230 
# 
# From -- ./inp_files/157840.got.cif
#   From: 2010.05.17/outbox.cif.g08.bks.cpg/sg12_79_cif.got.tgz:157840.got - 2010.06.03 13:09:07.
