data_PCOD9169379
_publ_section_title
;
Structure prediction by ZEFSAII (Michael W. Deem and Ramdas Pophale) SiO2 
 PCOD9169379
Probable space group: C 2/M
;
_chemical_formula_sum "Si O2"
_cell_formula_units_Z 40
_cell_length_a 11.761036
_cell_length_b 15.845760
_cell_length_c 13.231070
_cell_angle_alpha 90.000000
_cell_angle_beta 141.247553
_cell_angle_gamma 90.000000
_cell_volume 1543.469200
_symmetry_space_group_name_H-M "C 2/M"
_symmetry_group_IT_number 12
_symmetry_cell_setting 'monoclinic'
loop_
_space_group_symop_operation_xyz
x,y,z
-x,y,-z
-x,-y,-z
x,-y,z
1/2+x,1/2+y,z
1/2-x,1/2+y,-z
1/2-x,1/2-y,-z
1/2+x,1/2-y,z
loop_
_atom_site_type_symbol
_atom_site_label
_atom_site_fract_x
_atom_site_fract_y
_atom_site_fract_z
Si Si1 0.780730 0.663864 0.462492
Si Si2 0.511761 0.399806 0.873154
Si Si3 0.099095 0.396942 0.173819
Si Si4 0.051552 0.095502 0.674614
Si Si5 0.621744 0.897869 0.782928
O O1 0.750000 0.750000 0.500000
O O2 0.668350 0.651988 0.280914
O O3 0.663079 0.604819 0.457391
O O4 0.988936 0.638207 0.605896
O O5 0.466590 0.500000 0.854702
O O6 0.615169 0.393801 0.835277
O O7 0.665882 0.374663 0.060034
O O8 0.093925 0.500000 0.178853
O O9 0.305335 0.360747 0.300760
O O10 0.984303 0.366612 0.189855
O O11 0.000000 0.376443 0.000000
O O12 0.074578 0.000000 0.661416
O O13 0.619822 0.000000 0.776677
#
# Coordination Sequence:
#
# PCOD9169379 Si02
#       5
#     8   8   8   8   8
#     4  10  19  28  36  51  78 110 142 167 186 219
#     4   8  15  28  40  55  78  98 131 170 190 220
#     4   9  13  21  39  61  81  99 124 160 193 226
#     4   8  14  26  38  54  80 102 126 162 192 216
#     4  10  17  26  44  61  76 106 136 158 198 235
#
# _framework density 25.915645999999999
#
# number of rings (size 3 to 8) (size 9 to 14) (size 15 to 20)
#    1.200    1.800    2.000    1.200    0.000    1.600 
#    0.000    3.000    0.000    0.000    0.000    0.000 
#    0.000    0.000    0.000   32.400    0.000  101.400 
#
# Total GULP energy -111404.808402 kJ/mol
# GULP energy per Si atom -5570.240420 kJ/mol
# Density = 2.585666 g / cm^3
# Si number density = 25.915646 Si / 1000 Ang^3
#
#
#
# Elastic Constant Matrix: (Units=GPa)
#
#
# Indices 1 2 3 4 5 6 
#
# 1 124.7537 5.8839 59.9402 0.0003 20.4715 0.0001
# 2 5.8839 34.2723 49.9220 0.0004 10.9875 0.0004
# 3 59.9402 49.9220 238.9288 0.0010 23.9109 0.0009
# 4 0.0003 0.0004 0.0010 7.3358 0.0004 -2.9042
# 5 20.4715 10.9875 23.9109 0.0004 62.4054 0.0002
# 6 0.0001 0.0004 0.0009 -2.9042 0.0002 -16.0868
#
#
#
# Elastic Compliance Matrix: (Units=1/GPa)
#
#
# Indices 1 2 3 4 5 6 
#
# 1 0.009670 0.003364 -0.002862 0.000000 -0.002668 0.000000
# 2 0.003364 0.044193 -0.009555 -0.000001 -0.005223 0.000001
# 3 -0.002862 -0.009555 0.006902 0.000000 -0.000024 0.000000
# 4 0.000000 -0.000001 0.000000 0.127225 0.000000 -0.022968
# 5 -0.002668 -0.005223 -0.000024 0.000000 0.017828 0.000000
# 6 0.000000 0.000001 0.000000 -0.022968 0.000000 -0.058016
#
#
# Mechanical properties :
#
#
# Convention : Reuss Voigt Hill
#
# Bulk Modulus (GPa) = 23.44174 69.93856 46.69015
# Shear Modulus (GPa) = 27.75819 29.54480 28.65149
#
# Velocity S-wave (km/s) = 3.27631 3.38011 3.32861
# Velocity P-wave (km/s) = 4.83501 6.50224 5.72959
#
# Compressibility (1/GPa) = 0.04265895
#
# Stress axis : x y z
#
# Youngs Moduli (GPa) = 103.41382 22.62808 144.88565
#
# Poissons Ratio (x) = -0.07611 0.41462
# Poissons Ratio (y) = -0.34784 1.38435
# Poissons Ratio (z) = 0.29594 0.21621
#
# Static dielectric constant tensor:
#      x y z
#    x 2.242690 0.000000 0.097620 
#    y 0.000000 1.894130 0.000000 
#    z 0.097620 0.000000 2.178630 
# 
# From -- ./inp_files/325792.got.cif
#   From: 2010.05.17/outbox.cif.g08.bks.cpg/sg12_163_cif.got.tgz:325792.got - 2010.06.03 13:09:07.
