data_PCOD9169628
_publ_section_title
;
Structure prediction by ZEFSAII (Michael W. Deem and Ramdas Pophale) SiO2 
 PCOD9169628
Probable space group: C 2/M
;
_chemical_formula_sum "Si O2"
_cell_formula_units_Z 56
_cell_length_a 17.526136
_cell_length_b 20.295609
_cell_length_c 17.338122
_cell_angle_alpha 90.000000
_cell_angle_beta 144.723233
_cell_angle_gamma 90.000000
_cell_volume 3561.741045
_symmetry_space_group_name_H-M "C 2/M"
_symmetry_group_IT_number 12
_symmetry_cell_setting 'monoclinic'
loop_
_space_group_symop_operation_xyz
x,y,z
-x,y,-z
-x,-y,-z
x,-y,z
1/2+x,1/2+y,z
1/2-x,1/2+y,-z
1/2-x,1/2-y,-z
1/2+x,1/2-y,z
loop_
_atom_site_type_symbol
_atom_site_label
_atom_site_fract_x
_atom_site_fract_y
_atom_site_fract_z
Si Si1 0.179103 0.194219 0.840448
Si Si2 0.641437 0.210265 0.156622
Si Si3 0.388916 0.637696 0.816175
Si Si4 0.328713 0.576543 0.916406
Si Si5 0.115504 0.169321 0.358887
Si Si6 0.855158 0.655840 0.128198
Si Si7 0.148467 0.676886 0.336151
O O1 0.244339 0.193536 0.810102
O O2 0.166673 0.271499 0.852990
O O3 0.033530 0.163650 0.731908
O O4 0.278375 0.160546 0.983502
O O5 0.637256 0.288054 0.175491
O O6 0.661352 0.174597 0.254658
O O7 0.500000 0.195658 0.000000
O O8 0.311471 0.590857 0.811296
O O9 0.361511 0.632104 0.702966
O O10 0.543373 0.619612 0.953869
O O11 0.356421 0.500000 0.951681
O O12 0.209937 0.602769 0.869677
O O13 0.131867 0.246223 0.347624
O O14 0.224754 0.152289 0.512504
O O15 0.009899 0.644370 0.244497
#
# Coordination Sequence:
#
# PCOD9169628 Si02
#       7
#     8   8   8   8   8   8   8
#     4  10  17  27  49  70  98 129 164 198 243 305
#     4  11  16  26  47  75 101 130 163 193 244 302
#     4  10  17  30  47  68 102 134 167 200 248 278
#     4  11  20  30  49  76  99 128 176 215 238 274
#     4   9  18  31  44  68 101 132 161 197 245 303
#     4  10  17  30  46  71  96 130 163 202 248 289
#     4   9  19  29  45  69 101 131 158 197 252 301
#
# _framework density 15.722648
#
# number of rings (size 3 to 8) (size 9 to 14) (size 15 to 20)
#    0.000    2.000    5.714    0.857    0.000    0.571 
#    0.000    0.714    0.000    2.571    0.000    2.000 
#    0.000    1.143    0.000    0.000    0.000    0.000 
#
# Total GULP energy -155976.976185 kJ/mol
# GULP energy per Si atom -5570.606292 kJ/mol
# Density = 1.568686 g / cm^3
# Si number density = 15.722648 Si / 1000 Ang^3
#
#
#
# Elastic Constant Matrix: (Units=GPa)
#
#
# Indices 1 2 3 4 5 6 
#
# 1 151.4359 17.4390 69.8400 -0.0002 -9.8671 -0.0001
# 2 17.4390 19.4280 8.0603 -0.0001 -0.9795 0.0000
# 3 69.8400 8.0603 115.5662 -0.0001 -7.9166 0.0000
# 4 -0.0002 -0.0001 -0.0001 2.8715 0.0000 -4.6395
# 5 -9.8671 -0.9795 -7.9166 0.0000 23.5994 0.0000
# 6 -0.0001 0.0000 0.0000 -4.6395 0.0000 3.1409
#
#
#
# Elastic Compliance Matrix: (Units=1/GPa)
#
#
# Indices 1 2 3 4 5 6 
#
# 1 0.010014 -0.006624 -0.005447 0.000000 0.002085 0.000000
# 2 -0.006624 0.057410 -0.000028 -0.000002 -0.000396 -0.000002
# 3 -0.005447 -0.000028 0.012068 0.000000 0.001770 0.000000
# 4 0.000000 -0.000002 0.000000 -0.251158 0.000000 -0.370989
# 5 0.002085 -0.000396 0.001770 0.000000 0.043823 -0.000001
# 6 0.000000 -0.000002 0.000000 -0.370989 -0.000001 -0.229617
#
#
# Mechanical properties :
#
#
# Convention : Reuss Voigt Hill
#
# Bulk Modulus (GPa) = 18.08531 53.01208 35.54869
# Shear Modulus (GPa) = -15.88157 18.66176 1.39010
#
# Velocity S-wave (km/s) = -3.18167 3.44893 0.94131
# Velocity P-wave (km/s) = 1.40344 7.04630 4.88266
#
# Compressibility (1/GPa) = 0.05529351
#
# Stress axis : x y z
#
# Youngs Moduli (GPa) = 99.85822 17.41866 82.86332
#
# Poissons Ratio (x) = 0.11538 0.45136
# Poissons Ratio (y) = 0.66146 0.00234
# Poissons Ratio (z) = 0.54393 0.00049
#
# Static dielectric constant tensor:
#      x y z
#    x 1.533420 0.000000 -0.006700 
#    y 0.000000 1.498220 0.000000 
#    z -0.006700 0.000000 1.532960 
# 
# From -- ./inp_files/218306.got.cif
#   From: 2010.05.17/outbox.cif.g08.bks.cpg/sg12_110_cif.got.tgz:218306.got - 2010.06.03 13:09:07.
