data_PCOD9169146
_publ_section_title
;
Structure prediction by ZEFSAII (Michael W. Deem and Ramdas Pophale) SiO2 
 PCOD9169146
Probable space group: C 2/M
;
_chemical_formula_sum "Si O2"
_cell_formula_units_Z 56
_cell_length_a 18.189949
_cell_length_b 7.808122
_cell_length_c 29.837223
_cell_angle_alpha 90.000000
_cell_angle_beta 139.462692
_cell_angle_gamma 90.000000
_cell_volume 2754.303374
_symmetry_space_group_name_H-M "C 2/M"
_symmetry_group_IT_number 12
_symmetry_cell_setting 'monoclinic'
loop_
_space_group_symop_operation_xyz
x,y,z
-x,y,-z
-x,-y,-z
x,-y,z
1/2+x,1/2+y,z
1/2-x,1/2+y,-z
1/2-x,1/2-y,-z
1/2+x,1/2-y,z
loop_
_atom_site_type_symbol
_atom_site_label
_atom_site_fract_x
_atom_site_fract_y
_atom_site_fract_z
Si Si1 0.085622 0.793271 0.999742
Si Si2 0.388357 0.803037 0.854813
Si Si3 0.710488 0.795021 0.431873
Si Si4 0.122618 0.701631 0.568959
Si Si5 0.044799 0.290372 0.703968
Si Si6 0.719666 0.206839 0.707074
Si Si7 0.719758 0.196696 0.853133
O O1 0.019577 0.737367 0.924712
O O2 0.089842 0.000000 0.001938
O O3 0.209080 0.728544 0.072247
O O4 0.000000 0.738347 0.000000
O O5 0.338118 0.768799 0.782579
O O6 0.310641 0.696963 0.853875
O O7 0.368413 0.000000 0.856955
O O8 0.750000 0.750000 0.500000
O O9 0.796712 0.719845 0.435986
O O10 0.583115 0.733993 0.362638
O O11 0.711253 0.000000 0.427719
O O12 0.104258 0.500000 0.570173
O O13 0.183446 0.771848 0.641565
O O14 0.000000 0.776705 0.500000
O O15 0.045592 0.500000 0.705643
O O16 0.122800 0.241242 0.697864
O O17 0.107850 0.227665 0.778337
O O18 0.724743 0.000000 0.708962
O O19 0.693620 0.000000 0.852594
#
# Coordination Sequence:
#
# PCOD9169146 Si02
#       7
#     8   8   8   8   8   8   8
#     4   8  13  22  37  57  84 121 162 199 234 281
#     4  10  17  23  36  62  96 126 154 195 245 289
#     4  11  22  36  55  78 105 133 164 203 247 298
#     4  10  21  38  58  77  99 130 167 206 250 298
#     4   8  15  30  51  72  94 127 167 203 242 288
#     4   9  17  32  52  69  92 129 169 202 236 290
#     4   8  14  26  42  59  85 124 167 201 233 283
#
# _framework density 20.33182
#
# number of rings (size 3 to 8) (size 9 to 14) (size 15 to 20)
#    0.000    2.857    0.000    4.286    0.000    5.714 
#    0.000    8.571    0.000    0.000    0.000    1.000 
#    0.000    0.000    0.000    0.000    0.000    0.000 
#
# Total GULP energy -155998.530362 kJ/mol
# GULP energy per Si atom -5571.376084 kJ/mol
# Density = 2.028554 g / cm^3
# Si number density = 20.331820 Si / 1000 Ang^3
#
#
#
# Elastic Constant Matrix: (Units=GPa)
#
#
# Indices 1 2 3 4 5 6 
#
# 1 37.5309 -8.9547 57.6079 -0.0001 -3.3563 0.0002
# 2 -8.9547 37.0822 4.8131 -0.0002 -1.7245 0.0005
# 3 57.6079 4.8131 258.8835 0.0000 -1.2520 -0.0001
# 4 -0.0001 -0.0002 0.0000 -7.4576 0.0000 -4.0707
# 5 -3.3563 -1.7245 -1.2520 0.0000 20.3451 -0.0001
# 6 0.0002 0.0005 -0.0001 -4.0707 -0.0001 9.0119
#
#
#
# Elastic Compliance Matrix: (Units=1/GPa)
#
#
# Indices 1 2 3 4 5 6 
#
# 1 0.046780 0.013054 -0.010613 0.000000 0.008171 -0.000002
# 2 0.013054 0.030780 -0.003455 0.000000 0.004550 -0.000002
# 3 -0.010613 -0.003455 0.006281 0.000000 -0.001657 0.000000
# 4 0.000000 0.000000 0.000000 -0.107570 0.000000 -0.048589
# 5 0.008171 0.004550 -0.001657 0.000000 0.050783 0.000000
# 6 -0.000002 -0.000002 0.000000 -0.048589 0.000000 0.089017
#
#
# Mechanical properties :
#
#
# Convention : Reuss Voigt Hill
#
# Bulk Modulus (GPa) = 12.22302 48.93656 30.57979
# Shear Modulus (GPa) = 34.39489 23.04856 28.72173
#
# Velocity S-wave (km/s) = 4.11746 3.37058 3.76260
# Velocity P-wave (km/s) = 5.35065 6.26649 5.82660
#
# Compressibility (1/GPa) = 0.08181285
#
# Stress axis : x y z
#
# Youngs Moduli (GPa) = 21.37645 32.48911 159.22025
#
# Poissons Ratio (x) = -0.42412 1.68980
# Poissons Ratio (y) = -0.27905 0.55013
# Poissons Ratio (z) = 0.22687 0.11225
#
# Static dielectric constant tensor:
#      x y z
#    x 1.634220 0.000000 -0.004660 
#    y 0.000000 1.752530 0.000000 
#    z -0.004660 0.000000 1.810620 
# 
# From -- ./inp_files/342580.got.cif
#   From: 2010.05.17/outbox.cif.g08.bks.cpg/sg12_172_cif.got.tgz:342580.got - 2010.06.03 13:09:07.
