data_PCOD9169313
_publ_section_title
;
Structure prediction by ZEFSAII (Michael W. Deem and Ramdas Pophale) SiO2 
 PCOD9169313
Probable space group: C 2/M
;
_chemical_formula_sum "Si O2"
_cell_formula_units_Z 64
_cell_length_a 24.524860
_cell_length_b 9.329361
_cell_length_c 24.229997
_cell_angle_alpha 90.000000
_cell_angle_beta 49.918089
_cell_angle_gamma 90.000000
_cell_volume 4241.739854
_symmetry_space_group_name_H-M "C 2/M"
_symmetry_group_IT_number 12
_symmetry_cell_setting 'monoclinic'
loop_
_space_group_symop_operation_xyz
x,y,z
-x,y,-z
-x,-y,-z
x,-y,z
1/2+x,1/2+y,z
1/2-x,1/2+y,-z
1/2-x,1/2-y,-z
1/2+x,1/2-y,z
loop_
_atom_site_type_symbol
_atom_site_label
_atom_site_fract_x
_atom_site_fract_y
_atom_site_fract_z
Si Si1 0.213890 0.330583 0.751623
Si Si2 0.547823 0.334518 0.525029
Si Si3 0.333704 0.834300 0.612310
Si Si4 0.920370 0.169475 0.120214
Si Si5 0.310503 0.668078 0.797745
Si Si6 0.280330 0.828700 0.033669
Si Si7 0.584798 0.330211 0.008246
Si Si8 0.429716 0.164776 0.661728
O O1 0.211307 0.500000 0.742294
O O2 0.261978 0.248732 0.675429
O O3 0.136282 0.262560 0.809727
O O4 0.254949 0.310308 0.783523
O O5 0.500000 0.334061 0.500000
O O6 0.561766 0.500000 0.529699
O O7 0.619207 0.248458 0.463504
O O8 0.499860 0.255413 0.601776
O O9 0.382159 0.833704 0.636509
O O10 0.321094 0.000000 0.605987
O O11 0.910176 0.193858 0.061092
O O12 0.908049 0.000000 0.137893
O O13 0.003214 0.200668 0.078234
O O14 0.330363 0.500000 0.783943
O O15 0.271109 0.700652 0.880443
O O16 0.379524 0.762864 0.740032
O O17 0.357306 0.764942 0.998918
O O18 0.283568 0.000000 0.023955
O O19 0.250000 0.750000 0.000000
O O20 0.597972 0.500000 0.009057
O O21 0.446428 0.000000 0.663400
#
# Coordination Sequence:
#
# PCOD9169313 Si02
#       8
#     8   8   8   8   8   8   8   8
#     4  10  17  26  40  60  84 111 143 179 217 257
#     4   9  15  23  34  49  72 103 136 171 209 248
#     4   9  16  24  34  51  76 106 140 174 208 250
#     4   9  17  29  46  66  88 113 142 179 222 264
#     4   9  18  30  41  57  81 107 140 179 218 260
#     4  11  22  35  49  66  87 115 148 186 228 270
#     4   9  18  32  48  66  87 112 143 180 222 268
#     4   9  16  24  37  54  72 100 137 175 211 249
#
# _framework density 15.088148
#
# number of rings (size 3 to 8) (size 9 to 14) (size 15 to 20)
#    0.000    2.625    1.250    2.625    0.000    6.500 
#    0.000    1.250    0.000    0.000    0.000    0.000 
#    0.000    0.000    0.000    1.125    0.000   14.875 
#
# Total GULP energy -178324.276974 kJ/mol
# GULP energy per Si atom -5572.633655 kJ/mol
# Density = 1.505381 g / cm^3
# Si number density = 15.088148 Si / 1000 Ang^3
#
#
#
# Elastic Constant Matrix: (Units=GPa)
#
#
# Indices 1 2 3 4 5 6 
#
# 1 49.4843 48.4804 42.3893 0.0000 -10.7604 -0.0001
# 2 48.4804 123.1988 90.5024 0.0000 -26.8183 -0.0001
# 3 42.3893 90.5024 111.6395 0.0000 -36.2560 0.0000
# 4 0.0000 0.0000 0.0000 30.8924 0.0000 -7.9098
# 5 -10.7604 -26.8183 -36.2560 0.0000 20.0494 0.0000
# 6 -0.0001 -0.0001 0.0000 -7.9098 0.0000 17.1043
#
#
#
# Elastic Compliance Matrix: (Units=1/GPa)
#
#
# Indices 1 2 3 4 5 6 
#
# 1 0.034779 -0.009350 -0.008784 0.000000 -0.009726 0.000000
# 2 -0.009350 0.022909 -0.016232 0.000000 -0.003728 0.000000
# 3 -0.008784 -0.016232 0.040873 0.000000 0.047485 0.000000
# 4 0.000000 0.000000 0.000000 0.036718 0.000000 0.016980
# 5 -0.009726 -0.003728 0.047485 0.000000 0.125540 -0.000001
# 6 0.000000 0.000000 0.000000 0.016980 -0.000001 0.066317
#
#
# Mechanical properties :
#
#
# Convention : Reuss Voigt Hill
#
# Bulk Modulus (GPa) = 33.52576 71.89634 52.71105
# Shear Modulus (GPa) = 12.32102 20.47258 16.39680
#
# Velocity S-wave (km/s) = 2.86073 3.68756 3.30014
# Velocity P-wave (km/s) = 5.76019 8.11697 7.03793
#
# Compressibility (1/GPa) = 0.02982781
#
# Stress axis : x y z
#
# Youngs Moduli (GPa) = 28.75319 43.65106 24.46627
#
# Poissons Ratio (x) = 0.40815 0.21492
# Poissons Ratio (y) = 0.26885 0.39713
# Poissons Ratio (z) = 0.25257 0.70854
#
# Static dielectric constant tensor:
#      x y z
#    x 1.466190 0.000000 -0.012800 
#    y 0.000000 1.502870 0.000000 
#    z -0.012800 0.000000 1.494150 
# 
# From -- ./inp_files/320133.got.cif
#   From: 2010.05.17/outbox.cif.g08.bks.cpg/sg12_161_cif.got.tgz:320133.got - 2010.06.03 13:09:07.
