data_PCOD9169587
_publ_section_title
;
Structure prediction by ZEFSAII (Michael W. Deem and Ramdas Pophale) SiO2 
 PCOD9169587
Probable space group: C 2/M
;
_chemical_formula_sum "Si O2"
_cell_formula_units_Z 48
_cell_length_a 10.892386
_cell_length_b 14.293622
_cell_length_c 18.911162
_cell_angle_alpha 90.000000
_cell_angle_beta 47.838665
_cell_angle_gamma 90.000000
_cell_volume 2182.492520
_symmetry_space_group_name_H-M "C 2/M"
_symmetry_group_IT_number 12
_symmetry_cell_setting 'monoclinic'
loop_
_space_group_symop_operation_xyz
x,y,z
-x,y,-z
-x,-y,-z
x,-y,z
1/2+x,1/2+y,z
1/2-x,1/2+y,-z
1/2-x,1/2-y,-z
1/2+x,1/2-y,z
loop_
_atom_site_type_symbol
_atom_site_label
_atom_site_fract_x
_atom_site_fract_y
_atom_site_fract_z
Si Si1 0.690277 0.101899 0.869574
Si Si2 0.154659 0.896802 0.334036
Si Si3 0.459116 0.103447 0.771108
Si Si4 0.349823 0.843877 0.963795
Si Si5 0.822905 0.390232 0.529620
Si Si6 0.055027 0.253581 0.631108
O O1 0.833134 0.107015 0.756876
O O2 0.543542 0.172617 0.907995
O O3 0.609554 0.000000 0.886224
O O4 0.726632 0.105276 0.938009
O O5 0.344052 0.889454 0.286107
O O6 0.039192 0.808512 0.391999
O O7 0.093747 0.000000 0.378964
O O8 0.357788 0.111167 0.883222
O O9 0.431645 0.192466 0.731754
O O10 0.431006 0.000000 0.750386
O O11 0.250000 0.750000 0.000000
O O12 0.773328 0.500000 0.544710
O O13 0.851387 0.340148 0.442863
O O14 0.684200 0.320357 0.615386
O O15 0.000000 0.387757 0.500000
#
# Coordination Sequence:
#
# PCOD9169587 Si02
#       6
#     8   8   8   8   8   8
#     4   9  17  31  48  69  98 132 167 202 242 286
#     4   9  18  32  51  76 104 131 166 211 249 287
#     4  10  20  33  50  76 105 130 163 211 258 293
#     4  10  17  27  46  72  98 128 165 200 237 285
#     4  10  22  38  54  74 102 133 164 201 248 307
#     4  11  20  34  56  78  98 129 169 205 250 302
#
# _framework density 21.993202
#
# number of rings (size 3 to 8) (size 9 to 14) (size 15 to 20)
#    0.000    2.167    0.000    6.000    0.000    0.000 
#    0.000    0.000    0.000    8.000    0.000   75.833 
#    0.000    0.000    0.000    0.000    0.000    0.000 
#
# Total GULP energy -133669.245717 kJ/mol
# GULP energy per Si atom -5569.551905 kJ/mol
# Density = 2.194314 g / cm^3
# Si number density = 21.993202 Si / 1000 Ang^3
#
#
#
# Elastic Constant Matrix: (Units=GPa)
#
#
# Indices 1 2 3 4 5 6 
#
# 1 37.5352 36.5106 -0.4441 0.0000 -9.5150 0.0000
# 2 36.5106 172.8031 15.4207 0.0000 -0.5276 0.0000
# 3 -0.4441 15.4207 49.0546 0.0001 10.5230 0.0000
# 4 0.0000 0.0000 0.0001 21.8474 0.0000 -3.6502
# 5 -9.5150 -0.5276 10.5230 0.0000 24.6368 0.0000
# 6 0.0000 0.0000 0.0000 -3.6502 0.0000 35.2044
#
#
#
# Elastic Compliance Matrix: (Units=1/GPa)
#
#
# Indices 1 2 3 4 5 6 
#
# 1 0.038126 -0.007984 -0.000294 0.000000 0.014679 0.000000
# 2 -0.007984 0.007649 -0.002037 0.000000 -0.002050 0.000000
# 3 -0.000294 -0.002037 0.023181 0.000000 -0.010058 0.000000
# 4 0.000000 0.000000 0.000000 0.046579 0.000000 0.004830
# 5 0.014679 -0.002050 -0.010058 0.000000 0.050511 0.000000
# 6 0.000000 0.000000 0.000000 0.004830 0.000000 0.028906
#
#
# Mechanical properties :
#
#
# Convention : Reuss Voigt Hill
#
# Bulk Modulus (GPa) = 20.69316 40.26304 30.47810
# Shear Modulus (GPa) = 21.58042 30.19811 25.88926
#
# Velocity S-wave (km/s) = 3.13586 3.70951 3.43468
# Velocity P-wave (km/s) = 4.74772 6.05756 5.44219
#
# Compressibility (1/GPa) = 0.04832515
#
# Stress axis : x y z
#
# Youngs Moduli (GPa) = 26.22909 130.72863 43.13898
#
# Poissons Ratio (x) = 1.04378 0.01268
# Poissons Ratio (y) = 0.20942 0.08789
# Poissons Ratio (z) = 0.00771 0.26633
#
# Static dielectric constant tensor:
#      x y z
#    x 1.827400 0.000000 0.025680 
#    y 0.000000 1.918480 0.000000 
#    z 0.025680 0.000000 1.899590 
# 
# From -- ./inp_files/304601.got.cif
#   From: 2010.05.17/outbox.cif.g08.bks.cpg/sg12_153_cif.got.tgz:304601.got - 2010.06.03 13:09:07.
