data_PCOD9169086
_publ_section_title
;
Structure prediction by ZEFSAII (Michael W. Deem and Ramdas Pophale) SiO2 
 PCOD9169086
Probable space group: C 2/M
;
_chemical_formula_sum "Si O2"
_cell_formula_units_Z 44
_cell_length_a 19.893283
_cell_length_b 15.632824
_cell_length_c 8.082453
_cell_angle_alpha 90.000000
_cell_angle_beta 98.358039
_cell_angle_gamma 90.000000
_cell_volume 2486.851190
_symmetry_space_group_name_H-M "C 2/M"
_symmetry_group_IT_number 12
_symmetry_cell_setting 'monoclinic'
loop_
_space_group_symop_operation_xyz
x,y,z
-x,y,-z
-x,-y,-z
x,-y,z
1/2+x,1/2+y,z
1/2-x,1/2+y,-z
1/2-x,1/2-y,-z
1/2+x,1/2-y,z
loop_
_atom_site_type_symbol
_atom_site_label
_atom_site_fract_x
_atom_site_fract_y
_atom_site_fract_z
Si Si1 0.269588 0.500000 0.976912
Si Si2 0.816091 0.191292 0.980581
Si Si3 0.584257 0.000000 0.350016
Si Si4 0.385535 0.823471 0.219818
Si Si5 0.500000 0.145066 0.500000
Si Si6 0.882712 0.500000 0.017594
Si Si7 0.733644 0.000000 0.567160
Si Si8 0.256700 0.674359 0.626889
O O1 0.306061 0.591097 0.023880
O O2 0.198221 0.500000 0.045252
O O3 0.246616 0.500000 0.773019
O O4 0.815214 0.190141 0.781688
O O5 0.750000 0.250000 0.000000
O O6 0.874526 0.244710 0.090685
O O7 0.544978 0.917130 0.401324
O O8 0.415044 0.000000 0.848055
O O9 0.657614 0.000000 0.467652
O O10 0.447152 0.806212 0.365580
O O11 0.315324 0.834459 0.299833
O O12 0.397330 0.913671 0.127783
O O13 0.767619 0.087993 0.528637
O O14 0.250000 0.750000 0.500000
#
# Coordination Sequence:
#
# PCOD9169086 Si02
#       8
#     4   8   4   8   4   4   4   8
#     4  10  16  34  55  73 116 141 169 228 276 324
#     4   9  18  31  51  79 101 144 177 223 276 319
#     4  11  23  31  55  81 108 154 182 218 266 344
#     4  11  21  36  52  75 113 146 181 232 261 334
#     4  11  22  40  50  71 116 152 188 221 278 315
#     4  12  20  33  56  82 113 142 185 220 278 329
#     4  10  17  35  50  78 111 147 167 214 271 324
#     4  10  19  32  54  78 109 143 177 219 276 325
#
# _framework density 17.693055999999999
#
# number of rings (size 3 to 8) (size 9 to 14) (size 15 to 20)
#    0.000    1.636    7.273    1.091    2.545    1.455 
#    0.000    0.000    0.000    0.545    0.000    0.000 
#    0.000    7.273    0.000    0.000    0.000    1.091 
#
# Total GULP energy -122544.711064 kJ/mol
# GULP energy per Si atom -5570.214139 kJ/mol
# Density = 1.765279 g / cm^3
# Si number density = 17.693056 Si / 1000 Ang^3
#
#
#
# Elastic Constant Matrix: (Units=GPa)
#
#
# Indices 1 2 3 4 5 6 
#
# 1 20.2412 17.4737 42.0987 0.0000 10.9531 0.0000
# 2 17.4737 159.4787 63.5065 0.0000 12.2663 0.0000
# 3 42.0987 63.5065 104.2612 0.0000 24.0969 0.0000
# 4 0.0000 0.0000 0.0000 55.0781 0.0000 -2.2268
# 5 10.9531 12.2663 24.0969 0.0000 36.7058 0.0000
# 6 0.0000 0.0000 0.0000 -2.2268 0.0000 6.3583
#
#
#
# Elastic Compliance Matrix: (Units=1/GPa)
#
#
# Indices 1 2 3 4 5 6 
#
# 1 0.376787 0.025224 -0.164534 0.000000 -0.012849 0.000000
# 2 0.025224 0.009980 -0.016214 0.000000 -0.000218 0.000000
# 3 -0.164534 -0.016214 0.086415 0.000000 -0.002215 0.000000
# 4 0.000000 0.000000 0.000000 0.018417 0.000000 0.006450
# 5 -0.012849 -0.000218 -0.002215 0.000000 0.032605 0.000000
# 6 0.000000 0.000000 0.000000 0.006450 0.000000 0.159535
#
#
# Mechanical properties :
#
#
# Convention : Reuss Voigt Hill
#
# Bulk Modulus (GPa) = 6.16770 58.90433 32.53602
# Shear Modulus (GPa) = 4.76722 30.35525 17.56123
#
# Velocity S-wave (km/s) = 1.64324 4.14654 3.15389
# Velocity P-wave (km/s) = 2.66343 7.50265 5.62955
#
# Compressibility (1/GPa) = 0.16213489
#
# Stress axis : x y z
#
# Youngs Moduli (GPa) = 2.65402 100.20169 11.57211
#
# Poissons Ratio (x) = -2.52751 1.90401
# Poissons Ratio (y) = -0.06695 0.18762
# Poissons Ratio (z) = 0.43668 1.62462
#
# Static dielectric constant tensor:
#      x y z
#    x 1.608490 0.000000 -0.006980 
#    y 0.000000 1.431410 0.000000 
#    z -0.006980 0.000000 1.659470 
# 
# From -- ./inp_files/103769.got.cif
#   From: 2010.05.17/outbox.cif.g08.bks.cpg/sg12_52_cif.got.tgz:103769.got - 2010.06.03 13:09:07.
