data_PCOD9169413
_publ_section_title
;
Structure prediction by ZEFSAII (Michael W. Deem and Ramdas Pophale) SiO2 
 PCOD9169413
Probable space group: C 2/M
;
_chemical_formula_sum "Si O2"
_cell_formula_units_Z 64
_cell_length_a 18.444024
_cell_length_b 8.482707
_cell_length_c 22.057439
_cell_angle_alpha 90.000000
_cell_angle_beta 77.756599
_cell_angle_gamma 90.000000
_cell_volume 3372.510976
_symmetry_space_group_name_H-M "C 2/M"
_symmetry_group_IT_number 12
_symmetry_cell_setting 'monoclinic'
loop_
_space_group_symop_operation_xyz
x,y,z
-x,y,-z
-x,-y,-z
x,-y,z
1/2+x,1/2+y,z
1/2-x,1/2+y,-z
1/2-x,1/2-y,-z
1/2+x,1/2-y,z
loop_
_atom_site_type_symbol
_atom_site_label
_atom_site_fract_x
_atom_site_fract_y
_atom_site_fract_z
Si Si1 0.749398 0.188648 0.317179
Si Si2 0.397576 0.186206 0.062183
Si Si3 0.912305 0.188489 0.686438
Si Si4 0.306461 0.309564 0.439324
Si Si5 0.026429 0.192427 0.561751
Si Si6 0.963088 0.312132 0.806789
Si Si7 0.940200 0.184946 0.935171
Si Si8 0.134115 0.309356 0.800977
O O1 0.670119 0.265416 0.318650
O O2 0.780750 0.240584 0.376993
O O3 0.807004 0.236426 0.254812
O O4 0.741260 0.000000 0.319452
O O5 0.483454 0.220878 0.064921
O O6 0.354472 0.237647 0.130497
O O7 0.387887 0.000000 0.055822
O O8 0.385813 0.270503 0.000003
O O9 0.970127 0.242354 0.624472
O O10 0.932148 0.262761 0.747512
O O11 0.918183 0.000000 0.690704
O O12 0.306618 0.500000 0.440340
O O13 0.250000 0.250000 0.500000
O O14 0.390003 0.255788 0.438866
O O15 0.000000 0.244599 0.500000
O O16 0.026126 0.000000 0.561385
O O17 0.959728 0.500000 0.814757
O O18 0.050086 0.263967 0.796631
O O19 0.919785 0.233199 0.870715
O O20 0.956178 0.000000 0.935219
O O21 0.138332 0.500000 0.797631
#
# Coordination Sequence:
#
# PCOD9169413 Si02
#       8
#     8   8   8   8   8   8   8   8
#     4  11  23  37  54  78 111 146 183 229 275 322
#     4   9  16  28  46  72 107 142 177 223 277 324
#     4  11  22  37  58  80 106 143 186 228 272 327
#     4  10  21  37  57  83 112 143 180 221 270 324
#     4   9  18  34  57  83 110 141 178 221 268 319
#     4  10  20  35  54  78 110 143 179 227 280 328
#     4  10  17  26  45  75 107 140 181 223 268 326
#     4   9  19  34  54  79 107 143 184 224 270 328
#
# _framework density 18.976958
#
# number of rings (size 3 to 8) (size 9 to 14) (size 15 to 20)
#    0.000    2.125    0.000    5.625    0.000    6.000 
#    0.000    1.250    0.000    4.125    0.000    0.000 
#    0.000    0.000    0.000    0.000    0.000    0.000 
#
# Total GULP energy -178609.268416 kJ/mol
# GULP energy per Si atom -5581.539638 kJ/mol
# Density = 1.893377 g / cm^3
# Si number density = 18.976958 Si / 1000 Ang^3
#
#
#
# Elastic Constant Matrix: (Units=GPa)
#
#
# Indices 1 2 3 4 5 6 
#
# 1 94.3876 13.5105 69.6900 0.0000 2.7037 0.0000
# 2 13.5105 19.5364 22.6468 0.0000 0.0672 0.0000
# 3 69.6900 22.6468 197.8937 0.0000 0.6529 0.0000
# 4 0.0000 0.0000 0.0000 34.9599 0.0000 11.8173
# 5 2.7037 0.0672 0.6529 0.0000 23.5528 0.0000
# 6 0.0000 0.0000 0.0000 11.8173 0.0000 54.8105
#
#
#
# Elastic Compliance Matrix: (Units=1/GPa)
#
#
# Indices 1 2 3 4 5 6 
#
# 1 0.014754 -0.004820 -0.004639 0.000000 -0.001551 0.000000
# 2 -0.004820 0.060590 -0.005238 0.000000 0.000526 0.000000
# 3 -0.004639 -0.005238 0.007285 0.000000 0.000346 0.000000
# 4 0.000000 0.000000 0.000000 0.030853 0.000000 -0.006652
# 5 -0.001551 0.000526 0.000346 0.000000 0.042625 0.000000
# 6 0.000000 0.000000 0.000000 -0.006652 0.000000 0.019679
#
#
# Mechanical properties :
#
#
# Convention : Reuss Voigt Hill
#
# Bulk Modulus (GPa) = 18.78478 58.16804 38.47641
# Shear Modulus (GPa) = 22.42896 36.39601 29.41249
#
# Velocity S-wave (km/s) = 3.44161 4.38414 3.94115
# Velocity P-wave (km/s) = 5.07081 7.50640 6.40544
#
# Compressibility (1/GPa) = 0.05323460
#
# Stress axis : x y z
#
# Youngs Moduli (GPa) = 67.77711 16.50430 137.26435
#
# Poissons Ratio (x) = 0.07956 0.63678
# Poissons Ratio (y) = 0.32671 0.71900
# Poissons Ratio (z) = 0.31442 0.08645
#
# Static dielectric constant tensor:
#      x y z
#    x 1.635420 0.000000 0.003040 
#    y 0.000000 1.645280 0.000000 
#    z 0.003040 0.000000 1.679600 
# 
# From -- ./inp_files/319119.got.cif
#   From: 2010.05.17/outbox.cif.g08.bks.cpg/sg12_160_cif.got.tgz:319119.got - 2010.06.03 13:09:07.
