data_PCOD9169845
_publ_section_title
;
Structure prediction by ZEFSAII (Michael W. Deem and Ramdas Pophale) SiO2 
 PCOD9169845
Probable space group: C 2/M
;
_chemical_formula_sum "Si O2"
_cell_formula_units_Z 56
_cell_length_a 21.689867
_cell_length_b 14.419396
_cell_length_c 10.459431
_cell_angle_alpha 90.000000
_cell_angle_beta 97.519571
_cell_angle_gamma 90.000000
_cell_volume 3243.105133
_symmetry_space_group_name_H-M "C 2/M"
_symmetry_group_IT_number 12
_symmetry_cell_setting 'monoclinic'
loop_
_space_group_symop_operation_xyz
x,y,z
-x,y,-z
-x,-y,-z
x,-y,z
1/2+x,1/2+y,z
1/2-x,1/2+y,-z
1/2-x,1/2-y,-z
1/2+x,1/2-y,z
loop_
_atom_site_type_symbol
_atom_site_label
_atom_site_fract_x
_atom_site_fract_y
_atom_site_fract_z
Si Si1 0.075144 0.606589 0.536386
Si Si2 0.884026 0.104706 0.281659
Si Si3 0.655304 0.211058 0.047292
Si Si4 0.438052 0.790475 0.207911
Si Si5 0.564464 0.392916 0.440824
Si Si6 0.216626 0.107506 0.953911
Si Si7 0.580826 0.785163 0.284212
O O1 0.094716 0.500000 0.547874
O O2 0.088616 0.658602 0.672877
O O3 0.099014 0.656786 0.415468
O O4 0.000000 0.609765 0.500000
O O5 0.928597 0.181237 0.232486
O O6 0.884048 0.118021 0.433756
O O7 0.818441 0.113244 0.192659
O O8 0.907531 0.000000 0.266011
O O9 0.713169 0.142755 0.040264
O O10 0.627322 0.203247 0.180359
O O11 0.601905 0.189226 0.928487
O O12 0.680583 0.316022 0.029478
O O13 0.511003 0.813066 0.220588
O O14 0.500000 0.371763 0.500000
O O15 0.562153 0.500000 0.399689
O O16 0.575484 0.320409 0.332499
O O17 0.212678 0.000000 0.995297
#
# Coordination Sequence:
#
# PCOD9169845 Si02
#       7
#     8   8   8   8   8   8   8
#     4   9  18  32  50  72 105 145 177 205 251 310
#     4   9  16  30  55  79 101 138 179 210 251 316
#     4  10  22  35  56  81 103 140 181 221 263 316
#     4  10  18  33  53  79 113 142 171 209 262 322
#     4  10  17  28  51  83 114 143 171 202 259 332
#     4   9  20  40  57  70 100 146 188 221 260 308
#     4  11  19  32  51  85 115 136 164 221 274 312
#
# _framework density 17.267402000000001
#
# number of rings (size 3 to 8) (size 9 to 14) (size 15 to 20)
#    0.000    2.286    2.857    0.857    0.000    1.714 
#    0.000    0.714    0.000    8.571    0.000    0.000 
#    0.000    0.000    0.000    0.000    0.000    0.000 
#
# Total GULP energy -156020.504094 kJ/mol
# GULP energy per Si atom -5572.160860 kJ/mol
# Density = 1.722810 g / cm^3
# Si number density = 17.267402 Si / 1000 Ang^3
#
#
#
# Elastic Constant Matrix: (Units=GPa)
#
#
# Indices 1 2 3 4 5 6 
#
# 1 38.6058 13.3213 25.5088 0.0000 -9.3209 0.0000
# 2 13.3213 75.4507 30.9626 0.0000 -5.5690 0.0000
# 3 25.5088 30.9626 94.1704 0.0000 -17.9808 0.0000
# 4 0.0000 0.0000 0.0000 14.0391 0.0000 7.3622
# 5 -9.3209 -5.5690 -17.9808 0.0000 20.2570 0.0000
# 6 0.0000 0.0000 0.0000 7.3622 0.0000 12.5788
#
#
#
# Elastic Compliance Matrix: (Units=1/GPa)
#
#
# Indices 1 2 3 4 5 6 
#
# 1 0.033187 -0.002555 -0.006463 0.000000 0.008831 0.000000
# 2 -0.002555 0.015519 -0.004600 0.000000 -0.000992 0.000000
# 3 -0.006463 -0.004600 0.015741 0.000000 0.009733 0.000000
# 4 0.000000 0.000000 0.000000 0.102774 0.000000 -0.060152
# 5 0.008831 -0.000992 0.009733 0.000000 0.061796 0.000000
# 6 0.000000 0.000000 0.000000 -0.060152 0.000000 0.114705
#
#
# Mechanical properties :
#
#
# Convention : Reuss Voigt Hill
#
# Bulk Modulus (GPa) = 26.87440 38.64581 32.76011
# Shear Modulus (GPa) = 13.04248 18.60393 15.82321
#
# Velocity S-wave (km/s) = 2.75130 3.28594 3.03043
# Velocity P-wave (km/s) = 5.06856 6.06844 5.59090
#
# Compressibility (1/GPa) = 0.03721013
#
# Stress axis : x y z
#
# Youngs Moduli (GPa) = 30.13196 64.43606 63.52931
#
# Poissons Ratio (x) = 0.16465 0.41062
# Poissons Ratio (y) = 0.07699 0.29223
# Poissons Ratio (z) = 0.19476 0.29640
#
# Static dielectric constant tensor:
#      x y z
#    x 1.584680 0.000000 0.034440 
#    y 0.000000 1.608150 0.000000 
#    z 0.034440 0.000000 1.577170 
# 
# From -- ./inp_files/86382.got.cif
#   From: 2010.05.17/outbox.cif.g08.bks.cpg/sg12_44_cif.got.tgz:86382.got - 2010.06.03 13:09:07.
