data_PCOD9169661
_publ_section_title
;
Structure prediction by ZEFSAII (Michael W. Deem and Ramdas Pophale) SiO2 
 PCOD9169661
Probable space group: C 2/M
;
_chemical_formula_sum "Si O2"
_cell_formula_units_Z 64
_cell_length_a 17.648937
_cell_length_b 23.372175
_cell_length_c 18.661820
_cell_angle_alpha 90.000000
_cell_angle_beta 151.744074
_cell_angle_gamma 90.000000
_cell_volume 3644.263872
_symmetry_space_group_name_H-M "C 2/M"
_symmetry_group_IT_number 12
_symmetry_cell_setting 'monoclinic'
loop_
_space_group_symop_operation_xyz
x,y,z
-x,y,-z
-x,-y,-z
x,-y,z
1/2+x,1/2+y,z
1/2-x,1/2+y,-z
1/2-x,1/2-y,-z
1/2+x,1/2-y,z
loop_
_atom_site_type_symbol
_atom_site_label
_atom_site_fract_x
_atom_site_fract_y
_atom_site_fract_z
Si Si1 0.490256 0.793642 0.846496
Si Si2 0.308383 0.147296 0.459948
Si Si3 0.222506 0.362805 0.950599
Si Si4 0.329681 0.253156 0.371898
Si Si5 0.695921 0.934342 0.665249
Si Si6 0.495986 0.691864 0.733804
Si Si7 0.107022 0.433861 0.741695
Si Si8 0.271068 0.237969 0.163428
O O1 0.572170 0.846510 0.875222
O O2 0.310010 0.796254 0.722942
O O3 0.489731 0.742819 0.787110
O O4 0.610911 0.772518 0.008880
O O5 0.352601 0.204014 0.451335
O O6 0.232847 0.107008 0.334900
O O7 0.458068 0.110576 0.613299
O O8 0.181256 0.165607 0.414428
O O9 0.226908 0.315962 0.889068
O O10 0.197614 0.422254 0.890673
O O11 0.379265 0.353209 0.128691
O O12 0.500000 0.281235 0.500000
O O13 0.278543 0.224509 0.253446
O O14 0.500000 0.928132 0.500000
O O15 0.724936 0.922175 0.772753
O O16 0.734692 0.000000 0.681904
O O17 0.579631 0.721279 0.735476
O O18 0.053843 0.500000 0.690026
#
# Coordination Sequence:
#
# PCOD9169661 Si02
#       8
#     8   8   8   8   8   8   8   8
#     4   8  17  30  44  62  87 119 146 178 221 267
#     4  10  17  28  42  62  89 120 150 179 221 256
#     4   9  16  31  47  61  85 117 151 184 222 258
#     4  11  19  25  40  68  94 115 145 177 210 260
#     4   8  14  25  39  55  79 113 150 180 207 244
#     4   8  17  29  45  64  84 115 150 183 217 264
#     4  10  19  30  45  63  86 119 156 189 220 255
#     4   9  16  30  46  62  89 119 147 177 219 267
#
# _framework density 17.561845999999999
#
# number of rings (size 3 to 8) (size 9 to 14) (size 15 to 20)
#    0.000    2.875    0.000    5.625    0.000    1.000 
#    0.000    6.875    0.000    1.500    0.000    0.000 
#    0.000   13.500    0.000    0.000    0.000    0.000 
#
# Total GULP energy -178238.236248 kJ/mol
# GULP energy per Si atom -5569.944883 kJ/mol
# Density = 1.752187 g / cm^3
# Si number density = 17.561846 Si / 1000 Ang^3
#
#
#
# Elastic Constant Matrix: (Units=GPa)
#
#
# Indices 1 2 3 4 5 6 
#
# 1 49.7696 5.5394 17.2448 0.0001 15.0714 0.0000
# 2 5.5394 28.7768 7.3152 0.0000 -0.2273 0.0000
# 3 17.2448 7.3152 28.9303 0.0000 -4.4104 0.0001
# 4 0.0001 0.0000 0.0000 19.8524 0.0000 -6.4855
# 5 15.0714 -0.2273 -4.4104 0.0000 22.4840 0.0000
# 6 0.0000 0.0000 0.0001 -6.4855 0.0000 13.2255
#
#
#
# Elastic Compliance Matrix: (Units=1/GPa)
#
#
# Indices 1 2 3 4 5 6 
#
# 1 0.039811 -0.000679 -0.028480 0.000000 -0.032280 0.000000
# 2 -0.000679 0.037199 -0.009148 0.000000 -0.000963 0.000000
# 3 -0.028480 -0.009148 0.058501 0.000000 0.030474 0.000000
# 4 0.000000 0.000000 0.000000 0.059980 0.000000 0.029413
# 5 -0.032280 -0.000963 0.030474 0.000000 0.072082 0.000000
# 6 0.000000 0.000000 0.000000 0.029413 0.000000 0.090035
#
#
# Mechanical properties :
#
#
# Convention : Reuss Voigt Hill
#
# Bulk Modulus (GPa) = 16.97877 18.63061 17.80469
# Shear Modulus (GPa) = 11.01674 16.27089 13.64381
#
# Velocity S-wave (km/s) = 2.50734 3.04713 2.79032
# Velocity P-wave (km/s) = 4.25103 4.79704 4.53227
#
# Compressibility (1/GPa) = 0.05889706
#
# Stress axis : x y z
#
# Youngs Moduli (GPa) = 25.11845 26.88260 17.09368
#
# Poissons Ratio (x) = 0.01824 0.48683
# Poissons Ratio (y) = 0.01705 0.15638
# Poissons Ratio (z) = 0.71538 0.24593
#
# Static dielectric constant tensor:
#      x y z
#    x 1.634480 0.000000 -0.008750 
#    y 0.000000 1.595090 0.000000 
#    z -0.008750 0.000000 1.671860 
# 
# From -- ./inp_files/279496.got.cif
#   From: 2010.05.17/outbox.cif.g08.bks.cpg/sg12_140_cif.got.tgz:279496.got - 2010.06.03 13:09:07.
