data_PCOD9169728
_publ_section_title
;
Structure prediction by ZEFSAII (Michael W. Deem and Ramdas Pophale) SiO2 
 PCOD9169728
Probable space group: C 2/M
;
_chemical_formula_sum "Si O2"
_cell_formula_units_Z 64
_cell_length_a 25.644555
_cell_length_b 8.684377
_cell_length_c 24.674114
_cell_angle_alpha 90.000000
_cell_angle_beta 46.146673
_cell_angle_gamma 90.000000
_cell_volume 3962.601170
_symmetry_space_group_name_H-M "C 2/M"
_symmetry_group_IT_number 12
_symmetry_cell_setting 'monoclinic'
loop_
_space_group_symop_operation_xyz
x,y,z
-x,y,-z
-x,-y,-z
x,-y,z
1/2+x,1/2+y,z
1/2-x,1/2+y,-z
1/2-x,1/2-y,-z
1/2+x,1/2-y,z
loop_
_atom_site_type_symbol
_atom_site_label
_atom_site_fract_x
_atom_site_fract_y
_atom_site_fract_z
Si Si1 0.315232 0.185010 0.680612
Si Si2 0.592694 0.814599 0.573533
Si Si3 0.111868 0.312976 0.681945
Si Si4 0.560745 0.321436 0.003931
Si Si5 0.223222 0.814512 0.410259
Si Si6 0.665492 0.313822 0.840102
Si Si7 0.450680 0.183861 0.160970
Si Si8 0.472195 0.315366 0.580409
O O1 0.297705 0.250512 0.633640
O O2 0.247732 0.227390 0.767725
O O3 0.391347 0.252375 0.644839
O O4 0.319560 0.000000 0.674548
O O5 0.588140 0.763076 0.639370
O O6 0.666287 0.750740 0.494229
O O7 0.526787 0.753712 0.584919
O O8 0.594108 0.000000 0.570590
O O9 0.110624 0.500000 0.682621
O O10 0.194944 0.268454 0.633872
O O11 0.062988 0.262043 0.767777
O O12 0.570468 0.500000 0.011769
O O13 0.632288 0.262283 0.921731
O O14 0.500000 0.315455 0.000000
O O15 0.525731 0.234203 0.079461
O O16 0.218823 0.000000 0.412375
O O17 0.659104 0.500000 0.843694
O O18 0.613940 0.249736 0.829847
O O19 0.445662 0.000000 0.163180
O O20 0.500000 0.272648 0.500000
O O21 0.472738 0.500000 0.583557
#
# Coordination Sequence:
#
# PCOD9169728 Si02
#       8
#     8   8   8   8   8   8   8   8
#     4  11  21  33  53  77  97 129 171 205 243 295
#     4  11  22  37  54  72  95 130 174 210 242 292
#     4   9  20  34  49  72 104 135 164 204 248 288
#     4   8  15  28  43  64  98 133 160 195 239 285
#     4  11  20  34  51  72 103 134 162 202 252 291
#     4   9  18  31  46  69 101 130 162 201 242 287
#     4  10  17  28  46  70 100 133 165 195 237 291
#     4  11  23  38  54  72  98 128 161 209 262 296
#
# _framework density 16.151008000000001
#
# number of rings (size 3 to 8) (size 9 to 14) (size 15 to 20)
#    0.000    2.000    2.500    3.000    0.000    3.250 
#    0.000    4.375    0.000    0.000    0.000    0.875 
#    0.000    0.000    0.000    0.000    0.000    0.000 
#
# Total GULP energy -178502.777416 kJ/mol
# GULP energy per Si atom -5578.211794 kJ/mol
# Density = 1.611425 g / cm^3
# Si number density = 16.151008 Si / 1000 Ang^3
#
#
#
# Elastic Constant Matrix: (Units=GPa)
#
#
# Indices 1 2 3 4 5 6 
#
# 1 75.5299 21.7937 65.4702 0.0002 15.9694 0.0006
# 2 21.7937 33.9996 38.4945 0.0020 0.8599 0.0085
# 3 65.4702 38.4945 178.2705 -0.0002 4.6804 0.0004
# 4 0.0002 0.0020 -0.0002 24.5645 0.0002 -1.4938
# 5 15.9694 0.8599 4.6804 0.0002 15.5979 -0.0003
# 6 0.0006 0.0085 0.0004 -1.4938 -0.0003 12.0308
#
#
#
# Elastic Compliance Matrix: (Units=1/GPa)
#
#
# Indices 1 2 3 4 5 6 
#
# 1 0.027780 -0.008431 -0.007708 0.000001 -0.025664 0.000004
# 2 -0.008431 0.041491 -0.006077 -0.000005 0.008168 -0.000029
# 3 -0.007708 -0.006077 0.009612 0.000001 0.005342 0.000005
# 4 0.000001 -0.000005 0.000001 0.041019 -0.000001 0.005093
# 5 -0.025664 0.008168 0.005342 -0.000001 0.088333 -0.000002
# 6 0.000004 -0.000029 0.000005 0.005093 -0.000002 0.083752
#
#
# Mechanical properties :
#
#
# Convention : Reuss Voigt Hill
#
# Bulk Modulus (GPa) = 29.02721 59.92408 44.47565
# Shear Modulus (GPa) = 14.37184 21.24143 17.80664
#
# Velocity S-wave (km/s) = 2.98626 3.63047 3.32401
# Velocity P-wave (km/s) = 5.46825 7.39978 6.50609
#
# Compressibility (1/GPa) = 0.03445043
#
# Stress axis : x y z
#
# Youngs Moduli (GPa) = 35.99710 24.10186 104.03369
#
# Poissons Ratio (x) = 0.20320 0.80189
# Poissons Ratio (y) = 0.30349 0.63225
# Poissons Ratio (z) = 0.27746 0.14648
#
# Static dielectric constant tensor:
#      x y z
#    x 1.504700 0.000000 -0.001190 
#    y 0.000000 1.547350 0.000000 
#    z -0.001190 0.000000 1.571430 
# 
# From -- ./inp_files/348528.got.cif
#   From: 2010.05.17/outbox.cif.g08.bks.cpg/sg12_175_cif.got.tgz:348528.got - 2010.06.03 13:09:07.
