data_PCOD9169908
_publ_section_title
;
Structure prediction by ZEFSAII (Michael W. Deem and Ramdas Pophale) SiO2 
 PCOD9169908
Probable space group: C 2/M
;
_chemical_formula_sum "Si O2"
_cell_formula_units_Z 44
_cell_length_a 13.470223
_cell_length_b 14.399207
_cell_length_c 12.549422
_cell_angle_alpha 90.000000
_cell_angle_beta 134.734089
_cell_angle_gamma 90.000000
_cell_volume 1729.132730
_symmetry_space_group_name_H-M "C 2/M"
_symmetry_group_IT_number 12
_symmetry_cell_setting 'monoclinic'
loop_
_space_group_symop_operation_xyz
x,y,z
-x,y,-z
-x,-y,-z
x,-y,z
1/2+x,1/2+y,z
1/2-x,1/2+y,-z
1/2-x,1/2-y,-z
1/2+x,1/2-y,z
loop_
_atom_site_type_symbol
_atom_site_label
_atom_site_fract_x
_atom_site_fract_y
_atom_site_fract_z
Si Si1 0.671343 0.836725 0.072217
Si Si2 0.457472 0.301242 0.165817
Si Si3 0.899682 0.704577 0.531869
Si Si4 0.376263 0.000000 0.107961
Si Si5 0.831163 0.895995 0.401711
Si Si6 0.959674 0.000000 0.093528
Si Si7 0.907369 0.500000 0.536417
O O1 0.815871 0.820692 0.121443
O O2 0.725353 0.876977 0.224081
O O3 0.584650 0.744674 0.978329
O O4 0.595210 0.914351 0.947035
O O5 0.526169 0.228874 0.300223
O O6 0.516073 0.404640 0.189192
O O7 0.814252 0.799641 0.451543
O O8 0.000000 0.702986 0.500000
O O9 0.835798 0.601344 0.485138
O O10 0.478098 0.000000 0.283635
O O11 0.211441 0.000000 0.020376
O O12 0.000000 0.898457 0.500000
O O13 0.802295 0.000000 0.422839
O O14 0.000000 0.000000 0.000000
O O15 0.000000 0.500000 0.500000
#
# Coordination Sequence:
#
# PCOD9169908 Si02
#       7
#     8   8   8   4   8   4   4
#     4  10  17  29  46  77 101 136 163 215 288 324
#     4  10  19  29  50  67 106 136 173 222 263 325
#     4  10  18  28  42  74 113 135 167 203 280 345
#     4  10  18  32  54  74 112 133 178 221 266 336
#     4  10  18  25  41  67 114 138 162 201 256 353
#     4  10  24  36  48  74 106 154 196 216 256 308
#     4  10  20  30  46  78 118 143 164 208 282 355
#
# _framework density 25.446283000000001
#
# number of rings (size 3 to 8) (size 9 to 14) (size 15 to 20)
#    0.000    2.000    6.364    0.000    1.273    0.000 
#    0.000    0.000    0.000    0.000    0.000   14.000 
#    0.000    0.000    0.000    0.000    0.000    0.000 
#
# Total GULP energy -122684.961619 kJ/mol
# GULP energy per Si atom -5576.589164 kJ/mol
# Density = 2.538837 g / cm^3
# Si number density = 25.446283 Si / 1000 Ang^3
#
#
#
# Elastic Constant Matrix: (Units=GPa)
#
#
# Indices 1 2 3 4 5 6 
#
# 1 96.3589 42.2530 33.0555 0.0000 0.1389 0.0000
# 2 42.2530 287.6735 59.3846 0.0000 -8.7197 0.0000
# 3 33.0555 59.3846 133.1570 0.0000 6.9575 0.0000
# 4 0.0000 0.0000 0.0000 60.8496 0.0000 -68.4779
# 5 0.1389 -8.7197 6.9575 0.0000 14.8632 0.0000
# 6 0.0000 0.0000 0.0000 -68.4779 0.0000 -76.2631
#
#
#
# Elastic Compliance Matrix: (Units=1/GPa)
#
#
# Indices 1 2 3 4 5 6 
#
# 1 0.011731 -0.001223 -0.002382 0.000000 0.000288 0.000000
# 2 -0.001223 0.004103 -0.001694 0.000000 0.003211 0.000000
# 3 -0.002382 -0.001694 0.009131 0.000000 -0.005246 0.000000
# 4 0.000000 0.000000 0.000000 0.008174 0.000000 -0.007340
# 5 0.000288 0.003211 -0.005246 0.000000 0.071617 0.000000
# 6 0.000000 0.000000 0.000000 -0.007340 0.000000 -0.006522
#
#
# Mechanical properties :
#
#
# Convention : Reuss Voigt Hill
#
# Bulk Modulus (GPa) = 69.60268 87.39728 78.49998
# Shear Modulus (GPa) = 44.00650 25.38968 34.69809
#
# Velocity S-wave (km/s) = 4.16310 3.16219 3.69668
# Velocity P-wave (km/s) = 7.10779 6.91035 7.00977
#
# Compressibility (1/GPa) = 0.01436726
#
# Stress axis : x y z
#
# Youngs Moduli (GPa) = 85.24684 243.73783 109.51931
#
# Poissons Ratio (x) = 0.29798 0.26086
# Poissons Ratio (y) = 0.10422 0.18553
# Poissons Ratio (z) = 0.20305 0.41290
#
# Static dielectric constant tensor:
#      x y z
#    x 2.028330 0.000000 0.003080 
#    y 0.000000 2.062320 0.000000 
#    z 0.003080 0.000000 2.092910 
# 
# From -- ./inp_files/156305.got.cif
#   From: 2010.05.17/outbox.cif.g08.bks.cpg/sg12_79_cif.got.tgz:156305.got - 2010.06.03 13:09:07.
