data_PCOD9169866
_publ_section_title
;
Structure prediction by ZEFSAII (Michael W. Deem and Ramdas Pophale) SiO2 
 PCOD9169866
Probable space group: C 2/M
;
_chemical_formula_sum "Si O2"
_cell_formula_units_Z 52
_cell_length_a 19.081383
_cell_length_b 36.585440
_cell_length_c 5.493246
_cell_angle_alpha 90.000000
_cell_angle_beta 80.304047
_cell_angle_gamma 90.000000
_cell_volume 3780.060117
_symmetry_space_group_name_H-M "C 2/M"
_symmetry_group_IT_number 12
_symmetry_cell_setting 'monoclinic'
loop_
_space_group_symop_operation_xyz
x,y,z
-x,y,-z
-x,-y,-z
x,-y,z
1/2+x,1/2+y,z
1/2-x,1/2+y,-z
1/2-x,1/2-y,-z
1/2+x,1/2-y,z
loop_
_atom_site_type_symbol
_atom_site_label
_atom_site_fract_x
_atom_site_fract_y
_atom_site_fract_z
Si Si1 0.925913 0.880521 0.695100
Si Si2 0.000000 0.827432 0.000000
Si Si3 0.618630 0.246544 0.289313
Si Si4 0.190224 0.174215 0.303011
Si Si5 0.260203 0.699292 0.229374
Si Si6 0.087703 0.762150 0.801926
Si Si7 0.046283 0.040087 0.222329
O O1 0.859541 0.860475 0.612959
O O2 0.911039 0.922112 0.780796
O O3 0.000000 0.880223 0.500000
O O4 0.943725 0.853962 0.909188
O O5 0.957293 0.799513 0.196609
O O6 0.640878 0.289360 0.307492
O O7 0.690217 0.223148 0.229984
O O8 0.581389 0.238246 0.566292
O O9 0.573106 0.244005 0.071604
O O10 0.240715 0.180175 0.505974
O O11 0.227240 0.174005 0.015581
O O12 0.329112 0.725954 0.213438
O O13 0.000000 0.039363 0.500000
O O14 0.082190 0.000000 0.188877
O O15 0.000000 0.043175 0.000000
#
# Coordination Sequence:
#
# PCOD9169866 Si02
#       7
#     8   4   8   8   8   8   8
#     4  11  20  28  41  53  76  95 112 147 187 228
#     4  12  20  28  37  54  80  92 116 148 190 232
#     4  10  17  29  40  50  67  90 118 140 169 214
#     4  10  18  26  37  56  67  85 114 135 181 211
#     4  10  17  29  40  52  68  87 116 144 166 218
#     4  10  19  26  37  52  68  92 113 138 176 217
#     4   9  18  30  42  54  67  90 120 143 171 216
#
# _framework density 13.756394999999999
#
# number of rings (size 3 to 8) (size 9 to 14) (size 15 to 20)
#    0.000    1.846    3.846    6.462    0.000    0.000 
#    0.000    0.000    0.000    0.000    0.000    0.000 
#    0.000    0.000    0.000    0.000    0.000    0.000 
#
# Total GULP energy -144736.473785 kJ/mol
# GULP energy per Si atom -5566.787453 kJ/mol
# Density = 1.372509 g / cm^3
# Si number density = 13.756395 Si / 1000 Ang^3
#
#
#
# Elastic Constant Matrix: (Units=GPa)
#
#
# Indices 1 2 3 4 5 6 
#
# 1 33.7839 32.6708 12.1591 0.0000 4.8120 0.0000
# 2 32.6708 76.5283 13.4064 0.0000 1.5019 0.0000
# 3 12.1591 13.4064 101.3259 0.0000 10.4273 0.0000
# 4 0.0000 0.0000 0.0000 10.4148 0.0000 5.3798
# 5 4.8120 1.5019 10.4273 0.0000 19.7750 0.0000
# 6 0.0000 0.0000 0.0000 5.3798 0.0000 11.7676
#
#
#
# Elastic Compliance Matrix: (Units=1/GPa)
#
#
# Indices 1 2 3 4 5 6 
#
# 1 0.053307 -0.022134 -0.002439 0.000000 -0.010005 0.000000
# 2 -0.022134 0.022568 -0.000748 0.000000 0.004067 0.000000
# 3 -0.002439 -0.000748 0.010779 0.000000 -0.005033 0.000000
# 4 0.000000 0.000000 0.000000 0.125701 0.000000 -0.057466
# 5 -0.010005 0.004067 -0.005033 0.000000 0.055349 0.000000
# 6 0.000000 0.000000 0.000000 -0.057466 0.000000 0.111251
#
#
# Mechanical properties :
#
#
# Convention : Reuss Voigt Hill
#
# Bulk Modulus (GPa) = 27.76881 36.45674 32.11277
# Shear Modulus (GPa) = 11.32247 18.61827 14.97037
#
# Velocity S-wave (km/s) = 2.87203 3.68289 3.30244
# Velocity P-wave (km/s) = 5.58820 6.68162 6.15922
#
# Compressibility (1/GPa) = 0.03601163
#
# Stress axis : x y z
#
# Youngs Moduli (GPa) = 18.75916 44.31136 92.77485
#
# Poissons Ratio (x) = 0.98078 0.22625
# Poissons Ratio (y) = 0.41521 0.06943
# Poissons Ratio (z) = 0.04575 0.03316
#
# Static dielectric constant tensor:
#      x y z
#    x 1.468090 0.000000 -0.000170 
#    y 0.000000 1.436100 0.000000 
#    z -0.000170 0.000000 1.591440 
# 
# From -- ./inp_files/22573.got.cif
#   From: 2010.05.17/outbox.cif.g08.bks.cpg/sg12_12_cif.got.tgz:22573.got - 2010.06.03 13:09:07.
