data_PCOD9169308
_publ_section_title
;
Structure prediction by ZEFSAII (Michael W. Deem and Ramdas Pophale) SiO2 
 PCOD9169308
Probable space group: C 2/M
;
_chemical_formula_sum "Si O2"
_cell_formula_units_Z 48
_cell_length_a 14.073679
_cell_length_b 8.661767
_cell_length_c 17.550735
_cell_angle_alpha 90.000000
_cell_angle_beta 110.029462
_cell_angle_gamma 90.000000
_cell_volume 2010.082661
_symmetry_space_group_name_H-M "C 2/M"
_symmetry_group_IT_number 12
_symmetry_cell_setting 'monoclinic'
loop_
_space_group_symop_operation_xyz
x,y,z
-x,y,-z
-x,-y,-z
x,-y,z
1/2+x,1/2+y,z
1/2-x,1/2+y,-z
1/2-x,1/2-y,-z
1/2+x,1/2-y,z
loop_
_atom_site_type_symbol
_atom_site_label
_atom_site_fract_x
_atom_site_fract_y
_atom_site_fract_z
Si Si1 0.232821 0.676847 0.910829
Si Si2 0.650230 0.177695 0.573681
Si Si3 0.692512 0.683399 0.741017
Si Si4 0.389483 0.679948 0.592640
Si Si5 0.082020 0.186606 0.235776
Si Si6 0.573421 0.826248 0.090182
O O1 0.200956 0.500000 0.911262
O O2 0.174071 0.753802 0.822085
O O3 0.346527 0.696010 0.909955
O O4 0.250000 0.750000 0.000000
O O5 0.870670 0.500000 0.416923
O O6 0.633115 0.267073 0.647892
O O7 0.595458 0.231926 0.481671
O O8 0.769925 0.191035 0.583239
O O9 0.687435 0.500000 0.743229
O O10 0.805392 0.746890 0.750895
O O11 0.411125 0.500000 0.585583
O O12 0.444103 0.731508 0.685234
O O13 0.020030 0.268371 0.151968
O O14 0.081348 0.000000 0.231519
O O15 0.617389 0.000000 0.112754
O O16 0.500000 0.837107 0.000000
#
# Coordination Sequence:
#
# PCOD9169308 Si02
#       6
#     8   8   8   8   8   8
#     4  11  21  34  51  70  94 123 158 196 236 281
#     4   9  15  22  33  51  76 108 144 179 218 266
#     4  10  17  26  40  58  83 114 147 183 226 272
#     4   8  14  22  32  50  76 107 142 179 219 265
#     4   9  16  26  40  58  82 113 149 186 226 272
#     4  10  20  33  49  70  96 125 158 195 235 279
#
# _framework density 23.879615000000001
#
# number of rings (size 3 to 8) (size 9 to 14) (size 15 to 20)
#    0.000    2.500    0.000    7.500    0.000    6.000 
#    0.000    0.000    0.000    0.000    0.000    0.000 
#    0.000    1.333    0.000   14.000    0.000   16.333 
#
# Total GULP energy -133879.007077 kJ/mol
# GULP energy per Si atom -5578.291962 kJ/mol
# Density = 2.382526 g / cm^3
# Si number density = 23.879615 Si / 1000 Ang^3
#
#
#
# Elastic Constant Matrix: (Units=GPa)
#
#
# Indices 1 2 3 4 5 6 
#
# 1 50.3793 5.3765 22.2625 0.0000 -26.5417 0.0000
# 2 5.3765 131.8822 121.6845 0.0000 -9.5946 0.0000
# 3 22.2625 121.6845 305.5662 0.0000 -9.1329 0.0000
# 4 0.0000 0.0000 0.0000 50.8122 0.0000 -1.0300
# 5 -26.5417 -9.5946 -9.1329 0.0000 30.0194 0.0000
# 6 0.0000 0.0000 0.0000 -1.0300 0.0000 5.7396
#
#
#
# Elastic Compliance Matrix: (Units=1/GPa)
#
#
# Indices 1 2 3 4 5 6 
#
# 1 0.039474 0.004163 -0.003482 0.000000 0.035172 0.000000
# 2 0.004163 0.012600 -0.005137 0.000000 0.006145 0.000000
# 3 -0.003482 -0.005137 0.005481 0.000000 -0.003053 0.000000
# 4 0.000000 0.000000 0.000000 0.019752 0.000000 0.003545
# 5 0.035172 0.006145 -0.003053 0.000000 0.065444 0.000000
# 6 0.000000 0.000000 0.000000 0.003545 0.000000 0.174863
#
#
# Mechanical properties :
#
#
# Convention : Reuss Voigt Hill
#
# Bulk Modulus (GPa) = 20.55890 87.38609 53.97250
# Shear Modulus (GPa) = 14.58828 39.88121 27.23474
#
# Velocity S-wave (km/s) = 2.47434 4.09111 3.38080
# Velocity P-wave (km/s) = 4.09771 7.68050 6.15554
#
# Compressibility (1/GPa) = 0.04864073
#
# Stress axis : x y z
#
# Youngs Moduli (GPa) = 25.33317 79.36617 182.45389
#
# Poissons Ratio (x) = -0.33037 0.63537
# Poissons Ratio (y) = -0.10545 0.93730
# Poissons Ratio (z) = 0.08822 0.40772
#
# Static dielectric constant tensor:
#      x y z
#    x 2.097920 0.000000 0.080440 
#    y 0.000000 1.824220 0.000000 
#    z 0.080440 0.000000 2.049900 
# 
# From -- ./inp_files/279858.got.cif
#   From: 2010.05.17/outbox.cif.g08.bks.cpg/sg12_140_cif.got.tgz:279858.got - 2010.06.03 13:09:07.
