data_PCOD9169118
_publ_section_title
;
Structure prediction by ZEFSAII (Michael W. Deem and Ramdas Pophale) SiO2 
 PCOD9169118
Probable space group: C 2/M
;
_chemical_formula_sum "Si O2"
_cell_formula_units_Z 32
_cell_length_a 20.929456
_cell_length_b 10.356543
_cell_length_c 8.969239
_cell_angle_alpha 90.000000
_cell_angle_beta 65.810686
_cell_angle_gamma 90.000000
_cell_volume 1773.441130
_symmetry_space_group_name_H-M "C 2/M"
_symmetry_group_IT_number 12
_symmetry_cell_setting 'monoclinic'
loop_
_space_group_symop_operation_xyz
x,y,z
-x,y,-z
-x,-y,-z
x,-y,z
1/2+x,1/2+y,z
1/2-x,1/2+y,-z
1/2-x,1/2-y,-z
1/2+x,1/2-y,z
loop_
_atom_site_type_symbol
_atom_site_label
_atom_site_fract_x
_atom_site_fract_y
_atom_site_fract_z
Si Si1 0.847381 0.500000 0.032456
Si Si2 0.185213 0.000000 0.108235
Si Si3 0.943911 0.500000 0.196063
Si Si4 0.396806 0.715403 0.971772
Si Si5 0.447000 0.715226 0.261816
Si Si6 0.920520 0.000000 0.515004
O O1 0.765806 0.500000 0.076462
O O2 0.868657 0.500000 0.186692
O O3 0.880706 0.364549 0.946783
O O4 0.135701 0.000000 0.300462
O O5 0.163410 0.124405 0.032401
O O6 0.950663 0.369266 0.281419
O O7 0.000000 0.500000 0.000000
O O8 0.408633 0.701992 0.138382
O O9 0.471911 0.673860 0.833798
O O10 0.413012 0.626896 0.419034
O O11 0.000000 0.000000 0.500000
#
# Coordination Sequence:
#
# PCOD9169118 Si02
#       6
#     4   4   4   8   8   4
#     4  10  20  35  57  86 106 135 183 233 273 305
#     4  12  23  34  51  82 123 147 163 216 283 333
#     4  10  16  36  61  81  99 133 190 236 256 300
#     4  10  18  35  59  81 103 138 189 231 259 308
#     4  10  18  35  60  83 101 138 191 230 259 305
#     4  12  23  35  49  82 123 145 171 212 277 334
#
# _framework density 18.044015999999999
#
# number of rings (size 3 to 8) (size 9 to 14) (size 15 to 20)
#    0.000    1.500    7.500    1.500    0.000    2.000 
#    0.000    6.875    0.000    0.000    0.000    0.000 
#    0.000    0.000    0.000    0.000    0.000    0.000 
#
# Total GULP energy -89202.767001 kJ/mol
# GULP energy per Si atom -5575.172938 kJ/mol
# Density = 1.800295 g / cm^3
# Si number density = 18.044016 Si / 1000 Ang^3
#
#
#
# Elastic Constant Matrix: (Units=GPa)
#
#
# Indices 1 2 3 4 5 6 
#
# 1 130.1717 28.0257 20.0582 0.0000 -7.5932 0.0000
# 2 28.0257 121.8740 27.1738 0.0000 11.0579 0.0000
# 3 20.0582 27.1738 49.8521 0.0000 0.8256 0.0000
# 4 0.0000 0.0000 0.0000 -17.3659 0.0000 -8.6997
# 5 -7.5932 11.0579 0.8256 0.0000 12.0503 0.0000
# 6 0.0000 0.0000 0.0000 -8.6997 0.0000 24.7472
#
#
#
# Elastic Compliance Matrix: (Units=1/GPa)
#
#
# Indices 1 2 3 4 5 6 
#
# 1 0.009013 -0.002221 -0.002547 0.000000 0.007892 0.000000
# 2 -0.002221 0.010781 -0.004802 0.000000 -0.010964 0.000000
# 3 -0.002547 -0.004802 0.023682 0.000000 0.001179 0.000000
# 4 0.000000 0.000000 0.000000 -0.048962 0.000000 -0.017212
# 5 0.007892 -0.010964 0.001179 0.000000 0.097938 0.000000
# 6 0.000000 0.000000 0.000000 -0.017212 0.000000 0.034358
#
#
# Mechanical properties :
#
#
# Convention : Reuss Voigt Hill
#
# Bulk Modulus (GPa) = 41.08802 50.26815 45.67808
# Shear Modulus (GPa) = 32.45463 18.99567 25.72515
#
# Velocity S-wave (km/s) = 4.24563 3.24812 3.77993
# Velocity P-wave (km/s) = 6.84502 6.47967 6.66485
#
# Compressibility (1/GPa) = 0.02433800
#
# Stress axis : x y z
#
# Youngs Moduli (GPa) = 110.95019 92.75362 42.22663
#
# Poissons Ratio (x) = 0.20599 0.10753
# Poissons Ratio (y) = 0.24640 0.20276
# Poissons Ratio (z) = 0.28254 0.44537
#
# Static dielectric constant tensor:
#      x y z
#    x 1.616170 0.000000 0.008840 
#    y 0.000000 1.674110 0.000000 
#    z 0.008840 0.000000 1.596630 
# 
# From -- ./inp_files/82711.got.cif
#   From: 2010.05.17/outbox.cif.g08.bks.cpg/sg12_42_cif.got.tgz:82711.got - 2010.06.03 13:09:07.
