data_PCOD9169886
_publ_section_title
;
Structure prediction by ZEFSAII (Michael W. Deem and Ramdas Pophale) SiO2 
 PCOD9169886
Probable space group: C 2/M
;
_chemical_formula_sum "Si O2"
_cell_formula_units_Z 52
_cell_length_a 10.331423
_cell_length_b 28.215832
_cell_length_c 7.642936
_cell_angle_alpha 90.000000
_cell_angle_beta 99.819623
_cell_angle_gamma 90.000000
_cell_volume 2195.348884
_symmetry_space_group_name_H-M "C 2/M"
_symmetry_group_IT_number 12
_symmetry_cell_setting 'monoclinic'
loop_
_space_group_symop_operation_xyz
x,y,z
-x,y,-z
-x,-y,-z
x,-y,z
1/2+x,1/2+y,z
1/2-x,1/2+y,-z
1/2-x,1/2-y,-z
1/2+x,1/2-y,z
loop_
_atom_site_type_symbol
_atom_site_label
_atom_site_fract_x
_atom_site_fract_y
_atom_site_fract_z
Si Si1 0.250000 0.250000 0.000000
Si Si2 0.557473 0.053274 0.293150
Si Si3 0.151708 0.854633 0.895857
Si Si4 0.498156 0.214239 0.202245
Si Si5 0.913876 0.809630 0.661454
Si Si6 0.788478 0.445823 0.041897
Si Si7 0.178908 0.356619 0.421965
O O1 0.212815 0.192638 0.993025
O O2 0.138109 0.259185 0.820289
O O3 0.638307 0.054231 0.129292
O O4 0.626240 0.090799 0.434487
O O5 0.568541 0.000000 0.360401
O O6 0.407759 0.063948 0.203164
O O7 0.184742 0.903002 0.006735
O O8 0.230774 0.858377 0.730758
O O9 0.002043 0.843216 0.805594
O O10 0.599222 0.258077 0.248556
O O11 0.551766 0.174239 0.338112
O O12 0.500000 0.198075 0.000000
O O13 0.774230 0.832533 0.583495
O O14 0.000000 0.802758 0.500000
O O15 0.739240 0.500000 0.060263
#
# Coordination Sequence:
#
# PCOD9169886 Si02
#       7
#     4   8   8   8   8   8   8
#     4  10  18  28  42  70  90 114 158 200 222 272
#     4   8  14  22  38  62  88 115 152 193 227 280
#     4   9  16  27  42  60  91 121 155 188 233 278
#     4  11  20  31  50  69  91 129 163 195 233 283
#     4   9  20  33  44  65  97 130 153 196 235 280
#     4   8  13  22  37  60  86 116 151 191 233 275
#     4  10  17  29  45  62  92 129 156 180 245 290
#
# _framework density 23.686442
#
# number of rings (size 3 to 8) (size 9 to 14) (size 15 to 20)
#    0.000    2.769    1.538    2.308    2.154    0.000 
#    0.000    0.769    0.000    4.615    0.000    0.000 
#    0.000   16.000    0.000    1.231    0.000    0.000 
#
# Total GULP energy -144885.509521 kJ/mol
# GULP energy per Si atom -5572.519597 kJ/mol
# Density = 2.363253 g / cm^3
# Si number density = 23.686442 Si / 1000 Ang^3
#
#
#
# Elastic Constant Matrix: (Units=GPa)
#
#
# Indices 1 2 3 4 5 6 
#
# 1 54.3420 7.6654 26.9026 0.0000 12.2013 0.0000
# 2 7.6654 133.3987 75.3277 0.0000 50.0346 0.0000
# 3 26.9026 75.3277 112.6819 0.0000 31.1706 0.0000
# 4 0.0000 0.0000 0.0000 162.3111 0.0000 -125.0997
# 5 12.2013 50.0346 31.1706 0.0000 45.4751 0.0000
# 6 0.0000 0.0000 0.0000 -125.0997 0.0000 184.5508
#
#
#
# Elastic Compliance Matrix: (Units=1/GPa)
#
#
# Indices 1 2 3 4 5 6 
#
# 1 0.022732 0.005346 -0.007017 0.000000 -0.007171 0.000000
# 2 0.005346 0.017949 -0.009151 0.000000 -0.014911 0.000000
# 3 -0.007017 -0.009151 0.016487 0.000000 0.000650 0.000000
# 4 0.000000 0.000000 0.000000 0.012901 0.000000 0.008745
# 5 -0.007171 -0.014911 0.000650 0.000000 0.039875 0.000000
# 6 0.000000 0.000000 0.000000 0.008745 0.000000 0.011347
#
#
# Mechanical properties :
#
#
# Convention : Reuss Voigt Hill
#
# Bulk Modulus (GPa) = 28.14939 57.80154 42.97546
# Shear Modulus (GPa) = 32.30475 91.16919 61.73697
#
# Velocity S-wave (km/s) = 3.69704 6.21076 5.11086
# Velocity P-wave (km/s) = 5.48946 8.71133 7.28084
#
# Compressibility (1/GPa) = 0.03552475
#
# Stress axis : x y z
#
# Youngs Moduli (GPa) = 43.99087 55.71369 60.65273
#
# Poissons Ratio (x) = -0.29785 0.42562
# Poissons Ratio (y) = -0.23518 0.55500
# Poissons Ratio (z) = 0.30870 0.50981
#
# Static dielectric constant tensor:
#      x y z
#    x 2.039790 0.000000 -0.117590 
#    y 0.000000 1.849580 0.000000 
#    z -0.117590 0.000000 1.944960 
# 
# From -- ./inp_files/149198.got.cif
#   From: 2010.05.17/outbox.cif.g08.bks.cpg/sg12_75_cif.got.tgz:149198.got - 2010.06.03 13:09:07.
