data_PCOD9169523
_publ_section_title
;
Structure prediction by ZEFSAII (Michael W. Deem and Ramdas Pophale) SiO2 
 PCOD9169523
Probable space group: C 2/M
;
_chemical_formula_sum "Si O2"
_cell_formula_units_Z 48
_cell_length_a 8.569135
_cell_length_b 32.392891
_cell_length_c 19.758180
_cell_angle_alpha 90.000000
_cell_angle_beta 29.842041
_cell_angle_gamma 90.000000
_cell_volume 2729.123660
_symmetry_space_group_name_H-M "C 2/M"
_symmetry_group_IT_number 12
_symmetry_cell_setting 'monoclinic'
loop_
_space_group_symop_operation_xyz
x,y,z
-x,y,-z
-x,-y,-z
x,-y,z
1/2+x,1/2+y,z
1/2-x,1/2+y,-z
1/2-x,1/2-y,-z
1/2+x,1/2-y,z
loop_
_atom_site_type_symbol
_atom_site_label
_atom_site_fract_x
_atom_site_fract_y
_atom_site_fract_z
Si Si1 0.630269 0.379147 0.153745
Si Si2 0.125538 0.707380 0.155352
Si Si3 0.754751 0.120853 0.153745
Si Si4 0.746946 0.207380 0.844648
Si Si5 0.741164 0.953396 0.348563
Si Si6 0.864581 0.453396 0.348564
O O1 0.450848 0.377021 0.149576
O O2 0.576079 0.335899 0.213027
O O3 0.499863 0.418041 0.244177
O O4 0.000000 0.383697 0.000000
O O5 0.071811 0.664101 0.213028
O O6 0.063757 0.750000 0.218122
O O7 0.944174 0.708059 0.152913
O O8 0.500000 0.707003 0.000000
O O9 0.523432 0.081958 0.244175
O O10 0.000000 0.116303 0.000000
O O11 0.500000 0.207003 0.000000
O O12 0.500000 0.945349 0.500000
O O13 0.545787 0.952936 0.352106
O O14 0.869249 0.000000 0.309409
O O15 0.500000 0.445348 0.500000
O O16 0.893106 0.500000 0.309413
#
# Coordination Sequence:
#
# PCOD9169523 Si02
#       6
#     8   8   8   8   8   8
#     4  10  19  31  48  73 102 129 161 201 243 285
#     4  10  17  27  44  67  96 128 161 196 238 285
#     4  10  19  31  48  73 102 129 161 201 243 285
#     4  10  17  27  44  67  96 128 161 196 238 285
#     4   9  19  35  53  72  96 128 165 202 241 289
#     4   9  19  35  53  72  96 128 165 202 241 289
#
# _framework density 17.588063999999999
#
# number of rings (size 3 to 8) (size 9 to 14) (size 15 to 20)
#    0.000    2.333    0.000    7.000    0.000    3.333 
#    0.000    0.000    0.000    1.000    0.000    7.000 
#    0.000    0.000    0.000    0.000    0.000    0.000 
#
# Total GULP energy -133782.883302 kJ/mol
# GULP energy per Si atom -5574.286804 kJ/mol
# Density = 1.754803 g / cm^3
# Si number density = 17.588064 Si / 1000 Ang^3
#
#
#
# Elastic Constant Matrix: (Units=GPa)
#
#
# Indices 1 2 3 4 5 6 
#
# 1 86.1583 54.1468 19.8431 0.0000 -0.2504 0.0000
# 2 54.1468 211.2538 80.8114 0.0000 0.2390 0.0000
# 3 19.8431 80.8114 46.3940 0.0000 -0.1064 0.0000
# 4 0.0000 0.0000 0.0000 -7.8165 0.0000 -0.5103
# 5 -0.2504 0.2390 -0.1064 0.0000 19.1931 0.0000
# 6 0.0000 0.0000 0.0000 -0.5103 0.0000 48.9848
#
#
#
# Elastic Compliance Matrix: (Units=1/GPa)
#
#
# Indices 1 2 3 4 5 6 
#
# 1 0.013846 -0.003848 0.000781 0.000000 0.000233 0.000000
# 2 -0.003848 0.015257 -0.024931 0.000000 -0.000378 0.000000
# 3 0.000781 -0.024931 0.064648 0.000000 0.000679 0.000000
# 4 0.000000 0.000000 0.000000 -0.127848 0.000000 -0.001332
# 5 0.000233 -0.000378 0.000679 0.000000 0.052114 0.000000
# 6 0.000000 0.000000 0.000000 -0.001332 0.000000 0.020401
#
#
# Mechanical properties :
#
#
# Convention : Reuss Voigt Hill
#
# Bulk Modulus (GPa) = 26.48644 72.60098 49.54371
# Shear Modulus (GPa) = 46.73001 24.67260 35.70131
#
# Velocity S-wave (km/s) = 5.16012 3.74947 4.51028
# Velocity P-wave (km/s) = 7.11298 7.75325 7.44000
#
# Compressibility (1/GPa) = 0.03775517
#
# Stress axis : x y z
#
# Youngs Moduli (GPa) = 72.22559 65.54308 15.46841
#
# Poissons Ratio (x) = 0.25219 -0.01208
# Poissons Ratio (y) = 0.27791 0.38564
# Poissons Ratio (z) = -0.05640 1.63404
#
# Static dielectric constant tensor:
#      x y z
#    x 1.583150 0.000000 -0.000160 
#    y 0.000000 1.665530 0.000000 
#    z -0.000160 0.000000 1.564920 
# 
# From -- ./inp_files/123075.got.cif
#   From: 2010.05.17/outbox.cif.g08.bks.cpg/sg12_62_cif.got.tgz:123075.got - 2010.06.03 13:09:07.
