data_PCOD9169272
_publ_section_title
;
Structure prediction by ZEFSAII (Michael W. Deem and Ramdas Pophale) SiO2 
 PCOD9169272
Probable space group: C 2/M
;
_chemical_formula_sum "Si O2"
_cell_formula_units_Z 50
_cell_length_a 27.632770
_cell_length_b 13.611913
_cell_length_c 7.859187
_cell_angle_alpha 90.000000
_cell_angle_beta 40.763145
_cell_angle_gamma 90.000000
_cell_volume 1930.146112
_symmetry_space_group_name_H-M "C 2/M"
_symmetry_group_IT_number 12
_symmetry_cell_setting 'monoclinic'
loop_
_space_group_symop_operation_xyz
x,y,z
-x,y,-z
-x,-y,-z
x,-y,z
1/2+x,1/2+y,z
1/2-x,1/2+y,-z
1/2-x,1/2-y,-z
1/2+x,1/2-y,z
loop_
_atom_site_type_symbol
_atom_site_label
_atom_site_fract_x
_atom_site_fract_y
_atom_site_fract_z
Si Si1 0.774700 0.179181 0.766452
Si Si2 0.512491 0.766659 0.152919
Si Si3 0.095884 0.113606 0.391626
Si Si4 0.500000 0.500000 0.500000
Si Si5 0.369022 0.113847 0.013974
Si Si6 0.286682 0.889686 0.600623
Si Si7 0.861806 0.892906 0.208998
O O1 0.817986 0.127509 0.806554
O O2 0.687329 0.167030 0.966026
O O3 0.797482 0.293284 0.686373
O O4 0.812103 0.122329 0.510777
O O5 0.444786 0.702107 0.406030
O O6 0.500000 0.814493 0.000000
O O7 0.549494 0.840783 0.187509
O O8 0.577302 0.689310 0.944150
O O9 0.062485 0.091098 0.295975
O O10 0.066452 0.000000 0.524277
O O11 0.333864 0.122489 0.299070
O O12 0.370279 0.000000 0.965723
O O13 0.201661 0.886154 0.764185
O O14 0.302653 0.000000 0.625212
O O15 0.895476 0.000000 0.133895
#
# Coordination Sequence:
#
# PCOD9169272 Si02
#       7
#     8   8   8   2   8   8   8
#     4  11  16  31  51  75  99 145 184 207 247 306
#     4  12  20  29  47  81 114 138 167 215 265 309
#     4  10  21  36  56  74 101 134 170 221 260 319
#     4   8  24  44  50  80  98 132 178 212 288 318
#     4  10  19  30  45  72 112 151 178 201 248 312
#     4   9  16  27  43  69 114 151 168 201 242 314
#     4  10  17  25  41  72 113 136 168 204 251 304
#
# _framework density 25.904772999999999
#
# number of rings (size 3 to 8) (size 9 to 14) (size 15 to 20)
#    0.480    1.280    4.800    3.840    0.000    0.960 
#    0.000    0.800    0.000    0.960    0.000    2.240 
#    0.000    0.000    0.000    0.000    0.000    0.000 
#
# Total GULP energy -139529.653257 kJ/mol
# GULP energy per Si atom -5581.186130 kJ/mol
# Density = 2.584581 g / cm^3
# Si number density = 25.904773 Si / 1000 Ang^3
#
#
#
# Elastic Constant Matrix: (Units=GPa)
#
#
# Indices 1 2 3 4 5 6 
#
# 1 126.9506 51.5649 27.8897 0.0000 -16.1648 0.0000
# 2 51.5649 148.9849 24.6119 0.0000 -15.9728 0.0000
# 3 27.8897 24.6119 60.2596 0.0000 -8.8584 0.0000
# 4 0.0000 0.0000 0.0000 11.0914 0.0000 -4.0550
# 5 -16.1648 -15.9728 -8.8584 0.0000 29.5479 0.0000
# 6 0.0000 0.0000 0.0000 -4.0550 0.0000 34.7007
#
#
#
# Elastic Compliance Matrix: (Units=1/GPa)
#
#
# Indices 1 2 3 4 5 6 
#
# 1 0.010023 -0.002619 -0.003108 0.000000 0.003136 0.000000
# 2 -0.002619 0.008174 -0.001765 0.000000 0.002456 0.000000
# 3 -0.003108 -0.001765 0.019211 0.000000 0.003105 0.000000
# 4 0.000000 0.000000 0.000000 0.094183 0.000000 0.011006
# 5 0.003136 0.002456 0.003105 0.000000 0.037817 0.000000
# 6 0.000000 0.000000 0.000000 0.011006 0.000000 0.030104
#
#
# Mechanical properties :
#
#
# Convention : Reuss Voigt Hill
#
# Bulk Modulus (GPa) = 44.59838 60.48090 52.53964
# Shear Modulus (GPa) = 22.52543 30.54325 26.53434
#
# Velocity S-wave (km/s) = 2.95201 3.43747 3.20395
# Velocity P-wave (km/s) = 5.37334 6.25724 5.83206
#
# Compressibility (1/GPa) = 0.02242234
#
# Stress axis : x y z
#
# Youngs Moduli (GPa) = 99.76914 122.34500 52.05434
#
# Poissons Ratio (x) = 0.32048 0.16179
# Poissons Ratio (y) = 0.26134 0.09187
# Poissons Ratio (z) = 0.31010 0.21593
#
# Static dielectric constant tensor:
#      x y z
#    x 2.778130 0.000000 0.110270 
#    y 0.000000 2.008510 0.000000 
#    z 0.110270 0.000000 2.232880 
# 
# From -- ./inp_files/183198.got.cif
#   From: 2010.05.17/outbox.cif.g08.bks.cpg/sg12_92_cif.got.tgz:183198.got - 2010.06.03 13:09:07.
