data_PCOD9169722
_publ_section_title
;
Structure prediction by ZEFSAII (Michael W. Deem and Ramdas Pophale) SiO2 
 PCOD9169722
Probable space group: C 2/M
;
_chemical_formula_sum "Si O2"
_cell_formula_units_Z 40
_cell_length_a 13.852541
_cell_length_b 19.564472
_cell_length_c 6.871562
_cell_angle_alpha 90.000000
_cell_angle_beta 106.074490
_cell_angle_gamma 90.000000
_cell_volume 1789.502797
_symmetry_space_group_name_H-M "C 2/M"
_symmetry_group_IT_number 12
_symmetry_cell_setting 'monoclinic'
loop_
_space_group_symop_operation_xyz
x,y,z
-x,y,-z
-x,-y,-z
x,-y,z
1/2+x,1/2+y,z
1/2-x,1/2+y,-z
1/2-x,1/2-y,-z
1/2+x,1/2-y,z
loop_
_atom_site_type_symbol
_atom_site_label
_atom_site_fract_x
_atom_site_fract_y
_atom_site_fract_z
Si Si1 0.274118 0.669003 0.500709
Si Si2 0.693896 0.321907 0.933832
Si Si3 0.138338 0.421269 0.886084
Si Si4 0.475164 0.714246 0.719673
Si Si5 0.425685 0.871664 0.721472
O O1 0.250000 0.750000 0.500000
O O2 0.297251 0.656765 0.286981
O O3 0.378596 0.664388 0.674336
O O4 0.171175 0.627504 0.474133
O O5 0.762722 0.375302 0.088218
O O6 0.574979 0.310073 0.885536
O O7 0.750000 0.250000 0.000000
O O8 0.160288 0.500000 0.864555
O O9 0.107899 0.407831 0.096908
O O10 0.033961 0.400470 0.724582
O O11 0.500000 0.720803 0.500000
O O12 0.445238 0.790719 0.767594
#
# Coordination Sequence:
#
# PCOD9169722 Si02
#       5
#     8   8   8   8   8
#     4   8  16  27  42  66  93 121 143 189 233 266
#     4  10  17  28  46  69  89 119 157 196 225 272
#     4  10  19  29  45  67  95 124 150 190 232 273
#     4   9  16  27  44  68  96 118 147 200 238 263
#     4   9  15  27  44  64  90 119 155 175 227 272
#
# _framework density 22.352577
#
# number of rings (size 3 to 8) (size 9 to 14) (size 15 to 20)
#    0.000    2.800    2.000    1.200    0.000    0.000 
#    0.000    0.000    0.000   18.600    0.000    0.000 
#    0.000   24.000    0.000    0.000    0.000    0.000 
#
# Total GULP energy -111605.159272 kJ/mol
# GULP energy per Si atom -5580.257964 kJ/mol
# Density = 2.230170 g / cm^3
# Si number density = 22.352577 Si / 1000 Ang^3
#
#
#
# Elastic Constant Matrix: (Units=GPa)
#
#
# Indices 1 2 3 4 5 6 
#
# 1 149.4348 52.3116 51.6630 0.0000 56.6797 0.0000
# 2 52.3116 109.9045 34.7669 0.0000 41.3868 0.0000
# 3 51.6630 34.7669 156.2528 0.0000 54.3539 0.0000
# 4 0.0000 0.0000 0.0000 -2.9138 0.0000 -14.5105
# 5 56.6797 41.3868 54.3539 0.0000 68.9685 0.0000
# 6 0.0000 0.0000 0.0000 -14.5105 0.0000 10.6249
#
#
#
# Elastic Compliance Matrix: (Units=1/GPa)
#
#
# Indices 1 2 3 4 5 6 
#
# 1 0.010148 -0.002168 -0.000585 0.000000 -0.006578 0.000000
# 2 -0.002168 0.012224 -0.000098 0.000000 -0.005476 0.000000
# 3 -0.000585 -0.000098 0.008855 0.000000 -0.006439 0.000000
# 4 0.000000 0.000000 0.000000 -0.043993 0.000000 -0.060082
# 5 -0.006578 -0.005476 -0.006439 0.000000 0.028266 0.000000
# 6 0.000000 0.000000 0.000000 -0.060082 0.000000 0.012065
#
#
# Mechanical properties :
#
#
# Convention : Reuss Voigt Hill
#
# Bulk Modulus (GPa) = 39.17688 77.00834 58.09261
# Shear Modulus (GPa) = 119.68795 33.79262 76.74029
#
# Velocity S-wave (km/s) = 7.32542 3.89241 5.86569
# Velocity P-wave (km/s) = 9.44001 7.39781 8.48061
#
# Compressibility (1/GPa) = 0.02552526
#
# Stress axis : x y z
#
# Youngs Moduli (GPa) = 98.54167 81.80604 112.93113
#
# Poissons Ratio (x) = 0.17737 0.06603
# Poissons Ratio (y) = 0.21365 0.01107
# Poissons Ratio (z) = 0.05762 0.00802
#
# Static dielectric constant tensor:
#      x y z
#    x 1.944940 0.000000 -0.027380 
#    y 0.000000 1.726090 0.000000 
#    z -0.027380 0.000000 1.891810 
# 
# From -- ./inp_files/62917.got.cif
#   From: 2010.05.17/outbox.cif.g08.bks.cpg/sg12_32_cif.got.tgz:62917.got - 2010.06.03 13:09:07.
