data_PCOD9169325
_publ_section_title
;
Structure prediction by ZEFSAII (Michael W. Deem and Ramdas Pophale) SiO2 
 PCOD9169325
Probable space group: C 2/M
;
_chemical_formula_sum "Si O2"
_cell_formula_units_Z 48
_cell_length_a 24.798262
_cell_length_b 7.477392
_cell_length_c 14.408979
_cell_angle_alpha 90.000000
_cell_angle_beta 108.307818
_cell_angle_gamma 90.000000
_cell_volume 2536.564328
_symmetry_space_group_name_H-M "C 2/M"
_symmetry_group_IT_number 12
_symmetry_cell_setting 'monoclinic'
loop_
_space_group_symop_operation_xyz
x,y,z
-x,y,-z
-x,-y,-z
x,-y,z
1/2+x,1/2+y,z
1/2-x,1/2+y,-z
1/2-x,1/2-y,-z
1/2+x,1/2-y,z
loop_
_atom_site_type_symbol
_atom_site_label
_atom_site_fract_x
_atom_site_fract_y
_atom_site_fract_z
Si Si1 0.128978 0.787155 0.135845
Si Si2 0.438597 0.716968 0.075844
Si Si3 0.050264 0.782310 0.244213
Si Si4 0.249828 0.288455 0.110615
Si Si5 0.483601 0.281106 0.388292
Si Si6 0.628475 0.717332 0.776291
O O1 0.108515 0.722965 0.226205
O O2 0.192376 0.762626 0.132443
O O3 0.120313 0.000000 0.133506
O O4 0.086447 0.715092 0.033663
O O5 0.440789 0.500000 0.071231
O O6 0.500157 0.770700 0.145565
O O7 0.395135 0.762477 0.134444
O O8 0.028780 0.722797 0.333748
O O9 0.050450 0.000000 0.250423
O O10 0.253267 0.500000 0.118814
O O11 0.306999 0.216067 0.190579
O O12 0.250000 0.250000 0.000000
O O13 0.500000 0.222796 0.500000
O O14 0.483417 0.500000 0.387816
O O15 0.420446 0.223869 0.321557
O O16 0.629244 0.500000 0.770530
#
# Coordination Sequence:
#
# PCOD9169325 Si02
#       6
#     8   8   8   8   8   8
#     4  10  17  26  41  62  88 119 147 175 211 254
#     4   8  12  21  37  58  81 108 142 176 207 246
#     4   8  14  22  37  62  86 110 143 178 218 261
#     4  11  20  30  43  61  88 122 153 177 206 250
#     4   8  13  23  41  65  88 106 133 184 234 259
#     4   8  14  24  38  59  84 110 143 177 212 253
#
# _framework density 18.923233
#
# number of rings (size 3 to 8) (size 9 to 14) (size 15 to 20)
#    0.000    3.167    1.667    3.000    0.000    2.000 
#    0.000    0.000    0.000    3.000    0.000    0.000 
#    0.000    4.667    0.000    0.000    0.000    0.167 
#
# Total GULP energy -133659.470348 kJ/mol
# GULP energy per Si atom -5569.144598 kJ/mol
# Density = 1.888016 g / cm^3
# Si number density = 18.923233 Si / 1000 Ang^3
#
#
#
# Elastic Constant Matrix: (Units=GPa)
#
#
# Indices 1 2 3 4 5 6 
#
# 1 159.1448 -3.0181 92.1025 0.0000 -26.4451 0.0000
# 2 -3.0181 49.3880 6.2664 0.0000 -3.6021 0.0000
# 3 92.1025 6.2664 144.0621 0.0000 -12.4380 0.0000
# 4 0.0000 0.0000 0.0000 -1.6088 0.0000 0.8615
# 5 -26.4451 -3.6021 -12.4380 0.0000 11.3492 0.0000
# 6 0.0000 0.0000 0.0000 0.8615 0.0000 12.9241
#
#
#
# Elastic Compliance Matrix: (Units=1/GPa)
#
#
# Indices 1 2 3 4 5 6 
#
# 1 0.015694 0.004081 -0.007667 0.000000 0.029461 0.000000
# 2 0.004081 0.021806 -0.002362 0.000000 0.013840 0.000000
# 3 -0.007667 -0.002362 0.011419 0.000000 -0.006101 0.000000
# 4 0.000000 0.000000 0.000000 -0.600156 0.000000 0.040003
# 5 0.029461 0.013840 -0.006101 0.000000 0.154467 0.000000
# 6 0.000000 0.000000 0.000000 0.040003 0.000000 0.074708
#
#
# Mechanical properties :
#
#
# Convention : Reuss Voigt Hill
#
# Bulk Modulus (GPa) = 27.01144 60.36628 43.68886
# Shear Modulus (GPa) = -16.78855 21.68250 2.44698
#
# Velocity S-wave (km/s) = -2.98181 3.38866 1.13838
# Velocity P-wave (km/s) = 1.56534 6.87609 4.98652
#
# Compressibility (1/GPa) = 0.03702135
#
# Stress axis : x y z
#
# Youngs Moduli (GPa) = 63.71889 45.85812 87.56993
#
# Poissons Ratio (x) = -0.18713 0.67143
# Poissons Ratio (y) = -0.26001 0.20688
# Poissons Ratio (z) = 0.48856 0.10834
#
# Static dielectric constant tensor:
#      x y z
#    x 1.660400 0.000000 0.019950 
#    y 0.000000 1.744890 0.000000 
#    z 0.019950 0.000000 1.630070 
# 
# From -- ./inp_files/173476.got.cif
#   From: 2010.05.17/outbox.cif.g08.bks.cpg/sg12_87_cif.got.tgz:173476.got - 2010.06.03 13:09:07.
