data_PCOD9169810
_publ_section_title
;
Structure prediction by ZEFSAII (Michael W. Deem and Ramdas Pophale) SiO2 
 PCOD9169810
Probable space group: C 2/M
;
_chemical_formula_sum "Si O2"
_cell_formula_units_Z 48
_cell_length_a 28.138139
_cell_length_b 25.042261
_cell_length_c 11.970684
_cell_angle_alpha 90.000000
_cell_angle_beta 20.537821
_cell_angle_gamma 90.000000
_cell_volume 2959.232959
_symmetry_space_group_name_H-M "C 2/M"
_symmetry_group_IT_number 12
_symmetry_cell_setting 'monoclinic'
loop_
_space_group_symop_operation_xyz
x,y,z
-x,y,-z
-x,-y,-z
x,-y,z
1/2+x,1/2+y,z
1/2-x,1/2+y,-z
1/2-x,1/2-y,-z
1/2+x,1/2-y,z
loop_
_atom_site_type_symbol
_atom_site_label
_atom_site_fract_x
_atom_site_fract_y
_atom_site_fract_z
Si Si1 0.645753 0.000000 0.548971
Si Si2 0.817358 0.500000 0.281668
Si Si3 0.859549 0.690447 0.368201
Si Si4 0.663086 0.061473 0.159293
Si Si5 0.128704 0.609451 0.462314
Si Si6 0.697454 0.900502 0.840021
Si Si7 0.646163 0.315777 0.638439
O O1 0.673956 0.945314 0.422849
O O2 0.716071 0.000000 0.514530
O O3 0.481669 0.000000 0.919077
O O4 0.772088 0.448014 0.314007
O O5 0.834783 0.658094 0.536426
O O6 0.743684 0.681807 0.531516
O O7 0.869233 0.754058 0.364954
O O8 0.000000 0.671999 0.000000
O O9 0.500000 0.059700 0.500000
O O10 0.685763 0.102253 0.211511
O O11 0.703125 0.000000 0.097319
O O12 0.723471 0.080232 0.908780
O O13 0.964283 0.610410 0.814287
O O14 0.784403 0.850176 0.610709
O O15 0.500000 0.335593 0.000000
#
# Coordination Sequence:
#
# PCOD9169810 Si02
#       7
#     4   4   8   8   8   8   8
#     4   9  16  21  39  75 106 119 151 211 264 298
#     4   9  16  23  42  71  98 130 159 200 253 308
#     4  10  19  34  53  75 102 133 173 218 258 296
#     4   9  16  28  46  76 108 135 163 208 260 303
#     4  10  17  28  49  77 105 130 167 210 260 302
#     4  10  17  30  49  72 105 138 166 205 258 305
#     4  10  21  34  51  74 103 139 173 208 256 305
#
# _framework density 16.220420000000001
#
# number of rings (size 3 to 8) (size 9 to 14) (size 15 to 20)
#    0.000    2.333    3.333    1.000    2.333    0.000 
#    0.000    1.250    0.000    1.000    0.000    1.167 
#    0.000    0.000    0.000    0.000    0.000    0.000 
#
# Total GULP energy -133682.549861 kJ/mol
# GULP energy per Si atom -5570.106244 kJ/mol
# Density = 1.618350 g / cm^3
# Si number density = 16.220420 Si / 1000 Ang^3
#
#
#
# Elastic Constant Matrix: (Units=GPa)
#
#
# Indices 1 2 3 4 5 6 
#
# 1 93.6505 45.7169 31.3119 0.0003 30.8142 -0.0007
# 2 45.7169 73.2445 26.7807 0.0002 18.1800 -0.0005
# 3 31.3119 26.7807 47.5122 0.0023 12.6677 -0.0013
# 4 0.0003 0.0002 0.0023 15.7993 -0.0006 4.3445
# 5 30.8142 18.1800 12.6677 -0.0006 24.4936 0.0008
# 6 -0.0007 -0.0005 -0.0013 4.3445 0.0008 17.4475
#
#
#
# Elastic Compliance Matrix: (Units=1/GPa)
#
#
# Indices 1 2 3 4 5 6 
#
# 1 0.022713 -0.007078 -0.005523 -0.000001 -0.020465 0.000001
# 2 -0.007078 0.021298 -0.006379 0.000001 -0.003604 0.000000
# 3 -0.005523 -0.006379 0.029193 -0.000005 -0.003415 0.000003
# 4 -0.000001 0.000001 -0.000005 0.067946 0.000005 -0.016919
# 5 -0.020465 -0.003604 -0.003415 0.000005 0.071014 -0.000006
# 6 0.000001 0.000000 0.000003 -0.016919 -0.000006 0.061528
#
#
# Mechanical properties :
#
#
# Convention : Reuss Voigt Hill
#
# Bulk Modulus (GPa) = 28.37336 46.89179 37.63257
# Shear Modulus (GPa) = 15.46071 18.92127 17.19099
#
# Velocity S-wave (km/s) = 3.09068 3.41913 3.25904
# Velocity P-wave (km/s) = 5.50152 6.67526 6.11661
#
# Compressibility (1/GPa) = 0.03524433
#
# Stress axis : x y z
#
# Youngs Moduli (GPa) = 44.02684 46.95310 34.25453
#
# Poissons Ratio (x) = 0.33234 0.18918
# Poissons Ratio (y) = 0.31163 0.21851
# Poissons Ratio (z) = 0.24315 0.29952
#
# Static dielectric constant tensor:
#      x y z
#    x 1.549100 0.000000 0.004030 
#    y 0.000000 1.552240 0.000000 
#    z 0.004030 0.000000 1.533940 
# 
# From -- ./inp_files/170131.got.cif
#   From: 2010.05.17/outbox.cif.g08.bks.cpg/sg12_86_cif.got.tgz:170131.got - 2010.06.03 13:09:07.
