data_PCOD9169524
_publ_section_title
;
Structure prediction by ZEFSAII (Michael W. Deem and Ramdas Pophale) SiO2 
 PCOD9169524
Probable space group: C 2/M
;
_chemical_formula_sum "Si O2"
_cell_formula_units_Z 64
_cell_length_a 30.097196
_cell_length_b 7.392399
_cell_length_c 14.997699
_cell_angle_alpha 90.000000
_cell_angle_beta 53.512513
_cell_angle_gamma 90.000000
_cell_volume 2682.779375
_symmetry_space_group_name_H-M "C 2/M"
_symmetry_group_IT_number 12
_symmetry_cell_setting 'monoclinic'
loop_
_space_group_symop_operation_xyz
x,y,z
-x,y,-z
-x,-y,-z
x,-y,z
1/2+x,1/2+y,z
1/2-x,1/2+y,-z
1/2-x,1/2-y,-z
1/2+x,1/2-y,z
loop_
_atom_site_type_symbol
_atom_site_label
_atom_site_fract_x
_atom_site_fract_y
_atom_site_fract_z
Si Si1 0.776649 0.713870 0.374925
Si Si2 0.650255 0.787251 0.937287
Si Si3 0.397098 0.216173 0.190798
Si Si4 0.365233 0.282102 0.844964
Si Si5 0.775555 0.219595 0.828073
Si Si6 0.330567 0.719789 0.587923
Si Si7 0.522675 0.278776 0.376074
Si Si8 0.068439 0.215192 0.656187
O O1 0.781732 0.500000 0.352541
O O2 0.750000 0.750000 0.500000
O O3 0.837766 0.784629 0.297020
O O4 0.730077 0.786156 0.366669
O O5 0.610275 0.719882 0.904071
O O6 0.713866 0.715067 0.874061
O O7 0.657531 0.000000 0.909494
O O8 0.624092 0.765235 0.065269
O O9 0.434785 0.255107 0.233092
O O10 0.401892 0.000000 0.178953
O O11 0.363993 0.500000 0.841159
O O12 0.304798 0.217274 0.884391
O O13 0.416117 0.219850 0.723586
O O14 0.825595 0.260620 0.698039
O O15 0.770582 0.000000 0.835384
O O16 0.331982 0.500000 0.579674
O O17 0.376738 0.784957 0.462908
O O18 0.500000 0.221048 0.500000
O O19 0.522844 0.500000 0.378341
O O20 0.482314 0.221366 0.343895
O O21 0.070297 0.000000 0.644382
#
# Coordination Sequence:
#
# PCOD9169524 Si02
#       8
#     8   8   8   8   8   8   8   8
#     4  10  17  27  44  68 101 137 170 205 248 300
#     4  10  20  35  53  73 103 142 176 206 250 309
#     4  10  20  33  49  72 105 142 176 209 250 305
#     4  10  20  34  55  80 103 129 169 220 262 297
#     4   9  16  29  51  77 104 136 171 207 253 311
#     4   9  15  25  45  74 102 131 166 200 245 304
#     4   9  18  35  58  84 107 130 166 212 259 308
#     4  10  19  31  53  80 105 134 171 215 259 301
#
# _framework density 23.855857
#
# number of rings (size 3 to 8) (size 9 to 14) (size 15 to 20)
#    0.000    2.375    2.500    1.125    0.000    3.500 
#    0.000    1.250    0.000    9.000    0.000    0.000 
#    0.000    0.000    0.000    0.000    0.000    0.000 
#
# Total GULP energy -178177.376893 kJ/mol
# GULP energy per Si atom -5568.043028 kJ/mol
# Density = 2.380156 g / cm^3
# Si number density = 23.855857 Si / 1000 Ang^3
#
#
#
# Elastic Constant Matrix: (Units=GPa)
#
#
# Indices 1 2 3 4 5 6 
#
# 1 162.4719 4.5219 56.0127 -0.0010 34.7231 -0.0004
# 2 4.5219 81.2437 -4.1681 -0.0097 -1.3638 -0.0041
# 3 56.0127 -4.1681 126.6011 0.0002 21.6612 0.0001
# 4 -0.0010 -0.0097 0.0002 55.4407 -0.0007 11.5282
# 5 34.7231 -1.3638 21.6612 -0.0007 33.5394 -0.0002
# 6 -0.0004 -0.0041 0.0001 11.5282 -0.0002 4.1273
#
#
#
# Elastic Compliance Matrix: (Units=1/GPa)
#
#
# Indices 1 2 3 4 5 6 
#
# 1 0.008627 -0.000736 -0.002595 0.000000 -0.007286 0.000000
# 2 -0.000736 0.012394 0.000581 -0.000001 0.000890 0.000015
# 3 -0.002595 0.000581 0.009671 0.000000 -0.003536 0.000000
# 4 0.000000 -0.000001 0.000000 0.043028 0.000000 -0.120186
# 5 -0.007286 0.000890 -0.003536 0.000000 0.039678 0.000002
# 6 0.000000 0.000015 0.000000 -0.120186 0.000002 0.577993
#
#
# Mechanical properties :
#
#
# Convention : Reuss Voigt Hill
#
# Bulk Modulus (GPa) = 39.69134 53.67221 46.68178
# Shear Modulus (GPa) = 7.08930 39.55149 23.32040
#
# Velocity S-wave (km/s) = 1.72574 4.07619 3.12998
# Velocity P-wave (km/s) = 4.54368 6.68590 5.71604
#
# Compressibility (1/GPa) = 0.02519441
#
# Stress axis : x y z
#
# Youngs Moduli (GPa) = 115.91633 80.68192 103.40310
#
# Poissons Ratio (x) = 0.05935 0.26828
# Poissons Ratio (y) = 0.08526 -0.06010
# Poissons Ratio (z) = 0.30075 -0.04689
#
# Static dielectric constant tensor:
#      x y z
#    x 2.005450 0.000000 0.129020 
#    y 0.000000 1.930250 0.000000 
#    z 0.129020 0.000000 2.067300 
# 
# From -- ./inp_files/249022.got.cif
#   From: 2010.05.17/outbox.cif.g08.bks.cpg/sg12_125_cif.got.tgz:249022.got - 2010.06.03 13:09:07.
