data_PCOD9169973
_publ_section_title
;
Structure prediction by ZEFSAII (Michael W. Deem and Ramdas Pophale) SiO2 
 PCOD9169973
Probable space group: C 2/M
;
_chemical_formula_sum "Si O2"
_cell_formula_units_Z 64
_cell_length_a 34.492337
_cell_length_b 17.089994
_cell_length_c 12.910571
_cell_angle_alpha 90.000000
_cell_angle_beta 150.140406
_cell_angle_gamma 90.000000
_cell_volume 3789.059316
_symmetry_space_group_name_H-M "C 2/M"
_symmetry_group_IT_number 12
_symmetry_cell_setting 'monoclinic'
loop_
_space_group_symop_operation_xyz
x,y,z
-x,y,-z
-x,-y,-z
x,-y,z
1/2+x,1/2+y,z
1/2-x,1/2+y,-z
1/2-x,1/2-y,-z
1/2+x,1/2-y,z
loop_
_atom_site_type_symbol
_atom_site_label
_atom_site_fract_x
_atom_site_fract_y
_atom_site_fract_z
Si Si1 0.843673 0.407152 0.760954
Si Si2 0.559115 0.347922 0.349980
Si Si3 0.999206 0.689681 0.120603
Si Si4 0.187903 0.095773 0.062563
Si Si5 0.654203 0.092698 0.476103
Si Si6 0.325212 0.405364 0.548583
Si Si7 0.398379 0.410150 0.931716
Si Si8 0.582029 0.407273 0.630070
O O1 0.863006 0.500000 0.815582
O O2 0.823139 0.394009 0.591875
O O3 0.766551 0.390907 0.648657
O O4 0.918059 0.353436 0.956728
O O5 0.518926 0.265146 0.233457
O O6 0.634027 0.362610 0.452285
O O7 0.578468 0.362374 0.514019
O O8 0.490998 0.407104 0.156073
O O9 0.071382 0.631251 0.302580
O O10 0.000000 0.711135 0.000000
O O11 0.276166 0.120621 0.288922
O O12 0.137806 0.122862 0.046185
O O13 0.185235 0.000000 0.055666
O O14 0.148349 0.119878 0.863831
O O15 0.647063 0.000000 0.472606
O O16 0.335805 0.500000 0.562468
O O17 0.367972 0.376427 0.753122
O O18 0.371188 0.500000 0.865310
O O19 0.500000 0.400179 0.500000
O O20 0.592855 0.500000 0.632628
#
# Coordination Sequence:
#
# PCOD9169973 Si02
#       8
#     8   8   8   8   8   8   8   8
#     4   9  17  33  56  79 103 136 178 219 258 304
#     4  12  22  33  45  73 113 147 170 203 260 319
#     4  10  21  35  49  76 108 141 176 209 260 317
#     4   9  16  29  52  79  97 121 170 222 261 290
#     4   9  16  32  56  78 100 129 174 227 262 295
#     4  10  19  31  50  77 108 140 173 209 256 318
#     4  10  17  29  49  73 103 136 169 204 249 310
#     4  10  19  33  53  74  98 136 183 222 253 295
#
# _framework density 16.890734999999999
#
# number of rings (size 3 to 8) (size 9 to 14) (size 15 to 20)
#    0.000    2.125    2.500    2.625    0.000    2.500 
#    2.250    2.500    0.000    0.000    0.000    0.000 
#    0.000    6.000    0.000    0.000    0.000    0.000 
#
# Total GULP energy -178433.611316 kJ/mol
# GULP energy per Si atom -5576.050354 kJ/mol
# Density = 1.685229 g / cm^3
# Si number density = 16.890735 Si / 1000 Ang^3
#
#
#
# Elastic Constant Matrix: (Units=GPa)
#
#
# Indices 1 2 3 4 5 6 
#
# 1 104.1065 37.5470 71.3508 0.0000 -10.9651 0.0000
# 2 37.5470 38.2024 46.7021 0.0000 -8.0149 0.0000
# 3 71.3508 46.7021 129.8533 0.0000 -7.2492 0.0000
# 4 0.0000 0.0000 0.0000 23.5898 0.0000 -2.9836
# 5 -10.9651 -8.0149 -7.2492 0.0000 20.5889 0.0000
# 6 0.0000 0.0000 0.0000 -2.9836 0.0000 11.4829
#
#
#
# Elastic Compliance Matrix: (Units=1/GPa)
#
#
# Indices 1 2 3 4 5 6 
#
# 1 0.017403 -0.008733 -0.006216 0.000000 0.003680 0.000000
# 2 -0.008733 0.054490 -0.014153 0.000000 0.011578 0.000000
# 3 -0.006216 -0.014153 0.016029 0.000000 -0.003176 0.000000
# 4 0.000000 0.000000 0.000000 0.043832 0.000000 0.011389
# 5 0.003680 0.011578 -0.003176 0.000000 0.053919 0.000000
# 6 0.000000 0.000000 0.000000 0.011389 0.000000 0.090045
#
#
# Mechanical properties :
#
#
# Convention : Reuss Voigt Hill
#
# Bulk Modulus (GPa) = 33.64873 64.81799 49.23336
# Shear Modulus (GPa) = 14.54212 18.90313 16.72263
#
# Velocity S-wave (km/s) = 2.93738 3.34899 3.14992
# Velocity P-wave (km/s) = 5.60972 7.30838 6.51465
#
# Compressibility (1/GPa) = 0.02971880
#
# Stress axis : x y z
#
# Youngs Moduli (GPa) = 57.46043 18.35187 62.38571
#
# Poissons Ratio (x) = 0.16027 0.38780
# Poissons Ratio (y) = 0.50182 0.88292
# Poissons Ratio (z) = 0.35719 0.25973
#
# Static dielectric constant tensor:
#      x y z
#    x 1.563210 0.000000 0.011040 
#    y 0.000000 1.599870 0.000000 
#    z 0.011040 0.000000 1.578640 
# 
# From -- ./inp_files/190070.got.cif
#   From: 2010.05.17/outbox.cif.g08.bks.cpg/sg12_96_cif.got.tgz:190070.got - 2010.06.03 13:09:07.
