data_PCOD9169152
_publ_section_title
;
Structure prediction by ZEFSAII (Michael W. Deem and Ramdas Pophale) SiO2 
 PCOD9169152
Probable space group: C 2/M
;
_chemical_formula_sum "Si O2"
_cell_formula_units_Z 48
_cell_length_a 33.108038
_cell_length_b 9.193039
_cell_length_c 7.203520
_cell_angle_alpha 90.000000
_cell_angle_beta 83.870275
_cell_angle_gamma 90.000000
_cell_volume 2179.953292
_symmetry_space_group_name_H-M "C 2/M"
_symmetry_group_IT_number 12
_symmetry_cell_setting 'monoclinic'
loop_
_space_group_symop_operation_xyz
x,y,z
-x,y,-z
-x,-y,-z
x,-y,z
1/2+x,1/2+y,z
1/2-x,1/2+y,-z
1/2-x,1/2-y,-z
1/2+x,1/2-y,z
loop_
_atom_site_type_symbol
_atom_site_label
_atom_site_fract_x
_atom_site_fract_y
_atom_site_fract_z
Si Si1 0.702089 0.665699 0.835481
Si Si2 0.955095 0.833815 0.990612
Si Si3 0.369108 0.677162 0.649591
Si Si4 0.955295 0.834689 0.547861
Si Si5 0.876265 0.327467 0.048679
Si Si6 0.720099 0.334097 0.274716
O O1 0.693504 0.500000 0.787650
O O2 0.742294 0.726933 0.718547
O O3 0.662427 0.763027 0.826836
O O4 0.711046 0.667239 0.055037
O O5 0.950841 0.841465 0.771692
O O6 0.919271 0.738212 0.089591
O O7 0.952982 0.000000 0.060847
O O8 0.000000 0.774530 0.000000
O O9 0.371287 0.500000 0.680653
O O10 0.409923 0.718658 0.515691
O O11 0.371550 0.766222 0.840680
O O12 0.322824 0.702824 0.607134
O O13 0.000000 0.763504 0.500000
O O14 0.959059 0.000000 0.471818
O O15 0.876305 0.500000 0.050951
O O16 0.731456 0.500000 0.315396
#
# Coordination Sequence:
#
# PCOD9169152 Si02
#       6
#     8   8   8   8   8   8
#     4   9  15  22  32  47  70  99 129 159 193 235
#     4   9  17  29  43  58  79 107 135 163 197 235
#     4   8  14  24  36  51  74 103 131 160 196 236
#     4   8  13  23  41  62  80 101 133 168 196 226
#     4  10  17  24  36  53  74 100 130 163 197 234
#     4   8  13  20  30  46  69  97 128 158 189 229
#
# _framework density 22.018822
#
# number of rings (size 3 to 8) (size 9 to 14) (size 15 to 20)
#    0.000    3.333    0.000    4.000    0.000    4.333 
#    0.000    0.000    0.000    8.000    0.000    0.000 
#    0.000    1.333    0.000    2.333    0.000    7.000 
#
# Total GULP energy -133745.658878 kJ/mol
# GULP energy per Si atom -5572.735787 kJ/mol
# Density = 2.196871 g / cm^3
# Si number density = 22.018822 Si / 1000 Ang^3
#
#
#
# Elastic Constant Matrix: (Units=GPa)
#
#
# Indices 1 2 3 4 5 6 
#
# 1 236.8155 93.7375 14.1909 0.0000 -40.9063 0.0000
# 2 93.7375 94.2334 18.9240 0.0000 -17.0137 0.0000
# 3 14.1909 18.9240 79.6913 0.0000 -13.4588 0.0000
# 4 0.0000 0.0000 0.0000 -2.6282 0.0000 -5.5957
# 5 -40.9063 -17.0137 -13.4588 0.0000 25.8927 0.0000
# 6 0.0000 0.0000 0.0000 -5.5957 0.0000 35.3412
#
#
#
# Elastic Compliance Matrix: (Units=1/GPa)
#
#
# Indices 1 2 3 4 5 6 
#
# 1 0.008685 -0.007215 0.001845 0.000000 0.009939 0.000000
# 2 -0.007215 0.018241 -0.003231 0.000000 -0.001093 0.000000
# 3 0.001845 -0.003231 0.014384 0.000000 0.008269 0.000000
# 4 0.000000 0.000000 0.000000 -0.284566 0.000000 -0.045056
# 5 0.009939 -0.001093 0.008269 0.000000 0.057903 0.000000
# 6 0.000000 0.000000 0.000000 -0.045056 0.000000 0.021162
#
#
# Mechanical properties :
#
#
# Convention : Reuss Voigt Hill
#
# Bulk Modulus (GPa) = 41.48194 73.82723 57.65458
# Shear Modulus (GPa) = -35.98325 30.64700 -2.66812
#
# Velocity S-wave (km/s) = -4.04691 3.73480 -1.10199
# Velocity P-wave (km/s) = 1.71944 7.22498 4.96205
#
# Compressibility (1/GPa) = 0.02410688
#
# Stress axis : x y z
#
# Youngs Moduli (GPa) = 115.14195 54.82175 69.52365
#
# Poissons Ratio (x) = 0.39556 -0.12830
# Poissons Ratio (y) = 0.83079 0.22465
# Poissons Ratio (z) = -0.21248 0.17715
#
# Static dielectric constant tensor:
#      x y z
#    x 1.921790 0.000000 0.095000 
#    y 0.000000 1.726770 0.000000 
#    z 0.095000 0.000000 2.018760 
# 
# From -- ./inp_files/179215.got.cif
#   From: 2010.05.17/outbox.cif.g08.bks.cpg/sg12_90_cif.got.tgz:179215.got - 2010.06.03 13:09:07.
