data_PCOD9169219
_publ_section_title
;
Structure prediction by ZEFSAII (Michael W. Deem and Ramdas Pophale) SiO2 
 PCOD9169219
Probable space group: C 2/M
;
_chemical_formula_sum "Si O2"
_cell_formula_units_Z 64
_cell_length_a 15.898783
_cell_length_b 8.728241
_cell_length_c 25.843881
_cell_angle_alpha 90.000000
_cell_angle_beta 47.424960
_cell_angle_gamma 90.000000
_cell_volume 2640.932731
_symmetry_space_group_name_H-M "C 2/M"
_symmetry_group_IT_number 12
_symmetry_cell_setting 'monoclinic'
loop_
_space_group_symop_operation_xyz
x,y,z
-x,y,-z
-x,-y,-z
x,-y,z
1/2+x,1/2+y,z
1/2-x,1/2+y,-z
1/2-x,1/2-y,-z
1/2+x,1/2-y,z
loop_
_atom_site_type_symbol
_atom_site_label
_atom_site_fract_x
_atom_site_fract_y
_atom_site_fract_z
Si Si1 0.462992 0.816054 0.459315
Si Si2 0.794514 0.819853 0.289911
Si Si3 0.455049 0.187444 0.794406
Si Si4 0.324116 0.825102 0.171218
Si Si5 0.248459 0.677220 0.585050
Si Si6 0.477173 0.179790 0.673967
Si Si7 0.101213 0.675960 0.071918
Si Si8 0.138115 0.827264 0.950961
O O1 0.500000 0.756231 0.500000
O O2 0.328826 0.777872 0.515057
O O3 0.528110 0.754099 0.381640
O O4 0.477707 0.000000 0.452771
O O5 0.926720 0.773501 0.243330
O O6 0.770049 0.771654 0.240881
O O7 0.736415 0.733848 0.362061
O O8 0.776443 0.000000 0.303640
O O9 0.421347 0.237608 0.750541
O O10 0.379394 0.220417 0.876341
O O11 0.473169 0.000000 0.786464
O O12 0.462522 0.819653 0.123081
O O13 0.313304 0.770590 0.116694
O O14 0.287757 0.000000 0.192515
O O15 0.280691 0.500000 0.566579
O O16 0.113883 0.688831 0.628809
O O17 0.446797 0.000000 0.683369
O O18 0.135539 0.500000 0.049584
O O19 0.150969 0.775586 0.004891
O O20 0.179656 0.000000 0.926261
O O21 0.000000 0.826202 0.000000
#
# Coordination Sequence:
#
# PCOD9169219 Si02
#       8
#     8   8   8   8   8   8   8   8
#     4  10  20  33  49  70  95 119 144 180 227 272
#     4  10  17  25  39  59  81 103 135 180 225 262
#     4   8  14  25  39  55  77 106 141 178 216 260
#     4   9  15  23  33  46  69 102 139 174 211 257
#     4  10  19  32  49  66  87 117 153 187 219 263
#     4   8  15  29  48  68  89 116 150 186 223 265
#     4   8  13  20  30  44  65  97 135 173 211 252
#     4   9  15  20  27  42  66  98 136 175 213 253
#
# _framework density 24.233862999999999
#
# number of rings (size 3 to 8) (size 9 to 14) (size 15 to 20)
#    0.000    3.000    0.000    4.125    0.000    4.750 
#    0.000    2.500    0.000    0.000    0.000    0.000 
#    0.000    0.000    0.000    1.125    0.000   12.500 
#
# Total GULP energy -178809.762930 kJ/mol
# GULP energy per Si atom -5587.805092 kJ/mol
# Density = 2.417871 g / cm^3
# Si number density = 24.233863 Si / 1000 Ang^3
#
#
#
# Elastic Constant Matrix: (Units=GPa)
#
#
# Indices 1 2 3 4 5 6 
#
# 1 103.5944 11.0332 37.3321 0.0000 33.8472 -0.0001
# 2 11.0332 27.8510 24.7361 0.0000 14.6439 0.0000
# 3 37.3321 24.7361 158.6675 0.0000 31.8274 0.0000
# 4 0.0000 0.0000 0.0000 29.2482 0.0000 6.7023
# 5 33.8472 14.6439 31.8274 0.0000 61.2999 0.0000
# 6 -0.0001 0.0000 0.0000 6.7023 0.0000 11.1060
#
#
#
# Elastic Compliance Matrix: (Units=1/GPa)
#
#
# Indices 1 2 3 4 5 6 
#
# 1 0.012174 -0.000309 -0.001655 0.000000 -0.005789 0.000000
# 2 -0.000309 0.044876 -0.005366 0.000000 -0.007764 0.000000
# 3 -0.001655 -0.005366 0.007912 0.000000 -0.001912 0.000000
# 4 0.000000 0.000000 0.000000 0.039677 0.000000 -0.023944
# 5 -0.005789 -0.007764 -0.001912 0.000000 0.022357 0.000000
# 6 0.000000 0.000000 0.000000 -0.023944 0.000000 0.104491
#
#
# Mechanical properties :
#
#
# Convention : Reuss Voigt Hill
#
# Bulk Modulus (GPa) = 19.88018 48.47951 34.17985
# Shear Modulus (GPa) = 19.01764 34.79826 26.90795
#
# Velocity S-wave (km/s) = 2.80439 3.79348 3.33580
# Velocity P-wave (km/s) = 4.32520 6.26384 5.38252
#
# Compressibility (1/GPa) = 0.05030134
#
# Stress axis : x y z
#
# Youngs Moduli (GPa) = 82.14450 22.28371 126.38994
#
# Poissons Ratio (x) = 0.00689 0.20917
# Poissons Ratio (y) = 0.02539 0.67821
# Poissons Ratio (z) = 0.13594 0.11958
#
# Static dielectric constant tensor:
#      x y z
#    x 2.102730 0.000000 -0.042380 
#    y 0.000000 1.812280 0.000000 
#    z -0.042380 0.000000 1.923390 
# 
# From -- ./inp_files/365157.got.cif
#   From: 2010.05.17/outbox.cif.g08.bks.cpg/sg12_183_cif.got.tgz:365157.got - 2010.06.03 13:09:07.
