data_PCOD9169839
_publ_section_title
;
Structure prediction by ZEFSAII (Michael W. Deem and Ramdas Pophale) SiO2 
 PCOD9169839
Probable space group: C 2/M
;
_chemical_formula_sum "Si O2"
_cell_formula_units_Z 60
_cell_length_a 27.751368
_cell_length_b 14.017760
_cell_length_c 16.752571
_cell_angle_alpha 90.000000
_cell_angle_beta 33.277246
_cell_angle_gamma 90.000000
_cell_volume 3575.791607
_symmetry_space_group_name_H-M "C 2/M"
_symmetry_group_IT_number 12
_symmetry_cell_setting 'monoclinic'
loop_
_space_group_symop_operation_xyz
x,y,z
-x,y,-z
-x,-y,-z
x,-y,z
1/2+x,1/2+y,z
1/2-x,1/2+y,-z
1/2-x,1/2-y,-z
1/2+x,1/2-y,z
loop_
_atom_site_type_symbol
_atom_site_label
_atom_site_fract_x
_atom_site_fract_y
_atom_site_fract_z
Si Si1 0.298792 0.110152 0.554532
Si Si2 0.090775 0.112951 0.419782
Si Si3 0.874252 0.886592 0.302590
Si Si4 0.336551 0.395198 0.115372
Si Si5 0.231647 0.112463 0.085757
Si Si6 0.000000 0.855108 0.000000
Si Si7 0.074874 0.214292 0.609026
Si Si8 0.133399 0.223881 0.081997
O O1 0.226015 0.125998 0.586178
O O2 0.243970 0.121721 0.712909
O O3 0.375450 0.186406 0.445332
O O4 0.328044 0.000000 0.509547
O O5 0.170665 0.128370 0.248039
O O6 0.097835 0.172889 0.490458
O O7 0.000000 0.136761 0.500000
O O8 0.087060 0.000000 0.444518
O O9 0.935566 0.820172 0.160749
O O10 0.893149 0.858399 0.366632
O O11 0.895451 0.000000 0.259060
O O12 0.325996 0.500000 0.092538
O O13 0.423384 0.398802 0.050483
O O14 0.347240 0.317205 0.032668
O O15 0.177871 0.153324 0.084872
O O16 0.247353 0.000000 0.055659
O O17 0.319550 0.174525 0.972123
O O18 0.970363 0.225972 0.760508
#
# Coordination Sequence:
#
# PCOD9169839 Si02
#       8
#     8   8   8   8   8   4   8   8
#     4   9  21  37  52  74 111 148 171 205 256 311
#     4  10  20  35  55  79 106 135 168 218 272 309
#     4  10  19  32  52  81 110 136 169 213 264 306
#     4  10  18  32  53  79 108 136 170 215 263 307
#     4  10  22  40  54  73 108 140 173 216 264 311
#     4  10  17  28  50  80 111 132 159 212 268 308
#     4  12  21  33  56  83 106 134 179 216 254 312
#     4  11  22  33  56  83 101 135 178 219 260 307
#
# _framework density 16.779502000000001
#
# number of rings (size 3 to 8) (size 9 to 14) (size 15 to 20)
#    0.000    1.733    2.667    4.000    0.000    1.600 
#    0.000    0.000    0.000    0.400    0.000    0.933 
#    0.000    0.000    0.000    0.000    0.000    0.000 
#
# Total GULP energy -167145.978620 kJ/mol
# GULP energy per Si atom -5571.532621 kJ/mol
# Density = 1.674131 g / cm^3
# Si number density = 16.779502 Si / 1000 Ang^3
#
#
#
# Elastic Constant Matrix: (Units=GPa)
#
#
# Indices 1 2 3 4 5 6 
#
# 1 105.9567 57.6734 42.1318 0.0000 8.7244 0.0000
# 2 57.6734 85.6184 40.5324 0.0000 -1.6234 0.0000
# 3 42.1318 40.5324 37.9277 0.0000 3.1447 0.0000
# 4 0.0000 0.0000 0.0000 12.2840 0.0000 -0.3408
# 5 8.7244 -1.6234 3.1447 0.0000 20.9781 0.0000
# 6 0.0000 0.0000 0.0000 -0.3408 0.0000 16.9285
#
#
#
# Elastic Compliance Matrix: (Units=1/GPa)
#
#
# Indices 1 2 3 4 5 6 
#
# 1 0.018822 -0.006368 -0.013582 0.000000 -0.006285 0.000000
# 2 -0.006368 0.026483 -0.021890 0.000000 0.007979 0.000000
# 3 -0.013582 -0.021890 0.065330 0.000000 -0.005839 0.000000
# 4 0.000000 0.000000 0.000000 0.081452 0.000000 0.001640
# 5 -0.006285 0.007979 -0.005839 0.000000 0.051775 0.000000
# 6 0.000000 0.000000 0.000000 0.001640 0.000000 0.059105
#
#
# Mechanical properties :
#
#
# Convention : Reuss Voigt Hill
#
# Bulk Modulus (GPa) = 37.09689 56.68644 46.89167
# Shear Modulus (GPa) = 12.63797 15.98248 14.31022
#
# Velocity S-wave (km/s) = 2.74739 3.08961 2.92351
# Velocity P-wave (km/s) = 5.67632 6.82525 6.27713
#
# Compressibility (1/GPa) = 0.02695643
#
# Stress axis : x y z
#
# Youngs Moduli (GPa) = 53.12885 37.75942 15.30680
#
# Poissons Ratio (x) = 0.24046 0.20790
# Poissons Ratio (y) = 0.33833 0.33506
# Poissons Ratio (z) = 0.72159 0.82654
#
# Static dielectric constant tensor:
#      x y z
#    x 1.550300 0.000000 0.008000 
#    y 0.000000 1.550730 0.000000 
#    z 0.008000 0.000000 1.565300 
# 
# From -- ./inp_files/246684.got.cif
#   From: 2010.05.17/outbox.cif.g08.bks.cpg/sg12_124_cif.got.tgz:246684.got - 2010.06.03 13:09:07.
