data_PCOD9169616
_publ_section_title
;
Structure prediction by ZEFSAII (Michael W. Deem and Ramdas Pophale) SiO2 
 PCOD9169616
Probable space group: C 2/M
;
_chemical_formula_sum "Si O2"
_cell_formula_units_Z 48
_cell_length_a 25.756196
_cell_length_b 7.694305
_cell_length_c 23.595173
_cell_angle_alpha 90.000000
_cell_angle_beta 141.672461
_cell_angle_gamma 90.000000
_cell_volume 2899.848751
_symmetry_space_group_name_H-M "C 2/M"
_symmetry_group_IT_number 12
_symmetry_cell_setting 'monoclinic'
loop_
_space_group_symop_operation_xyz
x,y,z
-x,y,-z
-x,-y,-z
x,-y,z
1/2+x,1/2+y,z
1/2-x,1/2+y,-z
1/2-x,1/2-y,-z
1/2+x,1/2-y,z
loop_
_atom_site_type_symbol
_atom_site_label
_atom_site_fract_x
_atom_site_fract_y
_atom_site_fract_z
Si Si1 0.314033 0.198739 0.968830
Si Si2 0.950247 0.791152 0.683157
Si Si3 0.383160 0.500000 0.952390
Si Si4 0.353757 0.202970 0.715377
Si Si5 0.300216 0.292471 0.485530
Si Si6 0.361218 0.206050 0.135254
Si Si7 0.919731 0.000000 0.853239
O O1 0.340108 0.330780 0.942597
O O2 0.214793 0.206375 0.896467
O O3 0.339302 0.000000 0.978977
O O4 0.355635 0.258126 0.064192
O O5 0.910177 0.715788 0.706568
O O6 0.893630 0.731520 0.581115
O O7 0.047136 0.743969 0.762846
O O8 0.942657 0.000000 0.680960
O O9 0.380948 0.500000 0.882734
O O10 0.480238 0.500000 0.054126
O O11 0.260574 0.267486 0.616824
O O12 0.391474 0.330513 0.794094
O O13 0.351077 0.000000 0.730071
O O14 0.303447 0.500000 0.481641
O O15 0.250000 0.250000 0.500000
O O16 0.345042 0.000000 0.122657
#
# Coordination Sequence:
#
# PCOD9169616 Si02
#       7
#     8   8   4   8   8   8   4
#     4  10  21  36  54  74 105 139 168 213 260 307
#     4  10  17  27  47  78 112 141 169 205 254 312
#     4  11  24  40  54  75 105 131 181 224 251 301
#     4  10  19  34  51  74 105 140 177 212 253 306
#     4   8  16  27  43  69 105 139 167 205 252 304
#     4  10  19  31  50  80 108 137 170 202 257 319
#     4  11  24  38  56  75  97 143 179 217 259 294
#
# _framework density 16.552588
#
# number of rings (size 3 to 8) (size 9 to 14) (size 15 to 20)
#    0.000    2.167    1.667    2.000    3.500    3.333 
#    0.000    1.667    0.000    0.000    0.000    2.333 
#    0.000    5.333    0.000    0.000    0.000    0.000 
#
# Total GULP energy -133808.490750 kJ/mol
# GULP energy per Si atom -5575.353781 kJ/mol
# Density = 1.651491 g / cm^3
# Si number density = 16.552588 Si / 1000 Ang^3
#
#
#
# Elastic Constant Matrix: (Units=GPa)
#
#
# Indices 1 2 3 4 5 6 
#
# 1 53.2581 25.2362 24.7734 0.0000 -4.0256 0.0000
# 2 25.2362 79.5774 20.5476 0.0000 -13.8300 0.0000
# 3 24.7734 20.5476 105.8454 0.0000 8.1066 0.0000
# 4 0.0000 0.0000 0.0000 11.4617 0.0000 12.1491
# 5 -4.0256 -13.8300 8.1066 0.0000 24.4224 0.0000
# 6 0.0000 0.0000 0.0000 12.1491 0.0000 10.8927
#
#
#
# Elastic Compliance Matrix: (Units=1/GPa)
#
#
# Indices 1 2 3 4 5 6 
#
# 1 0.023929 -0.006051 -0.004582 0.000000 0.002039 0.000000
# 2 -0.006051 0.016770 -0.002555 0.000000 0.009347 0.000000
# 3 -0.004582 -0.002555 0.011477 0.000000 -0.006012 0.000000
# 4 0.000000 0.000000 0.000000 -0.478761 0.000000 0.533984
# 5 0.002039 0.009347 -0.006012 0.000000 0.048571 0.000000
# 6 0.000000 0.000000 0.000000 0.533984 0.000000 -0.503771
#
#
# Mechanical properties :
#
#
# Convention : Reuss Voigt Hill
#
# Bulk Modulus (GPa) = 38.76153 42.19948 40.48050
# Shear Modulus (GPa) = -5.90451 20.56360 7.32954
#
# Velocity S-wave (km/s) = -1.89073 3.52848 2.10657
# Velocity P-wave (km/s) = 4.32453 6.49228 5.51594
#
# Compressibility (1/GPa) = 0.02579878
#
# Stress axis : x y z
#
# Youngs Moduli (GPa) = 41.78961 59.63180 87.13355
#
# Poissons Ratio (x) = 0.36085 0.39926
# Poissons Ratio (y) = 0.25288 0.22263
# Poissons Ratio (z) = 0.19149 0.15236
#
# Static dielectric constant tensor:
#      x y z
#    x 1.517350 0.000000 0.024570 
#    y 0.000000 1.533240 0.000000 
#    z 0.024570 0.000000 1.596680 
# 
# From -- ./inp_files/323883.got.cif
#   From: 2010.05.17/outbox.cif.g08.bks.cpg/sg12_162_cif.got.tgz:323883.got - 2010.06.03 13:09:07.
