data_PCOD9169575
_publ_section_title
;
Structure prediction by ZEFSAII (Michael W. Deem and Ramdas Pophale) SiO2 
 PCOD9169575
Probable space group: C 2/M
;
_chemical_formula_sum "Si O2"
_cell_formula_units_Z 64
_cell_length_a 9.836209
_cell_length_b 19.742864
_cell_length_c 21.450810
_cell_angle_alpha 90.000000
_cell_angle_beta 45.544218
_cell_angle_gamma 90.000000
_cell_volume 2973.396084
_symmetry_space_group_name_H-M "C 2/M"
_symmetry_group_IT_number 12
_symmetry_cell_setting 'monoclinic'
loop_
_space_group_symop_operation_xyz
x,y,z
-x,y,-z
-x,-y,-z
x,-y,z
1/2+x,1/2+y,z
1/2-x,1/2+y,-z
1/2-x,1/2-y,-z
1/2+x,1/2-y,z
loop_
_atom_site_type_symbol
_atom_site_label
_atom_site_fract_x
_atom_site_fract_y
_atom_site_fract_z
Si Si1 0.260886 0.340957 0.115997
Si Si2 0.780049 0.329317 0.502142
Si Si3 0.278653 0.078295 0.387267
Si Si4 0.736031 0.826062 0.353844
Si Si5 0.301549 0.185552 0.131475
Si Si6 0.744218 0.076659 0.241812
Si Si7 0.302232 0.821433 0.271764
Si Si8 0.735061 0.169693 0.990729
O O1 0.332967 0.266001 0.110558
O O2 0.307635 0.391656 0.156201
O O3 0.316092 0.361911 0.028072
O O4 0.030259 0.331032 0.191179
O O5 0.750000 0.250000 0.500000
O O6 0.711236 0.378225 0.468864
O O7 0.697045 0.341045 0.597570
O O8 0.008229 0.336427 0.430004
O O9 0.511331 0.077768 0.315300
O O10 0.229430 0.119304 0.340303
O O11 0.217570 0.000000 0.407406
O O12 0.807332 0.877796 0.279277
O O13 0.771923 0.749946 0.317205
O O14 0.221842 0.178830 0.226923
O O15 0.510523 0.152555 0.063107
O O16 0.196748 0.160382 0.102213
O O17 0.807485 0.000000 0.228542
O O18 0.750000 0.250000 0.000000
#
# Coordination Sequence:
#
# PCOD9169575 Si02
#       8
#     8   8   8   8   8   8   8   8
#     4   9  16  26  43  67  94 119 151 180 228 268
#     4  10  19  31  47  66  91 119 149 191 231 269
#     4   9  18  31  46  65  91 121 150 185 230 275
#     4  10  19  29  46  70  90 116 154 189 230 271
#     4   9  15  25  42  66  95 117 146 190 224 261
#     4   9  17  29  44  66  95 120 149 188 229 274
#     4  10  17  27  46  68  91 116 151 191 224 268
#     4   8  15  25  39  65  97 118 146 183 225 264
#
# _framework density 21.52421
#
# number of rings (size 3 to 8) (size 9 to 14) (size 15 to 20)
#    0.000    2.750    2.500    0.000    0.000    0.500 
#    0.000    2.500    0.000    2.250    0.000   14.875 
#    0.000    0.000    0.000    0.000    0.000    0.000 
#
# Total GULP energy -178560.000018 kJ/mol
# GULP energy per Si atom -5580.000001 kJ/mol
# Density = 2.147522 g / cm^3
# Si number density = 21.524210 Si / 1000 Ang^3
#
#
#
# Elastic Constant Matrix: (Units=GPa)
#
#
# Indices 1 2 3 4 5 6 
#
# 1 70.0956 28.7762 71.5817 0.0004 30.5681 -0.0006
# 2 28.7762 134.2714 82.9617 0.0002 46.6981 -0.0004
# 3 71.5817 82.9617 191.7840 0.0004 57.2436 -0.0004
# 4 0.0004 0.0002 0.0004 18.8427 -0.0004 5.0316
# 5 30.5681 46.6981 57.2436 -0.0004 65.5741 0.0005
# 6 -0.0006 -0.0004 -0.0004 5.0316 0.0005 17.2570
#
#
#
# Elastic Compliance Matrix: (Units=1/GPa)
#
#
# Indices 1 2 3 4 5 6 
#
# 1 0.024286 0.001744 -0.008208 -0.000001 -0.005398 0.000001
# 2 0.001744 0.011430 -0.003953 0.000000 -0.005502 0.000000
# 3 -0.008208 -0.003953 0.010826 0.000000 -0.002810 0.000000
# 4 -0.000001 0.000000 0.000000 0.057552 0.000001 -0.016780
# 5 -0.005398 -0.005502 -0.002810 0.000001 0.024137 -0.000001
# 6 0.000001 0.000000 0.000000 -0.016780 -0.000001 0.062840
#
#
# Mechanical properties :
#
#
# Convention : Reuss Voigt Hill
#
# Bulk Modulus (GPa) = 38.89781 84.75447 61.82614
# Shear Modulus (GPa) = 22.67838 34.52351 28.60094
#
# Velocity S-wave (km/s) = 3.24948 4.00926 3.64920
# Velocity P-wave (km/s) = 5.67359 7.80347 6.82216
#
# Compressibility (1/GPa) = 0.02570839
#
# Stress axis : x y z
#
# Youngs Moduli (GPa) = 41.17578 87.49122 92.36805
#
# Poissons Ratio (x) = -0.15257 0.75813
# Poissons Ratio (y) = -0.07180 0.36513
# Poissons Ratio (z) = 0.33796 0.34585
#
# Static dielectric constant tensor:
#      x y z
#    x 1.912160 0.000000 -0.047050 
#    y 0.000000 1.711600 0.000000 
#    z -0.047050 0.000000 1.849040 
# 
# From -- ./inp_files/305989.got.cif
#   From: 2010.05.17/outbox.cif.g08.bks.cpg/sg12_153_cif.got.tgz:305989.got - 2010.06.03 13:09:07.
