data_PCOD9169573
_publ_section_title
;
Structure prediction by ZEFSAII (Michael W. Deem and Ramdas Pophale) SiO2 
 PCOD9169573
Probable space group: C 2/M
;
_chemical_formula_sum "Si O2"
_cell_formula_units_Z 48
_cell_length_a 25.184833
_cell_length_b 7.911734
_cell_length_c 17.279506
_cell_angle_alpha 90.000000
_cell_angle_beta 119.104941
_cell_angle_gamma 90.000000
_cell_volume 3008.288351
_symmetry_space_group_name_H-M "C 2/M"
_symmetry_group_IT_number 12
_symmetry_cell_setting 'monoclinic'
loop_
_space_group_symop_operation_xyz
x,y,z
-x,y,-z
-x,-y,-z
x,-y,z
1/2+x,1/2+y,z
1/2-x,1/2+y,-z
1/2-x,1/2-y,-z
1/2+x,1/2-y,z
loop_
_atom_site_type_symbol
_atom_site_label
_atom_site_fract_x
_atom_site_fract_y
_atom_site_fract_z
Si Si1 0.458806 0.294360 0.354398
Si Si2 0.412816 0.298453 0.484244
Si Si3 0.585333 0.500000 0.129596
Si Si4 0.180043 0.299609 0.455467
Si Si5 0.043219 0.309728 0.819231
Si Si6 0.601302 0.801238 0.252335
Si Si7 0.940223 0.000000 0.062650
O O1 0.458328 0.500000 0.347561
O O2 0.418155 0.240672 0.399179
O O3 0.527427 0.239052 0.426340
O O4 0.441172 0.221326 0.259277
O O5 0.419197 0.500000 0.485023
O O6 0.353062 0.258801 0.489952
O O7 0.609671 0.669627 0.188274
O O8 0.512522 0.500000 0.094245
O O9 0.593466 0.500000 0.043299
O O10 0.175673 0.500000 0.451079
O O11 0.250000 0.250000 0.500000
O O12 0.141792 0.240870 0.353547
O O13 0.059404 0.500000 0.854347
O O14 0.969708 0.293429 0.773791
O O15 0.070755 0.166344 0.893769
O O16 0.614423 0.000000 0.243948
#
# Coordination Sequence:
#
# PCOD9169573 Si02
#       7
#     8   8   4   8   8   8   4
#     4   9  16  28  45  68  96 128 162 194 231 291
#     4   9  18  29  46  67  92 128 165 196 235 277
#     4   9  18  30  50  61  90 131 152 197 246 282
#     4  11  22  33  46  66  94 129 167 207 237 278
#     4  10  17  27  46  67  95 127 156 193 237 284
#     4   9  19  31  45  67  90 123 167 196 233 286
#     4   9  18  30  42  70  93 120 161 192 238 297
#
# _framework density 15.955916
#
# number of rings (size 3 to 8) (size 9 to 14) (size 15 to 20)
#    0.000    2.500    2.500    1.500    2.333    1.333 
#    0.000    5.000    0.000    0.000    0.000    0.000 
#    0.000    1.333    0.667    0.000    0.000    0.000 
#
# Total GULP energy -133721.534223 kJ/mol
# GULP energy per Si atom -5571.730593 kJ/mol
# Density = 1.591960 g / cm^3
# Si number density = 15.955916 Si / 1000 Ang^3
#
#
#
# Elastic Constant Matrix: (Units=GPa)
#
#
# Indices 1 2 3 4 5 6 
#
# 1 68.9996 19.3255 38.2455 0.0000 -17.5777 0.0000
# 2 19.3255 77.3799 54.2839 0.0000 -15.6230 0.0000
# 3 38.2455 54.2839 105.3952 0.0000 -34.1923 0.0000
# 4 0.0000 0.0000 0.0000 12.0738 0.0000 -0.5641
# 5 -17.5777 -15.6230 -34.1923 0.0000 21.4973 0.0000
# 6 0.0000 0.0000 0.0000 -0.5641 0.0000 14.8846
#
#
#
# Elastic Compliance Matrix: (Units=1/GPa)
#
#
# Indices 1 2 3 4 5 6 
#
# 1 0.019032 -0.000239 -0.003700 0.000000 0.009502 0.000000
# 2 -0.000239 0.020394 -0.011720 0.000000 -0.004015 0.000000
# 3 -0.003700 -0.011720 0.027113 0.000000 0.031581 0.000000
# 4 0.000000 0.000000 0.000000 0.082971 0.000000 0.003145
# 5 0.009502 -0.004015 0.031581 0.000000 0.101600 0.000000
# 6 0.000000 0.000000 0.000000 0.003145 0.000000 0.067303
#
#
# Mechanical properties :
#
#
# Convention : Reuss Voigt Hill
#
# Bulk Modulus (GPa) = 28.39270 52.83161 40.61216
# Shear Modulus (GPa) = 13.83243 19.01912 16.42577
#
# Velocity S-wave (km/s) = 2.94754 3.45625 3.21198
# Velocity P-wave (km/s) = 5.42375 7.00788 6.26608
#
# Compressibility (1/GPa) = 0.03522032
#
# Stress axis : x y z
#
# Youngs Moduli (GPa) = 52.54440 49.03400 36.88329
#
# Poissons Ratio (x) = 0.01170 0.13648
# Poissons Ratio (y) = 0.01254 0.43227
# Poissons Ratio (z) = 0.19444 0.57467
#
# Static dielectric constant tensor:
#      x y z
#    x 1.494180 0.000000 -0.022190 
#    y 0.000000 1.568910 0.000000 
#    z -0.022190 0.000000 1.531590 
# 
# From -- ./inp_files/230476.got.cif
#   From: 2010.05.17/outbox.cif.g08.bks.cpg/sg12_116_cif.got.tgz:230476.got - 2010.06.03 13:09:07.
