data_PCOD9169879
_publ_section_title
;
Structure prediction by ZEFSAII (Michael W. Deem and Ramdas Pophale) SiO2 
 PCOD9169879
Probable space group: C 2/M
;
_chemical_formula_sum "Si O2"
_cell_formula_units_Z 48
_cell_length_a 14.723964
_cell_length_b 16.904414
_cell_length_c 8.150324
_cell_angle_alpha 90.000000
_cell_angle_beta 63.582211
_cell_angle_gamma 90.000000
_cell_volume 1816.774631
_symmetry_space_group_name_H-M "C 2/M"
_symmetry_group_IT_number 12
_symmetry_cell_setting 'monoclinic'
loop_
_space_group_symop_operation_xyz
x,y,z
-x,y,-z
-x,-y,-z
x,-y,z
1/2+x,1/2+y,z
1/2-x,1/2+y,-z
1/2-x,1/2-y,-z
1/2+x,1/2-y,z
loop_
_atom_site_type_symbol
_atom_site_label
_atom_site_fract_x
_atom_site_fract_y
_atom_site_fract_z
Si Si1 0.466352 0.830923 0.213601
Si Si2 0.251635 0.324898 0.241945
Si Si3 0.034541 0.500000 0.658590
Si Si4 0.775577 0.000000 0.563349
Si Si5 0.247782 0.000000 0.774193
Si Si6 0.054051 0.000000 0.135604
Si Si7 0.056365 0.827689 0.131284
Si Si8 0.221662 0.168056 0.407505
O O1 0.514066 0.751390 0.250665
O O2 0.344786 0.830025 0.316640
O O3 0.502835 0.916062 0.244621
O O4 0.500000 0.827832 0.000000
O O5 0.201786 0.412335 0.268127
O O6 0.191559 0.243100 0.322653
O O7 0.307576 0.329297 0.376447
O O8 0.327816 0.317191 0.027985
O O9 0.154616 0.500000 0.613368
O O10 0.000000 0.500000 0.500000
O O11 0.817294 0.000000 0.343636
O O12 0.803248 0.080298 0.631416
O O13 0.172907 0.000000 0.987568
O O14 0.036184 0.086543 0.227776
O O15 0.000000 0.000000 0.000000
O O16 0.000000 0.833144 0.000000
#
# Coordination Sequence:
#
# PCOD9169879 Si02
#       8
#     8   8   4   4   4   4   8   8
#     4  10  17  29  44  65  89 114 145 183 223 261
#     4   9  14  22  34  54  86 113 142 165 206 257
#     4  10  21  33  46  62  83 115 152 191 229 264
#     4   8  16  27  39  54  74 105 150 177 204 256
#     4   8  14  22  35  55  80 117 138 167 200 257
#     4   8  14  20  34  57  91 117 133 165 209 261
#     4   9  14  23  35  58  88 116 140 169 213 256
#     4   9  15  23  36  55  82 113 139 172 207 256
#
# _framework density 26.420449000000001
#
# number of rings (size 3 to 8) (size 9 to 14) (size 15 to 20)
#    0.000    3.000    3.333    0.250    0.000    0.000 
#    0.000    0.000    0.000    0.000    0.000   19.250 
#    0.000    0.000    0.000    0.000    0.000    0.000 
#
# Total GULP energy -133794.294511 kJ/mol
# GULP energy per Si atom -5574.762271 kJ/mol
# Density = 2.636031 g / cm^3
# Si number density = 26.420449 Si / 1000 Ang^3
#
#
#
# Elastic Constant Matrix: (Units=GPa)
#
#
# Indices 1 2 3 4 5 6 
#
# 1 85.6722 26.2199 23.2577 0.0000 14.0895 0.0000
# 2 26.2199 351.8251 43.4753 0.0000 -5.4529 0.0000
# 3 23.2577 43.4753 53.4059 0.0000 -15.3179 0.0000
# 4 0.0000 0.0000 0.0000 42.8223 0.0000 -27.8589
# 5 14.0895 -5.4529 -15.3179 0.0000 24.9970 0.0000
# 6 0.0000 0.0000 0.0000 -27.8589 0.0000 -23.3180
#
#
#
# Elastic Compliance Matrix: (Units=1/GPa)
#
#
# Indices 1 2 3 4 5 6 
#
# 1 0.018307 -0.000013 -0.013251 0.000000 -0.018442 0.000000
# 2 -0.000013 0.003184 -0.002894 0.000000 -0.001072 0.000000
# 3 -0.013251 -0.002894 0.034956 0.000000 0.028259 0.000000
# 4 0.000000 0.000000 0.000000 0.013140 0.000000 -0.015698
# 5 -0.018442 -0.001072 0.028259 0.000000 0.067482 0.000000
# 6 0.000000 0.000000 0.000000 -0.015698 0.000000 -0.024130
#
#
# Mechanical properties :
#
#
# Convention : Reuss Voigt Hill
#
# Bulk Modulus (GPa) = 41.44031 75.20099 58.32065
# Shear Modulus (GPa) = 32.61600 35.43027 34.02314
#
# Velocity S-wave (km/s) = 3.51735 3.66596 3.59243
# Velocity P-wave (km/s) = 5.67580 6.81498 6.27131
#
# Compressibility (1/GPa) = 0.02413110
#
# Stress axis : x y z
#
# Youngs Moduli (GPa) = 54.62536 314.04338 28.60699
#
# Poissons Ratio (x) = 0.00397 0.37908
# Poissons Ratio (y) = 0.00069 0.08279
# Poissons Ratio (z) = 0.72386 0.90886
#
# Static dielectric constant tensor:
#      x y z
#    x 2.063240 0.000000 -0.074350 
#    y 0.000000 2.207550 0.000000 
#    z -0.074350 0.000000 2.075910 
# 
# From -- ./inp_files/87180.got.cif
#   From: 2010.05.17/outbox.cif.g08.bks.cpg/sg12_44_cif.got.tgz:87180.got - 2010.06.03 13:09:07.
