data_PCOD9169258
_publ_section_title
;
Structure prediction by ZEFSAII (Michael W. Deem and Ramdas Pophale) SiO2 
 PCOD9169258
Probable space group: C 2/M
;
_chemical_formula_sum "Si O2"
_cell_formula_units_Z 64
_cell_length_a 23.175818
_cell_length_b 9.152124
_cell_length_c 15.559757
_cell_angle_alpha 90.000000
_cell_angle_beta 117.227878
_cell_angle_gamma 90.000000
_cell_volume 2934.649464
_symmetry_space_group_name_H-M "C 2/M"
_symmetry_group_IT_number 12
_symmetry_cell_setting 'monoclinic'
loop_
_space_group_symop_operation_xyz
x,y,z
-x,y,-z
-x,-y,-z
x,-y,z
1/2+x,1/2+y,z
1/2-x,1/2+y,-z
1/2-x,1/2-y,-z
1/2+x,1/2-y,z
loop_
_atom_site_type_symbol
_atom_site_label
_atom_site_fract_x
_atom_site_fract_y
_atom_site_fract_z
Si Si1 0.366898 0.820445 0.624453
Si Si2 0.619655 0.831815 0.102017
Si Si3 0.707477 0.336254 0.039831
Si Si4 0.966375 0.825609 0.826739
Si Si5 0.320564 0.162452 0.254108
Si Si6 0.437300 0.168711 0.222508
Si Si7 0.761253 0.333423 0.676393
Si Si8 0.959937 0.667575 0.551022
O O1 0.414097 0.734412 0.721605
O O2 0.295444 0.785333 0.611185
O O3 0.392852 0.777699 0.547778
O O4 0.374840 0.000000 0.638800
O O5 0.648257 0.756837 0.036640
O O6 0.560933 0.742117 0.103865
O O7 0.679045 0.831680 0.212900
O O8 0.601797 0.000000 0.075707
O O9 0.689587 0.500000 0.998867
O O10 0.756410 0.351145 0.153253
O O11 0.750000 0.250000 0.000000
O O12 0.033069 0.759877 0.835295
O O13 0.967618 0.000000 0.831053
O O14 0.374069 0.231421 0.227432
O O15 0.297167 0.242777 0.323060
O O16 0.345224 0.000000 0.291841
O O17 0.490966 0.164935 0.334817
O O18 0.424608 0.000000 0.187192
O O19 0.740274 0.500000 0.653134
O O20 0.946647 0.500000 0.515573
O O21 0.000000 0.738908 0.500000
#
# Coordination Sequence:
#
# PCOD9169258 Si02
#       8
#     8   8   8   8   8   8   8   8
#     4   8  14  25  40  60  86 114 145 182 223 262
#     4   9  16  28  45  65  89 117 147 182 222 259
#     4  10  19  31  47  69  93 118 149 182 220 264
#     4  10  17  25  41  66  90 113 145 184 222 260
#     4   9  18  30  45  64  87 116 148 180 215 261
#     4   9  17  30  45  63  89 118 147 181 220 261
#     4   8  14  24  40  61  84 110 142 181 220 255
#     4   8  13  23  43  67  86 109 147 189 221 254
#
# _framework density 21.808396999999999
#
# number of rings (size 3 to 8) (size 9 to 14) (size 15 to 20)
#    0.000    3.125    0.000    3.375    0.000    4.000 
#    0.000    0.000    0.000    7.500    0.000    5.250 
#    0.000    0.000    0.000    0.000    0.000    6.500 
#
# Total GULP energy -178338.309424 kJ/mol
# GULP energy per Si atom -5573.072169 kJ/mol
# Density = 2.175876 g / cm^3
# Si number density = 21.808397 Si / 1000 Ang^3
#
#
#
# Elastic Constant Matrix: (Units=GPa)
#
#
# Indices 1 2 3 4 5 6 
#
# 1 164.0334 80.7493 51.9338 0.0000 -79.2950 0.0000
# 2 80.7493 106.3909 38.8476 0.0000 -41.3397 0.0000
# 3 51.9338 38.8476 66.7027 0.0000 -27.0010 0.0000
# 4 0.0000 0.0000 0.0000 3.1830 0.0000 -13.6839
# 5 -79.2950 -41.3397 -27.0010 0.0000 71.1327 0.0000
# 6 0.0000 0.0000 0.0000 -13.6839 0.0000 28.8170
#
#
#
# Elastic Compliance Matrix: (Units=1/GPa)
#
#
# Indices 1 2 3 4 5 6 
#
# 1 0.017205 -0.006070 -0.004164 0.000000 0.014070 0.000000
# 2 -0.006070 0.015865 -0.004160 0.000000 0.000874 0.000000
# 3 -0.004164 -0.004160 0.021031 0.000000 0.000923 0.000000
# 4 0.000000 0.000000 0.000000 -0.301672 0.000000 -0.143250
# 5 0.014070 0.000874 0.000923 0.000000 0.030602 0.000000
# 6 0.000000 0.000000 0.000000 -0.143250 0.000000 -0.033321
#
#
# Mechanical properties :
#
#
# Convention : Reuss Voigt Hill
#
# Bulk Modulus (GPa) = 39.50735 75.57648 57.54191
# Shear Modulus (GPa) = -23.46701 31.66628 4.09963
#
# Velocity S-wave (km/s) = -3.28389 3.81468 1.37256
# Velocity P-wave (km/s) = 1.94331 7.35747 5.38093
#
# Compressibility (1/GPa) = 0.02531175
#
# Stress axis : x y z
#
# Youngs Moduli (GPa) = 58.12314 63.03074 47.54997
#
# Poissons Ratio (x) = 0.38262 0.19802
# Poissons Ratio (y) = 0.35283 0.19779
# Poissons Ratio (z) = 0.24205 0.26218
#
# Static dielectric constant tensor:
#      x y z
#    x 1.865450 0.000000 0.020400 
#    y 0.000000 1.762350 0.000000 
#    z 0.020400 0.000000 1.870440 
# 
# From -- ./inp_files/287636.got.cif
#   From: 2010.05.17/outbox.cif.g08.bks.cpg/sg12_144_cif.got.tgz:287636.got - 2010.06.03 13:09:07.
