data_PCOD9169063
_publ_section_title
;
Structure prediction by ZEFSAII (Michael W. Deem and Ramdas Pophale) SiO2 
 PCOD9169063
Probable space group: C 2/M
;
_chemical_formula_sum "Si O2"
_cell_formula_units_Z 64
_cell_length_a 18.446295
_cell_length_b 21.448332
_cell_length_c 16.435443
_cell_angle_alpha 90.000000
_cell_angle_beta 36.278438
_cell_angle_gamma 90.000000
_cell_volume 3847.626276
_symmetry_space_group_name_H-M "C 2/M"
_symmetry_group_IT_number 12
_symmetry_cell_setting 'monoclinic'
loop_
_space_group_symop_operation_xyz
x,y,z
-x,y,-z
-x,-y,-z
x,-y,z
1/2+x,1/2+y,z
1/2-x,1/2+y,-z
1/2-x,1/2-y,-z
1/2+x,1/2-y,z
loop_
_atom_site_type_symbol
_atom_site_label
_atom_site_fract_x
_atom_site_fract_y
_atom_site_fract_z
Si Si1 0.954819 0.889543 0.451743
Si Si2 0.692923 0.739508 0.417920
Si Si3 0.672840 0.195545 0.025888
Si Si4 0.864548 0.735537 0.125333
Si Si5 0.373460 0.091788 0.151019
Si Si6 0.204002 0.926138 0.150446
Si Si7 0.596976 0.190292 0.651478
Si Si8 0.210093 0.565371 0.596592
O O1 0.887364 0.822797 0.526440
O O2 0.849773 0.926759 0.499292
O O3 0.000000 0.912043 0.500000
O O4 0.072647 0.894788 0.287709
O O5 0.755556 0.764437 0.278202
O O6 0.606548 0.781389 0.552759
O O7 0.809896 0.725823 0.371074
O O8 0.538474 0.192040 0.188200
O O9 0.750000 0.250000 0.000000
O O10 0.667914 0.219643 0.937475
O O11 0.726417 0.124512 0.969959
O O12 0.878700 0.666829 0.153071
O O13 0.000000 0.765851 0.000000
O O14 0.271288 0.074863 0.177697
O O15 0.356478 0.067054 0.255948
O O16 0.500000 0.070297 0.000000
O O17 0.197486 0.000000 0.131547
O O18 0.655570 0.121898 0.596104
O O19 0.191935 0.500000 0.570731
#
# Coordination Sequence:
#
# PCOD9169063 Si02
#       8
#     8   8   8   8   8   8   8   8
#     4  11  19  32  47  72 104 138 175 218 262 315
#     4  10  19  33  54  73 100 141 177 220 269 316
#     4  11  22  36  53  78 109 139 179 231 273 315
#     4  10  16  33  54  75 103 138 178 217 260 319
#     4  10  18  29  44  68  97 132 175 207 243 308
#     4  11  22  32  47  69 102 141 175 213 262 321
#     4  10  20  34  49  74 104 134 180 223 262 311
#     4  11  20  31  48  70 103 143 176 212 263 319
#
# _framework density 16.633631999999999
#
# number of rings (size 3 to 8) (size 9 to 14) (size 15 to 20)
#    0.000    1.500    5.000    3.750    0.000    3.000 
#    0.000    0.000    0.000    0.000    0.000    0.875 
#    0.000    3.500    0.000    0.000    0.000    0.000 
#
# Total GULP energy -178176.856920 kJ/mol
# GULP energy per Si atom -5568.026779 kJ/mol
# Density = 1.659577 g / cm^3
# Si number density = 16.633632 Si / 1000 Ang^3
#
#
#
# Elastic Constant Matrix: (Units=GPa)
#
#
# Indices 1 2 3 4 5 6 
#
# 1 31.7590 15.8670 23.2610 -0.0002 0.2266 0.0001
# 2 15.8670 52.0945 25.1412 0.0000 4.3898 0.0003
# 3 23.2610 25.1412 141.1899 -0.0002 -2.9425 0.0007
# 4 -0.0002 0.0000 -0.0002 20.9685 0.0003 4.3118
# 5 0.2266 4.3898 -2.9425 0.0003 25.5915 -0.0002
# 6 0.0001 0.0003 0.0007 4.3118 -0.0002 0.2993
#
#
#
# Elastic Compliance Matrix: (Units=1/GPa)
#
#
# Indices 1 2 3 4 5 6 
#
# 1 0.039952 -0.009920 -0.004799 0.000000 0.000796 0.000002
# 2 -0.009920 0.023889 -0.002710 -0.000002 -0.004321 0.000008
# 3 -0.004799 -0.002710 0.008386 -0.000001 0.001472 0.000006
# 4 0.000000 -0.000002 -0.000001 -0.024300 0.000004 0.350090
# 5 0.000796 -0.004321 0.001472 0.000004 0.039979 -0.000020
# 6 0.000002 0.000008 0.000006 0.350090 -0.000020 -1.702497
#
#
# Mechanical properties :
#
#
# Convention : Reuss Voigt Hill
#
# Bulk Modulus (GPa) = 26.75874 39.28687 33.02280
# Shear Modulus (GPa) = -3.19025 20.09015 8.44995
#
# Velocity S-wave (km/s) = -1.38640 3.47912 2.25634
# Velocity P-wave (km/s) = 3.68229 6.30945 5.16568
#
# Compressibility (1/GPa) = 0.03737097
#
# Stress axis : x y z
#
# Youngs Moduli (GPa) = 25.02975 41.86016 119.23931
#
# Poissons Ratio (x) = 0.41524 0.57226
# Poissons Ratio (y) = 0.24829 0.32310
# Poissons Ratio (z) = 0.12012 0.11343
#
# Static dielectric constant tensor:
#      x y z
#    x 1.554200 0.000000 -0.021580 
#    y 0.000000 1.615040 0.000000 
#    z -0.021580 0.000000 1.638710 
# 
# From -- ./inp_files/285758.got.cif
#   From: 2010.05.17/outbox.cif.g08.bks.cpg/sg12_143_cif.got.tgz:285758.got - 2010.06.03 13:09:07.
