data_PCOD9169765
_publ_section_title
;
Structure prediction by ZEFSAII (Michael W. Deem and Ramdas Pophale) SiO2 
 PCOD9169765
Probable space group: C 2/M
;
_chemical_formula_sum "Si O2"
_cell_formula_units_Z 64
_cell_length_a 25.754112
_cell_length_b 12.923979
_cell_length_c 11.505226
_cell_angle_alpha 90.000000
_cell_angle_beta 101.208462
_cell_angle_gamma 90.000000
_cell_volume 3756.422442
_symmetry_space_group_name_H-M "C 2/M"
_symmetry_group_IT_number 12
_symmetry_cell_setting 'monoclinic'
loop_
_space_group_symop_operation_xyz
x,y,z
-x,y,-z
-x,-y,-z
x,-y,z
1/2+x,1/2+y,z
1/2-x,1/2+y,-z
1/2-x,1/2-y,-z
1/2+x,1/2-y,z
loop_
_atom_site_type_symbol
_atom_site_label
_atom_site_fract_x
_atom_site_fract_y
_atom_site_fract_z
Si Si1 0.395038 0.379658 0.639303
Si Si2 0.700085 0.121020 0.039754
Si Si3 0.914032 0.112704 0.013010
Si Si4 0.319088 0.691662 0.130875
Si Si5 0.613687 0.622656 0.637858
Si Si6 0.484434 0.675307 0.247019
Si Si7 0.118496 0.718635 0.181188
Si Si8 0.488309 0.883745 0.856790
O O1 0.381682 0.500000 0.658420
O O2 0.385388 0.360278 0.499005
O O3 0.457453 0.361461 0.692301
O O4 0.366213 0.293684 0.706039
O O5 0.761936 0.139980 0.092020
O O6 0.666043 0.167003 0.131759
O O7 0.689111 0.000000 0.018387
O O8 0.685106 0.192624 0.922807
O O9 0.862224 0.132081 0.070231
O O10 0.963088 0.119291 0.121912
O O11 0.911708 0.000000 0.956704
O O12 0.912503 0.203029 0.919036
O O13 0.341866 0.683198 0.270076
O O14 0.621163 0.500000 0.662358
O O15 0.557246 0.653224 0.669218
O O16 0.484351 0.795334 0.207989
O O17 0.074257 0.633956 0.191940
O O18 0.504536 0.000000 0.833349
O O19 0.500000 0.870665 0.000000
#
# Coordination Sequence:
#
# PCOD9169765 Si02
#       8
#     8   8   8   8   8   8   8   8
#     4  10  20  32  50  73 102 138 170 201 239 291
#     4  10  19  34  56  78 100 128 161 204 256 301
#     4  10  17  28  47  73 104 128 153 202 259 301
#     4   9  19  33  53  79 101 125 161 204 251 303
#     4  10  19  34  53  74 102 134 165 201 248 296
#     4  10  18  30  49  75  98 128 168 207 245 295
#     4  10  20  32  46  73 100 130 170 205 243 293
#     4  10  19  32  46  65  96 131 165 201 244 294
#
# _framework density 17.037488
#
# number of rings (size 3 to 8) (size 9 to 14) (size 15 to 20)
#    0.000    2.125    1.250    4.125    0.000    1.000 
#    0.000    3.125    0.000   10.500    0.000    0.000 
#    0.000    0.000    0.000    0.000    0.000    0.000 
#
# Total GULP energy -178509.874241 kJ/mol
# GULP energy per Si atom -5578.433570 kJ/mol
# Density = 1.699871 g / cm^3
# Si number density = 17.037488 Si / 1000 Ang^3
#
#
#
# Elastic Constant Matrix: (Units=GPa)
#
#
# Indices 1 2 3 4 5 6 
#
# 1 47.8910 28.8548 28.8925 0.0000 8.2534 0.0000
# 2 28.8548 126.5001 43.9582 0.0000 -5.2985 0.0000
# 3 28.8925 43.9582 96.3292 0.0000 -3.5550 0.0000
# 4 0.0000 0.0000 0.0000 23.0557 0.0000 -3.9959
# 5 8.2534 -5.2985 -3.5550 0.0000 17.8491 0.0000
# 6 0.0000 0.0000 0.0000 -3.9959 0.0000 11.9293
#
#
#
# Elastic Compliance Matrix: (Units=1/GPa)
#
#
# Indices 1 2 3 4 5 6 
#
# 1 0.031857 -0.005307 -0.007792 0.000000 -0.017858 0.000000
# 2 -0.005307 0.010347 -0.002948 0.000000 0.004938 0.000000
# 3 -0.007792 -0.002948 0.014269 0.000000 0.005570 0.000000
# 4 0.000000 0.000000 0.000000 0.046047 0.000000 0.015424
# 5 -0.017858 0.004938 0.005570 0.000000 0.066858 0.000000
# 6 0.000000 0.000000 0.000000 0.015424 0.000000 0.088994
#
#
# Mechanical properties :
#
#
# Convention : Reuss Voigt Hill
#
# Bulk Modulus (GPa) = 41.01895 52.68125 46.85010
# Shear Modulus (GPa) = 16.74535 21.83448 19.28992
#
# Velocity S-wave (km/s) = 3.13845 3.58376 3.36847
# Velocity P-wave (km/s) = 6.10419 6.93631 6.53351
#
# Compressibility (1/GPa) = 0.02437898
#
# Stress axis : x y z
#
# Youngs Moduli (GPa) = 31.39054 96.64896 70.08240
#
# Poissons Ratio (x) = 0.51289 0.54611
# Poissons Ratio (y) = 0.16658 0.20658
# Poissons Ratio (z) = 0.24461 0.28489
#
# Static dielectric constant tensor:
#      x y z
#    x 1.576850 0.000000 -0.006390 
#    y 0.000000 1.582130 0.000000 
#    z -0.006390 0.000000 1.576800 
# 
# From -- ./inp_files/188366.got.cif
#   From: 2010.05.17/outbox.cif.g08.bks.cpg/sg12_95_cif.got.tgz:188366.got - 2010.06.03 13:09:07.
