data_PCOD9169933
_publ_section_title
;
Structure prediction by ZEFSAII (Michael W. Deem and Ramdas Pophale) SiO2 
 PCOD9169933
Probable space group: C 2/M
;
_chemical_formula_sum "Si O2"
_cell_formula_units_Z 64
_cell_length_a 19.155011
_cell_length_b 21.324503
_cell_length_c 12.770800
_cell_angle_alpha 90.000000
_cell_angle_beta 52.819649
_cell_angle_gamma 90.000000
_cell_volume 4156.181731
_symmetry_space_group_name_H-M "C 2/M"
_symmetry_group_IT_number 12
_symmetry_cell_setting 'monoclinic'
loop_
_space_group_symop_operation_xyz
x,y,z
-x,y,-z
-x,-y,-z
x,-y,z
1/2+x,1/2+y,z
1/2-x,1/2+y,-z
1/2-x,1/2-y,-z
1/2+x,1/2-y,z
loop_
_atom_site_type_symbol
_atom_site_label
_atom_site_fract_x
_atom_site_fract_y
_atom_site_fract_z
Si Si1 0.808310 0.329229 0.355491
Si Si2 0.309786 0.777078 0.807280
Si Si3 0.010405 0.797590 0.313814
Si Si4 0.016354 0.266067 0.871335
Si Si5 0.761365 0.573286 0.229719
Si Si6 0.940163 0.068344 0.656001
Si Si7 0.668631 0.826796 0.993245
Si Si8 0.657437 0.773895 0.456348
O O1 0.893897 0.304233 0.217224
O O2 0.781000 0.393374 0.323238
O O3 0.729397 0.280400 0.409306
O O4 0.832427 0.323292 0.457119
O O5 0.395834 0.734822 0.751693
O O6 0.226017 0.731124 0.894053
O O7 0.323144 0.800568 0.676761
O O8 0.306211 0.826631 0.906025
O O9 0.023837 0.870933 0.318244
O O10 0.981466 0.784685 0.221651
O O11 0.936228 0.761931 0.449730
O O12 0.000000 0.238610 0.000000
O O13 0.933636 0.310707 0.922781
O O14 0.784501 0.500000 0.210437
O O15 0.658818 0.579002 0.293485
O O16 0.809323 0.612420 0.094671
O O17 0.000000 0.064399 0.500000
O O18 0.943517 0.000000 0.707401
#
# Coordination Sequence:
#
# PCOD9169933 Si02
#       8
#     8   8   8   8   8   8   8   8
#     4  10  19  31  45  70  96 126 161 192 240 284
#     4  10  17  29  48  69  96 120 151 206 243 283
#     4  10  18  27  48  73  94 124 153 191 248 288
#     4  10  18  30  47  66  98 124 154 202 233 284
#     4  11  20  33  50  69 101 131 161 200 233 285
#     4  10  19  30  46  69  96 125 157 194 234 286
#     4  10  19  30  46  69  94 125 161 193 242 279
#     4  10  18  29  49  70  99 123 150 204 244 283
#
# _framework density 15.398749
#
# number of rings (size 3 to 8) (size 9 to 14) (size 15 to 20)
#    0.000    1.875    3.750    1.875    0.000    0.000 
#    0.000    1.250    0.000    1.125    0.000    0.000 
#    0.000    6.000    0.000    0.000    0.000    0.000 
#
# Total GULP energy -178229.180068 kJ/mol
# GULP energy per Si atom -5569.661877 kJ/mol
# Density = 1.536370 g / cm^3
# Si number density = 15.398749 Si / 1000 Ang^3
#
#
#
# Elastic Constant Matrix: (Units=GPa)
#
#
# Indices 1 2 3 4 5 6 
#
# 1 47.3422 30.6481 22.7796 0.0000 -2.0848 0.0000
# 2 30.6481 95.9340 34.1776 0.0000 13.3592 0.0000
# 3 22.7796 34.1776 89.0093 0.0000 14.3175 0.0000
# 4 0.0000 0.0000 0.0000 23.7299 0.0000 4.0578
# 5 -2.0848 13.3592 14.3175 0.0000 45.6164 0.0000
# 6 0.0000 0.0000 0.0000 4.0578 0.0000 22.8055
#
#
#
# Elastic Compliance Matrix: (Units=1/GPa)
#
#
# Indices 1 2 3 4 5 6 
#
# 1 0.029171 -0.008224 -0.005171 0.000000 0.005365 0.000000
# 2 -0.008224 0.014606 -0.002902 0.000000 -0.003743 0.000000
# 3 -0.005171 -0.002902 0.014295 0.000000 -0.003873 0.000000
# 4 0.000000 0.000000 0.000000 0.043463 0.000000 -0.007733
# 5 0.005365 -0.003743 -0.003873 0.000000 0.024479 0.000000
# 6 0.000000 0.000000 0.000000 -0.007733 0.000000 0.045225
#
#
# Mechanical properties :
#
#
# Convention : Reuss Voigt Hill
#
# Bulk Modulus (GPa) = 39.24707 45.27733 42.26220
# Shear Modulus (GPa) = 23.54867 28.07570 25.81218
#
# Velocity S-wave (km/s) = 3.91482 4.27458 4.09865
# Velocity P-wave (km/s) = 6.78063 7.33688 7.06423
#
# Compressibility (1/GPa) = 0.02547961
#
# Stress axis : x y z
#
# Youngs Moduli (GPa) = 34.28042 68.46415 69.95334
#
# Poissons Ratio (x) = 0.56307 0.36170
# Poissons Ratio (y) = 0.28193 0.20298
# Poissons Ratio (z) = 0.17725 0.19866
#
# Static dielectric constant tensor:
#      x y z
#    x 1.545760 0.000000 0.013490 
#    y 0.000000 1.496590 0.000000 
#    z 0.013490 0.000000 1.544540 
# 
# From -- ./inp_files/169429.got.cif
#   From: 2010.05.17/outbox.cif.g08.bks.cpg/sg12_85_cif.got.tgz:169429.got - 2010.06.03 13:09:07.
