data_PCOD9169173
_publ_section_title
;
Structure prediction by ZEFSAII (Michael W. Deem and Ramdas Pophale) SiO2 
 PCOD9169173
Probable space group: C 2/M
;
_chemical_formula_sum "Si O2"
_cell_formula_units_Z 56
_cell_length_a 15.737300
_cell_length_b 7.760049
_cell_length_c 26.854032
_cell_angle_alpha 90.000000
_cell_angle_beta 141.134297
_cell_angle_gamma 90.000000
_cell_volume 2057.860387
_symmetry_space_group_name_H-M "C 2/M"
_symmetry_group_IT_number 12
_symmetry_cell_setting 'monoclinic'
loop_
_space_group_symop_operation_xyz
x,y,z
-x,y,-z
-x,-y,-z
x,-y,z
1/2+x,1/2+y,z
1/2-x,1/2+y,-z
1/2-x,1/2-y,-z
1/2+x,1/2-y,z
loop_
_atom_site_type_symbol
_atom_site_label
_atom_site_fract_x
_atom_site_fract_y
_atom_site_fract_z
Si Si1 0.287126 0.299645 0.814356
Si Si2 0.175385 0.796196 0.663138
Si Si3 0.607110 0.798232 0.485471
Si Si4 0.583577 0.800061 0.916098
Si Si5 0.607143 0.800254 0.373250
Si Si6 0.346975 0.792426 0.947052
Si Si7 0.523215 0.787574 0.232721
O O1 0.315648 0.500000 0.821165
O O2 0.176579 0.250464 0.722609
O O3 0.425748 0.201930 0.863073
O O4 0.258828 0.271245 0.860104
O O5 0.324455 0.740392 0.714741
O O6 0.051805 0.717759 0.575584
O O7 0.165873 0.000000 0.653878
O O8 0.605280 0.724342 0.427626
O O9 0.732699 0.704437 0.568314
O O10 0.641783 0.000000 0.501604
O O11 0.572301 0.721042 0.855528
O O12 0.618425 0.000000 0.927685
O O13 0.662967 0.726114 0.000372
O O14 0.523325 0.724333 0.289351
O O15 0.566291 0.000000 0.359681
O O16 0.340995 0.000000 0.945472
O O17 0.500000 0.742337 0.000000
O O18 0.514284 0.000000 0.228851
#
# Coordination Sequence:
#
# PCOD9169173 Si02
#       7
#     8   8   8   8   8   8   8
#     4  10  17  24  37  60  90 119 149 185 225 266
#     4  10  19  32  49  67  91 121 153 188 226 270
#     4  10  20  33  49  70  94 118 148 186 227 270
#     4   8  14  25  40  59  86 119 153 186 220 263
#     4   9  18  34  53  69  89 119 153 186 221 268
#     4   8  13  22  36  55  83 119 153 182 217 263
#     4   8  15  29  49  70  89 117 157 191 220 261
#
# _framework density 27.212730000000001
#
# number of rings (size 3 to 8) (size 9 to 14) (size 15 to 20)
#    0.000    3.000    0.000    3.857    0.000    3.714 
#    0.000    6.429    0.000    0.000    0.000    1.000 
#    0.000    0.000    0.000    0.000    0.000    0.000 
#
# Total GULP energy -156569.706711 kJ/mol
# GULP energy per Si atom -5591.775240 kJ/mol
# Density = 2.715079 g / cm^3
# Si number density = 27.212730 Si / 1000 Ang^3
#
#
#
# Elastic Constant Matrix: (Units=GPa)
#
#
# Indices 1 2 3 4 5 6 
#
# 1 80.9558 6.4276 22.3949 0.0000 -23.9978 0.0000
# 2 6.4276 82.1468 7.0166 0.0000 4.2748 0.0000
# 3 22.3949 7.0166 230.0790 0.0000 -17.3321 0.0000
# 4 0.0000 0.0000 0.0000 26.0132 0.0000 4.8235
# 5 -23.9978 4.2748 -17.3321 0.0000 60.3329 0.0000
# 6 0.0000 0.0000 0.0000 4.8235 0.0000 19.0461
#
#
#
# Elastic Compliance Matrix: (Units=1/GPa)
#
#
# Indices 1 2 3 4 5 6 
#
# 1 0.014359 -0.001331 -0.000940 0.000000 0.005536 0.000000
# 2 -0.001331 0.012387 -0.000362 0.000000 -0.001511 0.000000
# 3 -0.000940 -0.000362 0.004520 0.000000 0.000950 0.000000
# 4 0.000000 0.000000 0.000000 0.040336 0.000000 -0.010215
# 5 0.005536 -0.001511 0.000950 0.000000 0.019157 0.000000
# 6 0.000000 0.000000 0.000000 -0.010215 0.000000 0.055091
#
#
# Mechanical properties :
#
#
# Convention : Reuss Voigt Hill
#
# Bulk Modulus (GPa) = 38.46168 51.65109 45.05638
# Shear Modulus (GPa) = 31.29227 44.90129 38.09678
#
# Velocity S-wave (km/s) = 3.39472 4.06644 3.74567
# Velocity P-wave (km/s) = 5.43414 6.40856 5.94136
#
# Compressibility (1/GPa) = 0.02599990
#
# Stress axis : x y z
#
# Youngs Moduli (GPa) = 69.64213 80.72945 221.21625
#
# Poissons Ratio (x) = 0.10748 0.20795
# Poissons Ratio (y) = 0.09272 0.08008
# Poissons Ratio (z) = 0.06547 0.02923
#
# Static dielectric constant tensor:
#      x y z
#    x 2.337420 0.000000 0.027820 
#    y 0.000000 1.936950 0.000000 
#    z 0.027820 0.000000 2.137060 
# 
# From -- ./inp_files/280157.got.cif
#   From: 2010.05.17/outbox.cif.g08.bks.cpg/sg12_141_cif.got.tgz:280157.got - 2010.06.03 13:09:07.
