data_PCOD9169657
_publ_section_title
;
Structure prediction by ZEFSAII (Michael W. Deem and Ramdas Pophale) SiO2 
 PCOD9169657
Probable space group: C 2/M
;
_chemical_formula_sum "Si O2"
_cell_formula_units_Z 64
_cell_length_a 28.275537
_cell_length_b 8.833581
_cell_length_c 17.646059
_cell_angle_alpha 90.000000
_cell_angle_beta 102.526505
_cell_angle_gamma 90.000000
_cell_volume 4302.613239
_symmetry_space_group_name_H-M "C 2/M"
_symmetry_group_IT_number 12
_symmetry_cell_setting 'monoclinic'
loop_
_space_group_symop_operation_xyz
x,y,z
-x,y,-z
-x,-y,-z
x,-y,z
1/2+x,1/2+y,z
1/2-x,1/2+y,-z
1/2-x,1/2-y,-z
1/2+x,1/2-y,z
loop_
_atom_site_type_symbol
_atom_site_label
_atom_site_fract_x
_atom_site_fract_y
_atom_site_fract_z
Si Si1 0.055821 0.682734 0.521617
Si Si2 0.216752 0.316600 0.166663
Si Si3 0.803364 0.681852 0.004299
Si Si4 0.367881 0.678810 0.565431
Si Si5 0.827403 0.181174 0.164287
Si Si6 0.704163 0.320726 0.595147
Si Si7 0.187529 0.318423 0.322284
Si Si8 0.627365 0.179757 0.678677
O O1 0.057792 0.500000 0.518420
O O2 0.087132 0.747361 0.463033
O O3 0.082597 0.727621 0.609348
O O4 0.000000 0.730531 0.500000
O O5 0.218314 0.500000 0.171307
O O6 0.187116 0.277157 0.080225
O O7 0.273123 0.270195 0.174141
O O8 0.194086 0.264083 0.237864
O O9 0.801999 0.500000 0.009703
O O10 0.750000 0.750000 0.000000
O O11 0.834708 0.749831 0.083275
O O12 0.375281 0.500000 0.572975
O O13 0.321629 0.706115 0.493935
O O14 0.354423 0.745856 0.642112
O O15 0.865793 0.238498 0.238989
O O16 0.827254 0.000000 0.159938
O O17 0.698459 0.500000 0.611949
O O18 0.760639 0.285788 0.620164
O O19 0.674350 0.224692 0.645573
O O20 0.181175 0.500000 0.319744
O O21 0.625248 0.000000 0.689113
#
# Coordination Sequence:
#
# PCOD9169657 Si02
#       8
#     8   8   8   8   8   8   8   8
#     4   9  19  36  53  66  84 112 144 179 223 273
#     4   8  15  26  40  56  80 116 152 181 212 247
#     4   9  16  26  39  58  82 113 152 189 222 255
#     4  10  20  30  42  65  88 110 143 183 221 255
#     4  10  17  28  42  58  85 118 150 183 218 259
#     4   9  17  29  42  56  84 119 147 177 215 255
#     4  10  17  28  43  58  83 121 153 177 209 252
#     4  10  18  27  44  68  87 108 144 186 222 259
#
# _framework density 14.874682
#
# number of rings (size 3 to 8) (size 9 to 14) (size 15 to 20)
#    0.000    2.625    1.250    2.625    0.000    1.750 
#    0.000    1.250    0.000    0.000    0.000    0.000 
#    0.000    1.000    0.000   11.500    0.000    4.500 
#
# Total GULP energy -178214.402526 kJ/mol
# GULP energy per Si atom -5569.200079 kJ/mol
# Density = 1.484083 g / cm^3
# Si number density = 14.874682 Si / 1000 Ang^3
#
#
#
# Elastic Constant Matrix: (Units=GPa)
#
#
# Indices 1 2 3 4 5 6 
#
# 1 67.1753 24.7808 57.5589 0.0000 -0.5086 0.0000
# 2 24.7808 25.6824 39.9857 0.0000 -1.1659 0.0000
# 3 57.5589 39.9857 122.0062 0.0000 -7.3514 0.0000
# 4 0.0000 0.0000 0.0000 23.0599 0.0000 -1.1811
# 5 -0.5086 -1.1659 -7.3514 0.0000 12.6130 0.0000
# 6 0.0000 0.0000 0.0000 -1.1811 0.0000 14.2124
#
#
#
# Elastic Compliance Matrix: (Units=1/GPa)
#
#
# Indices 1 2 3 4 5 6 
#
# 1 0.027197 -0.012264 -0.009134 0.000000 -0.005361 0.000000
# 2 -0.012264 0.085847 -0.022698 0.000000 -0.005789 0.000000
# 3 -0.009134 -0.022698 0.020517 0.000000 0.009492 0.000000
# 4 0.000000 0.000000 0.000000 0.043551 0.000000 0.003619
# 5 -0.005361 -0.005789 0.009492 0.000000 0.084064 0.000000
# 6 0.000000 0.000000 0.000000 0.003619 0.000000 0.070662
#
#
# Mechanical properties :
#
#
# Convention : Reuss Voigt Hill
#
# Bulk Modulus (GPa) = 22.04211 51.05719 36.54965
# Shear Modulus (GPa) = 11.49023 16.14628 13.81825
#
# Velocity S-wave (km/s) = 2.78235 3.29825 3.05122
# Velocity P-wave (km/s) = 5.01724 6.99314 6.08591
#
# Compressibility (1/GPa) = 0.04536771
#
# Stress axis : x y z
#
# Youngs Moduli (GPa) = 36.76924 11.64859 48.74123
#
# Poissons Ratio (x) = 0.14286 0.44522
# Poissons Ratio (y) = 0.45093 1.10634
# Poissons Ratio (z) = 0.33586 0.26440
#
# Static dielectric constant tensor:
#      x y z
#    x 1.460140 0.000000 0.013590 
#    y 0.000000 1.496690 0.000000 
#    z 0.013590 0.000000 1.538050 
# 
# From -- ./inp_files/291610.got.cif
#   From: 2010.05.17/outbox.cif.g08.bks.cpg/sg12_146_cif.got.tgz:291610.got - 2010.06.03 13:09:07.
