data_PCOD9169544
_publ_section_title
;
Structure prediction by ZEFSAII (Michael W. Deem and Ramdas Pophale) SiO2 
 PCOD9169544
Probable space group: C 2/M
;
_chemical_formula_sum "Si O2"
_cell_formula_units_Z 56
_cell_length_a 31.374814
_cell_length_b 7.415278
_cell_length_c 17.570577
_cell_angle_alpha 90.000000
_cell_angle_beta 45.458930
_cell_angle_gamma 90.000000
_cell_volume 2913.604079
_symmetry_space_group_name_H-M "C 2/M"
_symmetry_group_IT_number 12
_symmetry_cell_setting 'monoclinic'
loop_
_space_group_symop_operation_xyz
x,y,z
-x,y,-z
-x,-y,-z
x,-y,z
1/2+x,1/2+y,z
1/2-x,1/2+y,-z
1/2-x,1/2-y,-z
1/2+x,1/2-y,z
loop_
_atom_site_type_symbol
_atom_site_label
_atom_site_fract_x
_atom_site_fract_y
_atom_site_fract_z
Si Si1 0.920759 0.720476 0.245456
Si Si2 0.622659 0.782476 0.865634
Si Si3 0.224719 0.718809 0.147858
Si Si4 0.846400 0.287889 0.906171
Si Si5 0.055411 0.720937 0.103095
Si Si6 0.236355 0.287626 0.301807
Si Si7 0.306775 0.783902 0.483013
O O1 0.920142 0.500000 0.245940
O O2 0.906811 0.777918 0.176491
O O3 0.866990 0.782022 0.367135
O O4 0.986540 0.776575 0.189059
O O5 0.692059 0.730319 0.781276
O O6 0.620676 0.000000 0.868398
O O7 0.587521 0.721396 0.984577
O O8 0.223026 0.500000 0.150388
O O9 0.176747 0.784998 0.145692
O O10 0.217450 0.785208 0.243001
O O11 0.290101 0.768855 0.033859
O O12 0.856874 0.500000 0.881280
O O13 0.904593 0.215665 0.876053
O O14 0.056529 0.500000 0.101992
O O15 0.222351 0.500000 0.317754
O O16 0.206833 0.212310 0.415461
O O17 0.250000 0.750000 0.500000
O O18 0.312297 0.000000 0.481873
#
# Coordination Sequence:
#
# PCOD9169544 Si02
#       7
#     8   8   8   8   8   8   8
#     4   9  17  28  43  64  88 115 146 182 218 252
#     4  10  17  27  45  67  88 113 145 179 215 258
#     4   9  17  28  42  63  91 117 139 172 221 264
#     4   9  16  27  45  66  86 111 145 181 213 254
#     4   9  16  26  43  67  90 111 143 183 218 254
#     4  10  19  29  43  64  93 120 140 173 222 266
#     4  10  19  31  47  64  85 116 151 183 215 252
#
# _framework density 19.220182999999999
#
# number of rings (size 3 to 8) (size 9 to 14) (size 15 to 20)
#    0.000    2.571    2.857    0.429    0.000    1.714 
#    0.000    0.000    0.000    5.143    0.000    6.000 
#    0.000    0.000    0.000    9.714    0.000   10.286 
#
# Total GULP energy -156258.227517 kJ/mol
# GULP energy per Si atom -5580.650983 kJ/mol
# Density = 1.917644 g / cm^3
# Si number density = 19.220183 Si / 1000 Ang^3
#
#
#
# Elastic Constant Matrix: (Units=GPa)
#
#
# Indices 1 2 3 4 5 6 
#
# 1 198.6750 1.0034 95.7193 0.0018 13.2829 -0.0003
# 2 1.0034 60.7389 -4.7928 0.0095 1.3330 -0.0048
# 3 95.7193 -4.7928 109.1170 0.0016 -1.4925 -0.0009
# 4 0.0018 0.0095 0.0016 8.5872 -0.0012 -5.8075
# 5 13.2829 1.3330 -1.4925 -0.0012 28.1650 -0.0001
# 6 -0.0003 -0.0048 -0.0009 -5.8075 -0.0001 6.8607
#
#
#
# Elastic Compliance Matrix: (Units=1/GPa)
#
#
# Indices 1 2 3 4 5 6 
#
# 1 0.009363 -0.000705 -0.008311 -0.000003 -0.004823 -0.000003
# 2 -0.000705 0.016590 0.001342 -0.000025 -0.000382 -0.000009
# 3 -0.008311 0.001342 0.016578 -0.000001 0.004734 0.000002
# 4 -0.000003 -0.000025 -0.000001 0.272394 0.000015 0.230579
# 5 -0.004823 -0.000382 0.004734 0.000015 0.038048 0.000013
# 6 -0.000003 -0.000009 0.000002 0.230579 0.000013 0.340942
#
#
# Mechanical properties :
#
#
# Convention : Reuss Voigt Hill
#
# Bulk Modulus (GPa) = 36.78612 61.37676 49.08144
# Shear Modulus (GPa) = 6.96064 27.16264 17.06164
#
# Velocity S-wave (km/s) = 1.90510 3.76338 2.98265
# Velocity P-wave (km/s) = 4.90103 7.13350 6.11992
#
# Compressibility (1/GPa) = 0.02718416
#
# Stress axis : x y z
#
# Youngs Moduli (GPa) = 106.80050 60.27805 60.31991
#
# Poissons Ratio (x) = 0.04247 0.50129
# Poissons Ratio (y) = 0.07525 -0.08092
# Poissons Ratio (z) = 0.88757 -0.08087
#
# Static dielectric constant tensor:
#      x y z
#    x 1.674210 0.000000 0.026220 
#    y 0.000000 1.742220 0.000000 
#    z 0.026220 0.000000 1.637540 
# 
# From -- ./inp_files/239259.got.cif
#   From: 2010.05.17/outbox.cif.g08.bks.cpg/sg12_120_cif.got.tgz:239259.got - 2010.06.03 13:09:07.
