data_PCOD9169918
_publ_section_title
;
Structure prediction by ZEFSAII (Michael W. Deem and Ramdas Pophale) SiO2 
 PCOD9169918
Probable space group: C 2/M
;
_chemical_formula_sum "Si O2"
_cell_formula_units_Z 56
_cell_length_a 23.802680
_cell_length_b 8.798709
_cell_length_c 14.047659
_cell_angle_alpha 90.000000
_cell_angle_beta 124.597681
_cell_angle_gamma 90.000000
_cell_volume 2421.768829
_symmetry_space_group_name_H-M "C 2/M"
_symmetry_group_IT_number 12
_symmetry_cell_setting 'monoclinic'
loop_
_space_group_symop_operation_xyz
x,y,z
-x,y,-z
-x,-y,-z
x,-y,z
1/2+x,1/2+y,z
1/2-x,1/2+y,-z
1/2-x,1/2-y,-z
1/2+x,1/2-y,z
loop_
_atom_site_type_symbol
_atom_site_label
_atom_site_fract_x
_atom_site_fract_y
_atom_site_fract_z
Si Si1 0.427169 0.184017 0.817462
Si Si2 0.274683 0.672746 0.328527
Si Si3 0.283802 0.678297 0.904656
Si Si4 0.858256 0.318706 0.567968
Si Si5 0.005884 0.182177 0.391881
Si Si6 0.144063 0.174473 0.778597
Si Si7 0.077087 0.317410 0.963152
O O1 0.369258 0.232478 0.687849
O O2 0.421755 0.221260 0.922905
O O3 0.428494 0.000000 0.814773
O O4 0.502780 0.235714 0.857236
O O5 0.249199 0.500000 0.312221
O O6 0.223855 0.768617 0.213709
O O7 0.299017 0.738240 0.451406
O O8 0.341335 0.669832 0.322502
O O9 0.284370 0.500000 0.911352
O O10 0.212363 0.740722 0.876750
O O11 0.354623 0.744199 0.011330
O O12 0.848733 0.500000 0.554605
O O13 0.930214 0.273123 0.587964
O O14 0.000000 0.200636 0.500000
O O15 0.931926 0.234830 0.280331
O O16 0.013557 0.000000 0.380477
O O17 0.147077 0.000000 0.813772
O O18 0.081537 0.500000 0.957693
#
# Coordination Sequence:
#
# PCOD9169918 Si02
#       7
#     8   8   8   8   8   8   8
#     4   8  18  34  54  77  97 126 166 205 240 291
#     4   9  17  31  47  67  96 135 169 192 229 290
#     4  10  18  29  49  78 103 122 156 210 256 285
#     4  11  20  30  47  76 108 128 157 208 255 283
#     4  10  17  29  47  67  96 136 173 197 228 289
#     4   8  16  29  46  67  94 130 172 196 221 283
#     4   9  16  35  60  73  91 129 171 199 238 299
#
# _framework density 23.123594000000001
#
# number of rings (size 3 to 8) (size 9 to 14) (size 15 to 20)
#    0.857    1.857    1.429    2.571    0.000    0.857 
#    0.000    5.000    0.000    0.857    0.000    0.000 
#    0.000    0.000    0.000    0.000    0.000    0.000 
#
# Total GULP energy -156309.074041 kJ/mol
# GULP energy per Si atom -5582.466930 kJ/mol
# Density = 2.307096 g / cm^3
# Si number density = 23.123594 Si / 1000 Ang^3
#
#
#
# Elastic Constant Matrix: (Units=GPa)
#
#
# Indices 1 2 3 4 5 6 
#
# 1 84.1978 13.5842 21.1894 0.0000 12.2874 0.0000
# 2 13.5842 39.2017 9.5854 0.0000 11.3459 0.0000
# 3 21.1894 9.5854 129.6753 0.0000 12.1312 0.0000
# 4 0.0000 0.0000 0.0000 14.6155 0.0000 10.5773
# 5 12.2874 11.3459 12.1312 0.0000 46.7087 0.0000
# 6 0.0000 0.0000 0.0000 10.5773 0.0000 10.5406
#
#
#
# Elastic Compliance Matrix: (Units=1/GPa)
#
#
# Indices 1 2 3 4 5 6 
#
# 1 0.013189 -0.003528 -0.001691 0.000000 -0.002173 0.000000
# 2 -0.003528 0.028646 -0.001001 0.000000 -0.005770 0.000000
# 3 -0.001691 -0.001001 0.008197 0.000000 -0.001441 0.000000
# 4 0.000000 0.000000 0.000000 0.249909 0.000000 -0.250778
# 5 -0.002173 -0.005770 -0.001441 0.000000 0.023757 0.000000
# 6 0.000000 0.000000 0.000000 -0.250778 0.000000 0.346522
#
#
# Mechanical properties :
#
#
# Convention : Reuss Voigt Hill
#
# Bulk Modulus (GPa) = 26.60140 37.97698 32.28919
# Shear Modulus (GPa) = 7.19228 28.28734 17.73981
#
# Velocity S-wave (km/s) = 1.76554 3.50138 2.77279
# Velocity P-wave (km/s) = 3.96045 5.72760 4.92395
#
# Compressibility (1/GPa) = 0.03759201
#
# Stress axis : x y z
#
# Youngs Moduli (GPa) = 75.82266 34.90833 122.00061
#
# Poissons Ratio (x) = 0.12314 0.20630
# Poissons Ratio (y) = 0.26748 0.12215
# Poissons Ratio (z) = 0.12822 0.03495
#
# Static dielectric constant tensor:
#      x y z
#    x 1.962980 0.000000 -0.045950 
#    y 0.000000 1.770690 0.000000 
#    z -0.045950 0.000000 1.913540 
# 
# From -- ./inp_files/291959.got.cif
#   From: 2010.05.17/outbox.cif.g08.bks.cpg/sg12_146_cif.got.tgz:291959.got - 2010.06.03 13:09:07.
