data_PCOD9169682
_publ_section_title
;
Structure prediction by ZEFSAII (Michael W. Deem and Ramdas Pophale) SiO2 
 PCOD9169682
Probable space group: C 2/M
;
_chemical_formula_sum "Si O2"
_cell_formula_units_Z 48
_cell_length_a 24.198479
_cell_length_b 7.515825
_cell_length_c 15.174859
_cell_angle_alpha 90.000000
_cell_angle_beta 116.920663
_cell_angle_gamma 90.000000
_cell_volume 2460.799122
_symmetry_space_group_name_H-M "C 2/M"
_symmetry_group_IT_number 12
_symmetry_cell_setting 'monoclinic'
loop_
_space_group_symop_operation_xyz
x,y,z
-x,y,-z
-x,-y,-z
x,-y,z
1/2+x,1/2+y,z
1/2-x,1/2+y,-z
1/2-x,1/2-y,-z
1/2+x,1/2-y,z
loop_
_atom_site_type_symbol
_atom_site_label
_atom_site_fract_x
_atom_site_fract_y
_atom_site_fract_z
Si Si1 0.556301 0.789364 0.600421
Si Si2 0.658736 0.204918 0.418266
Si Si3 0.979097 0.787392 0.707327
Si Si4 0.544058 0.282028 0.111006
Si Si5 0.189554 0.719069 0.632169
Si Si6 0.679776 0.298449 0.235785
O O1 0.500000 0.714841 0.500000
O O2 0.535884 0.763594 0.686408
O O3 0.624549 0.720867 0.626417
O O4 0.558998 0.000000 0.584240
O O5 0.584541 0.212374 0.379504
O O6 0.689997 0.273679 0.529681
O O7 0.670859 0.303240 0.335673
O O8 0.676322 0.000000 0.417716
O O9 0.980822 0.728806 0.810426
O O10 0.973434 0.000000 0.702700
O O11 0.545877 0.500000 0.111976
O O12 0.615393 0.218445 0.154824
O O13 0.500000 0.225210 0.000000
O O14 0.190947 0.500000 0.632987
O O15 0.251907 0.781141 0.725789
O O16 0.682223 0.500000 0.203274
#
# Coordination Sequence:
#
# PCOD9169682 Si02
#       6
#     8   8   8   8   8   8
#     4  10  18  31  47  63  91 130 158 179 215 269
#     4  10  17  28  44  63  92 125 151 178 223 274
#     4  10  19  30  46  70  93 116 155 196 223 257
#     4   8  15  29  49  69  88 112 145 190 238 272
#     4   9  17  28  43  63  90 124 154 179 215 268
#     4   9  17  29  45  67  90 113 151 193 223 263
#
# _framework density 19.505859999999998
#
# number of rings (size 3 to 8) (size 9 to 14) (size 15 to 20)
#    0.000    2.667    1.667    2.500    0.000    0.333 
#    0.000    1.667    0.000   13.500    0.000    0.000 
#    0.000    0.000    0.000    0.000    0.000    0.667 
#
# Total GULP energy -133857.550801 kJ/mol
# GULP energy per Si atom -5577.397950 kJ/mol
# Density = 1.946146 g / cm^3
# Si number density = 19.505860 Si / 1000 Ang^3
#
#
#
# Elastic Constant Matrix: (Units=GPa)
#
#
# Indices 1 2 3 4 5 6 
#
# 1 142.4073 5.3828 62.8122 0.0000 29.1347 0.0000
# 2 5.3828 54.1587 -1.8430 0.0000 4.3827 0.0000
# 3 62.8122 -1.8430 114.6100 0.0000 33.2921 0.0000
# 4 0.0000 0.0000 0.0000 10.9197 0.0000 1.1262
# 5 29.1347 4.3827 33.2921 0.0000 26.4578 0.0000
# 6 0.0000 0.0000 0.0000 1.1262 0.0000 35.4469
#
#
#
# Elastic Compliance Matrix: (Units=1/GPa)
#
#
# Indices 1 2 3 4 5 6 
#
# 1 0.009928 -0.000603 -0.003631 0.000000 -0.006263 0.000000
# 2 -0.000603 0.019016 0.002141 0.000000 -0.005180 0.000000
# 3 -0.003631 0.002141 0.015274 0.000000 -0.015576 0.000000
# 4 0.000000 0.000000 0.000000 0.091878 0.000000 -0.002919
# 5 -0.006263 -0.005180 -0.015576 0.000000 0.065149 0.000000
# 6 0.000000 0.000000 0.000000 -0.002919 0.000000 0.028304
#
#
# Mechanical properties :
#
#
# Convention : Reuss Voigt Hill
#
# Bulk Modulus (GPa) = 24.98070 49.32002 37.15036
# Shear Modulus (GPa) = 20.23622 30.88649 25.56136
#
# Velocity S-wave (km/s) = 3.22443 3.98357 3.62393
# Velocity P-wave (km/s) = 5.16693 6.81895 6.04960
#
# Compressibility (1/GPa) = 0.04003090
#
# Stress axis : x y z
#
# Youngs Moduli (GPa) = 100.72518 52.58658 65.46930
#
# Poissons Ratio (x) = 0.03174 0.23775
# Poissons Ratio (y) = 0.06079 -0.14018
# Poissons Ratio (z) = 0.36578 -0.11260
#
# Static dielectric constant tensor:
#      x y z
#    x 1.728740 0.000000 0.023470 
#    y 0.000000 1.730170 0.000000 
#    z 0.023470 0.000000 1.656770 
# 
# From -- ./inp_files/236841.got.cif
#   From: 2010.05.17/outbox.cif.g08.bks.cpg/sg12_119_cif.got.tgz:236841.got - 2010.06.03 13:09:07.
