data_PCOD9169684
_publ_section_title
;
Structure prediction by ZEFSAII (Michael W. Deem and Ramdas Pophale) SiO2 
 PCOD9169684
Probable space group: C 2/M
;
_chemical_formula_sum "Si O2"
_cell_formula_units_Z 56
_cell_length_a 29.754404
_cell_length_b 8.998357
_cell_length_c 13.972996
_cell_angle_alpha 90.000000
_cell_angle_beta 76.072775
_cell_angle_gamma 90.000000
_cell_volume 3631.159213
_symmetry_space_group_name_H-M "C 2/M"
_symmetry_group_IT_number 12
_symmetry_cell_setting 'monoclinic'
loop_
_space_group_symop_operation_xyz
x,y,z
-x,y,-z
-x,-y,-z
x,-y,z
1/2+x,1/2+y,z
1/2-x,1/2+y,-z
1/2-x,1/2-y,-z
1/2+x,1/2-y,z
loop_
_atom_site_type_symbol
_atom_site_label
_atom_site_fract_x
_atom_site_fract_y
_atom_site_fract_z
Si Si1 0.191503 0.326464 0.912056
Si Si2 0.355207 0.178086 0.863023
Si Si3 0.856751 0.176181 0.240145
Si Si4 0.448318 0.180428 0.915736
Si Si5 0.263558 0.321379 0.392633
Si Si6 0.712895 0.325417 0.240312
Si Si7 0.552626 0.820981 0.860569
O O1 0.178896 0.500000 0.900457
O O2 0.163595 0.226321 0.851979
O O3 0.245232 0.308906 0.858213
O O4 0.177042 0.293719 0.027423
O O5 0.406445 0.228514 0.869284
O O6 0.332748 0.258410 0.784278
O O7 0.355761 0.000000 0.846894
O O8 0.816336 0.219373 0.335357
O O9 0.906422 0.253232 0.222918
O O10 0.862181 0.000000 0.240594
O O11 0.500318 0.225345 0.860743
O O12 0.447503 0.000000 0.916258
O O13 0.440662 0.223170 0.030863
O O14 0.260507 0.500000 0.397477
O O15 0.250000 0.250000 0.500000
O O16 0.230543 0.259204 0.325525
O O17 0.707861 0.500000 0.263441
O O18 0.555011 0.000000 0.855619
#
# Coordination Sequence:
#
# PCOD9169684 Si02
#       7
#     8   8   8   8   8   8   8
#     4   9  17  29  44  61  88 128 165 191 220 267
#     4  10  17  28  44  64  92 128 164 195 227 262
#     4  10  19  29  45  70  97 121 150 192 239 280
#     4   8  15  26  44  65  89 126 169 202 223 257
#     4  10  21  37  54  72  93 118 150 192 238 284
#     4  10  20  31  45  68  94 122 156 191 231 281
#     4   9  15  28  46  64  89 126 167 198 227 267
#
# _framework density 15.422071000000001
#
# number of rings (size 3 to 8) (size 9 to 14) (size 15 to 20)
#    0.000    2.571    1.429    2.571    0.000    2.857 
#    0.000    2.143    0.000    0.000    0.000    1.000 
#    0.000    8.000    0.000    0.000    0.000    0.000 
#
# Total GULP energy -156028.233234 kJ/mol
# GULP energy per Si atom -5572.436901 kJ/mol
# Density = 1.538697 g / cm^3
# Si number density = 15.422071 Si / 1000 Ang^3
#
#
#
# Elastic Constant Matrix: (Units=GPa)
#
#
# Indices 1 2 3 4 5 6 
#
# 1 131.4167 46.9229 61.5107 0.0000 1.8068 0.0000
# 2 46.9229 37.6090 38.6423 0.0000 -3.0835 0.0000
# 3 61.5107 38.6423 79.3888 0.0000 -5.2158 0.0000
# 4 0.0000 0.0000 0.0000 20.8039 0.0000 1.6175
# 5 1.8068 -3.0835 -5.2158 0.0000 13.2273 0.0000
# 6 0.0000 0.0000 0.0000 1.6175 0.0000 24.2599
#
#
#
# Elastic Compliance Matrix: (Units=1/GPa)
#
#
# Indices 1 2 3 4 5 6 
#
# 1 0.015315 -0.014054 -0.005522 0.000000 -0.007546 0.000000
# 2 -0.014054 0.066153 -0.020708 0.000000 0.009175 0.000000
# 3 -0.005522 -0.020708 0.027396 0.000000 0.006730 0.000000
# 4 0.000000 0.000000 0.000000 0.048318 0.000000 -0.003222
# 5 -0.007546 0.009175 0.006730 0.000000 0.081425 0.000000
# 6 0.000000 0.000000 0.000000 -0.003222 0.000000 0.041435
#
#
# Mechanical properties :
#
#
# Convention : Reuss Voigt Hill
#
# Bulk Modulus (GPa) = 35.33866 60.28515 47.81190
# Shear Modulus (GPa) = 13.51200 18.41414 15.96307
#
# Velocity S-wave (km/s) = 2.96319 3.45920 3.22076
# Velocity P-wave (km/s) = 5.88824 7.42494 6.70079
#
# Compressibility (1/GPa) = 0.02829762
#
# Stress axis : x y z
#
# Youngs Moduli (GPa) = 65.29336 15.11658 36.50151
#
# Poissons Ratio (x) = 0.21244 0.20155
# Poissons Ratio (y) = 0.91761 0.75587
# Poissons Ratio (z) = 0.36053 0.31303
#
# Static dielectric constant tensor:
#      x y z
#    x 1.541720 0.000000 -0.015370 
#    y 0.000000 1.516780 0.000000 
#    z -0.015370 0.000000 1.483630 
# 
# From -- ./inp_files/247793.got.cif
#   From: 2010.05.17/outbox.cif.g08.bks.cpg/sg12_124_cif.got.tgz:247793.got - 2010.06.03 13:09:07.
