data_PCOD9169312
_publ_section_title
;
Structure prediction by ZEFSAII (Michael W. Deem and Ramdas Pophale) SiO2 
 PCOD9169312
Probable space group: C 2/M
;
_chemical_formula_sum "Si O2"
_cell_formula_units_Z 64
_cell_length_a 24.723285
_cell_length_b 9.064181
_cell_length_c 19.339406
_cell_angle_alpha 90.000000
_cell_angle_beta 79.562356
_cell_angle_gamma 90.000000
_cell_volume 4262.175542
_symmetry_space_group_name_H-M "C 2/M"
_symmetry_group_IT_number 12
_symmetry_cell_setting 'monoclinic'
loop_
_space_group_symop_operation_xyz
x,y,z
-x,y,-z
-x,-y,-z
x,-y,z
1/2+x,1/2+y,z
1/2-x,1/2+y,-z
1/2-x,1/2-y,-z
1/2+x,1/2-y,z
loop_
_atom_site_type_symbol
_atom_site_label
_atom_site_fract_x
_atom_site_fract_y
_atom_site_fract_z
Si Si1 0.860263 0.827357 0.882789
Si Si2 0.481844 0.675909 0.616374
Si Si3 0.206596 0.323622 0.302797
Si Si4 0.590944 0.176540 0.256946
Si Si5 0.204168 0.677424 0.462658
Si Si6 0.088007 0.176309 0.506345
Si Si7 0.805805 0.321924 0.017044
Si Si8 0.258609 0.828887 0.167231
O O1 0.901562 0.750406 0.819691
O O2 0.800397 0.817324 0.858694
O O3 0.872208 0.000000 0.889584
O O4 0.853113 0.744312 0.957467
O O5 0.479119 0.500000 0.629655
O O6 0.459957 0.763023 0.687344
O O7 0.543064 0.711723 0.575630
O O8 0.441871 0.706866 0.560148
O O9 0.209233 0.500000 0.300244
O O10 0.146036 0.281881 0.288042
O O11 0.212826 0.276228 0.380487
O O12 0.251124 0.260785 0.239017
O O13 0.589571 0.000000 0.251096
O O14 0.206659 0.500000 0.465657
O O15 0.250000 0.750000 0.500000
O O16 0.143988 0.734333 0.498133
O O17 0.098587 0.000000 0.506498
O O18 0.803251 0.500000 0.011386
O O19 0.803578 0.284339 0.099196
O O20 0.750000 0.250000 0.000000
O O21 0.267092 0.000000 0.182053
#
# Coordination Sequence:
#
# PCOD9169312 Si02
#       8
#     8   8   8   8   8   8   8   8
#     4   9  16  24  34  51  75 106 140 172 207 249
#     4   9  17  29  46  66  88 112 142 177 218 263
#     4   9  18  29  40  57  80 104 138 178 215 256
#     4  10  17  26  40  60  84 111 141 178 217 252
#     4  11  22  35  48  65  86 113 147 185 226 268
#     4   9  18  32  48  66  86 112 142 178 220 264
#     4   9  15  23  33  49  72 101 136 171 205 246
#     4   8  15  24  36  52  71  99 135 171 208 247
#
# _framework density 15.015806
#
# number of rings (size 3 to 8) (size 9 to 14) (size 15 to 20)
#    0.000    2.750    1.250    3.000    0.000    5.500 
#    0.000    1.250    0.000    0.000    0.000    0.000 
#    0.000    0.000    0.000    1.125    0.000   21.125 
#
# Total GULP energy -178162.521983 kJ/mol
# GULP energy per Si atom -5567.578812 kJ/mol
# Density = 1.498163 g / cm^3
# Si number density = 15.015806 Si / 1000 Ang^3
#
#
#
# Elastic Constant Matrix: (Units=GPa)
#
#
# Indices 1 2 3 4 5 6 
#
# 1 48.8305 31.6276 44.6628 0.0000 -9.7405 0.0000
# 2 31.6276 50.8748 53.9856 0.0000 -16.0150 0.0000
# 3 44.6628 53.9856 129.0617 0.0000 -36.1557 0.0000
# 4 0.0000 0.0000 0.0000 29.8250 0.0000 -7.2479
# 5 -9.7405 -16.0150 -36.1557 0.0000 20.6404 0.0000
# 6 0.0000 0.0000 0.0000 -7.2479 0.0000 17.1363
#
#
#
# Elastic Compliance Matrix: (Units=1/GPa)
#
#
# Indices 1 2 3 4 5 6 
#
# 1 0.037754 -0.017635 -0.008896 0.000000 -0.011449 0.000000
# 2 -0.017635 0.043676 -0.009827 0.000000 0.008353 0.000000
# 3 -0.008896 -0.009827 0.022827 0.000000 0.028163 0.000000
# 4 0.000000 0.000000 0.000000 0.037370 0.000000 0.015806
# 5 -0.011449 0.008353 0.028163 0.000000 0.098859 0.000000
# 6 0.000000 0.000000 0.000000 0.015806 0.000000 0.065041
#
#
# Mechanical properties :
#
#
# Convention : Reuss Voigt Hill
#
# Bulk Modulus (GPa) = 31.70390 54.36877 43.03634
# Shear Modulus (GPa) = 12.86152 20.08641 16.47396
#
# Velocity S-wave (km/s) = 2.92983 3.66140 3.31586
# Velocity P-wave (km/s) = 5.71006 7.35940 6.58656
#
# Compressibility (1/GPa) = 0.03154186
#
# Stress axis : x y z
#
# Youngs Moduli (GPa) = 26.48731 22.89566 43.80810
#
# Poissons Ratio (x) = 0.40376 0.38971
# Poissons Ratio (y) = 0.46710 0.43049
# Poissons Ratio (z) = 0.23563 0.22499
#
# Static dielectric constant tensor:
#      x y z
#    x 1.470610 0.000000 -0.025020 
#    y 0.000000 1.499440 0.000000 
#    z -0.025020 0.000000 1.522820 
# 
# From -- ./inp_files/287515.got.cif
#   From: 2010.05.17/outbox.cif.g08.bks.cpg/sg12_144_cif.got.tgz:287515.got - 2010.06.03 13:09:07.
