data_PCOD9169436
_publ_section_title
;
Structure prediction by ZEFSAII (Michael W. Deem and Ramdas Pophale) SiO2 
 PCOD9169436
Probable space group: C 2/M
;
_chemical_formula_sum "Si O2"
_cell_formula_units_Z 50
_cell_length_a 13.688202
_cell_length_b 19.036626
_cell_length_c 11.422568
_cell_angle_alpha 90.000000
_cell_angle_beta 40.124500
_cell_angle_gamma 90.000000
_cell_volume 1918.181973
_symmetry_space_group_name_H-M "C 2/M"
_symmetry_group_IT_number 12
_symmetry_cell_setting 'monoclinic'
loop_
_space_group_symop_operation_xyz
x,y,z
-x,y,-z
-x,-y,-z
x,-y,z
1/2+x,1/2+y,z
1/2-x,1/2+y,-z
1/2-x,1/2-y,-z
1/2+x,1/2-y,z
loop_
_atom_site_type_symbol
_atom_site_label
_atom_site_fract_x
_atom_site_fract_y
_atom_site_fract_z
Si Si1 0.262282 0.578790 0.097337
Si Si2 0.000000 0.500000 0.500000
Si Si3 0.962531 0.227549 0.693134
Si Si4 0.562741 0.575589 0.302720
Si Si5 0.147159 0.580948 0.791511
Si Si6 0.858904 0.221649 0.058542
Si Si7 0.431859 0.875341 0.382710
O O1 0.222520 0.500000 0.181170
O O2 0.327535 0.639489 0.119162
O O3 0.108594 0.610877 0.186636
O O4 0.375653 0.572096 0.885987
O O5 0.083305 0.435815 0.505534
O O6 0.019485 0.150026 0.611481
O O7 0.799686 0.239407 0.780556
O O8 0.068512 0.294702 0.573911
O O9 0.913619 0.226504 0.874256
O O10 0.483329 0.500000 0.393616
O O11 0.708370 0.579912 0.254722
O O12 0.113633 0.500000 0.789827
O O13 0.158672 0.617439 0.654553
O O14 0.000000 0.604411 0.000000
O O15 0.000000 0.248030 0.000000
#
# Coordination Sequence:
#
# PCOD9169436 Si02
#       7
#     8   2   8   8   8   8   8
#     4   9  15  29  46  69 109 141 168 206 253 308
#     4  12  24  36  54  72 100 148 182 214 258 322
#     4   9  20  31  45  73 107 143 172 216 261 305
#     4   9  17  28  48  77 105 131 164 208 270 320
#     4  10  17  26  48  79 105 127 166 221 271 315
#     4   9  18  28  43  73 108 145 173 198 258 329
#     4  11  20  33  49  73 105 141 180 212 264 312
#
# _framework density 26.066348000000001
#
# number of rings (size 3 to 8) (size 9 to 14) (size 15 to 20)
#    0.000    2.400    3.200    0.960    2.240    0.320 
#    0.000    0.000    0.000    0.960    0.000    0.560 
#    0.000    0.000    0.000    1.920    0.000    0.000 
#
# Total GULP energy -139558.891990 kJ/mol
# GULP energy per Si atom -5582.355680 kJ/mol
# Density = 2.600702 g / cm^3
# Si number density = 26.066348 Si / 1000 Ang^3
#
#
#
# Elastic Constant Matrix: (Units=GPa)
#
#
# Indices 1 2 3 4 5 6 
#
# 1 116.9474 63.5982 11.2114 0.0048 6.4855 -0.0038
# 2 63.5982 279.0016 39.8232 0.0001 3.3122 -0.0005
# 3 11.2114 39.8232 74.2172 0.0015 10.1868 -0.0016
# 4 0.0048 0.0001 0.0015 19.7864 -0.0015 6.3130
# 5 6.4855 3.3122 10.1868 -0.0015 22.5397 0.0013
# 6 -0.0038 -0.0005 -0.0016 6.3130 0.0013 -5.6913
#
#
#
# Elastic Compliance Matrix: (Units=1/GPa)
#
#
# Indices 1 2 3 4 5 6 
#
# 1 0.009902 -0.002234 0.000052 0.000000 -0.002544 -0.000007
# 2 -0.002234 0.004389 -0.002151 0.000000 0.000970 0.000002
# 3 0.000052 -0.002151 0.015543 0.000000 -0.006724 -0.000006
# 4 0.000000 0.000000 0.000000 0.037329 0.000000 0.041407
# 5 -0.002544 0.000970 -0.006724 0.000000 0.047994 0.000015
# 6 -0.000007 0.000002 -0.000006 0.041407 0.000015 -0.129778
#
#
# Mechanical properties :
#
#
# Convention : Reuss Voigt Hill
#
# Bulk Modulus (GPa) = 47.23984 77.71465 62.47725
# Shear Modulus (GPa) = 4540.51931 31.02918 2285.77424
#
# Velocity S-wave (km/s) = 41.78146 3.45395 29.64473
# Velocity P-wave (km/s) = 48.43293 6.76648 34.57987
#
# Compressibility (1/GPa) = 0.02116857
#
# Stress axis : x y z
#
# Youngs Moduli (GPa) = 100.98894 227.84225 64.33805
#
# Poissons Ratio (x) = 0.50910 -0.00337
# Poissons Ratio (y) = 0.22565 0.13837
# Poissons Ratio (z) = -0.00529 0.49000
#
# Static dielectric constant tensor:
#      x y z
#    x 1.970560 0.000000 0.033680 
#    y 0.000000 2.111670 0.000000 
#    z 0.033680 0.000000 1.926170 
# 
# From -- ./inp_files/146572.got.cif
#   From: 2010.05.17/outbox.cif.g08.bks.cpg/sg12_74_cif.got.tgz:146572.got - 2010.06.03 13:09:07.
