data_PCOD9169426
_publ_section_title
;
Structure prediction by ZEFSAII (Michael W. Deem and Ramdas Pophale) SiO2 
 PCOD9169426
Probable space group: C 2/M
;
_chemical_formula_sum "Si O2"
_cell_formula_units_Z 44
_cell_length_a 14.042242
_cell_length_b 21.785322
_cell_length_c 9.534862
_cell_angle_alpha 90.000000
_cell_angle_beta 137.891944
_cell_angle_gamma 90.000000
_cell_volume 1955.841552
_symmetry_space_group_name_H-M "C 2/M"
_symmetry_group_IT_number 12
_symmetry_cell_setting 'monoclinic'
loop_
_space_group_symop_operation_xyz
x,y,z
-x,y,-z
-x,-y,-z
x,-y,z
1/2+x,1/2+y,z
1/2-x,1/2+y,-z
1/2-x,1/2-y,-z
1/2+x,1/2-y,z
loop_
_atom_site_type_symbol
_atom_site_label
_atom_site_fract_x
_atom_site_fract_y
_atom_site_fract_z
Si Si1 0.000000 0.762631 0.000000
Si Si2 0.498321 0.348671 0.733853
Si Si3 0.585765 0.930068 0.884278
Si Si4 0.220685 0.930347 0.152314
Si Si5 0.744457 0.802581 0.118670
Si Si6 0.254284 0.927962 0.512473
O O1 0.967880 0.799342 0.821889
O O2 0.851981 0.727890 0.868171
O O3 0.591779 0.320802 0.712228
O O4 0.358820 0.385120 0.535042
O O5 0.605616 0.393702 0.936955
O O6 0.630505 0.930225 0.768734
O O7 0.419260 0.922150 0.730801
O O8 0.626512 0.000000 0.979179
O O9 0.665422 0.868717 0.018376
O O10 0.239358 0.909843 0.331826
O O11 0.169677 0.000000 0.102069
O O12 0.750000 0.750000 0.000000
O O13 0.217658 0.000000 0.487407
#
# Coordination Sequence:
#
# PCOD9169426 Si02
#       6
#     4   8   8   8   8   8
#     4  10  18  34  50  66  92 128 170 212 240 284
#     4  10  17  29  50  72  99 127 164 200 244 282
#     4   9  18  31  48  72 103 132 163 200 246 296
#     4   9  15  25  43  71 103 133 158 186 235 303
#     4   9  20  35  53  71  95 130 169 207 246 288
#     4  10  17  26  46  77 106 130 153 193 252 307
#
# _framework density 22.496708999999999
#
# number of rings (size 3 to 8) (size 9 to 14) (size 15 to 20)
#    0.000    2.545    1.818    1.091    0.000    4.364 
#    0.000    4.091    0.000    3.273    0.000    2.545 
#    0.000    0.000    0.000    0.000    0.000    0.000 
#
# Total GULP energy -122542.652274 kJ/mol
# GULP energy per Si atom -5570.120558 kJ/mol
# Density = 2.244551 g / cm^3
# Si number density = 22.496709 Si / 1000 Ang^3
#
#
#
# Elastic Constant Matrix: (Units=GPa)
#
#
# Indices 1 2 3 4 5 6 
#
# 1 153.1745 69.9433 44.0040 0.0000 50.5880 0.0000
# 2 69.9433 122.3069 59.0427 0.0000 27.5692 0.0000
# 3 44.0040 59.0427 72.5793 0.0000 14.9528 0.0000
# 4 0.0000 0.0000 0.0000 8.2903 0.0000 20.2796
# 5 50.5880 27.5692 14.9528 0.0000 33.7638 0.0000
# 6 0.0000 0.0000 0.0000 20.2796 0.0000 28.4283
#
#
#
# Elastic Compliance Matrix: (Units=1/GPa)
#
#
# Indices 1 2 3 4 5 6 
#
# 1 0.014783 -0.002954 -0.002743 0.000000 -0.018521 0.000000
# 2 -0.002954 0.015619 -0.010123 0.000000 -0.003844 0.000000
# 3 -0.002743 -0.010123 0.023247 0.000000 0.002080 0.000000
# 4 0.000000 0.000000 0.000000 -0.161908 0.000000 0.115498
# 5 -0.018521 -0.003844 0.002080 0.000000 0.059585 0.000000
# 6 0.000000 0.000000 0.000000 0.115498 0.000000 -0.047216
#
#
# Mechanical properties :
#
#
# Convention : Reuss Voigt Hill
#
# Bulk Modulus (GPa) = 45.43822 77.11563 61.27693
# Shear Modulus (GPa) = -87.85276 25.76786 -31.04245
#
# Velocity S-wave (km/s) = -6.25589 3.38806 -3.71868
# Velocity P-wave (km/s) = 5.65155 7.04686 2.97643
#
# Compressibility (1/GPa) = 0.02200790
#
# Stress axis : x y z
#
# Youngs Moduli (GPa) = 67.64716 64.02587 43.01573
#
# Poissons Ratio (x) = 0.18916 0.11800
# Poissons Ratio (y) = 0.19986 0.43543
# Poissons Ratio (z) = 0.18558 0.64811
#
# Static dielectric constant tensor:
#      x y z
#    x 1.866760 0.000000 -0.029760 
#    y 0.000000 1.868120 0.000000 
#    z -0.029760 0.000000 1.874670 
# 
# From -- ./inp_files/147799.got.cif
#   From: 2010.05.17/outbox.cif.g08.bks.cpg/sg12_74_cif.got.tgz:147799.got - 2010.06.03 13:09:07.
