data_PCOD9169696
_publ_section_title
;
Structure prediction by ZEFSAII (Michael W. Deem and Ramdas Pophale) SiO2 
 PCOD9169696
Probable space group: C 2/M
;
_chemical_formula_sum "Si O2"
_cell_formula_units_Z 64
_cell_length_a 29.667558
_cell_length_b 7.513226
_cell_length_c 21.936250
_cell_angle_alpha 90.000000
_cell_angle_beta 132.614580
_cell_angle_gamma 90.000000
_cell_volume 3598.355686
_symmetry_space_group_name_H-M "C 2/M"
_symmetry_group_IT_number 12
_symmetry_cell_setting 'monoclinic'
loop_
_space_group_symop_operation_xyz
x,y,z
-x,y,-z
-x,-y,-z
x,-y,z
1/2+x,1/2+y,z
1/2-x,1/2+y,-z
1/2-x,1/2-y,-z
1/2+x,1/2-y,z
loop_
_atom_site_type_symbol
_atom_site_label
_atom_site_fract_x
_atom_site_fract_y
_atom_site_fract_z
Si Si1 0.474797 0.285811 0.665224
Si Si2 0.298764 0.289256 0.990975
Si Si3 0.185441 0.781202 0.658739
Si Si4 0.840694 0.710736 0.581914
Si Si5 0.754133 0.704628 0.606494
Si Si6 0.800064 0.793172 0.191109
Si Si7 0.606994 0.281369 0.828684
Si Si8 0.548953 0.282858 0.494306
O O1 0.478155 0.500000 0.665878
O O2 0.412760 0.239171 0.643640
O O3 0.537847 0.223743 0.753310
O O4 0.468179 0.222610 0.589323
O O5 0.303155 0.500000 0.986491
O O6 0.362008 0.224439 0.079104
O O7 0.250000 0.250000 0.000000
O O8 0.266721 0.216260 0.901209
O O9 0.233972 0.717458 0.652646
O O10 0.197447 0.719396 0.738564
O O11 0.117341 0.729014 0.575426
O O12 0.187160 0.000000 0.659134
O O13 0.828057 0.500000 0.567088
O O14 0.807541 0.781832 0.612540
O O15 0.806216 0.792123 0.491913
O O16 0.771524 0.500000 0.633999
O O17 0.391216 0.500000 0.169508
O O18 0.849331 0.720339 0.187364
O O19 0.683050 0.500000 0.787207
O O20 0.500000 0.225432 0.500000
O O21 0.548176 0.500000 0.492997
#
# Coordination Sequence:
#
# PCOD9169696 Si02
#       8
#     8   8   8   8   8   8   8   8
#     4  10  17  28  45  63  85 113 147 178 213 256
#     4   9  16  28  44  63  88 114 145 180 217 252
#     4   9  15  25  42  64  85 109 143 179 210 248
#     4  10  19  29  43  63  87 111 142 184 224 258
#     4   9  17  31  47  62  81 112 149 183 218 255
#     4   9  16  27  44  66  90 112 142 179 217 255
#     4   8  15  26  42  64  86 111 142 178 208 246
#     4   9  15  22  38  63  85 108 143 180 204 234
#
# _framework density 17.785900999999999
#
# number of rings (size 3 to 8) (size 9 to 14) (size 15 to 20)
#    0.000    2.875    1.250    2.250    0.000    3.500 
#    0.000    3.750    0.000    0.375    0.000    0.875 
#    0.000    7.000    0.000    0.000    0.000    0.000 
#
# Total GULP energy -178333.089303 kJ/mol
# GULP energy per Si atom -5572.909041 kJ/mol
# Density = 1.774542 g / cm^3
# Si number density = 17.785901 Si / 1000 Ang^3
#
#
#
# Elastic Constant Matrix: (Units=GPa)
#
#
# Indices 1 2 3 4 5 6 
#
# 1 111.2863 -4.0135 56.6142 0.0000 10.5135 0.0000
# 2 -4.0135 44.3482 -10.4870 0.0001 0.3356 0.0006
# 3 56.6142 -10.4870 111.2261 0.0000 18.5980 0.0000
# 4 0.0000 0.0001 0.0000 11.5066 0.0000 2.6975
# 5 10.5135 0.3356 18.5980 0.0000 13.9631 0.0000
# 6 0.0000 0.0006 0.0000 2.6975 0.0000 7.9342
#
#
#
# Elastic Compliance Matrix: (Units=1/GPa)
#
#
# Indices 1 2 3 4 5 6 
#
# 1 0.012145 -0.000317 -0.006026 0.000000 -0.001111 0.000000
# 2 -0.000317 0.023287 0.003102 0.000000 -0.004452 -0.000002
# 3 -0.006026 0.003102 0.014929 0.000000 -0.015422 0.000000
# 4 0.000000 0.000000 0.000000 0.094433 0.000000 -0.032105
# 5 -0.001111 -0.004452 -0.015422 0.000000 0.093102 0.000000
# 6 0.000000 -0.000002 0.000000 -0.032105 0.000000 0.136952
#
#
# Mechanical properties :
#
#
# Convention : Reuss Voigt Hill
#
# Bulk Modulus (GPa) = 22.79075 39.00978 30.90026
# Shear Modulus (GPa) = 12.62762 21.66390 17.14576
#
# Velocity S-wave (km/s) = 2.66743 3.49383 3.10822
# Velocity P-wave (km/s) = 4.72533 6.18517 5.50386
#
# Compressibility (1/GPa) = 0.04387746
#
# Stress axis : x y z
#
# Youngs Moduli (GPa) = 82.33921 42.94200 66.98356
#
# Poissons Ratio (x) = 0.01363 0.40364
# Poissons Ratio (y) = 0.02614 -0.20776
# Poissons Ratio (z) = 0.49618 -0.13319
#
# Static dielectric constant tensor:
#      x y z
#    x 1.605450 0.000000 -0.005920 
#    y 0.000000 1.717460 0.000000 
#    z -0.005920 0.000000 1.609090 
# 
# From -- ./inp_files/326951.got.cif
#   From: 2010.05.17/outbox.cif.g08.bks.cpg/sg12_164_cif.got.tgz:326951.got - 2010.06.03 13:09:07.
