data_PCOD9169731
_publ_section_title
;
Structure prediction by ZEFSAII (Michael W. Deem and Ramdas Pophale) SiO2 
 PCOD9169731
Probable space group: C 2/M
;
_chemical_formula_sum "Si O2"
_cell_formula_units_Z 64
_cell_length_a 18.234122
_cell_length_b 14.115706
_cell_length_c 12.692483
_cell_angle_alpha 90.000000
_cell_angle_beta 74.859380
_cell_angle_gamma 90.000000
_cell_volume 3153.485400
_symmetry_space_group_name_H-M "C 2/M"
_symmetry_group_IT_number 12
_symmetry_cell_setting 'monoclinic'
loop_
_space_group_symop_operation_xyz
x,y,z
-x,y,-z
-x,-y,-z
x,-y,z
1/2+x,1/2+y,z
1/2-x,1/2+y,-z
1/2-x,1/2-y,-z
1/2+x,1/2-y,z
loop_
_atom_site_type_symbol
_atom_site_label
_atom_site_fract_x
_atom_site_fract_y
_atom_site_fract_z
Si Si1 0.500368 0.899177 0.125062
Si Si2 0.148206 0.699220 0.089729
Si Si3 0.321471 0.889138 0.453662
Si Si4 0.289683 0.259341 0.159456
Si Si5 0.700286 0.609936 0.338208
Si Si6 0.062197 0.802866 0.285595
Si Si7 0.092376 0.237858 0.722264
Si Si8 0.574533 0.105129 0.396738
O O1 0.588150 0.884180 0.118436
O O2 0.452453 0.813172 0.187827
O O3 0.470145 0.000000 0.174372
O O4 0.500000 0.896920 0.000000
O O5 0.221414 0.680805 0.134451
O O6 0.106900 0.791602 0.157637
O O7 0.169452 0.719280 0.960736
O O8 0.235560 0.876108 0.442412
O O9 0.368171 0.806332 0.377835
O O10 0.348409 0.881047 0.563949
O O11 0.341617 0.000000 0.418791
O O12 0.251159 0.174603 0.241493
O O13 0.346082 0.307440 0.222135
O O14 0.710232 0.500000 0.308340
O O15 0.613525 0.638180 0.347147
O O16 0.063547 0.695510 0.328775
O O17 0.973992 0.827057 0.301560
O O18 0.500000 0.105238 0.500000
O O19 0.576603 0.000000 0.348090
#
# Coordination Sequence:
#
# PCOD9169731 Si02
#       8
#     8   8   8   8   8   8   8   8
#     4  10  18  25  38  66  99 123 145 182 235 288
#     4   9  18  31  44  67  97 128 160 189 240 282
#     4   9  17  30  50  71  96 127 159 199 244 289
#     4   9  17  31  49  67  93 127 162 199 235 287
#     4   9  19  34  50  72  98 129 168 206 239 280
#     4  10  20  30  49  74 101 132 161 199 247 291
#     4  10  17  28  46  70  95 122 159 196 239 288
#     4  10  19  32  49  74 103 129 155 193 246 307
#
# _framework density 20.295005
#
# number of rings (size 3 to 8) (size 9 to 14) (size 15 to 20)
#    0.000    2.500    2.500    0.375    0.000    3.500 
#    0.000    0.000    0.000    1.125    0.000   10.500 
#    0.000    0.000    0.000    0.000    0.000    0.000 
#
# Total GULP energy -178228.401878 kJ/mol
# GULP energy per Si atom -5569.637559 kJ/mol
# Density = 2.024881 g / cm^3
# Si number density = 20.295005 Si / 1000 Ang^3
#
#
#
# Elastic Constant Matrix: (Units=GPa)
#
#
# Indices 1 2 3 4 5 6 
#
# 1 138.8984 9.7299 15.2304 0.0000 38.1119 0.0000
# 2 9.7299 16.7894 4.7185 0.0000 8.5689 0.0000
# 3 15.2304 4.7185 35.0934 0.0000 22.0759 0.0000
# 4 0.0000 0.0000 0.0000 10.7727 0.0000 -2.1157
# 5 38.1119 8.5689 22.0759 0.0000 32.4471 0.0000
# 6 0.0000 0.0000 0.0000 -2.1157 0.0000 6.5775
#
#
#
# Elastic Compliance Matrix: (Units=1/GPa)
#
#
# Indices 1 2 3 4 5 6 
#
# 1 0.011316 0.000726 0.006072 0.000000 -0.017614 0.000000
# 2 0.000726 0.069179 0.004217 0.000000 -0.021991 0.000000
# 3 0.006072 0.004217 0.053286 0.000000 -0.044499 0.000000
# 4 0.000000 0.000000 0.000000 0.099087 0.000000 0.031873
# 5 -0.017614 -0.021991 -0.044499 0.000000 0.087592 0.000000
# 6 0.000000 0.000000 0.000000 0.031873 0.000000 0.162286
#
#
# Mechanical properties :
#
#
# Convention : Reuss Voigt Hill
#
# Bulk Modulus (GPa) = 6.41808 27.79320 17.10564
# Shear Modulus (GPa) = 9.75317 20.69963 15.22640
#
# Velocity S-wave (km/s) = 2.19457 3.19711 2.74205
# Velocity P-wave (km/s) = 3.09690 5.23001 4.29789
#
# Compressibility (1/GPa) = 0.15580976
#
# Stress axis : x y z
#
# Youngs Moduli (GPa) = 88.37032 14.45524 18.76669
#
# Poissons Ratio (x) = -0.01049 -0.11395
# Poissons Ratio (y) = -0.06412 -0.07914
# Poissons Ratio (z) = -0.53656 -0.06096
#
# Static dielectric constant tensor:
#      x y z
#    x 1.829180 0.000000 0.015490 
#    y 0.000000 1.684600 0.000000 
#    z 0.015490 0.000000 1.768460 
# 
# From -- ./inp_files/224754.got.cif
#   From: 2010.05.17/outbox.cif.g08.bks.cpg/sg12_113_cif.got.tgz:224754.got - 2010.06.03 13:09:07.
