data_PCOD9169284
_publ_section_title
;
Structure prediction by ZEFSAII (Michael W. Deem and Ramdas Pophale) SiO2 
 PCOD9169284
Probable space group: C 2/M
;
_chemical_formula_sum "Si O2"
_cell_formula_units_Z 48
_cell_length_a 15.836560
_cell_length_b 7.994413
_cell_length_c 18.953977
_cell_angle_alpha 90.000000
_cell_angle_beta 49.370895
_cell_angle_gamma 90.000000
_cell_volume 1821.191372
_symmetry_space_group_name_H-M "C 2/M"
_symmetry_group_IT_number 12
_symmetry_cell_setting 'monoclinic'
loop_
_space_group_symop_operation_xyz
x,y,z
-x,y,-z
-x,-y,-z
x,-y,z
1/2+x,1/2+y,z
1/2-x,1/2+y,-z
1/2-x,1/2-y,-z
1/2+x,1/2-y,z
loop_
_atom_site_type_symbol
_atom_site_label
_atom_site_fract_x
_atom_site_fract_y
_atom_site_fract_z
Si Si1 0.429832 0.807404 0.643548
Si Si2 0.691635 0.701343 0.807568
Si Si3 0.140994 0.301866 0.980310
Si Si4 0.892327 0.803548 0.852705
Si Si5 0.145212 0.190398 0.465401
Si Si6 0.121727 0.201709 0.685374
O O1 0.320415 0.735358 0.741700
O O2 0.549396 0.717784 0.575733
O O3 0.387743 0.801760 0.584143
O O4 0.445939 0.000000 0.653300
O O5 0.693707 0.500000 0.812462
O O6 0.617057 0.772941 0.911063
O O7 0.651934 0.741949 0.750748
O O8 0.138885 0.500000 0.995422
O O9 0.268760 0.231005 0.913873
O O10 0.080754 0.214740 0.078336
O O11 0.994535 0.734839 0.750968
O O12 0.884932 0.000000 0.841306
O O13 0.273454 0.224851 0.413081
O O14 0.135781 0.000000 0.446543
O O15 0.122956 0.000000 0.676379
#
# Coordination Sequence:
#
# PCOD9169284 Si02
#       6
#     8   8   8   8   8   8
#     4   9  16  28  45  65  93 131 167 191 222 278
#     4   9  18  31  49  72  96 125 159 196 234 275
#     4  10  20  33  51  73  96 123 155 197 244 285
#     4   9  19  36  54  69  90 126 166 196 229 283
#     4  10  17  25  42  70 100 125 152 195 245 280
#     4   9  18  33  51  70  94 127 165 197 229 278
#
# _framework density 26.356372
#
# number of rings (size 3 to 8) (size 9 to 14) (size 15 to 20)
#    0.000    2.667    0.000    4.500    0.000    5.333 
#    0.000    3.333    0.000    1.000    0.000    0.000 
#    0.000    0.000    0.000    0.000    0.000    0.000 
#
# Total GULP energy -134203.178583 kJ/mol
# GULP energy per Si atom -5591.799108 kJ/mol
# Density = 2.629638 g / cm^3
# Si number density = 26.356372 Si / 1000 Ang^3
#
#
#
# Elastic Constant Matrix: (Units=GPa)
#
#
# Indices 1 2 3 4 5 6 
#
# 1 67.3114 11.2850 9.5704 0.0000 -15.0806 0.0000
# 2 11.2850 63.5712 4.9615 0.0000 -3.1868 0.0000
# 3 9.5704 4.9615 193.1024 0.0000 -13.2438 0.0000
# 4 0.0000 0.0000 0.0000 29.2796 0.0000 5.0473
# 5 -15.0806 -3.1868 -13.2438 0.0000 58.6202 0.0000
# 6 0.0000 0.0000 0.0000 5.0473 0.0000 3.8520
#
#
#
# Elastic Compliance Matrix: (Units=1/GPa)
#
#
# Indices 1 2 3 4 5 6 
#
# 1 0.016248 -0.002651 -0.000468 0.000000 0.003930 0.000000
# 2 -0.002651 0.016229 -0.000276 0.000000 0.000138 0.000000
# 3 -0.000468 -0.000276 0.005281 0.000000 0.001058 0.000000
# 4 0.000000 0.000000 0.000000 0.044119 0.000000 -0.057809
# 5 0.003930 0.000138 0.001058 0.000000 0.018317 0.000000
# 6 0.000000 0.000000 0.000000 -0.057809 0.000000 0.335349
#
#
# Mechanical properties :
#
#
# Convention : Reuss Voigt Hill
#
# Bulk Modulus (GPa) = 32.28979 41.73542 37.01260
# Shear Modulus (GPa) = 11.04593 38.22825 24.63709
#
# Velocity S-wave (km/s) = 2.04941 3.81259 3.06071
# Velocity P-wave (km/s) = 4.22823 5.93722 5.15405
#
# Compressibility (1/GPa) = 0.03096954
#
# Stress axis : x y z
#
# Youngs Moduli (GPa) = 61.54707 61.61649 189.34279
#
# Poissons Ratio (x) = 0.16333 0.08854
# Poissons Ratio (y) = 0.16315 0.05229
# Poissons Ratio (z) = 0.02878 0.01702
#
# Static dielectric constant tensor:
#      x y z
#    x 2.285200 0.000000 0.010870 
#    y 0.000000 1.880120 0.000000 
#    z 0.010870 0.000000 2.087250 
# 
# From -- ./inp_files/229310.got.cif
#   From: 2010.05.17/outbox.cif.g08.bks.cpg/sg12_115_cif.got.tgz:229310.got - 2010.06.03 13:09:07.
