data_PCOD9169180
_publ_section_title
;
Structure prediction by ZEFSAII (Michael W. Deem and Ramdas Pophale) SiO2 
 PCOD9169180
Probable space group: C 2/M
;
_chemical_formula_sum "Si O2"
_cell_formula_units_Z 56
_cell_length_a 21.526861
_cell_length_b 18.581395
_cell_length_c 18.516068
_cell_angle_alpha 90.000000
_cell_angle_beta 150.383299
_cell_angle_gamma 90.000000
_cell_volume 3660.213288
_symmetry_space_group_name_H-M "C 2/M"
_symmetry_group_IT_number 12
_symmetry_cell_setting 'monoclinic'
loop_
_space_group_symop_operation_xyz
x,y,z
-x,y,-z
-x,-y,-z
x,-y,z
1/2+x,1/2+y,z
1/2-x,1/2+y,-z
1/2-x,1/2-y,-z
1/2+x,1/2-y,z
loop_
_atom_site_type_symbol
_atom_site_label
_atom_site_fract_x
_atom_site_fract_y
_atom_site_fract_z
Si Si1 0.428663 0.806549 0.860723
Si Si2 0.669533 0.416323 0.826736
Si Si3 0.552355 0.916444 0.880393
Si Si4 0.409307 0.640393 0.556389
Si Si5 0.294605 0.082929 0.532758
Si Si6 0.738023 0.225234 0.571213
Si Si7 0.218453 0.083254 0.705634
O O1 0.520851 0.857954 0.908970
O O2 0.359048 0.750584 0.738321
O O3 0.325235 0.861826 0.787623
O O4 0.500000 0.772010 0.000000
O O5 0.637387 0.500000 0.806059
O O6 0.548833 0.370625 0.726973
O O7 0.690188 0.406382 0.761350
O O8 0.804748 0.402538 0.000167
O O9 0.436335 0.910611 0.707619
O O10 0.551680 0.000000 0.906487
O O11 0.304162 0.605260 0.503442
O O12 0.373897 0.724329 0.512379
O O13 0.394009 0.600555 0.463953
O O14 0.280075 0.140242 0.453720
O O15 0.272652 0.000000 0.491429
O O16 0.750000 0.250000 0.500000
O O17 0.256435 0.000000 0.733727
#
# Coordination Sequence:
#
# PCOD9169180 Si02
#       7
#     8   8   8   8   8   8   8
#     4  11  18  27  45  66  93 124 153 187 226 261
#     4  10  19  26  36  62 100 127 148 178 212 260
#     4  10  18  27  43  66  93 123 154 180 211 261
#     4  10  18  28  42  63  91 123 151 181 219 264
#     4  10  18  32  53  66  81 117 159 192 223 265
#     4   9  18  32  48  65  89 116 156 193 220 266
#     4  10  17  24  38  60  91 130 159 173 200 261
#
# _framework density 15.299654
#
# number of rings (size 3 to 8) (size 9 to 14) (size 15 to 20)
#    0.000    2.000    5.714    2.143    0.000    1.714 
#    0.000    0.714    0.000    0.429    0.000    0.000 
#    0.000    9.143    0.000    0.000    0.000    0.000 
#
# Total GULP energy -155885.033808 kJ/mol
# GULP energy per Si atom -5567.322636 kJ/mol
# Density = 1.526483 g / cm^3
# Si number density = 15.299654 Si / 1000 Ang^3
#
#
#
# Elastic Constant Matrix: (Units=GPa)
#
#
# Indices 1 2 3 4 5 6 
#
# 1 19.3968 18.7514 28.1696 0.0001 2.0639 0.0001
# 2 18.7514 90.7990 43.6617 0.0000 -4.9522 0.0000
# 3 28.1696 43.6617 107.1528 -0.0003 7.5616 -0.0001
# 4 0.0001 0.0000 -0.0003 14.3002 0.0000 -5.3682
# 5 2.0639 -4.9522 7.5616 0.0000 26.2660 0.0000
# 6 0.0001 0.0000 -0.0001 -5.3682 0.0000 13.9682
#
#
#
# Elastic Compliance Matrix: (Units=1/GPa)
#
#
# Indices 1 2 3 4 5 6 
#
# 1 0.089001 -0.009212 -0.019423 -0.000001 -0.003139 -0.000001
# 2 -0.009212 0.015138 -0.004082 0.000000 0.004753 0.000000
# 3 -0.019423 -0.004082 0.016381 0.000001 -0.003959 0.000000
# 4 -0.000001 0.000000 0.000001 0.081719 0.000000 0.031406
# 5 -0.003139 0.004753 -0.003959 0.000000 0.040355 0.000000
# 6 -0.000001 0.000000 0.000000 0.031406 0.000000 0.083661
#
#
# Mechanical properties :
#
#
# Convention : Reuss Voigt Hill
#
# Bulk Modulus (GPa) = 18.15294 44.27934 31.21614
# Shear Modulus (GPa) = 12.19365 19.35793 15.77579
#
# Velocity S-wave (km/s) = 2.82616 3.56090 3.21459
# Velocity P-wave (km/s) = 4.74766 6.77576 5.85026
#
# Compressibility (1/GPa) = 0.05508749
#
# Stress axis : x y z
#
# Youngs Moduli (GPa) = 11.23583 66.05993 61.04558
#
# Poissons Ratio (x) = 0.60852 1.18567
# Poissons Ratio (y) = 0.10350 0.24919
# Poissons Ratio (z) = 0.21823 0.26965
#
# Static dielectric constant tensor:
#      x y z
#    x 1.509470 0.000000 0.014890 
#    y 0.000000 1.516310 0.000000 
#    z 0.014890 0.000000 1.562800 
# 
# From -- ./inp_files/176628.got.cif
#   From: 2010.05.17/outbox.cif.g08.bks.cpg/sg12_89_cif.got.tgz:176628.got - 2010.06.03 13:09:07.
