data_PCOD9169746
_publ_section_title
;
Structure prediction by ZEFSAII (Michael W. Deem and Ramdas Pophale) SiO2 
 PCOD9169746
Probable space group: C 2/M
;
_chemical_formula_sum "Si O2"
_cell_formula_units_Z 56
_cell_length_a 13.538265
_cell_length_b 14.045899
_cell_length_c 10.902579
_cell_angle_alpha 90.000000
_cell_angle_beta 95.653090
_cell_angle_gamma 90.000000
_cell_volume 2063.119924
_symmetry_space_group_name_H-M "C 2/M"
_symmetry_group_IT_number 12
_symmetry_cell_setting 'monoclinic'
loop_
_space_group_symop_operation_xyz
x,y,z
-x,y,-z
-x,-y,-z
x,-y,z
1/2+x,1/2+y,z
1/2-x,1/2+y,-z
1/2-x,1/2-y,-z
1/2+x,1/2-y,z
loop_
_atom_site_type_symbol
_atom_site_label
_atom_site_fract_x
_atom_site_fract_y
_atom_site_fract_z
Si Si1 0.119800 0.396404 0.999001
Si Si2 0.855953 0.892553 0.206778
Si Si3 0.641717 0.820043 0.738612
Si Si4 0.947165 0.390425 0.627051
Si Si5 0.585771 0.389656 0.311473
Si Si6 0.884093 0.187386 0.948488
Si Si7 0.749518 0.111288 0.509732
O O1 0.152273 0.500000 0.048002
O O2 0.153996 0.380397 0.863369
O O3 0.152474 0.296026 0.058892
O O4 0.000000 0.397794 0.000000
O O5 0.968029 0.890063 0.276453
O O6 0.822466 0.788681 0.250473
O O7 0.849273 0.878365 0.057849
O O8 0.820496 0.000000 0.232896
O O9 0.520745 0.823061 0.710690
O O10 0.692396 0.870590 0.630580
O O11 0.949907 0.500000 0.674839
O O12 0.834034 0.356378 0.598336
O O13 0.000000 0.393844 0.500000
O O14 0.613855 0.500000 0.317439
O O15 0.639614 0.351665 0.443017
O O16 0.627775 0.350308 0.189066
O O17 0.000000 0.193591 0.000000
O O18 0.755534 0.000000 0.483058
#
# Coordination Sequence:
#
# PCOD9169746 Si02
#       7
#     8   8   8   8   8   8   8
#     4   9  16  25  39  62  91 118 144 175 211 258
#     4   9  17  28  43  64  88 117 152 183 213 257
#     4  10  17  28  47  67  87 116 150 184 220 261
#     4   8  14  26  45  68  90 110 140 184 229 268
#     4   9  16  28  46  66  90 115 143 187 232 259
#     4   8  14  25  42  61  80 110 150 182 210 249
#     4   9  17  29  48  72  91 109 140 188 237 267
#
# _framework density 27.143356000000001
#
# number of rings (size 3 to 8) (size 9 to 14) (size 15 to 20)
#    0.000    3.143    0.000    3.429    0.000    1.714 
#    0.000    3.571    0.000    6.429    0.000    0.000 
#    0.000    0.000    0.000    0.000    0.000    0.000 
#
# Total GULP energy -156318.575481 kJ/mol
# GULP energy per Si atom -5582.806267 kJ/mol
# Density = 2.708158 g / cm^3
# Si number density = 27.143356 Si / 1000 Ang^3
#
#
#
# Elastic Constant Matrix: (Units=GPa)
#
#
# Indices 1 2 3 4 5 6 
#
# 1 111.1094 18.9287 59.4205 0.0000 29.8977 0.0000
# 2 18.9287 187.0167 27.0883 0.0000 -5.2923 0.0000
# 3 59.4205 27.0883 83.1164 0.0000 22.2093 0.0000
# 4 0.0000 0.0000 0.0000 12.2086 0.0000 1.1564
# 5 29.8977 -5.2923 22.2093 0.0000 65.6450 0.0000
# 6 0.0000 0.0000 0.0000 1.1564 0.0000 5.0270
#
#
#
# Elastic Compliance Matrix: (Units=1/GPa)
#
#
# Indices 1 2 3 4 5 6 
#
# 1 0.015314 -0.000219 -0.009904 0.000000 -0.003641 0.000000
# 2 -0.000219 0.005699 -0.002034 0.000000 0.001247 0.000000
# 3 -0.009904 -0.002034 0.020463 0.000000 -0.002577 0.000000
# 4 0.000000 0.000000 0.000000 0.083734 0.000000 -0.019262
# 5 -0.003641 0.001247 -0.002577 0.000000 0.017864 0.000000
# 6 0.000000 0.000000 0.000000 -0.019262 0.000000 0.203358
#
#
# Mechanical properties :
#
#
# Convention : Reuss Voigt Hill
#
# Bulk Modulus (GPa) = 58.26596 65.79082 62.02839
# Shear Modulus (GPa) = 13.28142 34.96311 24.12226
#
# Velocity S-wave (km/s) = 2.21443 3.59289 2.98434
# Velocity P-wave (km/s) = 5.29631 6.44226 5.89719
#
# Compressibility (1/GPa) = 0.01716268
#
# Stress axis : x y z
#
# Youngs Moduli (GPa) = 65.30164 175.46277 48.86885
#
# Poissons Ratio (x) = 0.03834 0.48397
# Poissons Ratio (y) = 0.01427 0.09942
# Poissons Ratio (z) = 0.64671 0.35698
#
# Static dielectric constant tensor:
#      x y z
#    x 2.220580 0.000000 0.080860 
#    y 0.000000 2.040610 0.000000 
#    z 0.080860 0.000000 2.117230 
# 
# From -- ./inp_files/224402.got.cif
#   From: 2010.05.17/outbox.cif.g08.bks.cpg/sg12_113_cif.got.tgz:224402.got - 2010.06.03 13:09:07.
