data_PCOD9169901
_publ_section_title
;
Structure prediction by ZEFSAII (Michael W. Deem and Ramdas Pophale) SiO2 
 PCOD9169901
Probable space group: C 2/M
;
_chemical_formula_sum "Si O2"
_cell_formula_units_Z 48
_cell_length_a 22.336268
_cell_length_b 10.978779
_cell_length_c 20.385992
_cell_angle_alpha 90.000000
_cell_angle_beta 26.906203
_cell_angle_gamma 90.000000
_cell_volume 2262.273375
_symmetry_space_group_name_H-M "C 2/M"
_symmetry_group_IT_number 12
_symmetry_cell_setting 'monoclinic'
loop_
_space_group_symop_operation_xyz
x,y,z
-x,y,-z
-x,-y,-z
x,-y,z
1/2+x,1/2+y,z
1/2-x,1/2+y,-z
1/2-x,1/2-y,-z
1/2+x,1/2-y,z
loop_
_atom_site_type_symbol
_atom_site_label
_atom_site_fract_x
_atom_site_fract_y
_atom_site_fract_z
Si Si1 0.985635 0.360332 0.935843
Si Si2 0.010099 0.858822 0.298179
Si Si3 0.531086 0.638292 0.803281
Si Si4 0.246409 0.780257 0.892096
Si Si5 0.375923 0.632586 0.570385
Si Si6 0.841241 0.628636 0.663454
O O1 0.018262 0.500000 0.886735
O O2 0.059616 0.252686 0.822877
O O3 0.833580 0.332836 0.062656
O O4 0.000000 0.344547 0.000000
O O5 0.928213 0.837912 0.311633
O O6 0.134435 0.768967 0.181145
O O7 0.929941 0.846880 0.444419
O O8 0.054194 0.000000 0.252943
O O9 0.569519 0.500000 0.785004
O O10 0.369544 0.644133 0.960196
O O11 0.305990 0.855547 0.773630
O O12 0.500000 0.626667 0.500000
O O13 0.309793 0.500000 0.638927
O O14 0.296547 0.749848 0.670849
O O15 0.786423 0.500000 0.692658
O O16 0.000000 0.624566 0.500000
#
# Coordination Sequence:
#
# PCOD9169901 Si02
#       6
#     8   8   8   8   8   8
#     4   9  20  36  52  71  96 128 168 207 244 289
#     4  10  17  29  46  71 102 132 162 194 239 300
#     4   9  20  32  47  72 100 128 161 199 243 297
#     4  10  18  30  49  69  99 137 157 195 241 293
#     4   9  16  27  43  62  92 130 163 189 224 281
#     4  10  18  29  43  65  99 131 161 195 233 285
#
# _framework density 21.217596
#
# number of rings (size 3 to 8) (size 9 to 14) (size 15 to 20)
#    1.000    1.500    3.333    1.500    0.000    1.000 
#    0.000    1.667    0.000    0.000    0.000    1.167 
#    0.000    0.000    0.000    0.000    0.000    0.000 
#
# Total GULP energy -133641.844972 kJ/mol
# GULP energy per Si atom -5568.410207 kJ/mol
# Density = 2.116930 g / cm^3
# Si number density = 21.217596 Si / 1000 Ang^3
#
#
#
# Elastic Constant Matrix: (Units=GPa)
#
#
# Indices 1 2 3 4 5 6 
#
# 1 72.0275 48.9545 20.3769 0.0000 18.5619 0.0000
# 2 48.9545 182.6498 19.2731 0.0000 29.3096 0.0000
# 3 20.3769 19.2731 62.4827 0.0000 28.6765 0.0000
# 4 0.0000 0.0000 0.0000 1.6855 0.0000 23.0967
# 5 18.5619 29.3096 28.6765 0.0000 35.8228 0.0000
# 6 0.0000 0.0000 0.0000 23.0967 0.0000 11.9930
#
#
#
# Elastic Compliance Matrix: (Units=1/GPa)
#
#
# Indices 1 2 3 4 5 6 
#
# 1 0.018457 -0.004007 -0.003001 0.000000 -0.003882 0.000000
# 2 -0.004007 0.007190 0.001321 0.000000 -0.004864 0.000000
# 3 -0.003001 0.001321 0.025858 0.000000 -0.020226 0.000000
# 4 0.000000 0.000000 0.000000 -0.023367 0.000000 0.045001
# 5 -0.003882 -0.004864 -0.020226 0.000000 0.050098 0.000000
# 6 0.000000 0.000000 0.000000 0.045001 0.000000 -0.003284
#
#
# Mechanical properties :
#
#
# Convention : Reuss Voigt Hill
#
# Bulk Modulus (GPa) = 24.91827 54.92988 39.92407
# Shear Modulus (GPa) = 50.14923 25.13731 37.64327
#
# Velocity S-wave (km/s) = 4.86693 3.44574 4.21664
# Velocity P-wave (km/s) = 6.58425 6.46342 6.52411
#
# Compressibility (1/GPa) = 0.04013120
#
# Stress axis : x y z
#
# Youngs Moduli (GPa) = 54.18098 139.08016 38.67238
#
# Poissons Ratio (x) = 0.55731 0.11607
# Poissons Ratio (y) = 0.21711 -0.05110
# Poissons Ratio (z) = 0.16261 -0.18379
#
# Static dielectric constant tensor:
#      x y z
#    x 1.771040 0.000000 0.007350 
#    y 0.000000 1.799450 0.000000 
#    z 0.007350 0.000000 1.764810 
# 
# From -- ./inp_files/288785.got.cif
#   From: 2010.05.17/outbox.cif.g08.bks.cpg/sg12_145_cif.got.tgz:288785.got - 2010.06.03 13:09:07.
