data_PCOD9169059
_publ_section_title
;
Structure prediction by ZEFSAII (Michael W. Deem and Ramdas Pophale) SiO2 
 PCOD9169059
Probable space group: C 2/M
;
_chemical_formula_sum "Si O2"
_cell_formula_units_Z 36
_cell_length_a 18.323251
_cell_length_b 15.914682
_cell_length_c 14.488117
_cell_angle_alpha 90.000000
_cell_angle_beta 24.325253
_cell_angle_gamma 90.000000
_cell_volume 1740.287981
_symmetry_space_group_name_H-M "C 2/M"
_symmetry_group_IT_number 12
_symmetry_cell_setting 'monoclinic'
loop_
_space_group_symop_operation_xyz
x,y,z
-x,y,-z
-x,-y,-z
x,-y,z
1/2+x,1/2+y,z
1/2-x,1/2+y,-z
1/2-x,1/2-y,-z
1/2+x,1/2-y,z
loop_
_atom_site_type_symbol
_atom_site_label
_atom_site_fract_x
_atom_site_fract_y
_atom_site_fract_z
Si Si1 0.812119 0.321691 0.271207
Si Si2 0.331448 0.000000 0.630330
Si Si3 0.061427 0.000000 0.109968
Si Si4 0.500000 0.362942 0.500000
Si Si5 0.211463 0.000000 0.138530
Si Si6 0.914696 0.500000 0.200840
Si Si7 0.139221 0.139592 0.753059
O O1 0.645750 0.315401 0.393224
O O2 0.816042 0.234989 0.322541
O O3 0.807814 0.412524 0.326183
O O4 0.000000 0.323898 0.000000
O O5 0.500000 0.000000 0.500000
O O6 0.302052 0.917272 0.602209
O O7 0.177278 0.000000 0.883941
O O8 0.948885 0.084719 0.225729
O O9 0.169352 0.000000 0.079388
O O10 0.617298 0.421236 0.297009
O O11 0.420055 0.000000 0.920239
O O12 0.000000 0.500000 0.000000
O O13 0.000000 0.143889 0.000000
#
# Coordination Sequence:
#
# PCOD9169059 Si02
#       7
#     8   4   4   4   4   4   8
#     4  10  18  33  56  82 109 140 195 224 272 334
#     4   9  17  33  59  85 104 139 192 224 275 346
#     4   9  19  38  56  79 115 149 173 235 292 318
#     4  11  20  32  58  83 104 156 190 225 272 331
#     4  11  20  35  56  81 111 147 196 228 274 334
#     4  10  16  33  51  73 113 146 186 221 267 322
#     4   8  17  34  58  77 108 145 176 228 287 333
#
# _framework density 20.686232
#
# number of rings (size 3 to 8) (size 9 to 14) (size 15 to 20)
#    0.000    2.444    4.444    2.000    1.556    0.000 
#    0.000    6.667    0.000    0.000    0.000    0.000 
#    0.000    0.000    0.000    0.000    0.000    0.000 
#
# Total GULP energy -100366.948429 kJ/mol
# GULP energy per Si atom -5575.941579 kJ/mol
# Density = 2.063915 g / cm^3
# Si number density = 20.686232 Si / 1000 Ang^3
#
#
#
# Elastic Constant Matrix: (Units=GPa)
#
#
# Indices 1 2 3 4 5 6 
#
# 1 117.3737 51.0982 25.9966 0.0005 -30.9091 0.0004
# 2 51.0982 194.9976 25.8793 0.0015 -21.6001 -0.0008
# 3 25.9966 25.8793 67.6269 -0.0018 -21.0007 -0.0016
# 4 0.0005 0.0015 -0.0018 -8.7318 -0.0014 -13.0364
# 5 -30.9091 -21.6001 -21.0007 -0.0014 50.9187 0.0004
# 6 0.0004 -0.0008 -0.0016 -13.0364 0.0004 -19.6237
#
#
#
# Elastic Compliance Matrix: (Units=1/GPa)
#
#
# Indices 1 2 3 4 5 6 
#
# 1 0.011213 -0.002118 -0.001910 -0.000121 0.005121 0.000081
# 2 -0.002118 0.005926 -0.001230 0.000156 0.000721 -0.000104
# 3 -0.001910 -0.001230 0.017742 -0.000352 0.005636 0.000233
# 4 -0.000121 0.000156 -0.000352-13.986798 -0.000608 9.291681
# 5 0.005121 0.000721 0.005636 -0.000608 0.025378 0.000404
# 6 0.000081 -0.000104 0.000233 9.291681 0.000404 -6.223589
#
#
# Mechanical properties :
#
#
# Convention : Reuss Voigt Hill
#
# Bulk Modulus (GPa) = 41.03947 65.10516 53.07232
# Shear Modulus (GPa) = -0.24837 22.98092 11.36628
#
# Velocity S-wave (km/s) = -0.34688 3.33667 2.34660
# Velocity P-wave (km/s) = 4.44091 6.81069 5.74923
#
# Compressibility (1/GPa) = 0.02436679
#
# Stress axis : x y z
#
# Youngs Moduli (GPa) = 89.18054 168.73922 56.36298
#
# Poissons Ratio (x) = 0.35733 0.10765
# Poissons Ratio (y) = 0.18885 0.06932
# Poissons Ratio (z) = 0.17033 0.20752
#
# Static dielectric constant tensor:
#      x y z
#    x 1.711450 0.000000 -0.003370 
#    y 0.000000 1.760250 0.000000 
#    z -0.003370 0.000000 1.767610 
# 
# From -- ./inp_files/74796.got.cif
#   From: 2010.05.17/outbox.cif.g08.bks.cpg/sg12_38_cif.got.tgz:74796.got - 2010.06.03 13:09:07.
