data_PCOD9169055
_publ_section_title
;
Structure prediction by ZEFSAII (Michael W. Deem and Ramdas Pophale) SiO2 
 PCOD9169055
Probable space group: C 2/M
;
_chemical_formula_sum "Si O2"
_cell_formula_units_Z 40
_cell_length_a 10.290676
_cell_length_b 27.133878
_cell_length_c 14.915550
_cell_angle_alpha 90.000000
_cell_angle_beta 28.023976
_cell_angle_gamma 90.000000
_cell_volume 1956.797826
_symmetry_space_group_name_H-M "C 2/M"
_symmetry_group_IT_number 12
_symmetry_cell_setting 'monoclinic'
loop_
_space_group_symop_operation_xyz
x,y,z
-x,y,-z
-x,-y,-z
x,-y,z
1/2+x,1/2+y,z
1/2-x,1/2+y,-z
1/2-x,1/2-y,-z
1/2+x,1/2-y,z
loop_
_atom_site_type_symbol
_atom_site_label
_atom_site_fract_x
_atom_site_fract_y
_atom_site_fract_z
Si Si1 0.069191 0.799161 0.851962
Si Si2 0.601959 0.000000 0.039807
Si Si3 0.811991 0.592327 0.309132
Si Si4 0.204928 0.603999 0.234512
Si Si5 0.973591 0.308903 0.122529
Si Si6 0.646898 0.500000 0.810056
O O1 0.270595 0.846035 0.722846
O O2 0.157152 0.743991 0.770735
O O3 0.000000 0.794453 0.000000
O O4 0.782027 0.810302 0.976539
O O5 0.490797 0.049418 0.154822
O O6 0.500000 0.000000 0.000000
O O7 0.925689 0.000000 0.864964
O O8 0.500000 0.573874 0.500000
O O9 0.816621 0.643221 0.251912
O O10 0.954404 0.604720 0.317111
O O11 0.193266 0.551537 0.290406
O O12 0.500000 0.603562 0.000000
O O13 0.000000 0.311493 0.000000
O O14 0.500000 0.500000 0.000000
#
# Coordination Sequence:
#
# PCOD9169055 Si02
#       6
#     8   4   8   8   8   4
#     4   9  16  31  58  80 105 149 209 238 269 333
#     4  12  23  38  62  94 117 148 197 248 282 336
#     4  12  23  37  57  90 124 154 184 240 308 354
#     4  10  16  33  59  82 106 153 210 225 259 358
#     4  10  19  32  56  87 109 145 199 250 282 327
#     4  10  16  32  63  89  99 147 207 229 265 341
#
# _framework density 20.441559999999999
#
# number of rings (size 3 to 8) (size 9 to 14) (size 15 to 20)
#    0.000    1.600    8.000    0.900    0.000    0.000 
#    0.000    1.000    0.000    4.800    0.000    0.000 
#    0.000    0.000    0.000    0.000    0.000    0.000 
#
# Total GULP energy -111549.663020 kJ/mol
# GULP energy per Si atom -5577.483151 kJ/mol
# Density = 2.039503 g / cm^3
# Si number density = 20.441560 Si / 1000 Ang^3
#
#
#
# Elastic Constant Matrix: (Units=GPa)
#
#
# Indices 1 2 3 4 5 6 
#
# 1 138.8414 22.6358 16.0798 0.0000 -28.6269 0.0000
# 2 22.6358 188.3962 2.2357 0.0001 0.6575 -0.0001
# 3 16.0798 2.2357 23.3605 -0.0002 -10.7828 -0.0001
# 4 0.0000 0.0001 -0.0002 -20.4703 0.0001 -4.2342
# 5 -28.6269 0.6575 -10.7828 0.0001 19.9718 -0.0001
# 6 0.0000 -0.0001 -0.0001 -4.2342 -0.0001 18.4785
#
#
#
# Elastic Compliance Matrix: (Units=1/GPa)
#
#
# Indices 1 2 3 4 5 6 
#
# 1 0.010543 -0.001317 -0.000181 0.000000 0.015058 0.000000
# 2 -0.001317 0.005484 -0.000763 0.000000 -0.002481 0.000000
# 3 -0.000181 -0.000763 0.057136 0.000000 0.030614 0.000000
# 4 0.000000 0.000000 0.000000 -0.046641 0.000000 -0.010687
# 5 0.015058 -0.002481 0.030614 0.000000 0.088264 0.000000
# 6 0.000000 0.000000 0.000000 -0.010687 0.000000 0.051668
#
#
# Mechanical properties :
#
#
# Convention : Reuss Voigt Hill
#
# Bulk Modulus (GPa) = 14.56865 48.05564 31.31215
# Shear Modulus (GPa) = 25.79241 24.23910 25.01576
#
# Velocity S-wave (km/s) = 3.55598 3.44725 3.50204
# Velocity P-wave (km/s) = 4.89923 6.27730 5.63058
#
# Compressibility (1/GPa) = 0.06864052
#
# Stress axis : x y z
#
# Youngs Moduli (GPa) = 94.85201 182.35095 17.50223
#
# Poissons Ratio (x) = 0.24018 0.00316
# Poissons Ratio (y) = 0.12493 0.01336
# Poissons Ratio (z) = 0.01712 0.13917
#
# Static dielectric constant tensor:
#      x y z
#    x 1.708540 0.000000 0.004520 
#    y 0.000000 1.788910 0.000000 
#    z 0.004520 0.000000 1.790430 
# 
# From -- ./inp_files/201133.got.cif
#   From: 2010.05.17/outbox.cif.g08.bks.cpg/sg12_101_cif.got.tgz:201133.got - 2010.06.03 13:09:07.
