data_PCOD9169182
_publ_section_title
;
Structure prediction by ZEFSAII (Michael W. Deem and Ramdas Pophale) SiO2 
 PCOD9169182
Probable space group: C 2/M
;
_chemical_formula_sum "Si O2"
_cell_formula_units_Z 56
_cell_length_a 29.460220
_cell_length_b 8.764424
_cell_length_c 14.635117
_cell_angle_alpha 90.000000
_cell_angle_beta 77.912356
_cell_angle_gamma 90.000000
_cell_volume 3695.032129
_symmetry_space_group_name_H-M "C 2/M"
_symmetry_group_IT_number 12
_symmetry_cell_setting 'monoclinic'
loop_
_space_group_symop_operation_xyz
x,y,z
-x,y,-z
-x,-y,-z
x,-y,z
1/2+x,1/2+y,z
1/2-x,1/2+y,-z
1/2-x,1/2-y,-z
1/2+x,1/2-y,z
loop_
_atom_site_type_symbol
_atom_site_label
_atom_site_fract_x
_atom_site_fract_y
_atom_site_fract_z
Si Si1 0.637652 0.184217 0.037751
Si Si2 0.455910 0.824011 0.449358
Si Si3 0.469282 0.815825 0.926533
Si Si4 0.178664 0.183019 0.209116
Si Si5 0.600828 0.816664 0.359059
Si Si6 0.229516 0.683418 0.914785
Si Si7 0.983683 0.819430 0.723819
O O1 0.584888 0.226226 0.038584
O O2 0.654223 0.260952 0.125303
O O3 0.639351 0.000000 0.050041
O O4 0.675214 0.225195 0.943254
O O5 0.500000 0.823017 0.500000
O O6 0.413993 0.770385 0.531912
O O7 0.472057 0.727405 0.356205
O O8 0.448394 0.000000 0.425003
O O9 0.486399 0.745014 0.824521
O O10 0.471690 0.000000 0.918061
O O11 0.500000 0.768567 0.000000
O O12 0.149897 0.256548 0.303260
O O13 0.233013 0.229533 0.177571
O O14 0.175429 0.000000 0.215597
O O15 0.561416 0.753503 0.306801
O O16 0.599017 0.000000 0.355999
O O17 0.231682 0.500000 0.917575
O O18 0.250000 0.750000 0.000000
O O19 0.978029 0.000000 0.727055
#
# Coordination Sequence:
#
# PCOD9169182 Si02
#       7
#     8   8   8   8   8   8   8
#     4   9  16  28  43  55  77 112 143 173 209 247
#     4   8  16  29  43  58  79 109 141 169 200 248
#     4  10  20  32  46  62  81 111 150 183 209 244
#     4  10  17  24  38  61  86 109 137 171 206 246
#     4  10  18  28  42  60  84 114 143 168 201 250
#     4   8  15  25  37  56  79 106 138 168 202 247
#     4  11  20  29  43  61  83 109 138 177 217 249
#
# _framework density 15.155483
#
# number of rings (size 3 to 8) (size 9 to 14) (size 15 to 20)
#    0.000    2.571    1.429    3.000    0.000    4.000 
#    0.000    0.000    0.000    0.000    0.000    0.000 
#    0.000    1.143    0.000    2.286    0.000    3.000 
#
# Total GULP energy -155875.011411 kJ/mol
# GULP energy per Si atom -5566.964693 kJ/mol
# Density = 1.512099 g / cm^3
# Si number density = 15.155483 Si / 1000 Ang^3
#
#
#
# Elastic Constant Matrix: (Units=GPa)
#
#
# Indices 1 2 3 4 5 6 
#
# 1 72.4281 25.5897 62.9460 0.0000 -27.6434 0.0000
# 2 25.5897 33.1018 34.4532 0.0000 -8.9974 0.0000
# 3 62.9460 34.4532 106.2048 0.0000 -34.1623 0.0000
# 4 0.0000 0.0000 0.0000 -11.2384 0.0000 -7.6922
# 5 -27.6434 -8.9974 -34.1623 0.0000 33.1837 0.0000
# 6 0.0000 0.0000 0.0000 -7.6922 0.0000 13.6077
#
#
#
# Elastic Compliance Matrix: (Units=1/GPa)
#
#
# Indices 1 2 3 4 5 6 
#
# 1 0.032182 -0.008686 -0.012544 0.000000 0.011540 0.000000
# 2 -0.008686 0.048365 -0.012934 0.000000 -0.007438 0.000000
# 3 -0.012544 -0.012934 0.024754 0.000000 0.011528 0.000000
# 4 0.000000 0.000000 0.000000 -0.064157 0.000000 -0.036267
# 5 0.011540 -0.007438 0.011528 0.000000 0.049599 0.000000
# 6 0.000000 0.000000 0.000000 -0.036267 0.000000 0.052987
#
#
# Mechanical properties :
#
#
# Convention : Reuss Voigt Hill
#
# Bulk Modulus (GPa) = 27.04661 50.85691 38.95176
# Shear Modulus (GPa) = 22.28341 13.02700 17.65520
#
# Velocity S-wave (km/s) = 3.83864 2.93500 3.41682
# Velocity P-wave (km/s) = 6.12631 6.71679 6.42833
#
# Compressibility (1/GPa) = 0.03697322
#
# Stress axis : x y z
#
# Youngs Moduli (GPa) = 31.07366 20.67604 40.39673
#
# Poissons Ratio (x) = 0.17958 0.50674
# Poissons Ratio (y) = 0.26989 0.52251
# Poissons Ratio (z) = 0.38979 0.26743
#
# Static dielectric constant tensor:
#      x y z
#    x 1.518000 0.000000 -0.059520 
#    y 0.000000 1.504860 0.000000 
#    z -0.059520 0.000000 1.508240 
# 
# From -- ./inp_files/247778.got.cif
#   From: 2010.05.17/outbox.cif.g08.bks.cpg/sg12_124_cif.got.tgz:247778.got - 2010.06.03 13:09:07.
