data_PCOD9169356
_publ_section_title
;
Structure prediction by ZEFSAII (Michael W. Deem and Ramdas Pophale) SiO2 
 PCOD9169356
Probable space group: C 2/M
;
_chemical_formula_sum "Si O2"
_cell_formula_units_Z 56
_cell_length_a 33.013700
_cell_length_b 8.820325
_cell_length_c 16.684583
_cell_angle_alpha 90.000000
_cell_angle_beta 49.790970
_cell_angle_gamma 90.000000
_cell_volume 3710.339844
_symmetry_space_group_name_H-M "C 2/M"
_symmetry_group_IT_number 12
_symmetry_cell_setting 'monoclinic'
loop_
_space_group_symop_operation_xyz
x,y,z
-x,y,-z
-x,-y,-z
x,-y,z
1/2+x,1/2+y,z
1/2-x,1/2+y,-z
1/2-x,1/2-y,-z
1/2+x,1/2-y,z
loop_
_atom_site_type_symbol
_atom_site_label
_atom_site_fract_x
_atom_site_fract_y
_atom_site_fract_z
Si Si1 0.986878 0.683893 0.889921
Si Si2 0.556355 0.674933 0.380745
Si Si3 0.307678 0.819024 0.521537
Si Si4 0.604153 0.682424 0.481015
Si Si5 0.997949 0.681428 0.693951
Si Si6 0.315498 0.680855 0.337929
Si Si7 0.086287 0.683324 0.873085
O O1 0.986053 0.500000 0.890740
O O2 0.985140 0.734219 0.800427
O O3 0.041904 0.726183 0.863294
O O4 0.938880 0.730619 0.009539
O O5 0.500000 0.676979 0.500000
O O6 0.567425 0.500000 0.345599
O O7 0.597385 0.728648 0.396261
O O8 0.546489 0.769980 0.313592
O O9 0.343409 0.743030 0.543647
O O10 0.324947 0.757459 0.412344
O O11 0.245128 0.783587 0.609164
O O12 0.314555 0.000000 0.514649
O O13 0.601849 0.500000 0.486208
O O14 0.553432 0.747098 0.593785
O O15 0.003475 0.500000 0.686717
O O16 0.319948 0.500000 0.340715
O O17 0.358469 0.742677 0.221041
O O18 0.091141 0.500000 0.865927
#
# Coordination Sequence:
#
# PCOD9169356 Si02
#       7
#     8   8   8   8   8   8   8
#     4   8  16  28  43  65  88 114 148 180 210 249
#     4   8  16  29  41  58  87 118 144 175 218 261
#     4  10  20  32  46  64  87 116 147 176 212 259
#     4  10  19  30  44  63  89 117 146 181 218 257
#     4  10  17  26  43  66  91 118 149 180 212 255
#     4  10  20  32  45  65  91 114 142 180 216 252
#     4   9  16  30  48  62  85 119 149 177 211 251
#
# _framework density 15.092957
#
# number of rings (size 3 to 8) (size 9 to 14) (size 15 to 20)
#    0.000    2.714    0.000    4.286    0.000    6.000 
#    0.000    3.571    0.000    0.000    0.000    1.000 
#    0.000    0.000    0.000    0.000    0.000    0.000 
#
# Total GULP energy -156024.543311 kJ/mol
# GULP energy per Si atom -5572.305118 kJ/mol
# Density = 1.505860 g / cm^3
# Si number density = 15.092957 Si / 1000 Ang^3
#
#
#
# Elastic Constant Matrix: (Units=GPa)
#
#
# Indices 1 2 3 4 5 6 
#
# 1 104.6468 34.2692 46.8701 0.0000 18.8069 -0.0001
# 2 34.2692 36.7779 28.2125 0.0001 5.0001 -0.0003
# 3 46.8701 28.2125 92.9618 0.0000 11.7201 0.0000
# 4 0.0000 0.0001 0.0000 16.2103 0.0000 -1.1355
# 5 18.8069 5.0001 11.7201 0.0000 23.9479 0.0000
# 6 -0.0001 -0.0003 0.0000 -1.1355 0.0000 25.4073
#
#
#
# Elastic Compliance Matrix: (Units=1/GPa)
#
#
# Indices 1 2 3 4 5 6 
#
# 1 0.016534 -0.011298 -0.003803 0.000000 -0.008765 0.000000
# 2 -0.011298 0.043278 -0.007905 0.000000 0.003705 0.000000
# 3 -0.003803 -0.007905 0.015442 0.000000 -0.002920 0.000000
# 4 0.000000 0.000000 0.000000 0.061883 0.000000 0.002766
# 5 -0.008765 0.003705 -0.002920 0.000000 0.049296 0.000000
# 6 0.000000 0.000000 0.000000 0.002766 0.000000 0.039482
#
#
# Mechanical properties :
#
#
# Convention : Reuss Voigt Hill
#
# Bulk Modulus (GPa) = 34.19674 50.34336 42.27005
# Shear Modulus (GPa) = 17.75111 21.44874 19.59992
#
# Velocity S-wave (km/s) = 3.43318 3.77385 3.60754
# Velocity P-wave (km/s) = 6.19857 7.23997 6.73942
#
# Compressibility (1/GPa) = 0.02924255
#
# Stress axis : x y z
#
# Youngs Moduli (GPa) = 60.48177 23.10667 64.76033
#
# Poissons Ratio (x) = 0.26105 0.24625
# Poissons Ratio (y) = 0.68330 0.51194
# Poissons Ratio (z) = 0.22998 0.18266
#
# Static dielectric constant tensor:
#      x y z
#    x 1.510560 0.000000 0.011060 
#    y 0.000000 1.507260 0.000000 
#    z 0.011060 0.000000 1.487070 
# 
# From -- ./inp_files/248580.got.cif
#   From: 2010.05.17/outbox.cif.g08.bks.cpg/sg12_125_cif.got.tgz:248580.got - 2010.06.03 13:09:07.
