data_PCOD9169691
_publ_section_title
;
Structure prediction by ZEFSAII (Michael W. Deem and Ramdas Pophale) SiO2 
 PCOD9169691
Probable space group: C 2/M
;
_chemical_formula_sum "Si O2"
_cell_formula_units_Z 60
_cell_length_a 12.884546
_cell_length_b 23.217917
_cell_length_c 16.823146
_cell_angle_alpha 90.000000
_cell_angle_beta 136.261577
_cell_angle_gamma 90.000000
_cell_volume 3479.431469
_symmetry_space_group_name_H-M "C 2/M"
_symmetry_group_IT_number 12
_symmetry_cell_setting 'monoclinic'
loop_
_space_group_symop_operation_xyz
x,y,z
-x,y,-z
-x,-y,-z
x,-y,z
1/2+x,1/2+y,z
1/2-x,1/2+y,-z
1/2-x,1/2-y,-z
1/2+x,1/2-y,z
loop_
_atom_site_type_symbol
_atom_site_label
_atom_site_fract_x
_atom_site_fract_y
_atom_site_fract_z
Si Si1 0.230041 0.655716 0.488180
Si Si2 0.055418 0.762705 0.312564
Si Si3 0.265547 0.272883 0.741869
Si Si4 0.309310 0.859749 0.807996
Si Si5 0.154638 0.664062 0.998007
Si Si6 0.000000 0.670925 0.500000
Si Si7 0.772094 0.212451 0.911233
Si Si8 0.679656 0.566885 0.596003
O O1 0.146893 0.707054 0.394165
O O2 0.390370 0.684577 0.601721
O O3 0.256947 0.603348 0.443340
O O4 0.122079 0.642682 0.505559
O O5 0.116612 0.782166 0.261833
O O6 0.889052 0.740709 0.202854
O O7 0.262046 0.204550 0.756006
O O8 0.106126 0.292333 0.617601
O O9 0.320094 0.306749 0.850521
O O10 0.489524 0.861418 0.896824
O O11 0.238448 0.905613 0.710422
O O12 0.276252 0.863808 0.884210
O O13 0.246843 0.666952 0.967159
O O14 0.135079 0.732440 0.007294
O O15 0.500000 0.571374 0.500000
O O16 0.721690 0.500000 0.612564
#
# Coordination Sequence:
#
# PCOD9169691 Si02
#       8
#     8   8   8   8   8   4   8   8
#     4  10  20  32  52  78 115 139 180 223 277 337
#     4  10  18  28  48  82 109 149 171 211 276 331
#     4  10  18  26  47  74 113 139 171 207 256 330
#     4  10  19  33  52  70 106 144 176 218 268 318
#     4   9  19  30  45  74 101 146 179 208 257 321
#     4  10  20  30  47  88 109 138 176 212 266 346
#     4  10  17  28  44  69 111 146 179 204 252 325
#     4  11  25  40  58  81 104 140 190 239 281 326
#
# _framework density 17.244195999999999
#
# number of rings (size 3 to 8) (size 9 to 14) (size 15 to 20)
#    0.000    2.000    4.000    0.000    4.667    0.000 
#    0.000    1.667    0.000    0.000    0.000    0.000 
#    0.000    0.000    0.000    9.867    0.000    0.000 
#
# Total GULP energy -167077.416641 kJ/mol
# GULP energy per Si atom -5569.247221 kJ/mol
# Density = 1.720495 g / cm^3
# Si number density = 17.244196 Si / 1000 Ang^3
#
#
#
# Elastic Constant Matrix: (Units=GPa)
#
#
# Indices 1 2 3 4 5 6 
#
# 1 73.7794 31.4762 21.7376 0.0000 -33.4198 0.0000
# 2 31.4762 77.1972 42.3851 0.0000 -16.7697 0.0000
# 3 21.7376 42.3851 91.7806 0.0000 -20.0907 0.0000
# 4 0.0000 0.0000 0.0000 11.4083 0.0000 -1.3388
# 5 -33.4198 -16.7697 -20.0907 0.0000 36.5083 0.0000
# 6 0.0000 0.0000 0.0000 -1.3388 0.0000 12.1141
#
#
#
# Elastic Compliance Matrix: (Units=1/GPa)
#
#
# Indices 1 2 3 4 5 6 
#
# 1 0.025540 -0.006742 0.001711 0.000000 0.021224 0.000000
# 2 -0.006742 0.019677 -0.007803 0.000000 -0.001427 0.000000
# 3 0.001711 -0.007803 0.015522 0.000000 0.006524 0.000000
# 4 0.000000 0.000000 0.000000 0.088807 0.000000 0.009814
# 5 0.021224 -0.001427 0.006524 0.000000 0.049754 0.000000
# 6 0.000000 0.000000 0.000000 0.009814 0.000000 0.083633
#
#
# Mechanical properties :
#
#
# Convention : Reuss Voigt Hill
#
# Bulk Modulus (GPa) = 28.51440 48.21722 38.36581
# Shear Modulus (GPa) = 15.61078 21.81669 18.71374
#
# Velocity S-wave (km/s) = 3.01205 3.56077 3.29784
# Velocity P-wave (km/s) = 5.35426 6.70280 6.06612
#
# Compressibility (1/GPa) = 0.03507000
#
# Stress axis : x y z
#
# Youngs Moduli (GPa) = 39.15405 50.82108 64.42597
#
# Poissons Ratio (x) = 0.34266 -0.11021
# Poissons Ratio (y) = 0.26399 0.50269
# Poissons Ratio (z) = -0.06698 0.39653
#
# Static dielectric constant tensor:
#      x y z
#    x 1.726470 0.000000 -0.003240 
#    y 0.000000 1.520730 0.000000 
#    z -0.003240 0.000000 1.638570 
# 
# From -- ./inp_files/272090.got.cif
#   From: 2010.05.17/outbox.cif.g08.bks.cpg/sg12_137_cif.got.tgz:272090.got - 2010.06.03 13:09:07.
