data_PCOD9169417
_publ_section_title
;
Structure prediction by ZEFSAII (Michael W. Deem and Ramdas Pophale) SiO2 
 PCOD9169417
Probable space group: C 2/M
;
_chemical_formula_sum "Si O2"
_cell_formula_units_Z 64
_cell_length_a 19.712759
_cell_length_b 7.553677
_cell_length_c 21.790905
_cell_angle_alpha 90.000000
_cell_angle_beta 90.004445
_cell_angle_gamma 90.000000
_cell_volume 3244.748861
_symmetry_space_group_name_H-M "C 2/M"
_symmetry_group_IT_number 12
_symmetry_cell_setting 'monoclinic'
loop_
_space_group_symop_operation_xyz
x,y,z
-x,y,-z
-x,-y,-z
x,-y,z
1/2+x,1/2+y,z
1/2-x,1/2+y,-z
1/2-x,1/2-y,-z
1/2+x,1/2-y,z
loop_
_atom_site_type_symbol
_atom_site_label
_atom_site_fract_x
_atom_site_fract_y
_atom_site_fract_z
Si Si1 0.586082 0.788818 0.624735
Si Si2 0.329435 0.212984 0.491903
Si Si3 0.623221 0.289681 0.098238
Si Si4 0.544148 0.204763 0.436849
Si Si5 0.377372 0.713099 0.236601
Si Si6 0.238188 0.787180 0.852453
Si Si7 0.025083 0.215840 0.870692
Si Si8 0.143734 0.784538 0.961717
O O1 0.639106 0.723366 0.573080
O O2 0.509935 0.716800 0.611313
O O3 0.611234 0.760829 0.693316
O O4 0.580962 0.000000 0.615205
O O5 0.250000 0.250000 0.500000
O O6 0.382297 0.280144 0.544308
O O7 0.335661 0.000000 0.492576
O O8 0.614467 0.500000 0.090290
O O9 0.683701 0.261815 0.145696
O O10 0.550852 0.219059 0.119811
O O11 0.644690 0.218722 0.031204
O O12 0.500000 0.205278 0.500000
O O13 0.556372 0.000000 0.418982
O O14 0.376926 0.500000 0.233861
O O15 0.307641 0.775004 0.204391
O O16 0.437623 0.774851 0.191423
O O17 0.202731 0.722735 0.915689
O O18 0.234165 0.000000 0.853101
O O19 0.073441 0.262283 0.927866
O O20 0.024056 0.000000 0.868758
O O21 0.147621 0.000000 0.962833
#
# Coordination Sequence:
#
# PCOD9169417 Si02
#       8
#     8   8   8   8   8   8   8   8
#     4   9  17  31  52  72  89 117 157 193 219 252
#     4   9  17  30  49  74 102 125 146 179 223 266
#     4  10  17  26  46  71  88 108 145 192 236 274
#     4   7  12  26  47  68  90 117 146 175 212 256
#     4   9  18  33  49  63  85 122 159 186 220 267
#     4   9  18  31  44  61  91 124 149 180 226 278
#     4   8  15  28  45  65  88 113 146 189 230 268
#     4   8  14  26  45  66  86 113 149 185 225 277
#
# _framework density 19.724177000000001
#
# number of rings (size 3 to 8) (size 9 to 14) (size 15 to 20)
#    0.000    3.375    0.000    3.750    0.000    2.500 
#    0.000    2.500    0.000   11.250    0.000    0.000 
#    0.000    0.000    0.000    0.000    0.000    0.000 
#
# Total GULP energy -178262.742357 kJ/mol
# GULP energy per Si atom -5570.710699 kJ/mol
# Density = 1.967928 g / cm^3
# Si number density = 19.724177 Si / 1000 Ang^3
#
#
#
# Elastic Constant Matrix: (Units=GPa)
#
#
# Indices 1 2 3 4 5 6 
#
# 1 158.0413 -0.2097 62.3139 0.0000 32.0887 0.0000
# 2 -0.2097 44.1281 -0.9402 0.0000 -2.0397 0.0000
# 3 62.3139 -0.9402 117.1179 0.0000 21.4410 0.0000
# 4 0.0000 0.0000 0.0000 19.9632 0.0000 -5.4356
# 5 32.0887 -2.0397 21.4410 0.0000 12.5227 0.0000
# 6 0.0000 0.0000 0.0000 -5.4356 0.0000 30.5320
#
#
#
# Elastic Compliance Matrix: (Units=1/GPa)
#
#
# Indices 1 2 3 4 5 6 
#
# 1 0.013402 -0.001466 -0.001182 0.000000 -0.032556 0.000000
# 2 -0.001466 0.023036 -0.000597 0.000000 0.008531 0.000000
# 3 -0.001182 -0.000597 0.012564 0.000000 -0.018579 0.000000
# 4 0.000000 0.000000 0.000000 0.052644 0.000000 0.009372
# 5 -0.032556 0.008531 -0.018579 0.000000 0.196477 0.000000
# 6 0.000000 0.000000 0.000000 0.009372 0.000000 0.034421
#
#
# Mechanical properties :
#
#
# Convention : Reuss Voigt Hill
#
# Bulk Modulus (GPa) = 23.52322 49.06838 36.29580
# Shear Modulus (GPa) = 14.15609 29.81181 21.98395
#
# Velocity S-wave (km/s) = 2.68190 3.89194 3.34214
# Velocity P-wave (km/s) = 4.64135 6.71770 5.77363
#
# Compressibility (1/GPa) = 0.04251119
#
# Stress axis : x y z
#
# Youngs Moduli (GPa) = 74.61701 43.41042 79.59227
#
# Poissons Ratio (x) = 0.06365 0.09410
# Poissons Ratio (y) = 0.10941 0.04749
# Poissons Ratio (z) = 0.08822 0.02590
#
# Static dielectric constant tensor:
#      x y z
#    x 1.710840 0.000000 0.022090 
#    y 0.000000 1.771110 0.000000 
#    z 0.022090 0.000000 1.681030 
# 
# From -- ./inp_files/315102.got.cif
#   From: 2010.05.17/outbox.cif.g08.bks.cpg/sg12_158_cif.got.tgz:315102.got - 2010.06.03 13:09:07.
