data_PCOD9169994
_publ_section_title
;
Structure prediction by ZEFSAII (Michael W. Deem and Ramdas Pophale) SiO2 
 PCOD9169994
Probable space group: C 2/M
;
_chemical_formula_sum "Si O2"
_cell_formula_units_Z 64
_cell_length_a 30.454271
_cell_length_b 13.774711
_cell_length_c 9.656871
_cell_angle_alpha 90.000000
_cell_angle_beta 86.967471
_cell_angle_gamma 90.000000
_cell_volume 4045.372782
_symmetry_space_group_name_H-M "C 2/M"
_symmetry_group_IT_number 12
_symmetry_cell_setting 'monoclinic'
loop_
_space_group_symop_operation_xyz
x,y,z
-x,y,-z
-x,-y,-z
x,-y,z
1/2+x,1/2+y,z
1/2-x,1/2+y,-z
1/2-x,1/2-y,-z
1/2+x,1/2-y,z
loop_
_atom_site_type_symbol
_atom_site_label
_atom_site_fract_x
_atom_site_fract_y
_atom_site_fract_z
Si Si1 0.804306 0.386479 0.622582
Si Si2 0.428487 0.387423 0.698821
Si Si3 0.646371 0.609257 0.065014
Si Si4 0.113427 0.114588 0.761493
Si Si5 0.642375 0.708123 0.482066
Si Si6 0.512268 0.382434 0.843026
Si Si7 0.224152 0.244515 0.147093
Si Si8 0.265375 0.612627 0.611623
O O1 0.815167 0.500000 0.627882
O O2 0.843322 0.316763 0.561717
O O3 0.787665 0.344114 0.772233
O O4 0.765100 0.373005 0.517288
O O5 0.431366 0.500000 0.650756
O O6 0.399368 0.387093 0.844122
O O7 0.400653 0.326906 0.593474
O O8 0.476420 0.350641 0.735481
O O9 0.664351 0.500000 0.082926
O O10 0.679241 0.687559 0.120658
O O11 0.637509 0.623401 0.904696
O O12 0.133875 0.183951 0.643089
O O13 0.062193 0.138954 0.794317
O O14 0.116437 0.000000 0.718627
O O15 0.684689 0.643772 0.430445
O O16 0.508513 0.500000 0.847587
O O17 0.500000 0.347799 0.000000
O O18 0.249020 0.180004 0.258505
O O19 0.250000 0.250000 0.000000
O O20 0.263794 0.500000 0.649563
#
# Coordination Sequence:
#
# PCOD9169994 Si02
#       8
#     8   8   8   8   8   8   8   8
#     4  10  23  39  53  69  98 138 174 213 258 297
#     4  10  17  29  50  72 101 136 165 196 243 302
#     4  10  19  31  49  74 102 136 166 194 242 300
#     4  10  20  30  48  77 107 136 165 198 242 303
#     4  11  20  33  51  73  98 128 173 211 240 288
#     4   9  16  28  44  70 108 140 160 189 243 305
#     4  11  22  33  52  77 104 127 167 216 252 296
#     4  10  20  36  53  70  98 135 168 203 254 302
#
# _framework density 15.820544
#
# number of rings (size 3 to 8) (size 9 to 14) (size 15 to 20)
#    0.000    1.875    3.750    3.000    3.500    1.500 
#    0.000    1.875    0.000    0.000    0.000    1.750 
#    0.000    2.000    0.000    0.000    0.000    0.000 
#
# Total GULP energy -178469.896430 kJ/mol
# GULP energy per Si atom -5577.184263 kJ/mol
# Density = 1.578454 g / cm^3
# Si number density = 15.820544 Si / 1000 Ang^3
#
#
#
# Elastic Constant Matrix: (Units=GPa)
#
#
# Indices 1 2 3 4 5 6 
#
# 1 48.7845 21.9539 15.5129 0.0000 13.6230 0.0000
# 2 21.9539 85.1701 32.8520 0.0000 4.0903 0.0000
# 3 15.5129 32.8520 81.5457 0.0000 0.0890 0.0000
# 4 0.0000 0.0000 0.0000 17.6936 0.0000 4.3263
# 5 13.6230 4.0903 0.0890 0.0000 27.5144 0.0000
# 6 0.0000 0.0000 0.0000 4.3263 0.0000 9.4242
#
#
#
# Elastic Compliance Matrix: (Units=1/GPa)
#
#
# Indices 1 2 3 4 5 6 
#
# 1 0.027417 -0.005265 -0.003081 0.000000 -0.012782 0.000000
# 2 -0.005265 0.015029 -0.005053 0.000000 0.000389 0.000000
# 3 -0.003081 -0.005053 0.014883 0.000000 0.002228 0.000000
# 4 0.000000 0.000000 0.000000 0.063664 0.000000 -0.029226
# 5 -0.012782 0.000389 0.002228 0.000000 0.042608 0.000000
# 6 0.000000 0.000000 0.000000 -0.029226 0.000000 0.119527
#
#
# Mechanical properties :
#
#
# Convention : Reuss Voigt Hill
#
# Bulk Modulus (GPa) = 32.75467 39.57088 36.16277
# Shear Modulus (GPa) = 15.62005 20.60519 18.11262
#
# Velocity S-wave (km/s) = 3.14559 3.61284 3.38728
# Velocity P-wave (km/s) = 5.82596 6.51691 6.18110
#
# Compressibility (1/GPa) = 0.03053000
#
# Stress axis : x y z
#
# Youngs Moduli (GPa) = 36.47429 66.53849 67.19286
#
# Poissons Ratio (x) = 0.35032 0.20699
# Poissons Ratio (y) = 0.19204 0.33956
# Poissons Ratio (z) = 0.11236 0.33625
#
# Static dielectric constant tensor:
#      x y z
#    x 1.536300 0.000000 0.003240 
#    y 0.000000 1.518490 0.000000 
#    z 0.003240 0.000000 1.562150 
# 
# From -- ./inp_files/111202.got.cif
#   From: 2010.05.17/outbox.cif.g08.bks.cpg/sg12_56_cif.got.tgz:111202.got - 2010.06.03 13:09:07.
