data_PCOD9169302
_publ_section_title
;
Structure prediction by ZEFSAII (Michael W. Deem and Ramdas Pophale) SiO2 
 PCOD9169302
Probable space group: C 2/M
;
_chemical_formula_sum "Si O2"
_cell_formula_units_Z 56
_cell_length_a 28.977596
_cell_length_b 7.674227
_cell_length_c 15.977431
_cell_angle_alpha 90.000000
_cell_angle_beta 84.289985
_cell_angle_gamma 90.000000
_cell_volume 3535.441834
_symmetry_space_group_name_H-M "C 2/M"
_symmetry_group_IT_number 12
_symmetry_cell_setting 'monoclinic'
loop_
_space_group_symop_operation_xyz
x,y,z
-x,y,-z
-x,-y,-z
x,-y,z
1/2+x,1/2+y,z
1/2-x,1/2+y,-z
1/2-x,1/2-y,-z
1/2+x,1/2-y,z
loop_
_atom_site_type_symbol
_atom_site_label
_atom_site_fract_x
_atom_site_fract_y
_atom_site_fract_z
Si Si1 0.360598 0.288815 0.027461
Si Si2 0.334648 0.207235 0.840618
Si Si3 0.569825 0.000000 0.427839
Si Si4 0.411410 0.695711 0.695237
Si Si5 0.037368 0.500000 0.614857
Si Si6 0.960782 0.212632 0.072094
Si Si7 0.763154 0.791120 0.093541
Si Si8 0.014641 0.793506 0.743003
O O1 0.360556 0.500000 0.029540
O O2 0.409920 0.227954 0.052832
O O3 0.316104 0.227610 0.089888
O O4 0.352619 0.238334 0.932123
O O5 0.369377 0.288309 0.767700
O O6 0.281299 0.273642 0.846619
O O7 0.334628 0.000000 0.826431
O O8 0.591726 0.832367 0.379226
O O9 0.570046 0.000000 0.527933
O O10 0.515552 0.000000 0.410419
O O11 0.414414 0.500000 0.661694
O O12 0.459589 0.730697 0.736241
O O13 0.040750 0.671099 0.672080
O O14 0.973031 0.259721 0.164826
O O15 0.960718 0.000000 0.069534
O O16 0.000000 0.271884 0.000000
O O17 0.763931 0.000000 0.103940
O O18 0.750000 0.750000 0.000000
O O19 0.024593 0.000000 0.730650
#
# Coordination Sequence:
#
# PCOD9169302 Si02
#       8
#     8   8   4   8   4   8   8   8
#     4   9  16  27  41  57  81 120 161 187 216 257
#     4  10  17  26  39  59  89 118 148 186 222 263
#     4   9  18  32  46  68  92 112 144 182 219 272
#     4  10  18  29  46  66  90 118 145 178 221 270
#     4   9  18  32  49  64  90 120 143 180 226 265
#     4   9  16  27  42  61  88 120 155 194 215 243
#     4   8  15  25  38  55  78 113 150 183 220 257
#     4   9  18  31  46  65  89 120 154 183 215 259
#
# _framework density 15.839605000000001
#
# number of rings (size 3 to 8) (size 9 to 14) (size 15 to 20)
#    0.000    2.857    0.714    1.286    0.000    3.429 
#    1.286    3.214    0.000    0.000    0.000    0.000 
#    0.000    1.143    0.571    0.000    0.000    0.000 
#
# Total GULP energy -155953.651010 kJ/mol
# GULP energy per Si atom -5569.773250 kJ/mol
# Density = 1.580355 g / cm^3
# Si number density = 15.839605 Si / 1000 Ang^3
#
#
#
# Elastic Constant Matrix: (Units=GPa)
#
#
# Indices 1 2 3 4 5 6 
#
# 1 101.5947 27.8583 52.5762 0.0000 -15.8256 0.0000
# 2 27.8583 54.0164 38.1650 0.0000 -6.4762 0.0000
# 3 52.5762 38.1650 114.2520 0.0000 -15.1389 0.0000
# 4 0.0000 0.0000 0.0000 16.6979 0.0000 -0.2288
# 5 -15.8256 -6.4762 -15.1389 0.0000 18.3045 0.0000
# 6 0.0000 0.0000 0.0000 -0.2288 0.0000 2.4593
#
#
#
# Elastic Compliance Matrix: (Units=1/GPa)
#
#
# Indices 1 2 3 4 5 6 
#
# 1 0.014209 -0.003289 -0.004454 0.000000 0.007437 0.000000
# 2 -0.003289 0.025066 -0.006807 0.000000 0.000395 0.000000
# 3 -0.004454 -0.006807 0.013754 0.000000 0.005116 0.000000
# 4 0.000000 0.000000 0.000000 0.059964 0.000000 0.005578
# 5 0.007437 0.000395 0.005116 0.000000 0.065432 0.000000
# 6 0.000000 0.000000 0.000000 0.005578 0.000000 0.407147
#
#
# Mechanical properties :
#
#
# Convention : Reuss Voigt Hill
#
# Bulk Modulus (GPa) = 41.79299 56.34022 49.06661
# Shear Modulus (GPa) = 8.03020 17.57657 12.80339
#
# Velocity S-wave (km/s) = 2.25404 3.33477 2.84617
# Velocity P-wave (km/s) = 5.76339 7.10451 6.46880
#
# Compressibility (1/GPa) = 0.02392745
#
# Stress axis : x y z
#
# Youngs Moduli (GPa) = 70.38032 39.89438 72.70508
#
# Poissons Ratio (x) = 0.13121 0.32386
# Poissons Ratio (y) = 0.23148 0.49492
# Poissons Ratio (z) = 0.31350 0.27157
#
# Static dielectric constant tensor:
#      x y z
#    x 1.551440 0.000000 -0.020310 
#    y 0.000000 1.568610 0.000000 
#    z -0.020310 0.000000 1.491300 
# 
# From -- ./inp_files/247836.got.cif
#   From: 2010.05.17/outbox.cif.g08.bks.cpg/sg12_124_cif.got.tgz:247836.got - 2010.06.03 13:09:07.
