data_PCOD9169384
_publ_section_title
;
Structure prediction by ZEFSAII (Michael W. Deem and Ramdas Pophale) SiO2 
 PCOD9169384
Probable space group: C 2/M
;
_chemical_formula_sum "Si O2"
_cell_formula_units_Z 40
_cell_length_a 21.060384
_cell_length_b 7.622277
_cell_length_c 14.691300
_cell_angle_alpha 90.000000
_cell_angle_beta 118.296072
_cell_angle_gamma 90.000000
_cell_volume 2076.564668
_symmetry_space_group_name_H-M "C 2/M"
_symmetry_group_IT_number 12
_symmetry_cell_setting 'monoclinic'
loop_
_space_group_symop_operation_xyz
x,y,z
-x,y,-z
-x,-y,-z
x,-y,z
1/2+x,1/2+y,z
1/2-x,1/2+y,-z
1/2-x,1/2-y,-z
1/2+x,1/2-y,z
loop_
_atom_site_type_symbol
_atom_site_label
_atom_site_fract_x
_atom_site_fract_y
_atom_site_fract_z
Si Si1 0.527656 0.293290 0.734617
Si Si2 0.068850 0.288121 0.486630
Si Si3 0.947138 0.785270 0.043930
Si Si4 0.335776 0.796423 0.294165
Si Si5 0.282603 0.711275 0.922984
O O1 0.543486 0.500000 0.745848
O O2 0.453044 0.265465 0.629614
O O3 0.527624 0.230598 0.838240
O O4 0.593526 0.208651 0.722996
O O5 0.070488 0.500000 0.489473
O O6 0.137824 0.222668 0.590456
O O7 0.000000 0.229623 0.500000
O O8 0.947348 0.000000 0.043229
O O9 0.864811 0.726957 0.973532
O O10 0.000000 0.726540 0.000000
O O11 0.270219 0.718266 0.191796
O O12 0.317814 0.000000 0.298439
O O13 0.283815 0.500000 0.915854
O O14 0.250000 0.750000 0.000000
#
# Coordination Sequence:
#
# PCOD9169384 Si02
#       5
#     8   8   8   8   8
#     4  10  17  26  44  68  90 117 152 189 226 263
#     4   8  15  27  41  61  90 121 148 181 225 272
#     4   9  18  31  46  67  95 124 154 187 227 277
#     4   9  17  28  44  66  92 119 148 183 229 276
#     4  10  18  30  49  70  92 120 153 192 232 269
#
# _framework density 19.262584
#
# number of rings (size 3 to 8) (size 9 to 14) (size 15 to 20)
#    0.000    2.800    2.000    1.800    0.000    3.600 
#    0.000    0.000    0.000    6.600    0.000    0.000 
#    0.000    0.000    0.000    0.000    0.000    2.000 
#
# Total GULP energy -111418.792644 kJ/mol
# GULP energy per Si atom -5570.939632 kJ/mol
# Density = 1.921874 g / cm^3
# Si number density = 19.262584 Si / 1000 Ang^3
#
#
#
# Elastic Constant Matrix: (Units=GPa)
#
#
# Indices 1 2 3 4 5 6 
#
# 1 90.1187 -4.2136 73.3791 0.0000 9.6731 0.0000
# 2 -4.2136 39.7108 3.1699 0.0000 4.6224 0.0000
# 3 73.3791 3.1699 232.1846 0.0000 25.9378 0.0000
# 4 0.0000 0.0000 0.0000 -47.9405 0.0000 16.0142
# 5 9.6731 4.6224 25.9378 0.0000 18.7714 0.0000
# 6 0.0000 0.0000 0.0000 16.0142 0.0000 3.6030
#
#
#
# Elastic Compliance Matrix: (Units=1/GPa)
#
#
# Indices 1 2 3 4 5 6 
#
# 1 0.015158 0.002208 -0.004597 0.000000 -0.002003 0.000000
# 2 0.002208 0.026282 -0.000244 0.000000 -0.007272 0.000000
# 3 -0.004597 -0.000244 0.006494 0.000000 -0.006544 0.000000
# 4 0.000000 0.000000 0.000000 -0.008395 0.000000 0.037313
# 5 -0.002003 -0.007272 -0.006544 0.000000 0.065138 0.000000
# 6 0.000000 0.000000 0.000000 0.037313 0.000000 0.111701
#
#
# Mechanical properties :
#
#
# Convention : Reuss Voigt Hill
#
# Bulk Modulus (GPa) = 23.43641 56.29833 39.86737
# Shear Modulus (GPa) = 21.19841 14.19871 17.69856
#
# Velocity S-wave (km/s) = 3.32097 2.71793 3.03447
# Velocity P-wave (km/s) = 5.18636 6.25618 5.74622
#
# Compressibility (1/GPa) = 0.04266866
#
# Stress axis : x y z
#
# Youngs Moduli (GPa) = 65.97333 38.04829 153.98606
#
# Poissons Ratio (x) = -0.08403 0.70784
# Poissons Ratio (y) = -0.14570 0.03763
# Poissons Ratio (z) = 0.30326 0.00930
#
# Static dielectric constant tensor:
#      x y z
#    x 1.618210 0.000000 0.027140 
#    y 0.000000 1.726630 0.000000 
#    z 0.027140 0.000000 1.745840 
# 
# From -- ./inp_files/180308.got.cif
#   From: 2010.05.17/outbox.cif.g08.bks.cpg/sg12_91_cif.got.tgz:180308.got - 2010.06.03 13:09:07.
