data_PCOD9169247
_publ_section_title
;
Structure prediction by ZEFSAII (Michael W. Deem and Ramdas Pophale) SiO2 
 PCOD9169247
Probable space group: C 2/M
;
_chemical_formula_sum "Si O2"
_cell_formula_units_Z 48
_cell_length_a 20.930059
_cell_length_b 8.759972
_cell_length_c 23.570565
_cell_angle_alpha 90.000000
_cell_angle_beta 41.031589
_cell_angle_gamma 90.000000
_cell_volume 2837.013300
_symmetry_space_group_name_H-M "C 2/M"
_symmetry_group_IT_number 12
_symmetry_cell_setting 'monoclinic'
loop_
_space_group_symop_operation_xyz
x,y,z
-x,y,-z
-x,-y,-z
x,-y,z
1/2+x,1/2+y,z
1/2-x,1/2+y,-z
1/2-x,1/2-y,-z
1/2+x,1/2-y,z
loop_
_atom_site_type_symbol
_atom_site_label
_atom_site_fract_x
_atom_site_fract_y
_atom_site_fract_z
Si Si1 0.992771 0.183173 0.589706
Si Si2 0.173797 0.183055 0.218665
Si Si3 0.308961 0.182488 0.236370
Si Si4 0.147236 0.682140 0.415002
Si Si5 0.777965 0.817591 0.041727
Si Si6 0.993382 0.816049 0.937930
O O1 0.934666 0.220940 0.686184
O O2 0.920621 0.246783 0.589244
O O3 0.097240 0.255724 0.505905
O O4 0.998230 0.000000 0.580915
O O5 0.249240 0.225602 0.218783
O O6 0.206563 0.260786 0.139092
O O7 0.179144 0.000000 0.208780
O O8 0.253661 0.259365 0.326355
O O9 0.418316 0.238550 0.154456
O O10 0.303230 0.000000 0.245665
O O11 0.142267 0.500000 0.416812
O O12 0.775245 0.000000 0.041198
O O13 0.750000 0.750000 0.000000
O O14 0.887767 0.771451 0.985405
O O15 0.003385 0.000000 0.927297
O O16 0.000000 0.774510 0.000000
#
# Coordination Sequence:
#
# PCOD9169247 Si02
#       6
#     8   8   8   8   8   8
#     4   9  16  27  42  64  96 131 166 207 252 303
#     4   9  18  31  48  71  99 132 170 209 254 302
#     4  10  19  30  48  73 101 134 168 210 255 304
#     4  10  17  25  40  65  98 133 166 205 250 303
#     4  11  23  37  54  74 103 137 171 215 256 304
#     4  10  20  35  53  76 102 132 171 214 260 303
#
# _framework density 16.919201999999999
#
# number of rings (size 3 to 8) (size 9 to 14) (size 15 to 20)
#    0.000    2.167    1.667    5.000    0.000    5.000 
#    0.000    0.000    0.000    0.000    0.000    1.167 
#    0.000    0.000    0.000    0.000    0.000    0.000 
#
# Total GULP energy -133803.028656 kJ/mol
# GULP energy per Si atom -5575.126194 kJ/mol
# Density = 1.688069 g / cm^3
# Si number density = 16.919202 Si / 1000 Ang^3
#
#
#
# Elastic Constant Matrix: (Units=GPa)
#
#
# Indices 1 2 3 4 5 6 
#
# 1 64.3893 24.8784 53.0104 0.0000 4.6468 -0.0001
# 2 24.8784 55.1789 63.8738 0.0000 1.2864 -0.0004
# 3 53.0104 63.8738 199.3973 0.0000 -1.2851 -0.0001
# 4 0.0000 0.0000 0.0000 40.3340 0.0000 -0.2836
# 5 4.6468 1.2864 -1.2851 0.0000 12.6588 0.0000
# 6 -0.0001 -0.0004 -0.0001 -0.2836 0.0000 16.2877
#
#
#
# Elastic Compliance Matrix: (Units=1/GPa)
#
#
# Indices 1 2 3 4 5 6 
#
# 1 0.021361 -0.004476 -0.004295 0.000000 -0.007822 0.000000
# 2 -0.004476 0.029932 -0.008413 0.000000 -0.002252 0.000001
# 3 -0.004295 -0.008413 0.008873 0.000000 0.003332 0.000000
# 4 0.000000 0.000000 0.000000 0.024796 0.000000 0.000432
# 5 -0.007822 -0.002252 0.003332 0.000000 0.082435 0.000000
# 6 0.000000 0.000001 0.000000 0.000432 0.000000 0.061404
#
#
# Mechanical properties :
#
#
# Convention : Reuss Voigt Hill
#
# Bulk Modulus (GPa) = 38.76360 66.94342 52.85351
# Shear Modulus (GPa) = 18.39800 25.66963 22.03381
#
# Velocity S-wave (km/s) = 3.30116 3.89934 3.61265
# Velocity P-wave (km/s) = 6.12298 7.74116 6.97913
#
# Compressibility (1/GPa) = 0.02579740
#
# Stress axis : x y z
#
# Youngs Moduli (GPa) = 46.81463 33.40909 112.69656
#
# Poissons Ratio (x) = 0.14955 0.48407
# Poissons Ratio (y) = 0.20956 0.94808
# Poissons Ratio (z) = 0.20108 0.28106
#
# Static dielectric constant tensor:
#      x y z
#    x 1.541300 0.000000 -0.008460 
#    y 0.000000 1.563430 0.000000 
#    z -0.008460 0.000000 1.618660 
# 
# From -- ./inp_files/236630.got.cif
#   From: 2010.05.17/outbox.cif.g08.bks.cpg/sg12_119_cif.got.tgz:236630.got - 2010.06.03 13:09:07.
