data_PCOD9169322
_publ_section_title
;
Structure prediction by ZEFSAII (Michael W. Deem and Ramdas Pophale) SiO2 
 PCOD9169322
Probable space group: C 2/M
;
_chemical_formula_sum "Si O2"
_cell_formula_units_Z 56
_cell_length_a 29.536074
_cell_length_b 8.783608
_cell_length_c 29.892473
_cell_angle_alpha 90.000000
_cell_angle_beta 151.530178
_cell_angle_gamma 90.000000
_cell_volume 3696.825056
_symmetry_space_group_name_H-M "C 2/M"
_symmetry_group_IT_number 12
_symmetry_cell_setting 'monoclinic'
loop_
_space_group_symop_operation_xyz
x,y,z
-x,y,-z
-x,-y,-z
x,-y,z
1/2+x,1/2+y,z
1/2-x,1/2+y,-z
1/2-x,1/2-y,-z
1/2+x,1/2-y,z
loop_
_atom_site_type_symbol
_atom_site_label
_atom_site_fract_x
_atom_site_fract_y
_atom_site_fract_z
Si Si1 0.602326 0.184449 0.570189
Si Si2 0.462027 0.181924 0.860362
Si Si3 0.356453 0.183185 0.588557
Si Si4 0.386527 0.682556 0.706140
Si Si5 0.166003 0.315633 0.528306
Si Si6 0.287989 0.181954 0.775661
Si Si7 0.410415 0.676021 0.956390
O O1 0.500000 0.231012 0.500000
O O2 0.619372 0.237023 0.533826
O O3 0.688666 0.247348 0.674590
O O4 0.606584 0.000000 0.574524
O O5 0.450419 0.255309 0.801719
O O6 0.367996 0.224017 0.807888
O O7 0.465103 0.000000 0.859880
O O8 0.551770 0.242047 0.966381
O O9 0.250000 0.250000 0.500000
O O10 0.410495 0.251132 0.678078
O O11 0.384971 0.226911 0.562606
O O12 0.353851 0.000000 0.589487
O O13 0.388750 0.500000 0.706640
O O14 0.277039 0.730847 0.622041
O O15 0.166638 0.500000 0.529899
O O16 0.326165 0.243749 0.856131
O O17 0.282535 0.000000 0.772173
O O18 0.388311 0.500000 0.945922
O O19 0.500000 0.681592 0.000000
#
# Coordination Sequence:
#
# PCOD9169322 Si02
#       7
#     8   8   8   8   8   8   8
#     4  10  19  31  47  64  83 113 153 188 218 256
#     4  10  18  27  41  63  88 115 144 175 213 259
#     4   9  16  26  39  57  81 109 142 176 213 259
#     4  10  17  26  41  60  85 114 144 176 211 257
#     4   8  15  27  41  57  80 110 142 180 218 251
#     4  10  19  30  43  60  85 114 144 182 221 257
#     4   9  17  28  43  61  82 112 145 176 211 257
#
# _framework density 15.148133
#
# number of rings (size 3 to 8) (size 9 to 14) (size 15 to 20)
#    0.000    2.571    1.429    3.000    0.000    3.143 
#    0.000    0.714    0.000    0.000    0.000    0.000 
#    0.000    1.143    0.000    3.143    0.000    4.571 
#
# Total GULP energy -155949.571904 kJ/mol
# GULP energy per Si atom -5569.627568 kJ/mol
# Density = 1.511366 g / cm^3
# Si number density = 15.148133 Si / 1000 Ang^3
#
#
#
# Elastic Constant Matrix: (Units=GPa)
#
#
# Indices 1 2 3 4 5 6 
#
# 1 75.6228 24.8494 66.2083 0.0000 -25.0755 0.0000
# 2 24.8494 43.3953 38.8634 0.0000 -13.8850 0.0000
# 3 66.2083 38.8634 114.8338 0.0000 -35.1937 0.0000
# 4 0.0000 0.0000 0.0000 25.6871 0.0000 -8.1022
# 5 -25.0755 -13.8850 -35.1937 0.0000 31.9641 0.0000
# 6 0.0000 0.0000 0.0000 -8.1022 0.0000 14.7598
#
#
#
# Elastic Compliance Matrix: (Units=1/GPa)
#
#
# Indices 1 2 3 4 5 6 
#
# 1 0.027596 -0.001833 -0.013432 0.000000 0.006063 0.000000
# 2 -0.001833 0.033390 -0.009416 0.000000 0.002699 0.000000
# 3 -0.013432 -0.009416 0.022876 0.000000 0.010559 0.000000
# 4 0.000000 0.000000 0.000000 0.047082 0.000000 0.025845
# 5 0.006063 0.002699 0.010559 0.000000 0.048840 0.000000
# 6 0.000000 0.000000 0.000000 0.025845 0.000000 0.081939
#
#
# Mechanical properties :
#
#
# Convention : Reuss Voigt Hill
#
# Bulk Modulus (GPa) = 28.98652 54.85492 41.92072
# Shear Modulus (GPa) = 15.49975 21.41093 18.45534
#
# Velocity S-wave (km/s) = 3.20224 3.76365 3.49424
# Velocity P-wave (km/s) = 5.73144 7.42817 6.63427
#
# Compressibility (1/GPa) = 0.03449880
#
# Stress axis : x y z
#
# Youngs Moduli (GPa) = 36.23654 29.94904 43.71457
#
# Poissons Ratio (x) = 0.05489 0.58719
# Poissons Ratio (y) = 0.06642 0.41164
# Poissons Ratio (z) = 0.48674 0.28201
#
# Static dielectric constant tensor:
#      x y z
#    x 1.508950 0.000000 -0.032560 
#    y 0.000000 1.503600 0.000000 
#    z -0.032560 0.000000 1.494410 
# 
# From -- ./inp_files/247938.got.cif
#   From: 2010.05.17/outbox.cif.g08.bks.cpg/sg12_124_cif.got.tgz:247938.got - 2010.06.03 13:09:07.
