data_PCOD9169729
_publ_section_title
;
Structure prediction by ZEFSAII (Michael W. Deem and Ramdas Pophale) SiO2 
 PCOD9169729
Probable space group: C 2/M
;
_chemical_formula_sum "Si O2"
_cell_formula_units_Z 50
_cell_length_a 19.074675
_cell_length_b 14.539323
_cell_length_c 25.653219
_cell_angle_alpha 90.000000
_cell_angle_beta 17.832858
_cell_angle_gamma 90.000000
_cell_volume 2178.747666
_symmetry_space_group_name_H-M "C 2/M"
_symmetry_group_IT_number 12
_symmetry_cell_setting 'monoclinic'
loop_
_space_group_symop_operation_xyz
x,y,z
-x,y,-z
-x,-y,-z
x,-y,z
1/2+x,1/2+y,z
1/2-x,1/2+y,-z
1/2-x,1/2-y,-z
1/2+x,1/2-y,z
loop_
_atom_site_type_symbol
_atom_site_label
_atom_site_fract_x
_atom_site_fract_y
_atom_site_fract_z
Si Si1 0.419748 0.863665 0.328939
Si Si2 0.500000 0.500000 0.000000
Si Si3 0.092579 0.139711 0.653981
Si Si4 0.058786 0.140406 0.035279
Si Si5 0.743817 0.865908 0.669862
Si Si6 0.431569 0.859801 0.989179
Si Si7 0.257056 0.142946 0.649343
O O1 0.237458 0.891177 0.501588
O O2 0.417833 0.751811 0.334550
O O3 0.680061 0.892932 0.155879
O O4 0.351587 0.893909 0.319081
O O5 0.405208 0.581169 0.105746
O O6 0.215326 0.111971 0.620283
O O7 0.829241 0.111334 0.836039
O O8 0.051442 0.248065 0.027307
O O9 0.963523 0.119748 0.159808
O O10 0.589250 0.890643 0.829209
O O11 0.757850 0.754595 0.653615
O O12 0.000000 0.897517 0.500000
O O13 0.500000 0.885064 0.000000
O O14 0.500000 0.111499 0.500000
#
# Coordination Sequence:
#
# PCOD9169729 Si02
#       7
#     8   2   8   8   8   8   8
#     4   9  17  29  46  69  95 126 156 204 247 301
#     4  12  24  36  50  68  86 136 190 224 232 286
#     4   9  17  27  46  71  95 123 163 190 250 316
#     4  10  21  33  48  62  93 128 178 213 250 271
#     4   9  16  26  44  73 104 125 153 184 244 317
#     4  10  17  28  46  70 101 134 159 199 244 299
#     4   9  18  30  47  67  94 128 158 203 251 300
#
# _framework density 22.948962999999999
#
# number of rings (size 3 to 8) (size 9 to 14) (size 15 to 20)
#    0.000    2.560    0.800    1.920    2.240    7.680 
#    0.000    0.400    0.000    0.000    0.000    0.560 
#    0.000    0.000    0.000    7.760    0.000    7.040 
#
# Total GULP energy -139389.162896 kJ/mol
# GULP energy per Si atom -5575.566516 kJ/mol
# Density = 2.289673 g / cm^3
# Si number density = 22.948963 Si / 1000 Ang^3
#
#
#
# Elastic Constant Matrix: (Units=GPa)
#
#
# Indices 1 2 3 4 5 6 
#
# 1 210.5176 0.2440 112.6355 0.0112 15.3385 0.0153
# 2 0.2440 100.5928 4.8377 -0.1802 3.4146 0.1916
# 3 112.6355 4.8377 213.6102 0.0136 14.4630 -0.1960
# 4 0.0112 -0.1802 0.0136 -29.1867 -0.0380 28.0202
# 5 15.3385 3.4146 14.4630 -0.0380 45.6307 0.0917
# 6 0.0153 0.1916 -0.1960 28.0202 0.0917 -116.8882
#
#
#
# Elastic Compliance Matrix: (Units=1/GPa)
#
#
# Indices 1 2 3 4 5 6 
#
# 1 0.006679 0.000189 -0.003447 0.000009 -0.001167 0.000008
# 2 0.000189 0.009978 -0.000277 -0.000059 -0.000723 0.000002
# 3 -0.003447 -0.000277 0.006566 -0.000010 -0.000902 -0.000015
# 4 0.000009 -0.000059 -0.000010 -0.044504 -0.000011 -0.010668
# 5 -0.001167 -0.000723 -0.000902 -0.000011 0.022647 0.000015
# 6 0.000008 0.000002 -0.000015 -0.010668 0.000015 -0.011113
#
#
# Mechanical properties :
#
#
# Convention : Reuss Voigt Hill
#
# Bulk Modulus (GPa) = 61.90261 84.46165 73.18213
# Shear Modulus (GPa) = 1845.21419 7.04471 926.12945
#
# Velocity S-wave (km/s) = 28.38656 1.75396 20.11061
# Velocity P-wave (km/s) = 33.18777 6.40202 23.89994
#
# Compressibility (1/GPa) = 0.01615441
#
# Stress axis : x y z
#
# Youngs Moduli (GPa) = 149.71313 100.21704 152.28848
#
# Poissons Ratio (x) = -0.01896 0.52499
# Poissons Ratio (y) = -0.02832 0.04216
# Poissons Ratio (z) = 0.51611 0.02774
#
# Static dielectric constant tensor:
#      x y z
#    x 1.918390 0.000070 0.006610 
#    y 0.000070 0.128180 0.000130 
#    z 0.006610 0.000130 1.815820 
# 
# From -- ./inp_files/75803.got.cif
#   From: 2010.05.17/outbox.cif.g08.bks.cpg/sg12_38_cif.got.tgz:75803.got - 2010.06.03 13:09:07.
