data_PCOD9169631
_publ_section_title
;
Structure prediction by ZEFSAII (Michael W. Deem and Ramdas Pophale) SiO2 
 PCOD9169631
Probable space group: C 2/M
;
_chemical_formula_sum "Si O2"
_cell_formula_units_Z 64
_cell_length_a 31.739742
_cell_length_b 7.670432
_cell_length_c 15.319166
_cell_angle_alpha 90.000000
_cell_angle_beta 117.968138
_cell_angle_gamma 90.000000
_cell_volume 3293.984813
_symmetry_space_group_name_H-M "C 2/M"
_symmetry_group_IT_number 12
_symmetry_cell_setting 'monoclinic'
loop_
_space_group_symop_operation_xyz
x,y,z
-x,y,-z
-x,-y,-z
x,-y,z
1/2+x,1/2+y,z
1/2-x,1/2+y,-z
1/2-x,1/2-y,-z
1/2+x,1/2-y,z
loop_
_atom_site_type_symbol
_atom_site_label
_atom_site_fract_x
_atom_site_fract_y
_atom_site_fract_z
Si Si1 0.427147 0.713095 0.778349
Si Si2 0.294864 0.206614 0.943231
Si Si3 0.616865 0.710892 0.085303
Si Si4 0.036982 0.211760 0.871720
Si Si5 0.881540 0.700353 0.364557
Si Si6 0.468932 0.288386 0.332593
Si Si7 0.312990 0.797613 0.151452
Si Si8 0.923548 0.794112 0.581465
O O1 0.426114 0.500000 0.779274
O O2 0.396339 0.772702 0.830589
O O3 0.482835 0.764210 0.841990
O O4 0.411094 0.772259 0.666196
O O5 0.332077 0.237047 0.902666
O O6 0.242857 0.287584 0.879384
O O7 0.287067 0.000000 0.946587
O O8 0.316271 0.276260 0.056256
O O9 0.615125 0.500000 0.083819
O O10 0.576279 0.773536 0.978060
O O11 0.047068 0.260593 0.781197
O O12 0.037144 0.000000 0.873898
O O13 0.867846 0.500000 0.362212
O O14 0.932909 0.715654 0.368270
O O15 0.844914 0.782832 0.259184
O O16 0.887044 0.770782 0.467412
O O17 0.467561 0.500000 0.339246
O O18 0.523704 0.227816 0.393771
O O19 0.327950 0.000000 0.159039
O O20 0.930563 0.000000 0.599517
#
# Coordination Sequence:
#
# PCOD9169631 Si02
#       8
#     8   8   8   8   8   8   8   8
#     4   8  15  28  46  69  96 127 163 198 227 260
#     4  10  20  34  52  73  97 122 148 184 232 286
#     4  10  17  27  49  75  97 124 157 193 232 274
#     4   8  14  25  44  71  98 125 161 196 223 263
#     4  11  21  31  47  70  94 121 155 196 238 278
#     4   9  17  29  45  67  97 130 160 191 227 270
#     4   9  20  37  52  69  95 123 151 187 233 282
#     4   9  18  32  47  65  94 130 165 197 226 263
#
# _framework density 19.429352999999999
#
# number of rings (size 3 to 8) (size 9 to 14) (size 15 to 20)
#    0.000    2.750    0.000    3.750    0.000    5.000 
#    0.000    0.625    0.000    3.750    0.000    0.000 
#    0.000    0.000    0.000    0.000    0.000    0.000 
#
# Total GULP energy -178488.443087 kJ/mol
# GULP energy per Si atom -5577.763846 kJ/mol
# Density = 1.938513 g / cm^3
# Si number density = 19.429353 Si / 1000 Ang^3
#
#
#
# Elastic Constant Matrix: (Units=GPa)
#
#
# Indices 1 2 3 4 5 6 
#
# 1 72.6616 -10.7180 36.9507 0.0000 -24.3017 0.0000
# 2 -10.7180 30.0325 -1.4202 0.0000 1.4003 0.0000
# 3 36.9507 -1.4202 121.3891 0.0000 -9.2777 0.0000
# 4 0.0000 0.0000 0.0000 7.3893 0.0000 1.2472
# 5 -24.3017 1.4003 -9.2777 0.0000 18.3381 0.0000
# 6 0.0000 0.0000 0.0000 1.2472 0.0000 -11.6279
#
#
#
# Elastic Compliance Matrix: (Units=1/GPa)
#
#
# Indices 1 2 3 4 5 6 
#
# 1 0.030571 0.008901 -0.006405 0.000000 0.036592 0.000000
# 2 0.008901 0.036013 -0.001661 0.000000 0.008205 0.000000
# 3 -0.006405 -0.001661 0.009912 0.000000 -0.003346 0.000000
# 4 0.000000 0.000000 0.000000 0.132925 0.000000 0.014257
# 5 0.036592 0.008205 -0.003346 0.000000 0.100704 0.000000
# 6 0.000000 0.000000 0.000000 0.014257 0.000000 -0.084471
#
#
# Mechanical properties :
#
#
# Convention : Reuss Voigt Hill
#
# Bulk Modulus (GPa) = 12.79325 30.41204 21.60265
# Shear Modulus (GPa) = 19.99683 16.10459 18.05071
#
# Velocity S-wave (km/s) = 3.21161 2.88215 3.05133
# Velocity P-wave (km/s) = 4.51125 5.17323 4.85354
#
# Compressibility (1/GPa) = 0.07816620
#
# Stress axis : x y z
#
# Youngs Moduli (GPa) = 32.71100 27.76796 100.88331
#
# Poissons Ratio (x) = -0.24716 0.64614
# Poissons Ratio (y) = -0.29116 0.16757
# Poissons Ratio (z) = 0.20951 0.04612
#
# Static dielectric constant tensor:
#      x y z
#    x 1.644940 0.000000 -0.006900 
#    y 0.000000 1.736420 0.000000 
#    z -0.006900 0.000000 1.721420 
# 
# From -- ./inp_files/249009.got.cif
#   From: 2010.05.17/outbox.cif.g08.bks.cpg/sg12_125_cif.got.tgz:249009.got - 2010.06.03 13:09:07.
