data_PCOD9169494
_publ_section_title
;
Structure prediction by ZEFSAII (Michael W. Deem and Ramdas Pophale) SiO2 
 PCOD9169494
Probable space group: C 2/M
;
_chemical_formula_sum "Si O2"
_cell_formula_units_Z 64
_cell_length_a 23.433393
_cell_length_b 13.418943
_cell_length_c 14.862083
_cell_angle_alpha 90.000000
_cell_angle_beta 51.498828
_cell_angle_gamma 90.000000
_cell_volume 3657.383238
_symmetry_space_group_name_H-M "C 2/M"
_symmetry_group_IT_number 12
_symmetry_cell_setting 'monoclinic'
loop_
_space_group_symop_operation_xyz
x,y,z
-x,y,-z
-x,-y,-z
x,-y,z
1/2+x,1/2+y,z
1/2-x,1/2+y,-z
1/2-x,1/2-y,-z
1/2+x,1/2-y,z
loop_
_atom_site_type_symbol
_atom_site_label
_atom_site_fract_x
_atom_site_fract_y
_atom_site_fract_z
Si Si1 0.468996 0.621005 0.721559
Si Si2 0.846399 0.811946 0.977520
Si Si3 0.106309 0.885506 0.691761
Si Si4 0.166268 0.118432 0.814277
Si Si5 0.274338 0.113713 0.461397
Si Si6 0.739033 0.112226 0.936088
Si Si7 0.130071 0.884630 0.340219
Si Si8 0.287995 0.245482 0.611755
O O1 0.459894 0.500000 0.736235
O O2 0.549013 0.653120 0.675330
O O3 0.440809 0.643367 0.648835
O O4 0.414340 0.672263 0.845434
O O5 0.861018 0.859671 0.059645
O O6 0.820404 0.698399 0.016327
O O7 0.780127 0.866869 0.990205
O O8 0.112661 0.844789 0.786833
O O9 0.188875 0.886456 0.574761
O O10 0.083339 0.000000 0.726021
O O11 0.242836 0.174813 0.723159
O O12 0.177169 0.000000 0.791161
O O13 0.312096 0.176529 0.503820
O O14 0.269899 0.175276 0.373816
O O15 0.298834 0.000000 0.429417
O O16 0.801689 0.119355 0.797424
O O17 0.710090 0.000000 0.962371
O O18 0.150826 0.808640 0.398054
O O19 0.123632 0.000000 0.378625
#
# Coordination Sequence:
#
# PCOD9169494 Si02
#       8
#     8   8   8   8   8   8   8   8
#     4   9  17  29  44  64  93 126 153 179 216 267
#     4  10  17  27  43  66  94 125 153 180 218 262
#     4   8  16  30  44  61  90 122 150 184 226 266
#     4  10  18  28  44  69  97 118 146 188 223 266
#     4   9  18  31  47  66  92 116 141 185 229 275
#     4   9  17  28  41  62  95 126 151 182 219 260
#     4   9  16  27  43  65  92 117 147 182 215 263
#     4  10  17  28  45  67  90 116 143 178 229 271
#
# _framework density 17.498849
#
# number of rings (size 3 to 8) (size 9 to 14) (size 15 to 20)
#    0.000    2.750    1.250    3.375    0.000    0.500 
#    0.000    2.500    0.000    3.000    0.000   14.000 
#    0.000   16.000    0.000    0.000    0.000    0.000 
#
# Total GULP energy -178213.186304 kJ/mol
# GULP energy per Si atom -5569.162072 kJ/mol
# Density = 1.745902 g / cm^3
# Si number density = 17.498849 Si / 1000 Ang^3
#
#
#
# Elastic Constant Matrix: (Units=GPa)
#
#
# Indices 1 2 3 4 5 6 
#
# 1 104.4970 34.3575 24.3017 0.0000 21.7499 0.0000
# 2 34.3575 92.3232 18.4016 0.0000 16.8639 0.0000
# 3 24.3017 18.4016 38.2959 0.0000 14.3429 0.0000
# 4 0.0000 0.0000 0.0000 16.7169 0.0000 9.8935
# 5 21.7499 16.8639 14.3429 0.0000 16.3612 0.0000
# 6 0.0000 0.0000 0.0000 9.8935 0.0000 20.0345
#
#
#
# Elastic Compliance Matrix: (Units=1/GPa)
#
#
# Indices 1 2 3 4 5 6 
#
# 1 0.013730 -0.002067 -0.002504 0.000000 -0.013928 0.000000
# 2 -0.002067 0.013746 -0.001513 0.000000 -0.010095 0.000000
# 3 -0.002504 -0.001513 0.039599 0.000000 -0.029827 0.000000
# 4 0.000000 0.000000 0.000000 0.084522 0.000000 -0.041739
# 5 -0.013928 -0.010095 -0.029827 0.000000 0.116187 0.000000
# 6 0.000000 0.000000 0.000000 -0.041739 0.000000 0.070526
#
#
# Mechanical properties :
#
#
# Convention : Reuss Voigt Hill
#
# Bulk Modulus (GPa) = 18.21188 43.24863 30.73025
# Shear Modulus (GPa) = 13.55823 21.15954 17.35888
#
# Velocity S-wave (km/s) = 2.78656 3.48112 3.15302
# Velocity P-wave (km/s) = 4.55887 6.39737 5.55471
#
# Compressibility (1/GPa) = 0.05490923
#
# Stress axis : x y z
#
# Youngs Moduli (GPa) = 72.83193 72.74804 25.25308
#
# Poissons Ratio (x) = 0.15034 0.06322
# Poissons Ratio (y) = 0.15051 0.03821
# Poissons Ratio (z) = 0.18234 0.11006
#
# Static dielectric constant tensor:
#      x y z
#    x 1.624530 0.000000 0.027490 
#    y 0.000000 1.612540 0.000000 
#    z 0.027490 0.000000 1.617340 
# 
# From -- ./inp_files/232438.got.cif
#   From: 2010.05.17/outbox.cif.g08.bks.cpg/sg12_117_cif.got.tgz:232438.got - 2010.06.03 13:09:07.
