data_PCOD9169991
_publ_section_title
;
Structure prediction by ZEFSAII (Michael W. Deem and Ramdas Pophale) SiO2 
 PCOD9169991
Probable space group: C 2/M
;
_chemical_formula_sum "Si O2"
_cell_formula_units_Z 64
_cell_length_a 26.048402
_cell_length_b 8.473436
_cell_length_c 24.567501
_cell_angle_alpha 90.000000
_cell_angle_beta 133.689046
_cell_angle_gamma 90.000000
_cell_volume 3921.024116
_symmetry_space_group_name_H-M "C 2/M"
_symmetry_group_IT_number 12
_symmetry_cell_setting 'monoclinic'
loop_
_space_group_symop_operation_xyz
x,y,z
-x,y,-z
-x,-y,-z
x,-y,z
1/2+x,1/2+y,z
1/2-x,1/2+y,-z
1/2-x,1/2-y,-z
1/2+x,1/2-y,z
loop_
_atom_site_type_symbol
_atom_site_label
_atom_site_fract_x
_atom_site_fract_y
_atom_site_fract_z
Si Si1 0.832526 0.688820 0.344173
Si Si2 0.058639 0.812564 0.666762
Si Si3 0.693147 0.190659 0.190656
Si Si4 0.225035 0.307688 0.089848
Si Si5 0.031862 0.307362 0.081763
Si Si6 0.912625 0.690598 0.078631
Si Si7 0.943423 0.316535 0.508477
Si Si8 0.116360 0.809367 0.824250
O O1 0.832985 0.500000 0.346833
O O2 0.881996 0.739575 0.329637
O O3 0.754059 0.749928 0.275375
O O4 0.871567 0.746520 0.428008
O O5 0.072703 0.759439 0.738704
O O6 0.981917 0.770542 0.585988
O O7 0.068783 0.000000 0.672206
O O8 0.712030 0.241667 0.142722
O O9 0.613465 0.243358 0.146356
O O10 0.694163 0.000000 0.191570
O O11 0.224912 0.500000 0.089950
O O12 0.301902 0.256706 0.124737
O O13 0.160013 0.255742 0.004279
O O14 0.031889 0.500000 0.081677
O O15 0.979515 0.255862 0.091487
O O16 0.000000 0.259017 0.000000
O O17 0.912262 0.500000 0.077492
O O18 0.913157 0.746667 0.140793
O O19 0.934335 0.500000 0.516658
O O20 0.000000 0.310870 0.500000
O O21 0.116256 0.000000 0.825940
#
# Coordination Sequence:
#
# PCOD9169991 Si02
#       8
#     8   8   8   8   8   8   8   8
#     4  10  19  30  44  67  99 127 152 187 234 284
#     4  10  18  29  47  68  92 125 161 191 226 276
#     4  10  17  29  50  71  92 123 159 197 235 274
#     4   9  16  29  47  66  92 122 157 194 230 271
#     4   9  16  29  51  72  90 117 158 204 243 274
#     4  10  19  31  49  70  89 121 165 199 231 276
#     4   8  16  29  43  63  95 127 150 182 231 282
#     4  10  20  32  44  65  98 129 155 189 232 276
#
# _framework density 16.322267
#
# number of rings (size 3 to 8) (size 9 to 14) (size 15 to 20)
#    0.000    2.500    2.500    1.875    0.000    3.750 
#    0.000    1.250    0.000    0.750    0.000    0.875 
#    0.000    0.000    0.000    0.000    0.000    0.000 
#
# Total GULP energy -178364.121299 kJ/mol
# GULP energy per Si atom -5573.878791 kJ/mol
# Density = 1.628512 g / cm^3
# Si number density = 16.322267 Si / 1000 Ang^3
#
#
#
# Elastic Constant Matrix: (Units=GPa)
#
#
# Indices 1 2 3 4 5 6 
#
# 1 113.8430 14.3633 77.0770 0.0000 -0.2770 0.0000
# 2 14.3633 9.3905 18.9936 -0.0001 1.2664 0.0002
# 3 77.0770 18.9936 156.9315 0.0000 13.8298 0.0000
# 4 0.0000 -0.0001 0.0000 17.0039 0.0000 -5.0409
# 5 -0.2770 1.2664 13.8298 0.0000 16.7579 0.0000
# 6 0.0000 0.0002 0.0000 -5.0409 0.0000 13.6570
#
#
#
# Elastic Compliance Matrix: (Units=1/GPa)
#
#
# Indices 1 2 3 4 5 6 
#
# 1 0.014399 -0.009861 -0.006433 0.000000 0.006292 0.000000
# 2 -0.009861 0.147975 -0.013013 0.000000 -0.000606 -0.000002
# 3 -0.006433 -0.013013 0.011895 0.000000 -0.008939 0.000000
# 4 0.000000 0.000000 0.000000 0.066036 0.000000 0.024375
# 5 0.006292 -0.000606 -0.008939 0.000000 0.067200 0.000000
# 6 0.000000 -0.000002 0.000000 0.024375 0.000000 0.082220
#
#
# Mechanical properties :
#
#
# Convention : Reuss Voigt Hill
#
# Bulk Modulus (GPa) = 8.64643 55.67033 32.15838
# Shear Modulus (GPa) = 10.26926 20.79917 15.53422
#
# Velocity S-wave (km/s) = 2.51102 3.57358 3.08834
# Velocity P-wave (km/s) = 3.70348 7.15600 5.69755
#
# Compressibility (1/GPa) = 0.11565473
#
# Stress axis : x y z
#
# Youngs Moduli (GPa) = 69.44935 6.75790 84.07176
#
# Poissons Ratio (x) = 0.06664 0.54084
# Poissons Ratio (y) = 0.68482 1.09403
# Poissons Ratio (z) = 0.44678 0.08794
#
# Static dielectric constant tensor:
#      x y z
#    x 1.521480 0.000000 0.013120 
#    y 0.000000 1.565750 0.000000 
#    z 0.013120 0.000000 1.570990 
# 
# From -- ./inp_files/348592.got.cif
#   From: 2010.05.17/outbox.cif.g08.bks.cpg/sg12_175_cif.got.tgz:348592.got - 2010.06.03 13:09:07.
