data_PCOD9169090
_publ_section_title
;
Structure prediction by ZEFSAII (Michael W. Deem and Ramdas Pophale) SiO2 
 PCOD9169090
Probable space group: C 2/M
;
_chemical_formula_sum "Si O2"
_cell_formula_units_Z 44
_cell_length_a 9.584229
_cell_length_b 17.804801
_cell_length_c 14.386801
_cell_angle_alpha 90.000000
_cell_angle_beta 109.311794
_cell_angle_gamma 90.000000
_cell_volume 2316.901851
_symmetry_space_group_name_H-M "C 2/M"
_symmetry_group_IT_number 12
_symmetry_cell_setting 'monoclinic'
loop_
_space_group_symop_operation_xyz
x,y,z
-x,y,-z
-x,-y,-z
x,-y,z
1/2+x,1/2+y,z
1/2-x,1/2+y,-z
1/2-x,1/2-y,-z
1/2+x,1/2-y,z
loop_
_atom_site_type_symbol
_atom_site_label
_atom_site_fract_x
_atom_site_fract_y
_atom_site_fract_z
Si Si1 0.144560 0.198691 0.697720
Si Si2 0.500000 0.754210 0.000000
Si Si3 0.185733 0.301627 0.871196
Si Si4 0.313353 0.085118 0.626979
Si Si5 0.132805 0.632851 0.668986
Si Si6 0.111528 0.916466 0.403952
O O1 0.151493 0.224594 0.806069
O O2 0.282769 0.148856 0.696375
O O3 0.140801 0.278562 0.643899
O O4 0.003438 0.148312 0.644887
O O5 0.641960 0.705088 0.063320
O O6 0.426685 0.802567 0.067398
O O7 0.160597 0.364248 0.786561
O O8 0.471344 0.100734 0.616152
O O9 0.187094 0.093256 0.520930
O O10 0.310719 0.000000 0.662190
O O11 0.257350 0.589484 0.641537
O O12 0.044341 0.000000 0.385421
#
# Coordination Sequence:
#
# PCOD9169090 Si02
#       6
#     8   4   8   8   8   8
#     4  10  21  36  53  80 112 131 191 223 263 309
#     4  10  16  34  56  82 108 126 160 230 274 330
#     4   9  20  32  55  84 104 130 173 218 278 321
#     4  11  22  35  52  77 111 154 187 212 255 310
#     4  10  21  36  53  80 112 131 191 223 263 309
#     4  11  22  35  52  77 111 154 187 212 255 310
#
# _framework density 18.990877999999999
#
# number of rings (size 3 to 8) (size 9 to 14) (size 15 to 20)
#    1.091    0.727    0.000    5.455    0.000    7.273 
#    0.000    0.000    0.000    0.000    0.000   89.091 
#    0.000    0.000    0.000    0.000    0.000    0.000 
#
# Total GULP energy -122677.447153 kJ/mol
# GULP energy per Si atom -5576.247598 kJ/mol
# Density = 1.894765 g / cm^3
# Si number density = 18.990878 Si / 1000 Ang^3
#
#
#
# Elastic Constant Matrix: (Units=GPa)
#
#
# Indices 1 2 3 4 5 6 
#
# 1 111.0264 16.4496 15.3491 0.0000 -6.2016 0.0000
# 2 16.4496 80.8612 18.5656 0.0000 1.0184 0.0000
# 3 15.3491 18.5656 57.7473 0.0000 0.2231 0.0000
# 4 0.0000 0.0000 0.0000 -290.9670 0.0000 -51.6964
# 5 -6.2016 1.0184 0.2231 0.0000 39.1167 0.0000
# 6 0.0000 0.0000 0.0000 -51.6964 0.0000 5.0396
#
#
#
# Elastic Compliance Matrix: (Units=1/GPa)
#
#
# Indices 1 2 3 4 5 6 
#
# 1 0.009604 -0.001496 -0.002078 0.000000 0.001573 0.000000
# 2 -0.001496 0.013590 -0.003969 0.000000 -0.000568 0.000000
# 3 -0.002078 -0.003969 0.019146 0.000000 -0.000335 0.000000
# 4 0.000000 0.000000 0.000000 -0.001218 0.000000 -0.012490
# 5 0.001573 -0.000568 -0.000335 0.000000 0.025831 0.000000
# 6 0.000000 0.000000 0.000000 -0.012490 0.000000 0.070301
#
#
# Mechanical properties :
#
#
# Convention : Reuss Voigt Hill
#
# Bulk Modulus (GPa) = 36.69258 38.92926 37.81092
# Shear Modulus (GPa) = 30.97420 -36.07743 -2.55161
#
# Velocity S-wave (km/s) = 4.04295 -4.36331 -1.16039
# Velocity P-wave (km/s) = 6.41538 2.20028 4.26121
#
# Compressibility (1/GPa) = 0.02725347
#
# Stress axis : x y z
#
# Youngs Moduli (GPa) = 104.12655 73.58483 52.22913
#
# Poissons Ratio (x) = 0.11012 0.10851
# Poissons Ratio (y) = 0.15582 0.20730
# Poissons Ratio (z) = 0.21633 0.29207
#
# Static dielectric constant tensor:
#      x y z
#    x 1.689550 0.000000 -0.006070 
#    y 0.000000 1.645500 0.000000 
#    z -0.006070 0.000000 1.675420 
# 
# From -- ./inp_files/256735.got.cif
#   From: 2010.05.17/outbox.cif.g08.bks.cpg/sg12_129_cif.got.tgz:256735.got - 2010.06.03 13:09:07.
