data_PCOD9169040
_publ_section_title
;
Structure prediction by ZEFSAII (Michael W. Deem and Ramdas Pophale) SiO2 
 PCOD9169040
Probable space group: C 2/M
;
_chemical_formula_sum "Si O2"
_cell_formula_units_Z 46
_cell_length_a 10.372995
_cell_length_b 15.357705
_cell_length_c 18.801343
_cell_angle_alpha 90.000000
_cell_angle_beta 129.130633
_cell_angle_gamma 90.000000
_cell_volume 2323.369333
_symmetry_space_group_name_H-M "C 2/M"
_symmetry_group_IT_number 12
_symmetry_cell_setting 'monoclinic'
loop_
_space_group_symop_operation_xyz
x,y,z
-x,y,-z
-x,-y,-z
x,-y,z
1/2+x,1/2+y,z
1/2-x,1/2+y,-z
1/2-x,1/2-y,-z
1/2+x,1/2-y,z
loop_
_atom_site_type_symbol
_atom_site_label
_atom_site_fract_x
_atom_site_fract_y
_atom_site_fract_z
Si Si1 0.668426 0.101699 0.172283
Si Si2 0.500000 0.500000 0.500000
Si Si3 0.000000 0.316968 0.500000
Si Si4 0.633983 0.340092 0.625812
Si Si5 0.947127 0.239189 0.059539
Si Si6 0.491792 0.402295 0.800980
Si Si7 0.819487 0.098407 0.592787
O O1 0.726614 0.140987 0.267963
O O2 0.527749 0.165382 0.095368
O O3 0.831040 0.105823 0.178190
O O4 0.622581 0.000000 0.162282
O O5 0.627746 0.421818 0.571207
O O6 0.874074 0.251673 0.415996
O O7 0.867489 0.378407 0.492848
O O8 0.456910 0.341469 0.605437
O O9 0.016193 0.173217 0.143652
O O10 0.750000 0.250000 0.000000
O O11 0.000000 0.206270 0.000000
O O12 0.484287 0.500000 0.829751
O O13 0.355378 0.399792 0.689932
O O14 0.865063 0.000000 0.582471
#
# Coordination Sequence:
#
# PCOD9169040 Si02
#       7
#     8   2   4   8   8   8   8
#     4  10  20  39  64  85 117 162 209 243 300 367
#     4  10  16  32  58  86 108 144 190 248 280 312
#     4  11  21  29  53  86 120 150 191 245 295 345
#     4  10  19  34  57  83 114 153 200 244 287 341
#     4  12  24  40  63  95 123 151 199 258 309 367
#     4   9  20  39  63  84 114 163 203 247 301 367
#     4  10  19  36  55  79 115 159 199 233 291 357
#
# _framework density 19.798832000000001
#
# number of rings (size 3 to 8) (size 9 to 14) (size 15 to 20)
#    0.000    1.739    3.478    2.870    0.000    1.391 
#    0.000    0.000    0.000    0.000    0.000    0.000 
#    0.000    0.000    0.000    0.000    0.000    0.000 
#
# Total GULP energy -128045.596857 kJ/mol
# GULP energy per Si atom -5567.199863 kJ/mol
# Density = 1.975377 g / cm^3
# Si number density = 19.798832 Si / 1000 Ang^3
#
#
#
# Elastic Constant Matrix: (Units=GPa)
#
#
# Indices 1 2 3 4 5 6 
#
# 1 29.8740 15.0735 7.6184 0.0000 5.7292 0.0000
# 2 15.0735 95.0584 26.6652 0.0000 8.3525 0.0000
# 3 7.6184 26.6652 61.8049 0.0000 -4.4948 0.0000
# 4 0.0000 0.0000 0.0000 20.7835 0.0000 2.6334
# 5 5.7292 8.3525 -4.4948 0.0000 29.5500 0.0000
# 6 0.0000 0.0000 0.0000 2.6334 0.0000 24.5856
#
#
#
# Elastic Compliance Matrix: (Units=1/GPa)
#
#
# Indices 1 2 3 4 5 6 
#
# 1 0.037825 -0.004531 -0.003183 0.000000 -0.006537 0.000000
# 2 -0.004531 0.013054 -0.005337 0.000000 -0.003623 0.000000
# 3 -0.003183 -0.005337 0.019242 0.000000 0.005053 0.000000
# 4 0.000000 0.000000 0.000000 0.048777 0.000000 -0.005225
# 5 -0.006537 -0.003623 0.005053 0.000000 0.036901 0.000000
# 6 0.000000 0.000000 0.000000 -0.005225 0.000000 0.041234
#
#
# Mechanical properties :
#
#
# Convention : Reuss Voigt Hill
#
# Bulk Modulus (GPa) = 22.71706 31.71683 27.21695
# Shear Modulus (GPa) = 21.02531 24.14249 22.58390
#
# Velocity S-wave (km/s) = 3.26229 3.49576 3.38104
# Velocity P-wave (km/s) = 5.06842 5.68754 5.38688
#
# Compressibility (1/GPa) = 0.04401979
#
# Stress axis : x y z
#
# Youngs Moduli (GPa) = 26.43721 76.60660 51.96865
#
# Poissons Ratio (x) = 0.34708 0.16543
# Poissons Ratio (y) = 0.11978 0.27735
# Poissons Ratio (z) = 0.08416 0.40884
#
# Static dielectric constant tensor:
#      x y z
#    x 1.131140 0.000000 0.203440 
#    y 0.000000 1.682180 0.000000 
#    z 0.203440 0.000000 1.650250 
# 
# From -- ./inp_files/304876.got.cif
#   From: 2010.05.17/outbox.cif.g08.bks.cpg/sg12_153_cif.got.tgz:304876.got - 2010.06.03 13:09:07.
