data_PCOD9169913
_publ_section_title
;
Structure prediction by ZEFSAII (Michael W. Deem and Ramdas Pophale) SiO2 
 PCOD9169913
Probable space group: C 2/M
;
_chemical_formula_sum "Si O2"
_cell_formula_units_Z 56
_cell_length_a 18.519345
_cell_length_b 16.079031
_cell_length_c 10.689980
_cell_angle_alpha 90.000000
_cell_angle_beta 79.455347
_cell_angle_gamma 90.000000
_cell_volume 3129.432894
_symmetry_space_group_name_H-M "C 2/M"
_symmetry_group_IT_number 12
_symmetry_cell_setting 'monoclinic'
loop_
_space_group_symop_operation_xyz
x,y,z
-x,y,-z
-x,-y,-z
x,-y,z
1/2+x,1/2+y,z
1/2-x,1/2+y,-z
1/2-x,1/2-y,-z
1/2+x,1/2-y,z
loop_
_atom_site_type_symbol
_atom_site_label
_atom_site_fract_x
_atom_site_fract_y
_atom_site_fract_z
Si Si1 0.453830 0.098374 0.132358
Si Si2 0.651396 0.595283 0.132584
Si Si3 0.339379 0.354907 0.153650
Si Si4 0.969604 0.601454 0.641859
Si Si5 0.692614 0.832941 0.913509
Si Si6 0.184260 0.401786 0.195686
Si Si7 0.493484 0.600750 0.147848
O O1 0.482950 0.131807 0.254724
O O2 0.368211 0.111942 0.136227
O O3 0.468906 0.000000 0.129733
O O4 0.500000 0.133885 0.000000
O O5 0.659247 0.500000 0.172842
O O6 0.723338 0.646364 0.148026
O O7 0.569419 0.627596 0.189919
O O8 0.652717 0.594788 0.979794
O O9 0.328497 0.260437 0.113903
O O10 0.262662 0.385499 0.234799
O O11 0.412972 0.367406 0.210283
O O12 0.973788 0.500000 0.637652
O O13 0.885222 0.622048 0.698925
O O14 0.000000 0.631802 0.500000
O O15 0.684142 0.852499 0.064054
O O16 0.177656 0.500000 0.166714
O O17 0.493030 0.500000 0.152180
O O18 0.500000 0.627055 0.000000
#
# Coordination Sequence:
#
# PCOD9169913 Si02
#       7
#     8   8   8   8   8   8   8
#     4  10  18  30  47  69  98 129 158 192 238 291
#     4   9  16  27  41  55  83 128 165 190 226 279
#     4  10  18  26  38  65  96 123 155 194 238 286
#     4   9  18  32  50  71  93 123 166 202 230 277
#     4  11  19  27  40  69 101 125 152 187 244 292
#     4  10  17  29  47  65  93 130 162 195 238 284
#     4   8  14  26  40  54  79 122 164 192 228 274
#
# _framework density 17.894615999999999
#
# number of rings (size 3 to 8) (size 9 to 14) (size 15 to 20)
#    0.000    2.429    1.429    6.000    0.000    1.714 
#    2.571    0.000    0.000    0.857    0.000    0.000 
#    0.000    0.000    0.000   10.571    0.000   19.000 
#
# Total GULP energy -155953.498435 kJ/mol
# GULP energy per Si atom -5569.767801 kJ/mol
# Density = 1.785389 g / cm^3
# Si number density = 17.894616 Si / 1000 Ang^3
#
#
#
# Elastic Constant Matrix: (Units=GPa)
#
#
# Indices 1 2 3 4 5 6 
#
# 1 190.4109 14.1053 52.7156 0.0000 -15.2981 0.0000
# 2 14.1053 38.5460 9.3849 0.0000 -3.1414 0.0000
# 3 52.7156 9.3849 60.8171 0.0000 -2.7839 0.0000
# 4 0.0000 0.0000 0.0000 0.2723 0.0000 8.8748
# 5 -15.2981 -3.1414 -2.7839 0.0000 11.9486 0.0000
# 6 0.0000 0.0000 0.0000 8.8748 0.0000 1.0608
#
#
#
# Elastic Compliance Matrix: (Units=1/GPa)
#
#
# Indices 1 2 3 4 5 6 
#
# 1 0.007667 -0.000634 -0.006172 0.000000 0.008212 0.000000
# 2 -0.000634 0.027468 -0.003433 0.000000 0.005611 0.000000
# 3 -0.006172 -0.003433 0.022156 0.000000 -0.003643 0.000000
# 4 0.000000 0.000000 0.000000 -0.013518 0.000000 0.113094
# 5 0.008212 0.005611 -0.003643 0.000000 0.094832 0.000000
# 6 0.000000 0.000000 0.000000 0.113094 0.000000 -0.003470
#
#
# Mechanical properties :
#
#
# Convention : Reuss Voigt Hill
#
# Bulk Modulus (GPa) = 27.16368 49.13177 38.14773
# Shear Modulus (GPa) = 29.78272 16.89423 23.33847
#
# Velocity S-wave (km/s) = 4.08406 3.07595 3.61531
# Velocity P-wave (km/s) = 6.11981 6.33491 6.22829
#
# Compressibility (1/GPa) = 0.03681386
#
# Stress axis : x y z
#
# Youngs Moduli (GPa) = 130.42374 36.40613 45.13505
#
# Poissons Ratio (x) = 0.02307 0.27859
# Poissons Ratio (y) = 0.08265 0.15493
# Poissons Ratio (z) = 0.80501 0.12497
#
# Static dielectric constant tensor:
#      x y z
#    x 1.692410 0.000000 -0.013240 
#    y 0.000000 1.649950 0.000000 
#    z -0.013240 0.000000 1.579110 
# 
# From -- ./inp_files/157237.got.cif
#   From: 2010.05.17/outbox.cif.g08.bks.cpg/sg12_79_cif.got.tgz:157237.got - 2010.06.03 13:09:07.
