data_PCOD9169201
_publ_section_title
;
Structure prediction by ZEFSAII (Michael W. Deem and Ramdas Pophale) SiO2 
 PCOD9169201
Probable space group: C 2/M
;
_chemical_formula_sum "Si O2"
_cell_formula_units_Z 64
_cell_length_a 9.831654
_cell_length_b 29.981282
_cell_length_c 21.408197
_cell_angle_alpha 90.000000
_cell_angle_beta 31.692755
_cell_angle_gamma 90.000000
_cell_volume 3315.257298
_symmetry_space_group_name_H-M "C 2/M"
_symmetry_group_IT_number 12
_symmetry_cell_setting 'monoclinic'
loop_
_space_group_symop_operation_xyz
x,y,z
-x,y,-z
-x,-y,-z
x,-y,z
1/2+x,1/2+y,z
1/2-x,1/2+y,-z
1/2-x,1/2-y,-z
1/2+x,1/2-y,z
loop_
_atom_site_type_symbol
_atom_site_label
_atom_site_fract_x
_atom_site_fract_y
_atom_site_fract_z
Si Si1 0.070177 0.702957 0.404721
Si Si2 0.125083 0.451521 0.200207
Si Si3 0.211844 0.950315 0.009982
Si Si4 0.052444 0.641828 0.738733
Si Si5 0.550527 0.306136 0.565732
Si Si6 0.866903 0.797791 0.779615
Si Si7 0.582977 0.296825 0.895219
Si Si8 0.401707 0.146017 0.946293
O O1 0.379360 0.702527 0.275363
O O2 0.000000 0.683318 0.500000
O O3 0.855219 0.682914 0.442063
O O4 0.996692 0.755186 0.435240
O O5 0.014529 0.500000 0.258555
O O6 0.193533 0.450967 0.099390
O O7 0.950359 0.409157 0.281052
O O8 0.400838 0.446611 0.127005
O O9 0.320185 0.904291 0.996003
O O10 0.276215 0.000000 0.010893
O O11 0.328269 0.664590 0.621811
O O12 0.815116 0.667922 0.800290
O O13 0.979429 0.643864 0.841685
O O14 0.481118 0.307348 0.666479
O O15 0.709245 0.751422 0.832700
O O16 0.657462 0.834903 0.879067
O O17 0.500000 0.293779 0.000000
O O18 0.331415 0.317690 0.959590
#
# Coordination Sequence:
#
# PCOD9169201 Si02
#       8
#     8   8   8   8   8   8   8   8
#     4   9  17  29  42  56  72  96 131 168 197 223
#     4   8  12  18  31  50  72  98 124 152 185 225
#     4   8  12  19  31  48  71  98 127 157 183 217
#     4   9  14  23  37  52  75 103 129 152 188 229
#     4   9  17  28  42  56  72 100 132 164 197 226
#     4  10  18  27  39  54  77 108 133 160 189 221
#     4  10  17  25  36  53  81 113 135 151 178 223
#     4   9  16  23  33  53  76 104 133 149 183 231
#
# _framework density 19.304687000000001
#
# number of rings (size 3 to 8) (size 9 to 14) (size 15 to 20)
#    0.000    3.000    2.500    1.125    0.000    0.000 
#    0.000    0.000    0.000    0.000    0.000    0.875 
#    0.000    8.000    0.000    0.000    0.000    1.000 
#
# Total GULP energy -178297.585741 kJ/mol
# GULP energy per Si atom -5571.799554 kJ/mol
# Density = 1.926075 g / cm^3
# Si number density = 19.304687 Si / 1000 Ang^3
#
#
#
# Elastic Constant Matrix: (Units=GPa)
#
#
# Indices 1 2 3 4 5 6 
#
# 1 61.7156 26.3640 46.7774 -0.0001 -37.1210 0.0000
# 2 26.3640 113.2069 37.6238 0.0001 -43.1646 -0.0001
# 3 46.7774 37.6238 89.0579 -0.0009 -27.5279 0.0000
# 4 -0.0001 0.0001 -0.0009 17.6779 0.0001 -9.0275
# 5 -37.1210 -43.1646 -27.5279 0.0001 47.9551 0.0000
# 6 0.0000 -0.0001 0.0000 -9.0275 0.0000 16.4290
#
#
#
# Elastic Compliance Matrix: (Units=1/GPa)
#
#
# Indices 1 2 3 4 5 6 
#
# 1 0.044868 0.007166 -0.016856 -0.000001 0.031505 -0.000001
# 2 0.007166 0.015014 -0.005124 -0.000001 0.016119 0.000000
# 3 -0.016856 -0.005124 0.020409 0.000001 -0.005944 0.000001
# 4 -0.000001 -0.000001 0.000001 0.078632 -0.000001 0.043207
# 5 0.031505 0.016119 -0.005944 -0.000001 0.056337 -0.000001
# 6 -0.000001 0.000000 0.000001 0.043207 -0.000001 0.084610
#
#
# Mechanical properties :
#
#
# Convention : Reuss Voigt Hill
#
# Bulk Modulus (GPa) = 19.73827 53.94564 36.84195
# Shear Modulus (GPa) = 14.43477 26.62676 20.53076
#
# Velocity S-wave (km/s) = 2.73744 3.71791 3.26469
# Velocity P-wave (km/s) = 4.49869 6.81436 5.77381
#
# Compressibility (1/GPa) = 0.05066299
#
# Stress axis : x y z
#
# Youngs Moduli (GPa) = 22.28758 66.60604 48.99693
#
# Poissons Ratio (x) = -0.47727 0.82588
# Poissons Ratio (y) = -0.15970 0.25106
# Poissons Ratio (z) = 0.37567 0.34129
#
# Static dielectric constant tensor:
#      x y z
#    x 1.805030 0.000000 0.048530 
#    y 0.000000 1.673380 0.000000 
#    z 0.048530 0.000000 1.717540 
# 
# From -- ./inp_files/359196.got.cif
#   From: 2010.05.17/outbox.cif.g08.bks.cpg/sg12_180_cif.got.tgz:359196.got - 2010.06.03 13:09:07.
