data_PCOD9169212
_publ_section_title
;
Structure prediction by ZEFSAII (Michael W. Deem and Ramdas Pophale) SiO2 
 PCOD9169212
Probable space group: C 2/M
;
_chemical_formula_sum "Si O2"
_cell_formula_units_Z 48
_cell_length_a 20.948132
_cell_length_b 8.476208
_cell_length_c 23.720199
_cell_angle_alpha 90.000000
_cell_angle_beta 41.110116
_cell_angle_gamma 90.000000
_cell_volume 2769.277414
_symmetry_space_group_name_H-M "C 2/M"
_symmetry_group_IT_number 12
_symmetry_cell_setting 'monoclinic'
loop_
_space_group_symop_operation_xyz
x,y,z
-x,y,-z
-x,-y,-z
x,-y,z
1/2+x,1/2+y,z
1/2-x,1/2+y,-z
1/2-x,1/2-y,-z
1/2+x,1/2-y,z
loop_
_atom_site_type_symbol
_atom_site_label
_atom_site_fract_x
_atom_site_fract_y
_atom_site_fract_z
Si Si1 0.989039 0.189277 0.941866
Si Si2 0.689949 0.189052 0.765243
Si Si3 0.170285 0.808094 0.223977
Si Si4 0.355707 0.185711 0.587522
Si Si5 0.997936 0.813322 0.589228
Si Si6 0.281061 0.189356 0.040135
O O1 0.080819 0.254004 0.846414
O O2 0.989812 0.000000 0.939611
O O3 0.887888 0.251685 0.985335
O O4 0.000000 0.239906 0.000000
O O5 0.751072 0.239459 0.780603
O O6 0.746757 0.262130 0.674246
O O7 0.693738 0.000000 0.759286
O O8 0.063081 0.757687 0.315710
O O9 0.207547 0.755513 0.138472
O O10 0.169034 0.000000 0.225361
O O11 0.420872 0.279436 0.590078
O O12 0.403498 0.229263 0.495843
O O13 0.367270 0.000000 0.589637
O O14 0.015233 0.000000 0.581321
O O15 0.280758 0.000000 0.040489
O O16 0.250000 0.250000 0.000000
#
# Coordination Sequence:
#
# PCOD9169212 Si02
#       6
#     8   8   8   8   8   8
#     4  11  22  35  53  80 107 135 173 219 266 314
#     4  10  18  31  50  72  98 136 174 210 254 310
#     4   8  16  29  48  70  96 131 173 212 254 303
#     4  10  17  25  38  65 100 131 160 207 259 303
#     4   9  15  26  42  63  91 131 171 205 248 310
#     4  11  22  38  55  76 105 141 180 220 263 310
#
# _framework density 17.333041000000001
#
# number of rings (size 3 to 8) (size 9 to 14) (size 15 to 20)
#    0.000    2.167    1.667    5.500    0.000    0.667 
#    0.000    2.500    0.000    0.000    0.000    1.167 
#    0.000    0.000    0.000    0.000    0.000    0.000 
#
# Total GULP energy -133784.690167 kJ/mol
# GULP energy per Si atom -5574.362090 kJ/mol
# Density = 1.729359 g / cm^3
# Si number density = 17.333041 Si / 1000 Ang^3
#
#
#
# Elastic Constant Matrix: (Units=GPa)
#
#
# Indices 1 2 3 4 5 6 
#
# 1 64.9363 15.1021 53.0906 0.0000 2.4576 0.0000
# 2 15.1021 41.1186 29.4055 0.0004 -1.9351 -0.0004
# 3 53.0906 29.4055 205.9359 0.0002 -2.9250 -0.0002
# 4 0.0000 0.0004 0.0002 3.3027 0.0000 11.5026
# 5 2.4576 -1.9351 -2.9250 0.0000 13.4764 0.0000
# 6 0.0000 -0.0004 -0.0002 11.5026 0.0000 8.2230
#
#
#
# Elastic Compliance Matrix: (Units=1/GPa)
#
#
# Indices 1 2 3 4 5 6 
#
# 1 0.020496 -0.004397 -0.004733 0.000000 -0.005396 0.000000
# 2 -0.004397 0.028155 -0.002827 0.000002 0.004231 -0.000002
# 3 -0.004733 -0.002827 0.006506 0.000000 0.001869 0.000000
# 4 0.000000 0.000002 0.000000 -0.078200 0.000000 0.109390
# 5 -0.005396 0.004231 0.001869 0.000000 0.076201 0.000000
# 6 0.000000 -0.000002 0.000000 0.109390 0.000000 -0.031409
#
#
# Mechanical properties :
#
#
# Convention : Reuss Voigt Hill
#
# Bulk Modulus (GPa) = 32.00560 56.35413 44.17987
# Shear Modulus (GPa) = 89.16230 19.29326 54.22778
#
# Velocity S-wave (km/s) = 7.18000 3.33992 5.59944
# Velocity P-wave (km/s) = 9.34032 6.88887 8.20665
#
# Compressibility (1/GPa) = 0.03124453
#
# Stress axis : x y z
#
# Youngs Moduli (GPa) = 48.79023 35.51714 153.70147
#
# Poissons Ratio (x) = 0.15618 0.72741
# Poissons Ratio (y) = 0.21454 0.43445
# Poissons Ratio (z) = 0.23091 0.10039
#
# Static dielectric constant tensor:
#      x y z
#    x 1.545510 0.000000 0.008370 
#    y 0.000000 1.585020 0.000000 
#    z 0.008370 0.000000 1.665930 
# 
# From -- ./inp_files/229265.got.cif
#   From: 2010.05.17/outbox.cif.g08.bks.cpg/sg12_115_cif.got.tgz:229265.got - 2010.06.03 13:09:07.
