data_PCOD9169128
_publ_section_title
;
Structure prediction by ZEFSAII (Michael W. Deem and Ramdas Pophale) SiO2 
 PCOD9169128
Probable space group: C 2/M
;
_chemical_formula_sum "Si O2"
_cell_formula_units_Z 46
_cell_length_a 13.991005
_cell_length_b 10.945695
_cell_length_c 20.787866
_cell_angle_alpha 90.000000
_cell_angle_beta 38.175564
_cell_angle_gamma 90.000000
_cell_volume 1967.623775
_symmetry_space_group_name_H-M "C 2/M"
_symmetry_group_IT_number 12
_symmetry_cell_setting 'monoclinic'
loop_
_space_group_symop_operation_xyz
x,y,z
-x,y,-z
-x,-y,-z
x,-y,z
1/2+x,1/2+y,z
1/2-x,1/2+y,-z
1/2-x,1/2-y,-z
1/2+x,1/2-y,z
loop_
_atom_site_type_symbol
_atom_site_label
_atom_site_fract_x
_atom_site_fract_y
_atom_site_fract_z
Si Si1 0.161374 0.856546 0.383584
Si Si2 0.480033 0.500000 0.227743
Si Si3 0.192164 0.710789 0.250761
Si Si4 0.420939 0.500000 0.971883
Si Si5 0.851205 0.500000 0.622459
Si Si6 0.500000 0.000000 0.000000
Si Si7 0.450513 0.233322 0.941586
Si Si8 0.000606 0.270259 0.232480
O O1 0.155047 0.834657 0.309858
O O2 0.315770 0.793616 0.330695
O O3 0.000000 0.814057 0.500000
O O4 0.178004 0.000000 0.387634
O O5 0.488666 0.500000 0.144939
O O6 0.300557 0.500000 0.341058
O O7 0.545298 0.627368 0.216305
O O8 0.162902 0.614608 0.322903
O O9 0.372068 0.723286 0.137739
O O10 0.088543 0.671827 0.245645
O O11 0.355545 0.359717 0.002683
O O12 0.500000 0.500000 0.000000
O O13 0.000000 0.500000 0.500000
O O14 0.422211 0.110322 0.996204
O O15 0.455205 0.198889 0.863927
#
# Coordination Sequence:
#
# PCOD9169128 Si02
#       8
#     8   4   8   4   4   2   8   8
#     4  10  22  40  57  88 133 168 210 265 320 381
#     4  10  20  41  59  90 122 166 213 267 319 379
#     4  11  23  40  66  91 124 172 214 270 327 380
#     4  10  16  38  68  86 113 175 209 263 329 403
#     4  12  22  41  64  94 127 170 227 273 313 387
#     4  12  24  38  70 100 126 180 204 268 350 412
#     4  10  22  40  65  92 130 164 220 268 335 398
#     4  10  23  39  66  90 126 170 218 263 326 391
#
# _framework density 23.378454000000001
#
# number of rings (size 3 to 8) (size 9 to 14) (size 15 to 20)
#    0.000    1.565    6.087    0.522    7.304    0.696 
#    0.000    0.870    7.652    0.000    0.000    0.000 
#    0.000    0.000    0.000    0.000    0.000    0.000 
#
# Total GULP energy -128051.014089 kJ/mol
# GULP energy per Si atom -5567.435395 kJ/mol
# Density = 2.332524 g / cm^3
# Si number density = 23.378454 Si / 1000 Ang^3
#
#
#
# Elastic Constant Matrix: (Units=GPa)
#
#
# Indices 1 2 3 4 5 6 
#
# 1 132.8047 6.2327 44.2388 0.0000 -9.2061 0.0000
# 2 6.2327 145.1281 33.2686 0.0000 -6.3882 0.0000
# 3 44.2388 33.2686 81.5404 0.0000 -17.3661 0.0000
# 4 0.0000 0.0000 0.0000 23.0690 0.0000 6.7611
# 5 -9.2061 -6.3882 -17.3661 0.0000 22.6263 0.0000
# 6 0.0000 0.0000 0.0000 6.7611 0.0000 -3.5599
#
#
#
# Elastic Compliance Matrix: (Units=1/GPa)
#
#
# Indices 1 2 3 4 5 6 
#
# 1 0.009282 0.000834 -0.005405 0.000000 -0.000136 0.000000
# 2 0.000834 0.007678 -0.003648 0.000000 -0.000292 0.000000
# 3 -0.005405 -0.003648 0.019123 0.000000 0.011448 0.000000
# 4 0.000000 0.000000 0.000000 0.027847 0.000000 0.052889
# 5 -0.000136 -0.000292 0.011448 0.000000 0.052845 0.000000
# 6 0.000000 0.000000 0.000000 0.052889 0.000000 -0.180458
#
#
# Mechanical properties :
#
#
# Convention : Reuss Voigt Hill
#
# Bulk Modulus (GPa) = 50.90167 58.55038 54.72602
# Shear Modulus (GPa) = -122.85631 26.80928 -48.02352
#
# Velocity S-wave (km/s) = -7.25708 3.39005 -4.53722
# Velocity P-wave (km/s) = 6.95702 6.35784 1.99723
#
# Compressibility (1/GPa) = 0.01964572
#
# Stress axis : x y z
#
# Youngs Moduli (GPa) = 107.73794 130.24371 52.29367
#
# Poissons Ratio (x) = -0.10868 0.28266
# Poissons Ratio (y) = -0.08990 0.19075
# Poissons Ratio (z) = 0.58235 0.47507
#
# Static dielectric constant tensor:
#      x y z
#    x 1.908580 0.000000 -0.053250 
#    y 0.000000 1.963010 0.000000 
#    z -0.053250 0.000000 1.904910 
# 
# From -- ./inp_files/309429.got.cif
#   From: 2010.05.17/outbox.cif.g08.bks.cpg/sg12_155_cif.got.tgz:309429.got - 2010.06.03 13:09:07.
