data_PCOD9169753
_publ_section_title
;
Structure prediction by ZEFSAII (Michael W. Deem and Ramdas Pophale) SiO2 
 PCOD9169753
Probable space group: C 2/M
;
_chemical_formula_sum "Si O2"
_cell_formula_units_Z 56
_cell_length_a 22.289768
_cell_length_b 12.970621
_cell_length_c 17.413987
_cell_angle_alpha 90.000000
_cell_angle_beta 43.743939
_cell_angle_gamma 90.000000
_cell_volume 3481.103383
_symmetry_space_group_name_H-M "C 2/M"
_symmetry_group_IT_number 12
_symmetry_cell_setting 'monoclinic'
loop_
_space_group_symop_operation_xyz
x,y,z
-x,y,-z
-x,-y,-z
x,-y,z
1/2+x,1/2+y,z
1/2-x,1/2+y,-z
1/2-x,1/2-y,-z
1/2+x,1/2-y,z
loop_
_atom_site_type_symbol
_atom_site_label
_atom_site_fract_x
_atom_site_fract_y
_atom_site_fract_z
Si Si1 0.158013 0.334188 0.149154
Si Si2 0.969082 0.378030 0.145707
Si Si3 0.086260 0.374209 0.467059
Si Si4 0.755128 0.882468 0.214054
Si Si5 0.864141 0.312882 0.099975
Si Si6 0.957329 0.619613 0.326998
Si Si7 0.229675 0.884246 0.103130
O O1 0.216203 0.377822 0.164146
O O2 0.163175 0.209934 0.152710
O O3 0.060721 0.373827 0.244615
O O4 0.200978 0.368388 0.029731
O O5 0.991134 0.500000 0.131166
O O6 0.895108 0.364366 0.150241
O O7 0.943095 0.338545 0.254209
O O8 0.053990 0.321754 0.033319
O O9 0.082584 0.500000 0.471679
O O10 0.174898 0.347093 0.341824
O O11 0.084004 0.335999 0.557074
O O12 0.000000 0.340879 0.500000
O O13 0.834171 0.803408 0.144004
O O14 0.777991 0.000000 0.212086
O O15 0.783254 0.366201 0.131968
O O16 0.930377 0.500000 0.348671
O O17 0.194477 0.000000 0.132502
#
# Coordination Sequence:
#
# PCOD9169753 Si02
#       7
#     8   8   8   8   8   8   8
#     4  10  18  26  43  69  95 120 148 183 233 283
#     4  10  19  32  49  68  93 118 154 200 229 265
#     4   9  16  27  46  69  94 122 150 184 232 277
#     4  10  19  31  46  69  99 122 148 190 232 280
#     4  10  19  30  47  68  91 123 158 186 229 274
#     4  10  17  28  47  70  94 118 147 192 237 270
#     4  10  18  28  42  65  96 124 149 183 228 278
#
# _framework density 16.086853000000001
#
# number of rings (size 3 to 8) (size 9 to 14) (size 15 to 20)
#    0.000    2.143    2.857    3.000    0.000    0.000 
#    0.000    2.143    0.000    0.857    0.000   10.000 
#    0.000    0.000    0.000    0.000    0.000    0.000 
#
# Total GULP energy -155974.620926 kJ/mol
# GULP energy per Si atom -5570.522176 kJ/mol
# Density = 1.605024 g / cm^3
# Si number density = 16.086853 Si / 1000 Ang^3
#
#
#
# Elastic Constant Matrix: (Units=GPa)
#
#
# Indices 1 2 3 4 5 6 
#
# 1 58.4570 6.0934 31.7058 0.0000 21.1920 0.0000
# 2 6.0934 70.5644 27.3902 0.0000 2.9998 0.0000
# 3 31.7058 27.3902 73.0786 0.0000 18.0317 0.0000
# 4 0.0000 0.0000 0.0000 1.2955 0.0000 -4.7134
# 5 21.1920 2.9998 18.0317 0.0000 19.3419 0.0000
# 6 0.0000 0.0000 0.0000 -4.7134 0.0000 12.2227
#
#
#
# Elastic Compliance Matrix: (Units=1/GPa)
#
#
# Indices 1 2 3 4 5 6 
#
# 1 0.030673 0.001249 -0.007060 0.000000 -0.027219 0.000000
# 2 0.001249 0.016900 -0.007652 0.000000 0.003144 0.000000
# 3 -0.007060 -0.007652 0.022616 0.000000 -0.012162 0.000000
# 4 0.000000 0.000000 0.000000 -1.915183 0.000000 -0.738550
# 5 -0.027219 0.003144 -0.012162 0.000000 0.092374 0.000000
# 6 0.000000 0.000000 0.000000 -0.738550 0.000000 -0.202992
#
#
# Mechanical properties :
#
#
# Convention : Reuss Voigt Hill
#
# Bulk Modulus (GPa) = 23.11432 36.94207 30.02819
# Shear Modulus (GPa) = -2.61197 15.69940 6.54371
#
# Velocity S-wave (km/s) = -1.27561 3.12735 2.01905
# Velocity P-wave (km/s) = 3.49715 6.00453 4.91348
#
# Compressibility (1/GPa) = 0.04326323
#
# Stress axis : x y z
#
# Youngs Moduli (GPa) = 32.60201 59.17131 44.21726
#
# Poissons Ratio (x) = -0.07389 0.31216
# Poissons Ratio (y) = -0.04071 0.33834
# Poissons Ratio (z) = 0.23016 0.45277
#
# Static dielectric constant tensor:
#      x y z
#    x 1.550970 0.000000 0.031980 
#    y 0.000000 1.555970 0.000000 
#    z 0.031980 0.000000 1.546770 
# 
# From -- ./inp_files/289021.got.cif
#   From: 2010.05.17/outbox.cif.g08.bks.cpg/sg12_145_cif.got.tgz:289021.got - 2010.06.03 13:09:07.
