data_PCOD9169695
_publ_section_title
;
Structure prediction by ZEFSAII (Michael W. Deem and Ramdas Pophale) SiO2 
 PCOD9169695
Probable space group: C 2/M
;
_chemical_formula_sum "Si O2"
_cell_formula_units_Z 48
_cell_length_a 25.091505
_cell_length_b 7.560118
_cell_length_c 15.695240
_cell_angle_alpha 90.000000
_cell_angle_beta 57.107696
_cell_angle_gamma 90.000000
_cell_volume 2500.021158
_symmetry_space_group_name_H-M "C 2/M"
_symmetry_group_IT_number 12
_symmetry_cell_setting 'monoclinic'
loop_
_space_group_symop_operation_xyz
x,y,z
-x,y,-z
-x,-y,-z
x,-y,z
1/2+x,1/2+y,z
1/2-x,1/2+y,-z
1/2-x,1/2-y,-z
1/2+x,1/2-y,z
loop_
_atom_site_type_symbol
_atom_site_label
_atom_site_fract_x
_atom_site_fract_y
_atom_site_fract_z
Si Si1 0.462163 0.212820 0.614878
Si Si2 0.056004 0.216199 0.886475
Si Si3 0.688260 0.299336 0.840764
Si Si4 0.319610 0.217350 0.776541
Si Si5 0.659696 0.202205 0.052918
Si Si6 0.016732 0.209342 0.214424
O O1 0.500000 0.279372 0.500000
O O2 0.388929 0.274668 0.684595
O O3 0.495431 0.256659 0.675749
O O4 0.459390 0.000000 0.611741
O O5 0.125509 0.282228 0.853314
O O6 0.035363 0.266183 0.809101
O O7 0.058033 0.000000 0.890335
O O8 0.000000 0.271920 0.000000
O O9 0.692913 0.500000 0.803835
O O10 0.759017 0.221124 0.775247
O O11 0.674355 0.303711 0.954101
O O12 0.313079 0.272121 0.881356
O O13 0.319162 0.000000 0.777921
O O14 0.583914 0.203950 0.133304
O O15 0.680081 0.000000 0.023281
O O16 0.025919 0.000000 0.194661
#
# Coordination Sequence:
#
# PCOD9169695 Si02
#       6
#     8   8   8   8   8   8
#     4   9  18  34  53  71  92 114 142 190 242 281
#     4   9  16  27  43  65  92 123 158 187 215 253
#     4  10  17  28  45  62  88 124 157 187 217 260
#     4   8  16  28  44  66  87 114 152 186 225 274
#     4  10  18  28  41  64  96 123 152 185 224 270
#     4  10  18  30  48  69  92 120 157 192 221 261
#
# _framework density 19.199838
#
# number of rings (size 3 to 8) (size 9 to 14) (size 15 to 20)
#    0.000    2.667    1.667    2.500    0.000    0.333 
#    0.000    5.833    0.000    1.000    0.000    0.000 
#    0.000    0.000    0.000    0.000    0.000    0.167 
#
# Total GULP energy -133843.804178 kJ/mol
# GULP energy per Si atom -5576.825174 kJ/mol
# Density = 1.915614 g / cm^3
# Si number density = 19.199838 Si / 1000 Ang^3
#
#
#
# Elastic Constant Matrix: (Units=GPa)
#
#
# Indices 1 2 3 4 5 6 
#
# 1 199.3127 4.9401 64.1363 0.0001 12.8119 0.0001
# 2 4.9401 53.3974 3.2521 0.0004 -2.5433 0.0003
# 3 64.1363 3.2521 99.2085 0.0000 6.5996 0.0000
# 4 0.0001 0.0004 0.0000 11.9819 0.0000 4.0017
# 5 12.8119 -2.5433 6.5996 0.0000 13.3851 0.0000
# 6 0.0001 0.0003 0.0000 4.0017 0.0000 5.6877
#
#
#
# Elastic Compliance Matrix: (Units=1/GPa)
#
#
# Indices 1 2 3 4 5 6 
#
# 1 0.006588 -0.000582 -0.003942 0.000000 -0.004473 0.000000
# 2 -0.000582 0.019026 -0.000543 0.000000 0.004440 -0.000001
# 3 -0.003942 -0.000543 0.012823 0.000000 -0.002652 0.000000
# 4 0.000000 0.000000 0.000000 0.109094 0.000000 -0.076756
# 5 -0.004473 0.004440 -0.002652 0.000000 0.081142 0.000000
# 6 0.000000 -0.000001 0.000000 -0.076756 0.000000 0.229823
#
#
# Mechanical properties :
#
#
# Convention : Reuss Voigt Hill
#
# Bulk Modulus (GPa) = 35.33332 55.17504 45.25418
# Shear Modulus (GPa) = 10.45885 24.85027 17.65456
#
# Velocity S-wave (km/s) = 2.33649 3.60154 3.03564
# Velocity P-wave (km/s) = 5.07167 6.78928 5.99234
#
# Compressibility (1/GPa) = 0.02830190
#
# Stress axis : x y z
#
# Youngs Moduli (GPa) = 151.79737 52.55985 77.98766
#
# Poissons Ratio (x) = 0.03061 0.30744
# Poissons Ratio (y) = 0.08841 0.04231
# Poissons Ratio (z) = 0.59842 0.02852
#
# Static dielectric constant tensor:
#      x y z
#    x 1.718270 0.000000 -0.007850 
#    y 0.000000 1.715120 0.000000 
#    z -0.007850 0.000000 1.636730 
# 
# From -- ./inp_files/230430.got.cif
#   From: 2010.05.17/outbox.cif.g08.bks.cpg/sg12_116_cif.got.tgz:230430.got - 2010.06.03 13:09:07.
