data_PCOD9169612
_publ_section_title
;
Structure prediction by ZEFSAII (Michael W. Deem and Ramdas Pophale) SiO2 
 PCOD9169612
Probable space group: C 2/M
;
_chemical_formula_sum "Si O2"
_cell_formula_units_Z 64
_cell_length_a 22.675034
_cell_length_b 20.923312
_cell_length_c 8.471966
_cell_angle_alpha 90.000000
_cell_angle_beta 123.562839
_cell_angle_gamma 90.000000
_cell_volume 3349.296015
_symmetry_space_group_name_H-M "C 2/M"
_symmetry_group_IT_number 12
_symmetry_cell_setting 'monoclinic'
loop_
_space_group_symop_operation_xyz
x,y,z
-x,y,-z
-x,-y,-z
x,-y,z
1/2+x,1/2+y,z
1/2-x,1/2+y,-z
1/2-x,1/2-y,-z
1/2+x,1/2-y,z
loop_
_atom_site_type_symbol
_atom_site_label
_atom_site_fract_x
_atom_site_fract_y
_atom_site_fract_z
Si Si1 0.824634 0.801142 0.264054
Si Si2 0.096399 0.687371 0.183026
Si Si3 0.447088 0.208260 0.560078
Si Si4 0.276443 0.879178 0.429100
Si Si5 0.779816 0.929233 0.339140
Si Si6 0.602721 0.928798 0.601902
Si Si7 0.316104 0.278326 0.894287
Si Si8 0.116369 0.428431 0.997067
O O1 0.876591 0.749118 0.417991
O O2 0.826277 0.870483 0.345854
O O3 0.744695 0.775088 0.166921
O O4 0.839265 0.802881 0.099451
O O5 0.041795 0.712066 0.235037
O O6 0.165433 0.662500 0.386502
O O7 0.122482 0.744301 0.111314
O O8 0.080765 0.626020 0.050366
O O9 0.500000 0.229670 0.500000
O O10 0.439024 0.131946 0.524093
O O11 0.236013 0.920653 0.498932
O O12 0.320571 0.919370 0.365856
O O13 0.222021 0.833060 0.261639
O O14 0.701306 0.924008 0.146169
O O15 0.807729 0.000000 0.346124
O O16 0.576221 0.000000 0.522563
O O17 0.604298 0.921716 0.792762
O O18 0.094720 0.500000 0.014991
#
# Coordination Sequence:
#
# PCOD9169612 Si02
#       8
#     8   8   8   8   8   8   8   8
#     4  11  20  33  55  76 108 135 171 215 259 315
#     4  10  18  30  50  73 101 132 169 214 257 307
#     4  11  24  38  52  72 100 139 182 221 256 301
#     4  10  17  27  47  76 107 135 162 207 254 319
#     4  10  19  30  49  80 113 137 163 204 261 323
#     4  10  19  32  49  70 102 142 181 217 251 292
#     4  11  18  30  54  83 103 133 168 209 269 310
#     4   9  17  29  47  74 106 137 167 206 260 310
#
# _framework density 19.108492999999999
#
# number of rings (size 3 to 8) (size 9 to 14) (size 15 to 20)
#    0.000    1.750    5.000    3.000    0.000    3.250 
#    0.000    3.125    0.000    1.875    0.000    0.000 
#    0.000    2.000    0.000    0.000    0.000    0.000 
#
# Total GULP energy -178606.863312 kJ/mol
# GULP energy per Si atom -5581.464478 kJ/mol
# Density = 1.906500 g / cm^3
# Si number density = 19.108493 Si / 1000 Ang^3
#
#
#
# Elastic Constant Matrix: (Units=GPa)
#
#
# Indices 1 2 3 4 5 6 
#
# 1 81.2435 44.4389 36.7309 0.0000 -30.5982 0.0000
# 2 44.4389 98.7095 32.0429 0.0000 -12.1093 0.0000
# 3 36.7309 32.0429 65.1083 0.0000 -25.1400 0.0000
# 4 0.0000 0.0000 0.0000 24.1072 0.0000 -6.7007
# 5 -30.5982 -12.1093 -25.1400 0.0000 30.1413 0.0000
# 6 0.0000 0.0000 0.0000 -6.7007 0.0000 11.5933
#
#
#
# Elastic Compliance Matrix: (Units=1/GPa)
#
#
# Indices 1 2 3 4 5 6 
#
# 1 0.025760 -0.008254 -0.002439 0.000000 0.020800 0.000000
# 2 -0.008254 0.014702 -0.005213 0.000000 -0.006820 0.000000
# 3 -0.002439 -0.005213 0.025866 0.000000 0.017004 0.000000
# 4 0.000000 0.000000 0.000000 0.049421 0.000000 0.028564
# 5 0.020800 -0.006820 0.017004 0.000000 0.065735 0.000000
# 6 0.000000 0.000000 0.000000 0.028564 0.000000 0.102767
#
#
# Mechanical properties :
#
#
# Convention : Reuss Voigt Hill
#
# Bulk Modulus (GPa) = 28.97082 52.38739 40.67911
# Shear Modulus (GPa) = 15.26408 21.95825 18.61116
#
# Velocity S-wave (km/s) = 2.82939 3.39357 3.12424
# Velocity P-wave (km/s) = 5.08607 6.54449 5.86082
#
# Compressibility (1/GPa) = 0.03451749
#
# Stress axis : x y z
#
# Youngs Moduli (GPa) = 38.82034 68.01808 38.66073
#
# Poissons Ratio (x) = 0.56139 0.09429
# Poissons Ratio (y) = 0.32041 0.20152
# Poissons Ratio (z) = 0.09468 0.35455
#
# Static dielectric constant tensor:
#      x y z
#    x 1.702990 0.000000 -0.012960 
#    y 0.000000 1.657200 0.000000 
#    z -0.012960 0.000000 1.692530 
# 
# From -- ./inp_files/98626.got.cif
#   From: 2010.05.17/outbox.cif.g08.bks.cpg/sg12_50_cif.got.tgz:98626.got - 2010.06.03 13:09:07.
