data_PCOD9169508
_publ_section_title
;
Structure prediction by ZEFSAII (Michael W. Deem and Ramdas Pophale) SiO2 
 PCOD9169508
Probable space group: C 2/M
;
_chemical_formula_sum "Si O2"
_cell_formula_units_Z 56
_cell_length_a 28.060406
_cell_length_b 8.606115
_cell_length_c 17.995309
_cell_angle_alpha 90.000000
_cell_angle_beta 125.618893
_cell_angle_gamma 90.000000
_cell_volume 3532.663003
_symmetry_space_group_name_H-M "C 2/M"
_symmetry_group_IT_number 12
_symmetry_cell_setting 'monoclinic'
loop_
_space_group_symop_operation_xyz
x,y,z
-x,y,-z
-x,-y,-z
x,-y,z
1/2+x,1/2+y,z
1/2-x,1/2+y,-z
1/2-x,1/2-y,-z
1/2+x,1/2-y,z
loop_
_atom_site_type_symbol
_atom_site_label
_atom_site_fract_x
_atom_site_fract_y
_atom_site_fract_z
Si Si1 0.712395 0.814154 0.033564
Si Si2 0.266699 0.187738 0.399660
Si Si3 0.398323 0.813817 0.883153
Si Si4 0.955345 0.686852 0.776975
Si Si5 0.842806 0.185572 0.597774
Si Si6 0.229412 0.815796 0.208427
Si Si7 0.420985 0.187994 0.069878
O O1 0.644363 0.757585 0.968625
O O2 0.711362 0.000000 0.029803
O O3 0.750000 0.750000 0.000000
O O4 0.738114 0.763480 0.136764
O O5 0.205791 0.237806 0.384812
O O6 0.318698 0.251126 0.497861
O O7 0.266834 0.237555 0.313821
O O8 0.267676 0.000000 0.401975
O O9 0.433932 0.778295 0.841530
O O10 0.337376 0.722699 0.829261
O O11 0.386042 0.000000 0.872323
O O12 0.429345 0.778581 0.989691
O O13 0.954656 0.500000 0.767930
O O14 0.906797 0.756205 0.678546
O O15 0.022571 0.743362 0.833145
O O16 0.842244 0.000000 0.596249
O O17 0.236734 0.000000 0.206215
O O18 0.420421 0.000000 0.075746
#
# Coordination Sequence:
#
# PCOD9169508 Si02
#       7
#     8   8   8   8   8   8   8
#     4  10  20  35  53  73  95 119 153 193 237 282
#     4   9  18  31  44  62  90 126 163 195 229 271
#     4   9  16  26  42  64  91 124 160 191 221 264
#     4  10  17  27  44  64  91 127 161 190 225 268
#     4  10  19  29  42  63  93 126 162 200 231 264
#     4  10  18  30  48  69  95 123 155 194 235 276
#     4   8  16  29  45  66  90 120 157 191 223 274
#
# _framework density 15.852064
#
# number of rings (size 3 to 8) (size 9 to 14) (size 15 to 20)
#    0.000    2.571    1.429    2.571    0.000    3.429 
#    0.000    3.571    0.000    4.286    0.000    1.000 
#    0.000    8.000    0.000    0.000    0.000    0.000 
#
# Total GULP energy -155999.479799 kJ/mol
# GULP energy per Si atom -5571.409993 kJ/mol
# Density = 1.581598 g / cm^3
# Si number density = 15.852064 Si / 1000 Ang^3
#
#
#
# Elastic Constant Matrix: (Units=GPa)
#
#
# Indices 1 2 3 4 5 6 
#
# 1 66.2312 21.9020 68.1307 0.0000 -1.6191 0.0000
# 2 21.9020 19.0258 29.2134 0.0000 -3.3530 0.0000
# 3 68.1307 29.2134 148.7460 0.0000 12.1051 0.0000
# 4 0.0000 0.0000 0.0000 22.6409 0.0000 -0.9432
# 5 -1.6191 -3.3530 12.1051 0.0000 21.8379 0.0000
# 6 0.0000 0.0000 0.0000 -0.9432 0.0000 16.1304
#
#
#
# Elastic Compliance Matrix: (Units=1/GPa)
#
#
# Indices 1 2 3 4 5 6 
#
# 1 0.034604 -0.019358 -0.012582 0.000000 0.006568 0.000000
# 2 -0.019358 0.096199 -0.011637 0.000000 0.019786 0.000000
# 3 -0.012582 -0.011637 0.015701 0.000000 -0.011423 0.000000
# 4 0.000000 0.000000 0.000000 0.044276 0.000000 0.002589
# 5 0.006568 0.019786 -0.011423 0.000000 0.055649 0.000000
# 6 0.000000 0.000000 0.000000 0.002589 0.000000 0.062146
#
#
# Mechanical properties :
#
#
# Convention : Reuss Voigt Hill
#
# Bulk Modulus (GPa) = 16.84921 52.49947 34.67434
# Shear Modulus (GPa) = 12.03332 19.77231 15.90282
#
# Velocity S-wave (km/s) = 2.75817 3.53555 3.17077
# Velocity P-wave (km/s) = 4.56020 7.06095 5.94359
#
# Compressibility (1/GPa) = 0.05934995
#
# Stress axis : x y z
#
# Youngs Moduli (GPa) = 28.89849 10.39507 63.68963
#
# Poissons Ratio (x) = 0.20123 0.80137
# Poissons Ratio (y) = 0.55941 0.74116
# Poissons Ratio (z) = 0.36361 0.12097
#
# Static dielectric constant tensor:
#      x y z
#    x 1.517600 0.000000 0.012130 
#    y 0.000000 1.536250 0.000000 
#    z 0.012130 0.000000 1.546070 
# 
# From -- ./inp_files/244306.got.cif
#   From: 2010.05.17/outbox.cif.g08.bks.cpg/sg12_123_cif.got.tgz:244306.got - 2010.06.03 13:09:07.
