data_PCOD9169492
_publ_section_title
;
Structure prediction by ZEFSAII (Michael W. Deem and Ramdas Pophale) SiO2 
 PCOD9169492
Probable space group: C 2/M
;
_chemical_formula_sum "Si O2"
_cell_formula_units_Z 48
_cell_length_a 25.246937
_cell_length_b 8.614307
_cell_length_c 15.849552
_cell_angle_alpha 90.000000
_cell_angle_beta 118.670930
_cell_angle_gamma 90.000000
_cell_volume 3024.395371
_symmetry_space_group_name_H-M "C 2/M"
_symmetry_group_IT_number 12
_symmetry_cell_setting 'monoclinic'
loop_
_space_group_symop_operation_xyz
x,y,z
-x,y,-z
-x,-y,-z
x,-y,z
1/2+x,1/2+y,z
1/2-x,1/2+y,-z
1/2-x,1/2-y,-z
1/2+x,1/2-y,z
loop_
_atom_site_type_symbol
_atom_site_label
_atom_site_fract_x
_atom_site_fract_y
_atom_site_fract_z
Si Si1 0.654357 0.686488 0.766722
Si Si2 0.288523 0.686047 0.829429
Si Si3 0.294200 0.185353 0.655514
Si Si4 0.833842 0.312525 0.504676
Si Si5 0.430953 0.812397 0.442926
Si Si6 0.183349 0.813092 0.969107
O O1 0.655113 0.500000 0.762158
O O2 0.720643 0.747431 0.789822
O O3 0.604530 0.752007 0.665781
O O4 0.644828 0.734370 0.857750
O O5 0.284041 0.500000 0.824288
O O6 0.313116 0.744290 0.759134
O O7 0.327190 0.733970 0.941837
O O8 0.226203 0.241811 0.583017
O O9 0.332899 0.231507 0.602631
O O10 0.294270 0.000000 0.661967
O O11 0.828406 0.500000 0.496202
O O12 0.891868 0.265388 0.495039
O O13 0.500000 0.758774 0.500000
O O14 0.430969 0.000000 0.440065
O O15 0.184766 0.000000 0.969379
O O16 0.250000 0.750000 0.000000
#
# Coordination Sequence:
#
# PCOD9169492 Si02
#       6
#     8   8   8   8   8   8
#     4  10  18  29  44  64  89 116 148 186 221 258
#     4  10  17  27  43  64  91 121 146 174 219 270
#     4  10  18  27  43  66  90 117 146 180 219 264
#     4   9  18  31  44  61  88 119 148 180 222 266
#     4  10  20  33  48  65  87 119 154 184 219 265
#     4   8  16  27  40  60  87 116 144 175 217 266
#
# _framework density 15.870939999999999
#
# number of rings (size 3 to 8) (size 9 to 14) (size 15 to 20)
#    0.000    2.500    1.667    1.500    0.000    2.333 
#    0.000    0.000    0.000    0.000    0.000    1.167 
#    0.000    9.333    0.000    0.000    0.000    0.000 
#
# Total GULP energy -133639.436571 kJ/mol
# GULP energy per Si atom -5568.309857 kJ/mol
# Density = 1.583482 g / cm^3
# Si number density = 15.870940 Si / 1000 Ang^3
#
#
#
# Elastic Constant Matrix: (Units=GPa)
#
#
# Indices 1 2 3 4 5 6 
#
# 1 81.5984 20.7156 69.7879 0.0000 -12.1487 0.0000
# 2 20.7156 13.3727 25.3029 0.0000 -6.8653 0.0000
# 3 69.7879 25.3029 157.5641 0.0000 -33.1329 0.0000
# 4 0.0000 0.0000 0.0000 23.2022 0.0000 -5.1046
# 5 -12.1487 -6.8653 -33.1329 0.0000 24.7979 0.0000
# 6 0.0000 0.0000 0.0000 -5.1046 0.0000 12.8504
#
#
#
# Elastic Compliance Matrix: (Units=1/GPa)
#
#
# Indices 1 2 3 4 5 6 
#
# 1 0.024989 -0.026491 -0.008041 0.000000 -0.005835 0.000000
# 2 -0.026491 0.137069 -0.006992 0.000000 0.015627 0.000000
# 3 -0.008041 -0.006992 0.013623 0.000000 0.012327 0.000000
# 4 0.000000 0.000000 0.000000 0.047227 0.000000 0.018760
# 5 -0.005835 0.015627 0.012327 0.000000 0.058264 0.000000
# 6 0.000000 0.000000 0.000000 0.018760 0.000000 0.085271
#
#
# Mechanical properties :
#
#
# Convention : Reuss Voigt Hill
#
# Bulk Modulus (GPa) = 10.79539 53.79421 32.29480
# Shear Modulus (GPa) = 10.40868 21.28534 15.84701
#
# Velocity S-wave (km/s) = 2.56370 3.66615 3.16332
# Velocity P-wave (km/s) = 3.94717 7.20342 5.80816
#
# Compressibility (1/GPa) = 0.09263217
#
# Stress axis : x y z
#
# Youngs Moduli (GPa) = 40.01785 7.29560 73.40494
#
# Poissons Ratio (x) = 0.19327 0.59024
# Poissons Ratio (y) = 1.06013 0.51325
# Poissons Ratio (z) = 0.32178 0.05101
#
# Static dielectric constant tensor:
#      x y z
#    x 1.503940 0.000000 -0.044670 
#    y 0.000000 1.539240 0.000000 
#    z -0.044670 0.000000 1.574650 
# 
# From -- ./inp_files/236584.got.cif
#   From: 2010.05.17/outbox.cif.g08.bks.cpg/sg12_119_cif.got.tgz:236584.got - 2010.06.03 13:09:07.
