data_PCOD9169277
_publ_section_title
;
Structure prediction by ZEFSAII (Michael W. Deem and Ramdas Pophale) SiO2 
 PCOD9169277
Probable space group: C 2/M
;
_chemical_formula_sum "Si O2"
_cell_formula_units_Z 64
_cell_length_a 19.635248
_cell_length_b 7.393591
_cell_length_c 23.081703
_cell_angle_alpha 90.000000
_cell_angle_beta 67.868497
_cell_angle_gamma 90.000000
_cell_volume 3103.998249
_symmetry_space_group_name_H-M "C 2/M"
_symmetry_group_IT_number 12
_symmetry_cell_setting 'monoclinic'
loop_
_space_group_symop_operation_xyz
x,y,z
-x,y,-z
-x,-y,-z
x,-y,z
1/2+x,1/2+y,z
1/2-x,1/2+y,-z
1/2-x,1/2-y,-z
1/2+x,1/2-y,z
loop_
_atom_site_type_symbol
_atom_site_label
_atom_site_fract_x
_atom_site_fract_y
_atom_site_fract_z
Si Si1 0.333681 0.716163 0.845901
Si Si2 0.922475 0.712962 0.501946
Si Si3 0.672147 0.714875 0.899903
Si Si4 0.009703 0.779287 0.240758
Si Si5 0.871843 0.779990 0.961528
Si Si6 0.532508 0.279996 0.874708
Si Si7 0.237662 0.715714 0.435563
Si Si8 0.602143 0.719112 0.625727
O O1 0.340394 0.500000 0.846728
O O2 0.253033 0.756836 0.848981
O O3 0.405036 0.779651 0.787791
O O4 0.339532 0.784078 0.910552
O O5 0.922729 0.500000 0.516411
O O6 0.844362 0.787123 0.551424
O O7 0.916990 0.729289 0.434072
O O8 0.000000 0.788782 0.500000
O O9 0.660878 0.500000 0.907568
O O10 0.605839 0.785825 0.882128
O O11 0.666119 0.785764 0.967735
O O12 0.976914 0.724599 0.188944
O O13 0.959355 0.717582 0.309639
O O14 0.009134 0.000000 0.242500
O O15 0.958110 0.731094 0.932615
O O16 0.867520 0.000000 0.962166
O O17 0.533942 0.500000 0.873570
O O18 0.235082 0.500000 0.426967
O O19 0.250000 0.750000 0.500000
O O20 0.314965 0.781835 0.384469
O O21 0.603580 0.500000 0.626408
#
# Coordination Sequence:
#
# PCOD9169277 Si02
#       8
#     8   8   8   8   8   8   8   8
#     4   9  17  29  43  58  83 117 143 168 212 267
#     4   9  17  29  44  66  97 122 134 157 209 264
#     4  10  17  25  42  67  87 103 135 185 226 253
#     4   8  15  29  46  61  79 110 150 180 205 245
#     4   8  14  25  42  62  82 109 144 176 211 258
#     4   8  14  25  42  63  84 107 139 180 218 250
#     4   8  14  25  42  63  84 107 136 167 198 233
#     4   9  16  28  48  67  81 107 150 187 203 228
#
# _framework density 20.618569000000001
#
# number of rings (size 3 to 8) (size 9 to 14) (size 15 to 20)
#    0.000    3.375    0.000    2.250    0.000    1.750 
#    0.000    1.875    0.000    8.250    0.000    0.000 
#    0.000    0.000    0.000    0.000    0.000    0.000 
#
# Total GULP energy -178324.192874 kJ/mol
# GULP energy per Si atom -5572.631027 kJ/mol
# Density = 2.057164 g / cm^3
# Si number density = 20.618569 Si / 1000 Ang^3
#
#
#
# Elastic Constant Matrix: (Units=GPa)
#
#
# Indices 1 2 3 4 5 6 
#
# 1 166.6863 -0.7151 49.1774 0.0019 -41.7804 0.0035
# 2 -0.7151 68.7957 -6.6359 0.0043 1.1301 0.0080
# 3 49.1774 -6.6359 84.8295 0.0022 -31.8342 0.0040
# 4 0.0019 0.0043 0.0022 102.9867 0.0004 176.8885
# 5 -41.7804 1.1301 -31.8342 0.0004 21.1384 0.0008
# 6 0.0035 0.0080 0.0040 176.8885 0.0008 326.4827
#
#
#
# Elastic Compliance Matrix: (Units=1/GPa)
#
#
# Indices 1 2 3 4 5 6 
#
# 1 0.012661 0.000059 0.004725 0.000000 0.032137 0.000000
# 2 0.000059 0.014690 0.001987 0.000000 0.002325 0.000000
# 3 0.004725 0.001987 0.029136 0.000000 0.053111 -0.000001
# 4 0.000000 0.000000 0.000000 0.139890 0.000002 -0.075792
# 5 0.032137 0.002325 0.053111 0.000002 0.190686 -0.000002
# 6 0.000000 0.000000 -0.000001 -0.075792 -0.000002 0.044127
#
#
# Mechanical properties :
#
#
# Convention : Reuss Voigt Hill
#
# Bulk Modulus (GPa) = 14.27974 44.88494 29.58234
# Shear Modulus (GPa) = 11.33813 108.68723 60.01268
#
# Velocity S-wave (km/s) = 2.34754 7.26827 5.40086
# Velocity P-wave (km/s) = 3.78003 9.60486 7.29870
#
# Compressibility (1/GPa) = 0.07002926
#
# Stress axis : x y z
#
# Youngs Moduli (GPa) = 78.98460 68.07404 34.32220
#
# Poissons Ratio (x) = -0.00405 -0.16217
# Poissons Ratio (y) = -0.00470 -0.06820
# Poissons Ratio (z) = -0.37321 -0.13526
#
# Static dielectric constant tensor:
#      x y z
#    x 1.760630 0.000000 -0.037430 
#    y 0.000000 1.803520 0.000000 
#    z -0.037430 0.000000 1.707950 
# 
# From -- ./inp_files/339321.got.cif
#   From: 2010.05.17/outbox.cif.g08.bks.cpg/sg12_170_cif.got.tgz:339321.got - 2010.06.03 13:09:07.
