data_PCOD9169265
_publ_section_title
;
Structure prediction by ZEFSAII (Michael W. Deem and Ramdas Pophale) SiO2 
 PCOD9169265
Probable space group: C 2/M
;
_chemical_formula_sum "Si O2"
_cell_formula_units_Z 64
_cell_length_a 32.527399
_cell_length_b 7.352514
_cell_length_c 12.388827
_cell_angle_alpha 90.000000
_cell_angle_beta 101.704421
_cell_angle_gamma 90.000000
_cell_volume 2901.282151
_symmetry_space_group_name_H-M "C 2/M"
_symmetry_group_IT_number 12
_symmetry_cell_setting 'monoclinic'
loop_
_space_group_symop_operation_xyz
x,y,z
-x,y,-z
-x,-y,-z
x,-y,z
1/2+x,1/2+y,z
1/2-x,1/2+y,-z
1/2-x,1/2-y,-z
1/2+x,1/2-y,z
loop_
_atom_site_type_symbol
_atom_site_label
_atom_site_fract_x
_atom_site_fract_y
_atom_site_fract_z
Si Si1 0.743257 0.218668 0.178448
Si Si2 0.438785 0.279131 0.916058
Si Si3 0.671037 0.278341 0.858113
Si Si4 0.368858 0.720908 0.392872
Si Si5 0.980449 0.778773 0.165595
Si Si6 0.852124 0.213627 0.926876
Si Si7 0.282742 0.716735 0.423269
Si Si8 0.961921 0.777625 0.401611
O O1 0.780080 0.279305 0.116580
O O2 0.695390 0.271770 0.138101
O O3 0.760890 0.283755 0.302513
O O4 0.743512 0.000000 0.176953
O O5 0.441428 0.500000 0.912435
O O6 0.472851 0.218984 0.846254
O O7 0.390806 0.217130 0.876777
O O8 0.452628 0.227924 0.045771
O O9 0.670857 0.500000 0.860043
O O10 0.648361 0.228873 0.735326
O O11 0.648269 0.210374 0.952239
O O12 0.370586 0.500000 0.399169
O O13 0.331209 0.781671 0.452800
O O14 0.416838 0.782027 0.425064
O O15 0.967497 0.719620 0.279005
O O16 0.979012 0.000000 0.168247
O O17 0.860729 0.000000 0.942125
O O18 0.286090 0.500000 0.413964
O O19 0.250000 0.750000 0.500000
O O20 0.000000 0.721958 0.500000
O O21 0.961945 0.000000 0.400029
#
# Coordination Sequence:
#
# PCOD9169265 Si02
#       8
#     8   8   8   8   8   8   8   8
#     4   9  18  31  43  59  87 119 145 175 220 267
#     4   8  14  23  36  56  82 113 142 172 215 260
#     4   8  14  25  42  59  81 114 149 179 207 252
#     4   8  14  26  42  61  84 116 152 180 216 265
#     4   8  13  23  36  51  80 116 144 172 212 263
#     4  10  17  25  41  68  91 111 145 181 213 253
#     4   9  18  33  50  65  85 117 154 187 221 263
#     4   9  15  22  34  55  83 115 146 176 216 266
#
# _framework density 22.059211999999999
#
# number of rings (size 3 to 8) (size 9 to 14) (size 15 to 20)
#    0.000    3.375    0.000    3.375    0.000    3.500 
#    2.250    0.000    0.000    0.750    0.000    1.750 
#    0.000    1.500    0.000    0.000    0.000    0.250 
#
# Total GULP energy -178333.490526 kJ/mol
# GULP energy per Si atom -5572.921579 kJ/mol
# Density = 2.200900 g / cm^3
# Si number density = 22.059212 Si / 1000 Ang^3
#
#
#
# Elastic Constant Matrix: (Units=GPa)
#
#
# Indices 1 2 3 4 5 6 
#
# 1 220.1130 0.6697 46.8723 0.0000 -6.9976 0.0000
# 2 0.6697 76.8286 -2.4139 0.0000 -4.1346 0.0000
# 3 46.8723 -2.4139 43.1813 0.0000 -10.9516 0.0000
# 4 0.0000 0.0000 0.0000 -26.4684 0.0000 -0.5769
# 5 -6.9976 -4.1346 -10.9516 0.0000 31.1709 0.0000
# 6 0.0000 0.0000 0.0000 -0.5769 0.0000 6.2910
#
#
#
# Elastic Compliance Matrix: (Units=1/GPa)
#
#
# Indices 1 2 3 4 5 6 
#
# 1 0.005946 -0.000322 -0.006746 0.000000 -0.001078 0.000000
# 2 -0.000322 0.013193 0.001660 0.000000 0.002261 0.000000
# 3 -0.006746 0.001660 0.033204 0.000000 0.010372 0.000000
# 4 0.000000 0.000000 0.000000 -0.037706 0.000000 -0.003458
# 5 -0.001078 0.002261 0.010372 0.000000 0.035783 0.000000
# 6 0.000000 0.000000 0.000000 -0.003458 0.000000 0.158641
#
#
# Mechanical properties :
#
#
# Convention : Reuss Voigt Hill
#
# Bulk Modulus (GPa) = 24.08018 47.81989 35.95003
# Shear Modulus (GPa) = 21.39312 21.86501 21.62907
#
# Velocity S-wave (km/s) = 3.11755 3.15174 3.13469
# Velocity P-wave (km/s) = 4.88862 5.91352 5.42533
#
# Compressibility (1/GPa) = 0.04152794
#
# Stress axis : x y z
#
# Youngs Moduli (GPa) = 168.16974 75.79993 30.11673
#
# Poissons Ratio (x) = 0.02439 0.20317
# Poissons Ratio (y) = 0.05412 -0.05000
# Poissons Ratio (z) = 1.13448 -0.12584
#
# Static dielectric constant tensor:
#      x y z
#    x 1.860340 0.000000 -0.016340 
#    y 0.000000 1.906390 0.000000 
#    z -0.016340 0.000000 1.778830 
# 
# From -- ./inp_files/182158.got.cif
#   From: 2010.05.17/outbox.cif.g08.bks.cpg/sg12_92_cif.got.tgz:182158.got - 2010.06.03 13:09:07.
