data_PCOD9169352
_publ_section_title
;
Structure prediction by ZEFSAII (Michael W. Deem and Ramdas Pophale) SiO2 
 PCOD9169352
Probable space group: C 2/M
;
_chemical_formula_sum "Si O2"
_cell_formula_units_Z 64
_cell_length_a 27.773748
_cell_length_b 8.869653
_cell_length_c 17.732017
_cell_angle_alpha 90.000000
_cell_angle_beta 78.887349
_cell_angle_gamma 90.000000
_cell_volume 4286.264694
_symmetry_space_group_name_H-M "C 2/M"
_symmetry_group_IT_number 12
_symmetry_cell_setting 'monoclinic'
loop_
_space_group_symop_operation_xyz
x,y,z
-x,y,-z
-x,-y,-z
x,-y,z
1/2+x,1/2+y,z
1/2-x,1/2+y,-z
1/2-x,1/2-y,-z
1/2+x,1/2-y,z
loop_
_atom_site_type_symbol
_atom_site_label
_atom_site_fract_x
_atom_site_fract_y
_atom_site_fract_z
Si Si1 0.940229 0.679321 0.685992
Si Si2 0.440948 0.673821 0.005046
Si Si3 0.430102 0.178418 0.162130
Si Si4 0.879224 0.680586 0.326677
Si Si5 0.106639 0.681178 0.449669
Si Si6 0.963699 0.181347 0.835418
Si Si7 0.038973 0.821138 0.592267
Si Si8 0.302892 0.179982 0.472021
O O1 0.942445 0.500000 0.696905
O O2 0.897830 0.713444 0.637714
O O3 0.938848 0.759883 0.766971
O O4 0.990007 0.734817 0.630671
O O5 0.425131 0.500000 0.014983
O O6 0.419132 0.765178 0.081240
O O7 0.500000 0.676462 0.000000
O O8 0.435575 0.728450 0.920746
O O9 0.387568 0.209654 0.235971
O O10 0.480694 0.255651 0.175157
O O11 0.438904 0.000000 0.158149
O O12 0.887867 0.500000 0.336565
O O13 0.920602 0.774056 0.357934
O O14 0.828356 0.717306 0.383845
O O15 0.100341 0.500000 0.461567
O O16 0.062863 0.763954 0.507331
O O17 0.157191 0.724556 0.475976
O O18 0.966523 0.000000 0.834560
O O19 0.030820 0.000000 0.593551
O O20 0.250000 0.250000 0.500000
O O21 0.298188 0.000000 0.477170
#
# Coordination Sequence:
#
# PCOD9169352 Si02
#       8
#     8   8   8   8   8   8   8   8
#     4  11  20  30  44  60  83 118 152 180 212 254
#     4   8  16  28  39  54  83 117 145 180 223 252
#     4  10  17  26  43  62  82 114 153 184 211 253
#     4   9  18  31  45  63  89 118 146 179 219 260
#     4   9  20  35  47  60  84 115 144 177 219 262
#     4  10  19  29  40  58  86 119 149 183 221 250
#     4  11  20  28  42  63  87 114 146 183 216 250
#     4   9  18  34  51  66  86 111 140 177 222 266
#
# _framework density 14.931416
#
# number of rings (size 3 to 8) (size 9 to 14) (size 15 to 20)
#    0.000    2.375    1.250    4.125    0.000    7.750 
#    0.000    0.000    0.000    0.000    0.000    0.000 
#    0.000    1.000    0.000    2.250    0.000    4.000 
#
# Total GULP energy -178287.848138 kJ/mol
# GULP energy per Si atom -5571.495254 kJ/mol
# Density = 1.489743 g / cm^3
# Si number density = 14.931416 Si / 1000 Ang^3
#
#
#
# Elastic Constant Matrix: (Units=GPa)
#
#
# Indices 1 2 3 4 5 6 
#
# 1 46.5796 17.8657 48.4376 0.0000 -3.2152 0.0000
# 2 17.8657 37.8272 42.9984 0.0000 1.1698 0.0000
# 3 48.4376 42.9984 151.0245 0.0000 11.8836 0.0000
# 4 0.0000 0.0000 0.0000 25.6507 0.0000 -0.6077
# 5 -3.2152 1.1698 11.8836 0.0000 16.3290 0.0000
# 6 0.0000 0.0000 0.0000 -0.6077 0.0000 15.3321
#
#
#
# Elastic Compliance Matrix: (Units=1/GPa)
#
#
# Indices 1 2 3 4 5 6 
#
# 1 0.036409 -0.004416 -0.011678 0.000000 0.015984 0.000000
# 2 -0.004416 0.040113 -0.010300 0.000000 0.003753 0.000000
# 3 -0.011678 -0.010300 0.014237 0.000000 -0.011923 0.000000
# 4 0.000000 0.000000 0.000000 0.039022 0.000000 0.001547
# 5 0.015984 0.003753 -0.011923 0.000000 0.072796 0.000000
# 6 0.000000 0.000000 0.000000 0.001547 0.000000 0.065284
#
#
# Mechanical properties :
#
#
# Convention : Reuss Voigt Hill
#
# Bulk Modulus (GPa) = 26.33449 50.44830 38.39140
# Shear Modulus (GPa) = 15.00118 19.87102 17.43610
#
# Velocity S-wave (km/s) = 3.17309 3.65200 3.42094
# Velocity P-wave (km/s) = 5.57673 7.18629 6.43206
#
# Compressibility (1/GPa) = 0.03797301
#
# Stress axis : x y z
#
# Youngs Moduli (GPa) = 27.46537 24.92939 70.23710
#
# Poissons Ratio (x) = 0.11009 0.82023
# Poissons Ratio (y) = 0.12129 0.72342
# Poissons Ratio (z) = 0.32074 0.25676
#
# Static dielectric constant tensor:
#      x y z
#    x 1.469130 0.000000 0.022420 
#    y 0.000000 1.501010 0.000000 
#    z 0.022420 0.000000 1.538630 
# 
# From -- ./inp_files/294574.got.cif
#   From: 2010.05.17/outbox.cif.g08.bks.cpg/sg12_148_cif.got.tgz:294574.got - 2010.06.03 13:09:07.
