data_PCOD9169027
_publ_section_title
;
Structure prediction by ZEFSAII (Michael W. Deem and Ramdas Pophale) SiO2 
 PCOD9169027
Probable space group: C 2/M
;
_chemical_formula_sum "Si O2"
_cell_formula_units_Z 64
_cell_length_a 7.945614
_cell_length_b 24.070796
_cell_length_c 21.408378
_cell_angle_alpha 90.000000
_cell_angle_beta 49.809101
_cell_angle_gamma 90.000000
_cell_volume 3127.788385
_symmetry_space_group_name_H-M "C 2/M"
_symmetry_group_IT_number 12
_symmetry_cell_setting 'monoclinic'
loop_
_space_group_symop_operation_xyz
x,y,z
-x,y,-z
-x,-y,-z
x,-y,z
1/2+x,1/2+y,z
1/2-x,1/2+y,-z
1/2-x,1/2-y,-z
1/2+x,1/2-y,z
loop_
_atom_site_type_symbol
_atom_site_label
_atom_site_fract_x
_atom_site_fract_y
_atom_site_fract_z
Si Si1 0.760846 0.849593 0.591782
Si Si2 0.238437 0.272937 0.432654
Si Si3 0.499332 0.357456 0.714088
Si Si4 0.574141 0.560550 0.361872
Si Si5 0.005211 0.314527 0.825619
Si Si6 0.375329 0.315929 0.182284
Si Si7 0.384332 0.061303 0.461191
Si Si8 0.207946 0.684877 0.996605
O O1 0.724524 0.784556 0.614588
O O2 0.777600 0.890195 0.646560
O O3 0.597704 0.883899 0.585518
O O4 0.000000 0.846643 0.500000
O O5 0.250000 0.250000 0.500000
O O6 0.394638 0.317603 0.364412
O O7 0.000000 0.299561 0.500000
O O8 0.520239 0.419296 0.681746
O O9 0.240728 0.343426 0.778222
O O10 0.610350 0.345384 0.753947
O O11 0.677983 0.500000 0.333751
O O12 0.373293 0.557928 0.458734
O O13 0.064837 0.248909 0.818939
O O14 0.854711 0.320588 0.799801
O O15 0.857070 0.335856 0.919282
O O16 0.573458 0.336838 0.089867
O O17 0.500000 0.066696 0.500000
O O18 0.443568 0.000000 0.419954
O O19 0.250000 0.750000 0.000000
O O20 0.000000 0.679542 0.000000
#
# Coordination Sequence:
#
# PCOD9169027 Si02
#       8
#     8   8   8   8   8   8   8   8
#     4   9  18  34  57  77 100 143 194 246 307 366
#     4  11  25  39  54  79 120 160 204 254 309 371
#     4  12  25  40  59  84 121 163 203 253 308 363
#     4  10  22  40  58  77 107 149 203 258 304 354
#     4  11  21  35  57  88 125 159 199 238 297 375
#     4  11  21  35  58  87 125 163 193 240 299 368
#     4   9  17  33  54  77 100 132 190 256 309 353
#     4  10  16  32  54  85 124 161 193 235 289 364
#
# _framework density 20.461743999999999
#
# number of rings (size 3 to 8) (size 9 to 14) (size 15 to 20)
#    0.000    1.625    2.500    5.250    3.500    3.500 
#    2.250    0.000    0.000    0.000    0.000    1.750 
#    0.000    2.000    0.000    0.000    0.000    0.000 
#
# Total GULP energy -178491.816112 kJ/mol
# GULP energy per Si atom -5577.869253 kJ/mol
# Density = 2.041517 g / cm^3
# Si number density = 20.461744 Si / 1000 Ang^3
#
#
#
# Elastic Constant Matrix: (Units=GPa)
#
#
# Indices 1 2 3 4 5 6 
#
# 1 119.4826 17.9605 31.5700 0.0000 15.4716 0.0000
# 2 17.9605 93.3710 12.4566 0.0000 4.7265 0.0000
# 3 31.5700 12.4566 98.2054 0.0000 0.7456 0.0000
# 4 0.0000 0.0000 0.0000 0.0898 0.0000 -7.8929
# 5 15.4716 4.7265 0.7456 0.0000 37.4092 0.0000
# 6 0.0000 0.0000 0.0000 -7.8929 0.0000 12.0499
#
#
#
# Elastic Compliance Matrix: (Units=1/GPa)
#
#
# Indices 1 2 3 4 5 6 
#
# 1 0.009849 -0.001303 -0.002972 0.000000 -0.003849 0.000000
# 2 -0.001303 0.011135 -0.000987 0.000000 -0.000848 0.000000
# 3 -0.002972 -0.000987 0.011255 0.000000 0.001129 0.000000
# 4 0.000000 0.000000 0.000000 -0.196846 0.000000 -0.128937
# 5 -0.003849 -0.000848 0.001129 0.000000 0.028408 0.000000
# 6 0.000000 0.000000 0.000000 -0.128937 0.000000 -0.001468
#
#
# Mechanical properties :
#
#
# Convention : Reuss Voigt Hill
#
# Bulk Modulus (GPa) = 46.05082 48.33703 47.19392
# Shear Modulus (GPa) = -41.69981 26.51458 -7.59261
#
# Velocity S-wave (km/s) = -4.51925 3.60364 -1.92839
# Velocity P-wave (km/s) = 2.16260 6.40230 4.26102
#
# Compressibility (1/GPa) = 0.02171514
#
# Stress axis : x y z
#
# Youngs Moduli (GPa) = 101.53387 89.80484 88.85230
#
# Poissons Ratio (x) = 0.11703 0.26403
# Poissons Ratio (y) = 0.13232 0.08770
# Poissons Ratio (z) = 0.30172 0.08864
#
# Static dielectric constant tensor:
#      x y z
#    x 1.887340 0.000000 0.040950 
#    y 0.000000 1.731470 0.000000 
#    z 0.040950 0.000000 1.786240 
# 
# From -- ./inp_files/302307.got.cif
#   From: 2010.05.17/outbox.cif.g08.bks.cpg/sg12_152_cif.got.tgz:302307.got - 2010.06.03 13:09:07.
