data_PCOD9169548
_publ_section_title
;
Structure prediction by ZEFSAII (Michael W. Deem and Ramdas Pophale) SiO2 
 PCOD9169548
Probable space group: C 2/M
;
_chemical_formula_sum "Si O2"
_cell_formula_units_Z 48
_cell_length_a 24.554177
_cell_length_b 9.194290
_cell_length_c 14.511696
_cell_angle_alpha 90.000000
_cell_angle_beta 110.550087
_cell_angle_gamma 90.000000
_cell_volume 3067.660132
_symmetry_space_group_name_H-M "C 2/M"
_symmetry_group_IT_number 12
_symmetry_cell_setting 'monoclinic'
loop_
_space_group_symop_operation_xyz
x,y,z
-x,y,-z
-x,-y,-z
x,-y,z
1/2+x,1/2+y,z
1/2-x,1/2+y,-z
1/2-x,1/2-y,-z
1/2+x,1/2-y,z
loop_
_atom_site_type_symbol
_atom_site_label
_atom_site_fract_x
_atom_site_fract_y
_atom_site_fract_z
Si Si1 0.941564 0.332580 0.028481
Si Si2 0.168542 0.672118 0.518133
Si Si3 0.873879 0.827760 0.834886
Si Si4 0.545768 0.673891 0.446270
Si Si5 0.010228 0.171886 0.219561
Si Si6 0.219585 0.327693 0.343077
O O1 0.923964 0.500000 0.028736
O O2 0.961535 0.260909 0.135838
O O3 0.894394 0.241357 0.943422
O O4 0.000000 0.329856 0.000000
O O5 0.168915 0.500000 0.536644
O O6 0.105637 0.741213 0.496021
O O7 0.186392 0.693256 0.421305
O O8 0.218002 0.752676 0.606570
O O9 0.928339 0.806530 0.796912
O O10 0.818933 0.747564 0.758094
O O11 0.864093 0.000000 0.837320
O O12 0.500000 0.702219 0.500000
O O13 0.557816 0.500000 0.450883
O O14 0.519045 0.713419 0.330846
O O15 0.996833 0.000000 0.206020
O O16 0.225257 0.500000 0.330937
#
# Coordination Sequence:
#
# PCOD9169548 Si02
#       6
#     8   8   8   8   8   8
#     4   9  17  27  41  63  92 123 155 191 234 284
#     4  10  20  32  47  68  95 126 161 199 239 282
#     4  10  17  27  45  68  95 125 156 191 235 286
#     4  10  20  34  51  70  95 129 166 201 237 278
#     4   9  17  29  44  64  92 125 159 195 234 278
#     4  10  19  30  47  69  96 127 158 194 239 288
#
# _framework density 15.647105
#
# number of rings (size 3 to 8) (size 9 to 14) (size 15 to 20)
#    0.000    2.333    1.667    2.000    0.000    5.000 
#    0.000    0.000    0.000    0.000    0.000    1.167 
#    0.000    0.000    0.000    0.000    0.000    0.000 
#
# Total GULP energy -133846.556029 kJ/mol
# GULP energy per Si atom -5576.939835 kJ/mol
# Density = 1.561149 g / cm^3
# Si number density = 15.647105 Si / 1000 Ang^3
#
#
#
# Elastic Constant Matrix: (Units=GPa)
#
#
# Indices 1 2 3 4 5 6 
#
# 1 66.4154 60.2435 61.4110 0.0000 16.2721 0.0000
# 2 60.2435 100.5005 84.4809 0.0000 25.9611 0.0000
# 3 61.4110 84.4809 135.6463 0.0000 34.1120 0.0000
# 4 0.0000 0.0000 0.0000 29.8906 0.0000 10.4718
# 5 16.2721 25.9611 34.1120 0.0000 25.6185 0.0000
# 6 0.0000 0.0000 0.0000 10.4718 0.0000 20.7599
#
#
#
# Elastic Compliance Matrix: (Units=1/GPa)
#
#
# Indices 1 2 3 4 5 6 
#
# 1 0.035210 -0.016454 -0.006408 0.000000 0.002842 0.000000
# 2 -0.016454 0.029157 -0.008882 0.000000 -0.007270 0.000000
# 3 -0.006408 -0.008882 0.018820 0.000000 -0.011988 0.000000
# 4 0.000000 0.000000 0.000000 0.040637 0.000000 -0.020498
# 5 0.002842 -0.007270 -0.011988 0.000000 0.060559 0.000000
# 6 0.000000 0.000000 0.000000 -0.020498 0.000000 0.058510
#
#
# Mechanical properties :
#
#
# Convention : Reuss Voigt Hill
#
# Bulk Modulus (GPa) = 50.76175 79.42589 65.09382
# Shear Modulus (GPa) = 15.97717 21.68225 18.82971
#
# Velocity S-wave (km/s) = 3.19892 3.72654 3.47277
# Velocity P-wave (km/s) = 6.79384 8.32989 7.60077
#
# Compressibility (1/GPa) = 0.01969987
#
# Stress axis : x y z
#
# Youngs Moduli (GPa) = 28.40062 34.29674 53.13622
#
# Poissons Ratio (x) = 0.56432 0.34049
# Poissons Ratio (y) = 0.46730 0.47195
# Poissons Ratio (z) = 0.18199 0.30462
#
# Static dielectric constant tensor:
#      x y z
#    x 1.486020 0.000000 0.002180 
#    y 0.000000 1.519610 0.000000 
#    z 0.002180 0.000000 1.511970 
# 
# From -- ./inp_files/230352.got.cif
#   From: 2010.05.17/outbox.cif.g08.bks.cpg/sg12_116_cif.got.tgz:230352.got - 2010.06.03 13:09:07.
