data_PCOD9169148
_publ_section_title
;
Structure prediction by ZEFSAII (Michael W. Deem and Ramdas Pophale) SiO2 
 PCOD9169148
Probable space group: C 2/M
;
_chemical_formula_sum "Si O2"
_cell_formula_units_Z 60
_cell_length_a 7.966804
_cell_length_b 25.122517
_cell_length_c 16.745521
_cell_angle_alpha 90.000000
_cell_angle_beta 107.384869
_cell_angle_gamma 90.000000
_cell_volume 3198.450531
_symmetry_space_group_name_H-M "C 2/M"
_symmetry_group_IT_number 12
_symmetry_cell_setting 'monoclinic'
loop_
_space_group_symop_operation_xyz
x,y,z
-x,y,-z
-x,-y,-z
x,-y,z
1/2+x,1/2+y,z
1/2-x,1/2+y,-z
1/2-x,1/2-y,-z
1/2+x,1/2-y,z
loop_
_atom_site_type_symbol
_atom_site_label
_atom_site_fract_x
_atom_site_fract_y
_atom_site_fract_z
Si Si1 0.000000 0.369819 0.000000
Si Si2 0.998053 0.802753 0.225811
Si Si3 0.283102 0.219129 0.395594
Si Si4 0.917934 0.689333 0.825916
Si Si5 0.317074 0.333477 0.450515
Si Si6 0.797633 0.615190 0.222272
Si Si7 0.511011 0.883598 0.597427
Si Si8 0.203120 0.937182 0.044296
O O1 0.836018 0.405652 0.005481
O O2 0.050550 0.333400 0.081739
O O3 0.109643 0.787082 0.319570
O O4 0.018112 0.750293 0.173798
O O5 0.117203 0.851069 0.208715
O O6 0.793946 0.813799 0.215869
O O7 0.338487 0.280101 0.402742
O O8 0.253155 0.193846 0.478074
O O9 0.429432 0.178521 0.385568
O O10 0.043535 0.654038 0.785807
O O11 0.500000 0.358407 0.500000
O O12 0.188887 0.379108 0.402642
O O13 0.862136 0.590939 0.317417
O O14 0.759711 0.575706 0.143597
O O15 0.500000 0.898755 0.500000
O O16 0.217167 0.000000 0.031450
O O17 0.000000 0.921113 0.000000
#
# Coordination Sequence:
#
# PCOD9169148 Si02
#       8
#     4   8   8   8   8   8   8   8
#     4  10  23  40  56  86 114 140 179 224 274 342
#     4  11  21  33  47  73 108 153 190 223 258 318
#     4   9  18  26  37  56  90 132 184 228 258 284
#     4  11  22  34  51  74 109 154 188 223 271 317
#     4  10  17  23  38  60  85 130 183 230 257 295
#     4  10  21  37  55  80 114 147 188 230 271 331
#     4   9  18  31  43  65 101 144 178 225 271 310
#     4  10  21  41  68  91 109 135 173 231 294 340
#
# _framework density 18.759084000000001
#
# number of rings (size 3 to 8) (size 9 to 14) (size 15 to 20)
#    0.000    2.000    1.333    3.800    5.600    0.533 
#    1.200    0.000    0.000    0.400    0.000    0.000 
#    0.000    0.533    0.000    0.400    0.000    0.000 
#
# Total GULP energy -167036.596643 kJ/mol
# GULP energy per Si atom -5567.886555 kJ/mol
# Density = 1.871639 g / cm^3
# Si number density = 18.759084 Si / 1000 Ang^3
#
#
#
# Elastic Constant Matrix: (Units=GPa)
#
#
# Indices 1 2 3 4 5 6 
#
# 1 102.6868 13.1260 26.1725 0.0000 18.7211 0.0000
# 2 13.1260 19.1415 20.5613 0.0000 1.6830 0.0000
# 3 26.1725 20.5613 117.4225 0.0000 -1.3910 0.0000
# 4 0.0000 0.0000 0.0000 3.3363 0.0000 -6.1073
# 5 18.7211 1.6830 -1.3910 0.0000 36.8067 0.0000
# 6 0.0000 0.0000 0.0000 -6.1073 0.0000 10.2205
#
#
#
# Elastic Compliance Matrix: (Units=1/GPa)
#
#
# Indices 1 2 3 4 5 6 
#
# 1 0.012002 -0.005866 -0.001718 0.000000 -0.005901 0.000000
# 2 -0.005866 0.067633 -0.010541 0.000000 -0.000507 0.000000
# 3 -0.001718 -0.010541 0.010766 0.000000 0.001763 0.000000
# 4 0.000000 0.000000 0.000000 -3.193596 0.000000 -1.908341
# 5 -0.005901 -0.000507 0.001763 0.000000 0.030260 0.000000
# 6 0.000000 0.000000 0.000000 -1.908341 0.000000 -1.042492
#
#
# Mechanical properties :
#
#
# Convention : Reuss Voigt Hill
#
# Bulk Modulus (GPa) = 18.46719 39.88561 29.17640
# Shear Modulus (GPa) = -1.23119 22.03210 10.40046
#
# Velocity S-wave (km/s) = -0.81101 3.43078 2.35717
# Velocity P-wave (km/s) = 2.99813 6.08292 4.79534
#
# Compressibility (1/GPa) = 0.05415009
#
# Stress axis : x y z
#
# Youngs Moduli (GPa) = 83.32027 14.78575 92.88605
#
# Poissons Ratio (x) = 0.08673 0.15957
# Poissons Ratio (y) = 0.48875 0.97914
# Poissons Ratio (z) = 0.14313 0.15586
#
# Static dielectric constant tensor:
#      x y z
#    x 1.758170 0.000000 0.017760 
#    y 0.000000 1.618250 0.000000 
#    z 0.017760 0.000000 1.762090 
# 
# From -- ./inp_files/259226.got.cif
#   From: 2010.05.17/outbox.cif.g08.bks.cpg/sg12_130_cif.got.tgz:259226.got - 2010.06.03 13:09:07.
