data_PCOD9169499
_publ_section_title
;
Structure prediction by ZEFSAII (Michael W. Deem and Ramdas Pophale) SiO2 
 PCOD9169499
Probable space group: C 2/M
;
_chemical_formula_sum "Si O2"
_cell_formula_units_Z 42
_cell_length_a 26.219179
_cell_length_b 7.932699
_cell_length_c 12.074259
_cell_angle_alpha 90.000000
_cell_angle_beta 139.142559
_cell_angle_gamma 90.000000
_cell_volume 1642.847593
_symmetry_space_group_name_H-M "C 2/M"
_symmetry_group_IT_number 12
_symmetry_cell_setting 'monoclinic'
loop_
_space_group_symop_operation_xyz
x,y,z
-x,y,-z
-x,-y,-z
x,-y,z
1/2+x,1/2+y,z
1/2-x,1/2+y,-z
1/2-x,1/2-y,-z
1/2+x,1/2-y,z
loop_
_atom_site_type_symbol
_atom_site_label
_atom_site_fract_x
_atom_site_fract_y
_atom_site_fract_z
Si Si1 0.621995 0.801767 0.367406
Si Si2 0.870667 0.309668 0.256861
Si Si3 0.255771 0.300987 0.246327
Si Si4 0.896400 0.188618 0.900280
Si Si5 0.500000 0.000000 0.000000
Si Si6 0.512306 0.692496 0.369505
O O1 0.689736 0.782046 0.569110
O O2 0.639652 0.703695 0.284035
O O3 0.547031 0.727108 0.306891
O O4 0.606351 0.000000 0.312589
O O5 0.852327 0.500000 0.195061
O O6 0.796183 0.227254 0.193475
O O7 0.934521 0.305180 0.462095
O O8 0.921772 0.224925 0.244366
O O9 0.252029 0.500000 0.262262
O O10 0.172324 0.218549 0.125619
O O11 0.952211 0.348940 0.988112
O O12 0.929050 0.000000 0.968040
O O13 0.530567 0.500000 0.429207
#
# Coordination Sequence:
#
# PCOD9169499 Si02
#       6
#     8   8   8   8   2   8
#     4  11  20  34  54  85 121 153 188 233 289 346
#     4  10  17  27  43  71 110 154 187 221 274 339
#     4  11  20  34  54  85 121 153 188 233 289 346
#     4  12  24  42  62  85 114 147 196 239 288 338
#     4  12  26  48  60  86 108 152 198 238 280 340
#     4  10  17  27  43  71 110 154 187 221 274 339
#
# _framework density 25.565363999999999
#
# number of rings (size 3 to 8) (size 9 to 14) (size 15 to 20)
#    0.000    1.143    1.905   11.143    0.000    0.000 
#    0.000    0.000    0.000    0.000    0.000    1.333 
#    0.000    0.000    0.000    0.000    0.000    0.000 
#
# Total GULP energy -117353.405582 kJ/mol
# GULP energy per Si atom -5588.257409 kJ/mol
# Density = 2.550718 g / cm^3
# Si number density = 25.565364 Si / 1000 Ang^3
#
#
#
# Elastic Constant Matrix: (Units=GPa)
#
#
# Indices 1 2 3 4 5 6 
#
# 1 151.1555 28.3975 49.8129 0.0000 48.6231 0.0000
# 2 28.3975 207.5381 20.1589 0.0000 27.9320 0.0000
# 3 49.8129 20.1589 73.5945 0.0000 -4.2095 0.0000
# 4 0.0000 0.0000 0.0000 23.3384 0.0000 13.4044
# 5 48.6231 27.9320 -4.2095 0.0000 38.9739 0.0000
# 6 0.0000 0.0000 0.0000 13.4044 0.0000 40.5608
#
#
#
# Elastic Compliance Matrix: (Units=1/GPa)
#
#
# Indices 1 2 3 4 5 6 
#
# 1 0.021802 0.002892 -0.017330 0.000000 -0.031144 0.000000
# 2 0.002892 0.005934 -0.004057 0.000000 -0.008298 0.000000
# 3 -0.017330 -0.004057 0.028005 0.000000 0.027553 0.000000
# 4 0.000000 0.000000 0.000000 0.052886 0.000000 -0.017478
# 5 -0.031144 -0.008298 0.027553 0.000000 0.073436 0.000000
# 6 0.000000 0.000000 0.000000 -0.017478 0.000000 0.030430
#
#
# Mechanical properties :
#
#
# Convention : Reuss Voigt Hill
#
# Bulk Modulus (GPa) = 53.33499 69.89183 61.61341
# Shear Modulus (GPa) = 19.55157 42.83587 31.19372
#
# Velocity S-wave (km/s) = 2.76844 4.09778 3.49686
# Velocity P-wave (km/s) = 5.57912 7.05598 6.36056
#
# Compressibility (1/GPa) = 0.01874942
#
# Stress axis : x y z
#
# Youngs Moduli (GPa) = 45.86801 168.52941 35.70750
#
# Poissons Ratio (x) = -0.48734 0.61881
# Poissons Ratio (y) = -0.13264 0.14488
# Poissons Ratio (z) = 0.79490 0.68377
#
# Static dielectric constant tensor:
#      x y z
#    x 1.986250 0.000000 -0.034130 
#    y 0.000000 1.893390 0.000000 
#    z -0.034130 0.000000 1.932060 
# 
# From -- ./inp_files/244470.got.cif
#   From: 2010.05.17/outbox.cif.g08.bks.cpg/sg12_123_cif.got.tgz:244470.got - 2010.06.03 13:09:07.
