data_PCOD9169018
_publ_section_title
;
Structure prediction by ZEFSAII (Michael W. Deem and Ramdas Pophale) SiO2 
 PCOD9169018
Probable space group: C 2/M
;
_chemical_formula_sum "Si O2"
_cell_formula_units_Z 48
_cell_length_a 11.488797
_cell_length_b 15.077988
_cell_length_c 13.962101
_cell_angle_alpha 90.000000
_cell_angle_beta 58.882121
_cell_angle_gamma 90.000000
_cell_volume 2070.599926
_symmetry_space_group_name_H-M "C 2/M"
_symmetry_group_IT_number 12
_symmetry_cell_setting 'monoclinic'
loop_
_space_group_symop_operation_xyz
x,y,z
-x,y,-z
-x,-y,-z
x,-y,z
1/2+x,1/2+y,z
1/2-x,1/2+y,-z
1/2-x,1/2-y,-z
1/2+x,1/2-y,z
loop_
_atom_site_type_symbol
_atom_site_label
_atom_site_fract_x
_atom_site_fract_y
_atom_site_fract_z
Si Si1 0.599267 0.100133 0.538196
Si Si2 0.426078 0.153613 0.781402
Si Si3 0.106005 0.344069 0.888693
Si Si4 0.893498 0.851662 0.776870
Si Si5 0.104352 0.102080 0.536879
Si Si6 0.362440 0.651967 0.019022
O O1 0.500000 0.141669 0.500000
O O2 0.506246 0.096311 0.671660
O O3 0.745342 0.141220 0.505938
O O4 0.631378 0.000000 0.489270
O O5 0.527551 0.175039 0.825118
O O6 0.398779 0.248612 0.744286
O O7 0.283572 0.117533 0.883659
O O8 0.248485 0.388694 0.805373
O O9 0.136163 0.253515 0.938131
O O10 0.000000 0.395912 0.000000
O O11 0.020848 0.895457 0.671950
O O12 0.881196 0.852918 0.897214
O O13 0.000000 0.139003 0.500000
O O14 0.129435 0.000000 0.496133
O O15 0.500000 0.609205 0.000000
#
# Coordination Sequence:
#
# PCOD9169018 Si02
#       6
#     8   8   8   8   8   8
#     4  10  24  43  59  78 111 156 194 232 287 334
#     4  11  20  34  60  84 113 146 185 234 273 336
#     4  10  16  32  52  85 116 148 174 214 284 343
#     4  11  20  32  60  88 111 146 187 230 275 339
#     4  10  23  43  60  78 113 155 191 235 288 332
#     4  10  19  31  52  87 119 146 171 219 292 337
#
# _framework density 23.181688000000001
#
# number of rings (size 3 to 8) (size 9 to 14) (size 15 to 20)
#    0.000    1.667    5.000    2.000    2.333    1.333 
#    0.000    0.833    0.000    2.000    0.000    0.000 
#    0.000    0.000    0.000    0.000    0.000    0.000 
#
# Total GULP energy -133754.463102 kJ/mol
# GULP energy per Si atom -5573.102629 kJ/mol
# Density = 2.312893 g / cm^3
# Si number density = 23.181688 Si / 1000 Ang^3
#
#
#
# Elastic Constant Matrix: (Units=GPa)
#
#
# Indices 1 2 3 4 5 6 
#
# 1 206.4593 6.4385 80.8803 0.0000 -24.1970 0.0000
# 2 6.4385 51.7882 5.2399 0.0000 -3.5163 0.0000
# 3 80.8803 5.2399 152.7469 0.0000 -21.2740 0.0000
# 4 0.0000 0.0000 0.0000 29.4217 0.0000 -5.4199
# 5 -24.1970 -3.5163 -21.2740 0.0000 43.6734 0.0000
# 6 0.0000 0.0000 0.0000 -5.4199 0.0000 -15.4507
#
#
#
# Elastic Compliance Matrix: (Units=1/GPa)
#
#
# Indices 1 2 3 4 5 6 
#
# 1 0.006275 -0.000339 -0.003036 0.000000 0.001970 0.000000
# 2 -0.000339 0.019467 -0.000318 0.000000 0.001225 0.000000
# 3 -0.003036 -0.000318 0.008505 0.000000 0.002435 0.000000
# 4 0.000000 0.000000 0.000000 0.031925 0.000000 -0.011199
# 5 0.001970 0.001225 0.002435 0.000000 0.025273 0.000000
# 6 0.000000 0.000000 0.000000 -0.011199 0.000000 -0.060794
#
#
# Mechanical properties :
#
#
# Convention : Reuss Voigt Hill
#
# Bulk Modulus (GPa) = 37.23054 66.23464 51.73259
# Shear Modulus (GPa) = 106.40390 32.75794 69.58092
#
# Velocity S-wave (km/s) = 6.78230 3.76319 5.48458
# Velocity P-wave (km/s) = 8.79932 6.89320 7.90393
#
# Compressibility (1/GPa) = 0.02685967
#
# Stress axis : x y z
#
# Youngs Moduli (GPa) = 159.37435 51.36932 117.58368
#
# Poissons Ratio (x) = 0.01742 0.35703
# Poissons Ratio (y) = 0.05404 0.03735
# Poissons Ratio (z) = 0.48392 0.01632
#
# Static dielectric constant tensor:
#      x y z
#    x 1.970520 0.000000 -0.013950 
#    y 0.000000 1.924660 0.000000 
#    z -0.013950 0.000000 1.860810 
# 
# From -- ./inp_files/132673.got.cif
#   From: 2010.05.17/outbox.cif.g08.bks.cpg/sg12_67_cif.got.tgz:132673.got - 2010.06.03 13:09:07.
