data_PCOD9169653
_publ_section_title
;
Structure prediction by ZEFSAII (Michael W. Deem and Ramdas Pophale) SiO2 
 PCOD9169653
Probable space group: C 2/M
;
_chemical_formula_sum "Si O2"
_cell_formula_units_Z 56
_cell_length_a 14.005281
_cell_length_b 23.168948
_cell_length_c 6.973578
_cell_angle_alpha 90.000000
_cell_angle_beta 83.582015
_cell_angle_gamma 90.000000
_cell_volume 2248.658291
_symmetry_space_group_name_H-M "C 2/M"
_symmetry_group_IT_number 12
_symmetry_cell_setting 'monoclinic'
loop_
_space_group_symop_operation_xyz
x,y,z
-x,y,-z
-x,-y,-z
x,-y,z
1/2+x,1/2+y,z
1/2-x,1/2+y,-z
1/2-x,1/2-y,-z
1/2+x,1/2-y,z
loop_
_atom_site_type_symbol
_atom_site_label
_atom_site_fract_x
_atom_site_fract_y
_atom_site_fract_z
Si Si1 0.422080 0.432319 0.368987
Si Si2 0.209524 0.563525 0.350836
Si Si3 0.131072 0.348255 0.791181
Si Si4 0.084242 0.333683 0.259026
Si Si5 0.251970 0.740488 0.226901
Si Si6 0.773332 0.065800 0.886154
Si Si7 0.598532 0.347004 0.947525
O O1 0.500000 0.410644 0.500000
O O2 0.437467 0.500000 0.338292
O O3 0.309304 0.425468 0.440850
O O4 0.438497 0.399570 0.170685
O O5 0.172429 0.500000 0.409390
O O6 0.132442 0.613862 0.364759
O O7 0.241584 0.561027 0.117702
O O8 0.204132 0.298904 0.701971
O O9 0.182616 0.410738 0.783828
O O10 0.029727 0.337483 0.712128
O O11 0.110481 0.339728 0.025274
O O12 0.144623 0.277324 0.307675
O O13 0.327739 0.687673 0.207123
O O14 0.250000 0.750000 0.000000
O O15 0.805850 0.000000 0.826058
O O16 0.846210 0.121088 0.889307
O O17 0.500000 0.310828 0.000000
#
# Coordination Sequence:
#
# PCOD9169653 Si02
#       7
#     8   8   8   8   8   8   8
#     4   9  17  31  48  67  96 132 166 200 238 283
#     4   8  13  24  40  60  84 112 146 186 234 273
#     4   9  17  24  39  60  86 122 162 188 230 286
#     4   9  15  25  39  57  87 119 150 192 234 275
#     4  10  17  28  40  61  95 123 157 196 232 283
#     4   9  16  28  39  58  94 124 149 190 243 286
#     4  11  20  29  47  72  98 132 160 195 244 294
#
# _framework density 24.903739000000002
#
# number of rings (size 3 to 8) (size 9 to 14) (size 15 to 20)
#    0.000    2.714    5.714    1.286    4.000    1.714 
#    0.000    2.857    0.000    0.000    0.000    4.000 
#    0.000    0.143    0.000    6.429    3.143    0.000 
#
# Total GULP energy -156259.719688 kJ/mol
# GULP energy per Si atom -5580.704275 kJ/mol
# Density = 2.484706 g / cm^3
# Si number density = 24.903739 Si / 1000 Ang^3
#
#
#
# Elastic Constant Matrix: (Units=GPa)
#
#
# Indices 1 2 3 4 5 6 
#
# 1 157.7927 69.0235 33.8772 0.0000 37.7002 0.0000
# 2 69.0235 112.8607 13.6825 0.0000 20.2415 0.0000
# 3 33.8772 13.6825 70.2614 0.0000 15.9268 0.0000
# 4 0.0000 0.0000 0.0000 15.1397 0.0000 2.4874
# 5 37.7002 20.2415 15.9268 0.0000 48.0460 0.0000
# 6 0.0000 0.0000 0.0000 2.4874 0.0000 23.5494
#
#
#
# Elastic Compliance Matrix: (Units=1/GPa)
#
#
# Indices 1 2 3 4 5 6 
#
# 1 0.010393 -0.005102 -0.002872 0.000000 -0.005054 0.000000
# 2 -0.005102 0.012158 0.000374 0.000000 -0.001243 0.000000
# 3 -0.002872 0.000374 0.016294 0.000000 -0.003305 0.000000
# 4 0.000000 0.000000 0.000000 0.067218 0.000000 -0.007100
# 5 -0.005054 -0.001243 -0.003305 0.000000 0.026398 0.000000
# 6 0.000000 0.000000 0.000000 -0.007100 0.000000 0.043214
#
#
# Mechanical properties :
#
#
# Convention : Reuss Voigt Hill
#
# Bulk Modulus (GPa) = 42.29146 63.78680 53.03913
# Shear Modulus (GPa) = 25.15637 32.30245 28.72941
#
# Velocity S-wave (km/s) = 3.18173 3.60542 3.40018
# Velocity P-wave (km/s) = 5.52419 6.55752 6.06291
#
# Compressibility (1/GPa) = 0.02364544
#
# Stress axis : x y z
#
# Youngs Moduli (GPa) = 96.21725 82.24922 61.37321
#
# Poissons Ratio (x) = 0.41961 0.17627
# Poissons Ratio (y) = 0.49087 -0.02295
# Poissons Ratio (z) = 0.27634 -0.03075
#
# Static dielectric constant tensor:
#      x y z
#    x 1.781410 0.000000 -0.003680 
#    y 0.000000 1.554740 0.000000 
#    z -0.003680 0.000000 2.054610 
# 
# From -- ./inp_files/136357.got.cif
#   From: 2010.05.17/outbox.cif.g08.bks.cpg/sg12_69_cif.got.tgz:136357.got - 2010.06.03 13:09:07.
