data_PCOD9169703
_publ_section_title
;
Structure prediction by ZEFSAII (Michael W. Deem and Ramdas Pophale) SiO2 
 PCOD9169703
Probable space group: C 2/M
;
_chemical_formula_sum "Si O2"
_cell_formula_units_Z 60
_cell_length_a 13.317838
_cell_length_b 17.625997
_cell_length_c 19.220752
_cell_angle_alpha 90.000000
_cell_angle_beta 135.884799
_cell_angle_gamma 90.000000
_cell_volume 3140.736380
_symmetry_space_group_name_H-M "C 2/M"
_symmetry_group_IT_number 12
_symmetry_cell_setting 'monoclinic'
loop_
_space_group_symop_operation_xyz
x,y,z
-x,y,-z
-x,-y,-z
x,-y,z
1/2+x,1/2+y,z
1/2-x,1/2+y,-z
1/2-x,1/2-y,-z
1/2+x,1/2-y,z
loop_
_atom_site_type_symbol
_atom_site_label
_atom_site_fract_x
_atom_site_fract_y
_atom_site_fract_z
Si Si1 0.286026 0.739800 0.829158
Si Si2 0.372079 0.805411 0.731524
Si Si3 0.402102 0.413581 0.125555
Si Si4 0.602013 0.088545 0.907269
Si Si5 0.872081 0.078367 0.881362
Si Si6 0.500000 0.148253 0.000000
Si Si7 0.912234 0.088768 0.384657
Si Si8 0.994321 0.186843 0.694102
O O1 0.372500 0.752995 0.800745
O O2 0.290804 0.654375 0.855078
O O3 0.363584 0.796255 0.921504
O O4 0.123144 0.759722 0.733681
O O5 0.514698 0.857799 0.810811
O O6 0.233769 0.861505 0.673271
O O7 0.377882 0.746111 0.669383
O O8 0.366080 0.500000 0.130643
O O9 0.545575 0.417322 0.150665
O O10 0.439543 0.361391 0.209053
O O11 0.267188 0.389797 0.009501
O O12 0.598888 0.000000 0.886059
O O13 0.519918 0.099611 0.940623
O O14 0.786780 0.000000 0.842906
O O15 0.000000 0.075109 0.000000
O O16 0.012046 0.127832 0.373880
O O17 0.000000 0.088989 0.500000
O O18 0.878520 0.000000 0.349909
#
# Coordination Sequence:
#
# PCOD9169703 Si02
#       8
#     8   8   8   8   8   4   8   8
#     4  10  19  31  48  73 109 148 191 238 277 319
#     4  10  22  35  56  87 115 148 188 239 285 343
#     4  10  20  33  51  76 110 154 198 234 266 321
#     4  10  20  31  46  76 116 156 193 227 273 327
#     4  10  20  32  45  64 102 155 205 234 263 313
#     4  10  17  28  45  68 104 156 194 236 265 320
#     4  10  23  45  68  89 114 144 183 241 309 368
#     4  11  21  36  59  88 115 146 192 235 287 344
#
# _framework density 19.103798999999999
#
# number of rings (size 3 to 8) (size 9 to 14) (size 15 to 20)
#    0.000    1.867    3.333    1.000    1.867    1.067 
#    0.000    0.667    0.000    0.000    0.000    0.000 
#    0.000    9.600    0.000    0.000    0.000    0.000 
#
# Total GULP energy -167042.130229 kJ/mol
# GULP energy per Si atom -5568.071008 kJ/mol
# Density = 1.906032 g / cm^3
# Si number density = 19.103799 Si / 1000 Ang^3
#
#
#
# Elastic Constant Matrix: (Units=GPa)
#
#
# Indices 1 2 3 4 5 6 
#
# 1 69.8136 34.0056 13.5834 0.0000 -15.9853 0.0000
# 2 34.0056 117.0885 29.0129 0.0000 -10.4257 0.0000
# 3 13.5834 29.0129 44.7383 0.0000 -12.0039 0.0000
# 4 0.0000 0.0000 0.0000 21.8198 0.0000 -1.4293
# 5 -15.9853 -10.4257 -12.0039 0.0000 22.4260 0.0000
# 6 0.0000 0.0000 0.0000 -1.4293 0.0000 26.0683
#
#
#
# Elastic Compliance Matrix: (Units=1/GPa)
#
#
# Indices 1 2 3 4 5 6 
#
# 1 0.019187 -0.004605 0.000299 0.000000 0.011696 0.000000
# 2 -0.004605 0.011319 -0.006318 0.000000 -0.001402 0.000000
# 3 0.000299 -0.006318 0.029926 0.000000 0.013294 0.000000
# 4 0.000000 0.000000 0.000000 0.045995 0.000000 0.002522
# 5 0.011696 -0.001402 0.013294 0.000000 0.059392 0.000000
# 6 0.000000 0.000000 0.000000 0.002522 0.000000 0.038499
#
#
# Mechanical properties :
#
#
# Convention : Reuss Voigt Hill
#
# Bulk Modulus (GPa) = 25.52157 42.76047 34.14102
# Shear Modulus (GPa) = 20.95325 24.39874 22.67600
#
# Velocity S-wave (km/s) = 3.31541 3.57762 3.44901
# Velocity P-wave (km/s) = 5.29569 6.28472 5.81128
#
# Compressibility (1/GPa) = 0.03918255
#
# Stress axis : x y z
#
# Youngs Moduli (GPa) = 52.11950 88.34953 33.41588
#
# Poissons Ratio (x) = 0.40685 -0.00999
# Poissons Ratio (y) = 0.24001 0.21113
# Poissons Ratio (z) = -0.01558 0.55822
#
# Static dielectric constant tensor:
#      x y z
#    x 1.737370 0.000000 -0.018230 
#    y 0.000000 1.734140 0.000000 
#    z -0.018230 0.000000 1.637210 
# 
# From -- ./inp_files/271210.got.cif
#   From: 2010.05.17/outbox.cif.g08.bks.cpg/sg12_136_cif.got.tgz:271210.got - 2010.06.03 13:09:07.
