data_PCOD9169576
_publ_section_title
;
Structure prediction by ZEFSAII (Michael W. Deem and Ramdas Pophale) SiO2 
 PCOD9169576
Probable space group: C 2/M
;
_chemical_formula_sum "Si O2"
_cell_formula_units_Z 64
_cell_length_a 21.801368
_cell_length_b 16.142499
_cell_length_c 25.108550
_cell_angle_alpha 90.000000
_cell_angle_beta 157.986003
_cell_angle_gamma 90.000000
_cell_volume 3312.181044
_symmetry_space_group_name_H-M "C 2/M"
_symmetry_group_IT_number 12
_symmetry_cell_setting 'monoclinic'
loop_
_space_group_symop_operation_xyz
x,y,z
-x,y,-z
-x,-y,-z
x,-y,z
1/2+x,1/2+y,z
1/2-x,1/2+y,-z
1/2-x,1/2-y,-z
1/2+x,1/2-y,z
loop_
_atom_site_type_symbol
_atom_site_label
_atom_site_fract_x
_atom_site_fract_y
_atom_site_fract_z
Si Si1 0.030422 0.594479 0.441626
Si Si2 0.454834 0.813168 0.739419
Si Si3 0.439869 0.248218 0.292312
Si Si4 0.653252 0.404350 0.454737
Si Si5 0.189848 0.093380 0.204501
Si Si6 0.358808 0.653825 0.953431
Si Si7 0.234885 0.906868 0.008245
Si Si8 0.865119 0.862877 0.684320
O O1 0.003653 0.500000 0.398797
O O2 0.225093 0.598366 0.608783
O O3 0.003473 0.673336 0.380910
O O4 0.883863 0.604888 0.366193
O O5 0.501103 0.774768 0.719249
O O6 0.322124 0.883703 0.621091
O O7 0.625008 0.845566 0.900383
O O8 0.372228 0.735197 0.701038
O O9 0.519237 0.337342 0.366943
O O10 0.243068 0.238712 0.134928
O O11 0.606735 0.500000 0.423416
O O12 0.680396 0.385891 0.413473
O O13 0.170051 0.103796 0.124232
O O14 0.143213 0.000000 0.182292
O O15 0.053972 0.155496 0.118162
O O16 0.279318 0.608303 0.939776
O O17 0.285771 0.000000 0.038046
O O18 0.051211 0.892880 0.840314
#
# Coordination Sequence:
#
# PCOD9169576 Si02
#       8
#     8   8   8   8   8   8   8   8
#     4  10  17  27  46  68  91 122 156 186 227 277
#     4  10  19  32  47  64  90 124 165 198 223 269
#     4   9  17  29  45  68  90 116 157 197 229 267
#     4  11  19  31  50  69  92 124 162 200 232 270
#     4   9  16  27  46  70  90 119 160 195 224 268
#     4   9  17  29  45  64  94 122 150 192 230 267
#     4  11  21  30  44  68  95 127 160 189 231 280
#     4  11  20  33  44  66  99 130 154 191 239 278
#
# _framework density 19.322616
#
# number of rings (size 3 to 8) (size 9 to 14) (size 15 to 20)
#    0.000    2.000    2.500    4.125    0.000    3.500 
#    0.000    0.625    0.000    2.250    0.000    7.000 
#    0.000    0.000    0.000   10.125    0.000    0.000 
#
# Total GULP energy -178327.669639 kJ/mol
# GULP energy per Si atom -5572.739676 kJ/mol
# Density = 1.927864 g / cm^3
# Si number density = 19.322616 Si / 1000 Ang^3
#
#
#
# Elastic Constant Matrix: (Units=GPa)
#
#
# Indices 1 2 3 4 5 6 
#
# 1 39.0670 25.7989 22.7164 0.0052 17.1977 0.0028
# 2 25.7989 121.7041 44.4746 0.0107 26.4178 0.0098
# 3 22.7164 44.4746 128.1193 0.0049 33.6040 0.0126
# 4 0.0052 0.0107 0.0049 30.5891 0.0051 7.9214
# 5 17.1977 26.4178 33.6040 0.0051 34.6026 0.0072
# 6 0.0028 0.0098 0.0126 7.9214 0.0072 9.4529
#
#
#
# Elastic Compliance Matrix: (Units=1/GPa)
#
#
# Indices 1 2 3 4 5 6 
#
# 1 0.034731 -0.004077 -0.001384 -0.000005 -0.012805 0.000009
# 2 -0.004077 0.010701 -0.001852 -0.000001 -0.004345 -0.000003
# 3 -0.001384 -0.001852 0.010925 0.000003 -0.008508 -0.000008
# 4 -0.000005 -0.000001 0.000003 0.041752 0.000002 -0.034988
# 5 -0.012805 -0.004345 -0.008508 0.000002 0.046843 -0.000018
# 6 0.000009 -0.000003 -0.000008 -0.034988 -0.000018 0.135107
#
#
# Mechanical properties :
#
#
# Convention : Reuss Voigt Hill
#
# Bulk Modulus (GPa) = 23.96361 52.76335 38.36348
# Shear Modulus (GPa) = 16.20247 27.98896 22.09571
#
# Velocity S-wave (km/s) = 2.89887 3.81006 3.38526
# Velocity P-wave (km/s) = 4.86141 6.83529 5.93104
#
# Compressibility (1/GPa) = 0.04172993
#
# Stress axis : x y z
#
# Youngs Moduli (GPa) = 28.79269 93.45085 91.53239
#
# Poissons Ratio (x) = 0.38100 0.12671
# Poissons Ratio (y) = 0.11739 0.16954
# Poissons Ratio (z) = 0.03986 0.17309
#
# Static dielectric constant tensor:
#      x y z
#    x 1.687200 0.000000 -0.017260 
#    y 0.000000 1.673730 0.000000 
#    z -0.017260 0.000000 1.828870 
# 
# From -- ./inp_files/368288.got.cif
#   From: 2010.05.17/outbox.cif.g08.bks.cpg/sg12_185_cif.got.tgz:368288.got - 2010.06.03 13:09:07.
