data_PCOD9169261
_publ_section_title
;
Structure prediction by ZEFSAII (Michael W. Deem and Ramdas Pophale) SiO2 
 PCOD9169261
Probable space group: C 2/M
;
_chemical_formula_sum "Si O2"
_cell_formula_units_Z 56
_cell_length_a 23.323715
_cell_length_b 8.656364
_cell_length_c 17.039457
_cell_angle_alpha 90.000000
_cell_angle_beta 80.813374
_cell_angle_gamma 90.000000
_cell_volume 3396.115884
_symmetry_space_group_name_H-M "C 2/M"
_symmetry_group_IT_number 12
_symmetry_cell_setting 'monoclinic'
loop_
_space_group_symop_operation_xyz
x,y,z
-x,y,-z
-x,-y,-z
x,-y,z
1/2+x,1/2+y,z
1/2-x,1/2+y,-z
1/2-x,1/2-y,-z
1/2+x,1/2-y,z
loop_
_atom_site_type_symbol
_atom_site_label
_atom_site_fract_x
_atom_site_fract_y
_atom_site_fract_z
Si Si1 0.046348 0.815479 0.591785
Si Si2 0.454506 0.813478 0.076295
Si Si3 0.379001 0.315366 0.730688
Si Si4 0.793294 0.684382 0.876797
Si Si5 0.006641 0.814011 0.765477
Si Si6 0.920820 0.316592 0.568891
Si Si7 0.172199 0.686365 0.954280
O O1 0.048216 0.770446 0.682936
O O2 0.088157 0.736871 0.518892
O O3 0.981063 0.765555 0.581473
O O4 0.051336 0.000000 0.584269
O O5 0.473370 0.755302 0.157175
O O6 0.389582 0.764604 0.066780
O O7 0.455328 0.000000 0.076560
O O8 0.500000 0.760798 0.000000
O O9 0.380236 0.500000 0.721295
O O10 0.327776 0.263946 0.799031
O O11 0.440603 0.267220 0.757292
O O12 0.376399 0.238362 0.645286
O O13 0.796348 0.500000 0.867341
O O14 0.726826 0.738377 0.898797
O O15 0.822374 0.726139 0.954525
O O16 0.006914 0.000000 0.770358
O O17 0.928166 0.500000 0.569741
O O18 0.177024 0.500000 0.947555
#
# Coordination Sequence:
#
# PCOD9169261 Si02
#       7
#     8   8   8   8   8   8   8
#     4   9  16  28  42  60  91 126 156 188 233 281
#     4  10  20  33  49  69  95 126 157 192 232 274
#     4  10  19  31  46  67  97 128 155 190 239 284
#     4  10  19  32  51  71  91 119 158 200 234 273
#     4   9  19  31  45  67  94 126 160 192 229 276
#     4  10  17  25  41  66  92 120 156 193 229 274
#     4   9  19  34  49  68  95 125 155 190 238 283
#
# _framework density 16.489426000000002
#
# number of rings (size 3 to 8) (size 9 to 14) (size 15 to 20)
#    0.000    2.429    0.000    5.143    0.000    6.000 
#    0.000    0.000    0.000    0.000    0.000    1.000 
#    0.000    0.000    0.000    0.000    0.000    0.000 
#
# Total GULP energy -156075.962279 kJ/mol
# GULP energy per Si atom -5574.141510 kJ/mol
# Density = 1.645189 g / cm^3
# Si number density = 16.489426 Si / 1000 Ang^3
#
#
#
# Elastic Constant Matrix: (Units=GPa)
#
#
# Indices 1 2 3 4 5 6 
#
# 1 61.7867 14.7339 54.0780 0.0000 -4.0498 0.0000
# 2 14.7339 19.5057 30.0386 0.0000 -4.5816 0.0000
# 3 54.0780 30.0386 161.4566 0.0000 -15.0399 0.0000
# 4 0.0000 0.0000 0.0000 31.9611 0.0000 -4.8275
# 5 -4.0498 -4.5816 -15.0399 0.0000 20.8082 0.0000
# 6 0.0000 0.0000 0.0000 -4.8275 0.0000 27.1716
#
#
#
# Elastic Compliance Matrix: (Units=1/GPa)
#
#
# Indices 1 2 3 4 5 6 
#
# 1 0.023824 -0.008252 -0.006628 0.000000 -0.001971 0.000000
# 2 -0.008252 0.075569 -0.010610 0.000000 0.007364 0.000000
# 3 -0.006628 -0.010610 0.010775 0.000000 0.004162 0.000000
# 4 0.000000 0.000000 0.000000 0.032151 0.000000 0.005712
# 5 -0.001971 0.007364 0.004162 0.000000 0.052304 0.000000
# 6 0.000000 0.000000 0.000000 0.005712 0.000000 0.037818
#
#
# Mechanical properties :
#
#
# Convention : Reuss Voigt Hill
#
# Bulk Modulus (GPa) = 16.89491 48.93890 32.91691
# Shear Modulus (GPa) = 16.49349 25.58140 21.03745
#
# Velocity S-wave (km/s) = 3.16610 3.94303 3.57573
# Velocity P-wave (km/s) = 4.86145 7.10446 6.08716
#
# Compressibility (1/GPa) = 0.05918941
#
# Stress axis : x y z
#
# Youngs Moduli (GPa) = 41.97375 13.23301 92.80573
#
# Poissons Ratio (x) = 0.10920 0.61512
# Poissons Ratio (y) = 0.34636 0.98463
# Poissons Ratio (z) = 0.27820 0.14040
#
# Static dielectric constant tensor:
#      x y z
#    x 1.533490 0.000000 -0.009780 
#    y 0.000000 1.553080 0.000000 
#    z -0.009780 0.000000 1.588700 
# 
# From -- ./inp_files/280200.got.cif
#   From: 2010.05.17/outbox.cif.g08.bks.cpg/sg12_141_cif.got.tgz:280200.got - 2010.06.03 13:09:07.
