data_PCOD9169814
_publ_section_title
;
Structure prediction by ZEFSAII (Michael W. Deem and Ramdas Pophale) SiO2 
 PCOD9169814
Probable space group: C 2/M
;
_chemical_formula_sum "Si O2"
_cell_formula_units_Z 64
_cell_length_a 17.135230
_cell_length_b 13.847876
_cell_length_c 11.878424
_cell_angle_alpha 90.000000
_cell_angle_beta 67.086860
_cell_angle_gamma 90.000000
_cell_volume 2596.192497
_symmetry_space_group_name_H-M "C 2/M"
_symmetry_group_IT_number 12
_symmetry_cell_setting 'monoclinic'
loop_
_space_group_symop_operation_xyz
x,y,z
-x,y,-z
-x,-y,-z
x,-y,z
1/2+x,1/2+y,z
1/2-x,1/2+y,-z
1/2-x,1/2-y,-z
1/2+x,1/2-y,z
loop_
_atom_site_type_symbol
_atom_site_label
_atom_site_fract_x
_atom_site_fract_y
_atom_site_fract_z
Si Si1 0.130313 0.182140 0.602177
Si Si2 0.371565 0.102819 0.978859
Si Si3 0.308274 0.893816 0.412534
Si Si4 0.556467 0.680095 0.311174
Si Si5 0.212042 0.149668 0.789327
Si Si6 0.920927 0.180659 0.971464
Si Si7 0.107521 0.603587 0.302427
Si Si8 0.263552 0.632862 0.780967
O O1 0.212154 0.133407 0.501090
O O2 0.138077 0.299043 0.585060
O O3 0.145148 0.159211 0.725792
O O4 0.039298 0.148882 0.610119
O O5 0.275816 0.100366 0.079818
O O6 0.410800 0.000000 0.992081
O O7 0.408401 0.203956 0.002298
O O8 0.377648 0.106322 0.841103
O O9 0.299829 0.898165 0.282001
O O10 0.335138 0.000000 0.436787
O O11 0.565713 0.675576 0.169328
O O12 0.566328 0.791722 0.348785
O O13 0.638001 0.617640 0.301739
O O14 0.297050 0.097452 0.702310
O O15 0.253875 0.252793 0.789763
O O16 0.160136 0.125822 0.930488
O O17 0.000000 0.146718 0.000000
O O18 0.063943 0.500000 0.351812
#
# Coordination Sequence:
#
# PCOD9169814 Si02
#       8
#     8   8   8   8   8   8   8   8
#     4  10  21  37  58  82 108 138 176 227 275 317
#     4   9  17  29  46  74 110 142 174 211 252 308
#     4  10  22  40  59  79 104 140 183 223 272 327
#     4  10  19  33  53  81 109 134 176 223 265 316
#     4   9  17  32  52  74 105 143 177 205 251 319
#     4  10  17  28  49  78 107 140 176 207 258 322
#     4   9  18  31  51  78 109 143 175 212 260 317
#     4   9  18  33  53  75 103 142 177 213 258 310
#
# _framework density 24.651485000000001
#
# number of rings (size 3 to 8) (size 9 to 14) (size 15 to 20)
#    0.000    2.500    1.250    1.125    0.000    4.750 
#    0.000    1.875    0.000    1.125    0.000    7.000 
#    0.000    0.000    0.000    0.000    0.000    0.000 
#
# Total GULP energy -178465.661813 kJ/mol
# GULP energy per Si atom -5577.051932 kJ/mol
# Density = 2.459538 g / cm^3
# Si number density = 24.651485 Si / 1000 Ang^3
#
#
#
# Elastic Constant Matrix: (Units=GPa)
#
#
# Indices 1 2 3 4 5 6 
#
# 1 93.3437 -21.1106 8.2765 0.0000 -7.8194 0.0000
# 2 -21.1106 57.3183 -9.6402 0.0000 13.7787 0.0000
# 3 8.2765 -9.6402 69.8040 0.0000 1.6961 0.0000
# 4 0.0000 0.0000 0.0000 -30.3479 0.0000 1.7992
# 5 -7.8194 13.7787 1.6961 0.0000 27.9556 0.0000
# 6 0.0000 0.0000 0.0000 1.7992 0.0000 1.9601
#
#
#
# Elastic Compliance Matrix: (Units=1/GPa)
#
#
# Indices 1 2 3 4 5 6 
#
# 1 0.011783 0.003837 -0.000903 0.000000 0.001459 0.000000
# 2 0.003837 0.021678 0.002776 0.000000 -0.009780 0.000000
# 3 -0.000903 0.002776 0.014878 0.000000 -0.002524 0.000000
# 4 0.000000 0.000000 0.000000 -0.031251 0.000000 0.028685
# 5 0.001459 -0.009780 -0.002524 0.000000 0.041152 0.000000
# 6 0.000000 0.000000 0.000000 0.028685 0.000000 0.483839
#
#
# Mechanical properties :
#
#
# Convention : Reuss Voigt Hill
#
# Bulk Modulus (GPa) = 16.73350 19.50192 18.11771
# Shear Modulus (GPa) = 9.08138 16.10959 12.59549
#
# Velocity S-wave (km/s) = 1.92143 2.55913 2.26286
# Velocity P-wave (km/s) = 3.42422 4.08171 3.76734
#
# Compressibility (1/GPa) = 0.05976037
#
# Stress axis : x y z
#
# Youngs Moduli (GPa) = 84.86665 46.13061 67.21506
#
# Poissons Ratio (x) = -0.17701 0.06067
# Poissons Ratio (y) = -0.32565 -0.18662
# Poissons Ratio (z) = 0.07660 -0.12808
#
# Static dielectric constant tensor:
#      x y z
#    x 1.964620 0.000000 0.011920 
#    y 0.000000 2.006670 0.000000 
#    z 0.011920 0.000000 1.990360 
# 
# From -- ./inp_files/225233.got.cif
#   From: 2010.05.17/outbox.cif.g08.bks.cpg/sg12_113_cif.got.tgz:225233.got - 2010.06.03 13:09:07.
