data_PCOD9169153
_publ_section_title
;
Structure prediction by ZEFSAII (Michael W. Deem and Ramdas Pophale) SiO2 
 PCOD9169153
Probable space group: C 2/M
;
_chemical_formula_sum "Si O2"
_cell_formula_units_Z 56
_cell_length_a 8.217566
_cell_length_b 23.149752
_cell_length_c 19.132086
_cell_angle_alpha 90.000000
_cell_angle_beta 47.645841
_cell_angle_gamma 90.000000
_cell_volume 2689.633662
_symmetry_space_group_name_H-M "C 2/M"
_symmetry_group_IT_number 12
_symmetry_cell_setting 'monoclinic'
loop_
_space_group_symop_operation_xyz
x,y,z
-x,y,-z
-x,-y,-z
x,-y,z
1/2+x,1/2+y,z
1/2-x,1/2+y,-z
1/2-x,1/2-y,-z
1/2+x,1/2-y,z
loop_
_atom_site_type_symbol
_atom_site_label
_atom_site_fract_x
_atom_site_fract_y
_atom_site_fract_z
Si Si1 0.036422 0.734859 0.108235
Si Si2 0.897198 0.068138 0.265451
Si Si3 0.348399 0.119462 0.109460
Si Si4 0.930392 0.568937 0.438603
Si Si5 0.500556 0.931402 0.786388
Si Si6 0.466791 0.568161 0.609283
Si Si7 0.831117 0.161030 0.115347
O O1 0.881684 0.687947 0.114122
O O2 0.927175 0.797052 0.146455
O O3 0.125360 0.699353 0.147478
O O4 0.250000 0.750000 0.000000
O O5 0.645394 0.090494 0.335185
O O6 0.098224 0.100234 0.170142
O O7 0.964886 0.071862 0.328508
O O8 0.899159 0.000000 0.246841
O O9 0.440672 0.085418 0.150422
O O10 0.500000 0.105125 0.000000
O O11 0.919562 0.500000 0.427509
O O12 0.679748 0.591910 0.506104
O O13 0.000000 0.574435 0.500000
O O14 0.714738 0.910565 0.680126
O O15 0.271572 0.900110 0.836593
O O16 0.484442 0.000000 0.783948
O O17 0.455050 0.500000 0.596124
O O18 0.000000 0.155675 0.000000
#
# Coordination Sequence:
#
# PCOD9169153 Si02
#       7
#     8   8   8   8   8   8   8
#     4   9  17  30  45  60  76 103 147 186 208 230
#     4   8  13  19  28  47  73 100 130 160 197 245
#     4  10  17  24  36  53  78 111 141 169 201 240
#     4   7   9  15  28  44  65  95 127 159 194 232
#     4   9  17  26  37  58  84 108 134 163 205 257
#     4   7  10  18  31  47  70  98 127 159 195 238
#     4   9  17  29  45  61  81 108 140 178 210 239
#
# _framework density 20.820679999999999
#
# number of rings (size 3 to 8) (size 9 to 14) (size 15 to 20)
#    0.000    3.571    0.000    4.286    0.000    1.429 
#    0.000    0.000    0.000    0.000    0.000    2.000 
#    0.000    5.143    0.000   14.286    0.000  217.714 
#
# Total GULP energy -156027.140329 kJ/mol
# GULP energy per Si atom -5572.397869 kJ/mol
# Density = 2.077329 g / cm^3
# Si number density = 20.820680 Si / 1000 Ang^3
#
#
#
# Elastic Constant Matrix: (Units=GPa)
#
#
# Indices 1 2 3 4 5 6 
#
# 1 67.3830 25.9653 42.8594 0.0000 -20.8940 0.0000
# 2 25.9653 83.9635 52.2122 0.0000 -21.5500 0.0000
# 3 42.8594 52.2122 166.1256 0.0000 -28.8606 0.0000
# 4 0.0000 0.0000 0.0000 -9.1647 0.0000 -0.8699
# 5 -20.8940 -21.5500 -28.8606 0.0000 45.1293 0.0000
# 6 0.0000 0.0000 0.0000 -0.8699 0.0000 15.5752
#
#
#
# Elastic Compliance Matrix: (Units=1/GPa)
#
#
# Indices 1 2 3 4 5 6 
#
# 1 0.019711 -0.002573 -0.003268 0.000000 0.005808 0.000000
# 2 -0.002573 0.016041 -0.003661 0.000000 0.004128 0.000000
# 3 -0.003268 -0.003661 0.008377 0.000000 0.002096 0.000000
# 4 0.000000 0.000000 0.000000 -0.108539 0.000000 -0.006062
# 5 0.005808 0.004128 0.002096 0.000000 0.028159 0.000000
# 6 0.000000 0.000000 0.000000 -0.006062 0.000000 0.063866
#
#
# Mechanical properties :
#
#
# Convention : Reuss Voigt Hill
#
# Bulk Modulus (GPa) = 39.79792 62.17176 50.98484
# Shear Modulus (GPa) = 90.91725 23.40364 57.16045
#
# Velocity S-wave (km/s) = 6.61526 3.35633 5.24531
# Velocity P-wave (km/s) = 8.80369 6.70413 7.82465
#
# Compressibility (1/GPa) = 0.02512694
#
# Stress axis : x y z
#
# Youngs Moduli (GPa) = 50.73231 62.33833 119.36894
#
# Poissons Ratio (x) = 0.16040 0.39007
# Poissons Ratio (y) = 0.13053 0.43699
# Poissons Ratio (z) = 0.16578 0.22821
#
# Static dielectric constant tensor:
#      x y z
#    x 1.921100 0.000000 -0.001930 
#    y 0.000000 1.726060 0.000000 
#    z -0.001930 0.000000 1.786220 
# 
# From -- ./inp_files/333961.got.cif
#   From: 2010.05.17/outbox.cif.g08.bks.cpg/sg12_167_cif.got.tgz:333961.got - 2010.06.03 13:09:07.
