data_PCOD9169195
_publ_section_title
;
Structure prediction by ZEFSAII (Michael W. Deem and Ramdas Pophale) SiO2 
 PCOD9169195
Probable space group: C 2/M
;
_chemical_formula_sum "Si O2"
_cell_formula_units_Z 48
_cell_length_a 31.837491
_cell_length_b 7.441599
_cell_length_c 24.910331
_cell_angle_alpha 90.000000
_cell_angle_beta 25.130990
_cell_angle_gamma 90.000000
_cell_volume 2506.431130
_symmetry_space_group_name_H-M "C 2/M"
_symmetry_group_IT_number 12
_symmetry_cell_setting 'monoclinic'
loop_
_space_group_symop_operation_xyz
x,y,z
-x,y,-z
-x,-y,-z
x,-y,z
1/2+x,1/2+y,z
1/2-x,1/2+y,-z
1/2-x,1/2-y,-z
1/2+x,1/2-y,z
loop_
_atom_site_type_symbol
_atom_site_label
_atom_site_fract_x
_atom_site_fract_y
_atom_site_fract_z
Si Si1 0.652816 0.214984 0.078244
Si Si2 0.394714 0.783436 0.983307
Si Si3 0.437293 0.215799 0.359563
Si Si4 0.619522 0.216699 0.690307
Si Si5 0.252012 0.286530 0.632442
Si Si6 0.889125 0.279966 0.109584
O O1 0.550825 0.279617 0.224237
O O2 0.642819 0.000000 0.085812
O O3 0.750000 0.250000 0.000000
O O4 0.656466 0.282602 0.012334
O O5 0.367186 0.718202 0.074321
O O6 0.382348 0.000000 0.998752
O O7 0.511174 0.748877 0.839999
O O8 0.384039 0.284388 0.366538
O O9 0.368674 0.259881 0.489460
O O10 0.440249 0.000000 0.353152
O O11 0.698935 0.288269 0.640336
O O12 0.630815 0.000000 0.674063
O O13 0.235095 0.500000 0.651939
O O14 0.193735 0.219769 0.752052
O O15 0.889885 0.500000 0.108018
O O16 0.000000 0.227444 0.000000
#
# Coordination Sequence:
#
# PCOD9169195 Si02
#       6
#     8   8   8   8   8   8
#     4   9  18  32  51  69  85 110 146 189 232 268
#     4   8  13  24  42  66  92 115 143 181 223 260
#     4   9  18  30  42  60  89 121 145 172 220 271
#     4   8  13  23  39  61  89 118 147 174 206 254
#     4  10  17  24  41  68  92 117 148 178 205 248
#     4   9  14  22  40  67  95 120 147 179 212 251
#
# _framework density 19.150735000000001
#
# number of rings (size 3 to 8) (size 9 to 14) (size 15 to 20)
#    0.000    3.167    1.667    2.500    0.000    0.667 
#    0.000    0.000    0.000    3.500    0.000    7.000 
#    0.000    0.000    0.000    0.000    0.000    0.000 
#
# Total GULP energy -133732.253666 kJ/mol
# GULP energy per Si atom -5572.177236 kJ/mol
# Density = 1.910715 g / cm^3
# Si number density = 19.150735 Si / 1000 Ang^3
#
#
#
# Elastic Constant Matrix: (Units=GPa)
#
#
# Indices 1 2 3 4 5 6 
#
# 1 125.7640 3.0264 105.3235 -0.0012 4.2968 0.0015
# 2 3.0264 57.3619 3.3137 -0.0046 2.0335 0.0005
# 3 105.3235 3.3137 149.6207 0.0007 29.2224 0.0137
# 4 -0.0012 -0.0046 0.0007 14.4115 0.0001 -1.3677
# 5 4.2968 2.0335 29.2224 0.0001 27.7237 -0.0022
# 6 0.0015 0.0005 0.0137 -1.3677 -0.0022 -10.1087
#
#
#
# Elastic Compliance Matrix: (Units=1/GPa)
#
#
# Indices 1 2 3 4 5 6 
#
# 1 0.025289 -0.000760 -0.021446 0.000000 0.018741 -0.000029
# 2 -0.000760 0.017505 0.000472 0.000006 -0.001664 0.000001
# 3 -0.021446 0.000472 0.026604 0.000001 -0.024753 0.000038
# 4 0.000000 0.000006 0.000001 0.068509 -0.000002 -0.009269
# 5 0.018741 -0.001664 -0.024753 -0.000002 0.059379 -0.000043
# 6 -0.000029 0.000001 0.000038 -0.009269 -0.000043 -0.097671
#
#
# Mechanical properties :
#
#
# Convention : Reuss Voigt Hill
#
# Bulk Modulus (GPa) = 38.56278 61.78597 50.17438
# Shear Modulus (GPa) = 32.95407 21.14418 27.04912
#
# Velocity S-wave (km/s) = 4.15272 3.32639 3.76231
# Velocity P-wave (km/s) = 6.57066 6.86194 6.71788
#
# Compressibility (1/GPa) = 0.02593174
#
# Stress axis : x y z
#
# Youngs Moduli (GPa) = 39.54212 57.12667 37.58831
#
# Poissons Ratio (x) = 0.04340 0.80611
# Poissons Ratio (y) = 0.03004 -0.01775
# Poissons Ratio (z) = 0.84801 -0.02697
#
# Static dielectric constant tensor:
#      x y z
#    x 1.678050 0.000000 0.026560 
#    y 0.000000 1.758550 0.000010 
#    z 0.026560 0.000010 1.677150 
# 
# From -- ./inp_files/173402.got.cif
#   From: 2010.05.17/outbox.cif.g08.bks.cpg/sg12_87_cif.got.tgz:173402.got - 2010.06.03 13:09:07.
