data_PCOD9169529
_publ_section_title
;
Structure prediction by ZEFSAII (Michael W. Deem and Ramdas Pophale) SiO2 
 PCOD9169529
Probable space group: C 2/M
;
_chemical_formula_sum "Si O2"
_cell_formula_units_Z 40
_cell_length_a 7.918084
_cell_length_b 17.693861
_cell_length_c 24.673297
_cell_angle_alpha 90.000000
_cell_angle_beta 147.079814
_cell_angle_gamma 90.000000
_cell_volume 1878.649051
_symmetry_space_group_name_H-M "C 2/M"
_symmetry_group_IT_number 12
_symmetry_cell_setting 'monoclinic'
loop_
_space_group_symop_operation_xyz
x,y,z
-x,y,-z
-x,-y,-z
x,-y,z
1/2+x,1/2+y,z
1/2-x,1/2+y,-z
1/2-x,1/2-y,-z
1/2+x,1/2-y,z
loop_
_atom_site_type_symbol
_atom_site_label
_atom_site_fract_x
_atom_site_fract_y
_atom_site_fract_z
Si Si1 0.388243 0.307778 0.809003
Si Si2 0.197305 0.360690 0.180619
Si Si3 0.825855 0.801748 0.398281
Si Si4 0.692126 0.365408 0.394208
Si Si5 0.270495 0.417577 0.026583
O O1 0.599665 0.335233 0.816617
O O2 0.411183 0.217604 0.821234
O O3 0.030805 0.326516 0.700626
O O4 0.505281 0.350378 0.894417
O O5 0.436765 0.401646 0.285843
O O6 0.904453 0.404071 0.077165
O O7 0.816240 0.709961 0.396192
O O8 0.000000 0.824948 0.500000
O O9 0.005334 0.833068 0.395182
O O10 0.000000 0.405806 0.500000
O O11 0.423889 0.500000 0.068962
O O12 0.000000 0.418806 0.000000
#
# Coordination Sequence:
#
# PCOD9169529 Si02
#       5
#     8   8   8   8   8
#     4  10  18  30  50  74 100 128 161 200 240 285
#     4  10  18  30  50  74 100 128 161 200 240 285
#     4  10  17  27  44  69 100 128 158 195 239 287
#     4  10  17  27  44  69 100 128 158 195 239 287
#     4   9  19  34  51  71  96 129 166 202 242 287
#
# _framework density 21.291896999999999
#
# number of rings (size 3 to 8) (size 9 to 14) (size 15 to 20)
#    0.000    2.200    0.000    9.000    0.000    0.000 
#    0.000    3.000    0.000   10.800    0.000    0.000 
#    0.000    0.000    0.000    0.000    0.000    0.000 
#
# Total GULP energy -111666.854959 kJ/mol
# GULP energy per Si atom -5583.342748 kJ/mol
# Density = 2.124344 g / cm^3
# Si number density = 21.291897 Si / 1000 Ang^3
#
#
#
# Elastic Constant Matrix: (Units=GPa)
#
#
# Indices 1 2 3 4 5 6 
#
# 1 51.3938 -1.2390 -3.1506 0.0009 -6.1527 0.0010
# 2 -1.2390 41.7325 28.2324 -0.0088 2.4476 -0.0020
# 3 -3.1506 28.2324 162.7335 -0.0024 -19.1972 0.0007
# 4 0.0009 -0.0088 -0.0024 -13.0295 -0.0012 0.7734
# 5 -6.1527 2.4476 -19.1972 -0.0012 32.5824 0.0000
# 6 0.0010 -0.0020 0.0007 0.7734 0.0000 0.8069
#
#
#
# Elastic Compliance Matrix: (Units=1/GPa)
#
#
# Indices 1 2 3 4 5 6 
#
# 1 0.020032 -0.000309 0.000957 -0.000001 0.004370 -0.000027
# 2 -0.000309 0.027990 -0.005499 -0.000012 -0.005401 0.000085
# 3 0.000957 -0.005499 0.007725 0.000001 0.005145 -0.000022
# 4 -0.000001 -0.000012 0.000001 -0.072617 -0.000002 0.069609
# 5 0.004370 -0.005401 0.005145 -0.000002 0.034954 -0.000023
# 6 -0.000027 0.000085 -0.000022 0.069609 -0.000023 1.172658
#
#
# Mechanical properties :
#
#
# Convention : Reuss Voigt Hill
#
# Bulk Modulus (GPa) = 21.71823 33.72726 27.72275
# Shear Modulus (GPa) = 4.11255 19.53974 11.82615
#
# Velocity S-wave (km/s) = 1.39130 3.03266 2.35931
# Velocity P-wave (km/s) = 3.57817 5.30448 4.52442
#
# Compressibility (1/GPa) = 0.04604426
#
# Stress axis : x y z
#
# Youngs Moduli (GPa) = 49.92027 35.72724 129.45816
#
# Poissons Ratio (x) = 0.01104 -0.12388
# Poissons Ratio (y) = 0.01542 0.71189
# Poissons Ratio (z) = -0.04777 0.19647
#
# Static dielectric constant tensor:
#      x y z
#    x 1.789490 0.000000 -0.008260 
#    y 0.000000 1.741850 0.000000 
#    z -0.008260 0.000000 1.840520 
# 
# From -- ./inp_files/256776.got.cif
#   From: 2010.05.17/outbox.cif.g08.bks.cpg/sg12_129_cif.got.tgz:256776.got - 2010.06.03 13:09:07.
