data_PCOD9169629
_publ_section_title
;
Structure prediction by ZEFSAII (Michael W. Deem and Ramdas Pophale) SiO2 
 PCOD9169629
Probable space group: C 2/M
;
_chemical_formula_sum "Si O2"
_cell_formula_units_Z 48
_cell_length_a 21.513626
_cell_length_b 11.015240
_cell_length_c 28.206948
_cell_angle_alpha 90.000000
_cell_angle_beta 25.488827
_cell_angle_gamma 90.000000
_cell_volume 2876.540056
_symmetry_space_group_name_H-M "C 2/M"
_symmetry_group_IT_number 12
_symmetry_cell_setting 'monoclinic'
loop_
_space_group_symop_operation_xyz
x,y,z
-x,y,-z
-x,-y,-z
x,-y,z
1/2+x,1/2+y,z
1/2-x,1/2+y,-z
1/2-x,1/2-y,-z
1/2+x,1/2-y,z
loop_
_atom_site_type_symbol
_atom_site_label
_atom_site_fract_x
_atom_site_fract_y
_atom_site_fract_z
Si Si1 0.365113 0.000000 0.365937
Si Si2 0.112931 0.500000 0.331453
Si Si3 0.686617 0.638900 0.743604
Si Si4 0.782663 0.500000 0.532352
Si Si5 0.700424 0.000000 0.162135
Si Si6 0.150204 0.241332 0.669194
Si Si7 0.654391 0.365715 0.105773
Si Si8 0.628836 0.308885 0.014204
O O1 0.304296 0.000000 0.461093
O O2 0.540223 0.000000 0.249845
O O3 0.319115 0.125569 0.372302
O O4 0.178216 0.614806 0.315351
O O5 0.177340 0.500000 0.234328
O O6 0.941742 0.500000 0.446576
O O7 0.651723 0.500000 0.750149
O O8 0.708289 0.720412 0.682638
O O9 0.543632 0.682889 0.869412
O O10 0.707487 0.625931 0.599861
O O11 0.792097 0.114300 0.080358
O O12 0.976772 0.224183 0.792095
O O13 0.613358 0.500000 0.148962
O O14 0.800157 0.322947 0.030639
O O15 0.669706 0.362784 0.038179
#
# Coordination Sequence:
#
# PCOD9169629 Si02
#       8
#     4   4   8   4   4   8   8   8
#     4  11  24  32  50  89 112 135 177 213 290 341
#     4   9  22  34  54  82 102 138 195 233 246 312
#     4   9  18  34  52  80 101 134 187 221 262 306
#     4  11  21  38  57  77 111 145 179 228 275 313
#     4  11  17  32  49  79 115 135 166 220 279 307
#     4  11  19  35  56  76 113 142 174 230 270 326
#     4  10  18  29  47  78 110 145 179 204 266 340
#     4  10  17  27  49  74 112 137 165 220 265 320
#
# _framework density 16.686713000000001
#
# number of rings (size 3 to 8) (size 9 to 14) (size 15 to 20)
#    0.500    1.333    5.000    1.500    0.000    2.667 
#    0.000    0.000    0.000    2.000    2.167    1.167 
#    0.000    0.000    0.000    0.000    0.000    0.000 
#
# Total GULP energy -133631.829011 kJ/mol
# GULP energy per Si atom -5567.992875 kJ/mol
# Density = 1.664873 g / cm^3
# Si number density = 16.686713 Si / 1000 Ang^3
#
#
#
# Elastic Constant Matrix: (Units=GPa)
#
#
# Indices 1 2 3 4 5 6 
#
# 1 67.6117 35.9147 28.0238 0.0006 -0.1015 0.0000
# 2 35.9147 94.5397 34.8114 -0.0010 6.9144 0.0003
# 3 28.0238 34.8114 76.5601 -0.0012 9.5294 0.0007
# 4 0.0006 -0.0010 -0.0012 24.2890 0.0008 -2.9687
# 5 -0.1015 6.9144 9.5294 0.0008 14.5212 -0.0005
# 6 0.0000 0.0003 0.0007 -2.9687 -0.0005 13.3365
#
#
#
# Elastic Compliance Matrix: (Units=1/GPa)
#
#
# Indices 1 2 3 4 5 6 
#
# 1 0.020365 -0.006215 -0.005461 -0.000001 0.006685 0.000000
# 2 -0.006215 0.014682 -0.003839 0.000001 -0.004515 0.000000
# 3 -0.005461 -0.003839 0.018058 0.000001 -0.010061 -0.000001
# 4 -0.000001 0.000001 0.000001 0.042322 -0.000003 0.009421
# 5 0.006685 -0.004515 -0.010061 -0.000003 0.077663 0.000003
# 6 0.000000 0.000000 -0.000001 0.009421 0.000003 0.077079
#
#
# Mechanical properties :
#
#
# Convention : Reuss Voigt Hill
#
# Bulk Modulus (GPa) = 45.29672 48.46794 46.88233
# Shear Modulus (GPa) = 17.32755 19.76014 18.54384
#
# Velocity S-wave (km/s) = 3.22592 3.44493 3.33722
# Velocity P-wave (km/s) = 6.40935 6.70315 6.55790
#
# Compressibility (1/GPa) = 0.02207665
#
# Stress axis : x y z
#
# Youngs Moduli (GPa) = 49.10424 68.10911 55.37623
#
# Poissons Ratio (x) = 0.42327 0.30239
# Poissons Ratio (y) = 0.30516 0.21260
# Poissons Ratio (z) = 0.26814 0.26148
#
# Static dielectric constant tensor:
#      x y z
#    x 1.557530 0.000000 -0.000520 
#    y 0.000000 1.573430 0.000000 
#    z -0.000520 0.000000 1.574100 
# 
# From -- ./inp_files/346779.got.cif
#   From: 2010.05.17/outbox.cif.g08.bks.cpg/sg12_174_cif.got.tgz:346779.got - 2010.06.03 13:09:07.
