data_PCOD9169451
_publ_section_title
;
Structure prediction by ZEFSAII (Michael W. Deem and Ramdas Pophale) SiO2 
 PCOD9169451
Probable space group: C 2/M
;
_chemical_formula_sum "Si O2"
_cell_formula_units_Z 64
_cell_length_a 18.581555
_cell_length_b 24.958015
_cell_length_c 10.136125
_cell_angle_alpha 90.000000
_cell_angle_beta 129.173654
_cell_angle_gamma 90.000000
_cell_volume 3644.160048
_symmetry_space_group_name_H-M "C 2/M"
_symmetry_group_IT_number 12
_symmetry_cell_setting 'monoclinic'
loop_
_space_group_symop_operation_xyz
x,y,z
-x,y,-z
-x,-y,-z
x,-y,z
1/2+x,1/2+y,z
1/2-x,1/2+y,-z
1/2-x,1/2-y,-z
1/2+x,1/2-y,z
loop_
_atom_site_type_symbol
_atom_site_label
_atom_site_fract_x
_atom_site_fract_y
_atom_site_fract_z
Si Si1 0.584789 0.061226 0.694739
Si Si2 0.510503 0.897176 0.162966
Si Si3 0.101810 0.750892 0.633593
Si Si4 0.226339 0.656963 0.863880
Si Si5 0.584491 0.303193 0.903341
Si Si6 0.681765 0.171162 0.379745
Si Si7 0.642690 0.810082 0.042407
Si Si8 0.121952 0.207573 0.374329
O O1 0.500000 0.075526 0.500000
O O2 0.541519 0.066770 0.791130
O O3 0.668214 0.103174 0.776115
O O4 0.612662 0.000000 0.701652
O O5 0.612586 0.878169 0.329224
O O6 0.500000 0.917909 0.000000
O O7 0.452362 0.841854 0.091610
O O8 0.179633 0.704966 0.725275
O O9 0.097503 0.781882 0.767392
O O10 0.114482 0.790176 0.525237
O O11 0.000000 0.724295 0.500000
O O12 0.336716 0.653288 0.976167
O O13 0.205471 0.677492 0.989002
O O14 0.475563 0.313466 0.794594
O O15 0.616263 0.251666 0.023712
O O16 0.687553 0.169478 0.227769
O O17 0.785698 0.174909 0.557020
O O18 0.636459 0.229294 0.358368
#
# Coordination Sequence:
#
# PCOD9169451 Si02
#       8
#     8   8   8   8   8   8   8   8
#     4  10  22  37  53  74  95 114 153 211 258 291
#     4   9  18  32  52  70  96 130 158 191 236 291
#     4   9  17  27  42  65  92 124 159 187 219 274
#     4  10  18  28  48  65  87 121 155 192 239 283
#     4  10  17  27  41  63  91 124 160 191 218 273
#     4  10  18  28  40  59  94 134 158 184 221 263
#     4   9  16  29  41  62  92 125 159 184 221 271
#     4  10  19  26  38  63  96 131 160 187 213 259
#
# _framework density 17.562346000000002
#
# number of rings (size 3 to 8) (size 9 to 14) (size 15 to 20)
#    0.000    2.375    1.250    3.375    3.500    0.250 
#    0.000    0.000    0.000    0.000    0.000    0.875 
#    0.000   23.500    0.000    0.000    0.000    0.125 
#
# Total GULP energy -178407.779475 kJ/mol
# GULP energy per Si atom -5575.243109 kJ/mol
# Density = 1.752237 g / cm^3
# Si number density = 17.562346 Si / 1000 Ang^3
#
#
#
# Elastic Constant Matrix: (Units=GPa)
#
#
# Indices 1 2 3 4 5 6 
#
# 1 42.0368 6.4544 36.3229 0.0000 22.8821 0.0000
# 2 6.4544 38.5321 31.2344 0.0000 18.0132 0.0000
# 3 36.3229 31.2344 84.5108 0.0000 41.1610 0.0000
# 4 0.0000 0.0000 0.0000 9.5540 0.0000 -1.0957
# 5 22.8821 18.0132 41.1610 0.0000 45.1908 0.0000
# 6 0.0000 0.0000 0.0000 -1.0957 0.0000 6.9853
#
#
#
# Elastic Compliance Matrix: (Units=1/GPa)
#
#
# Indices 1 2 3 4 5 6 
#
# 1 0.043071 0.012187 -0.018024 0.000000 -0.010250 0.000000
# 2 0.012187 0.040935 -0.016921 0.000000 -0.007076 0.000000
# 3 -0.018024 -0.016921 0.032538 0.000000 -0.013765 0.000000
# 4 0.000000 0.000000 0.000000 0.106586 0.000000 0.016718
# 5 -0.010250 -0.007076 -0.013765 0.000000 0.042676 0.000000
# 6 0.000000 0.000000 0.000000 0.016718 0.000000 0.145780
#
#
# Mechanical properties :
#
#
# Convention : Reuss Voigt Hill
#
# Bulk Modulus (GPa) = 14.07898 34.78924 24.43411
# Shear Modulus (GPa) = 10.39981 18.41721 14.40851
#
# Velocity S-wave (km/s) = 2.43608 3.24184 2.86741
# Velocity P-wave (km/s) = 3.99333 5.81934 4.99056
#
# Compressibility (1/GPa) = 0.07102786
#
# Stress axis : x y z
#
# Youngs Moduli (GPa) = 23.21752 24.42888 30.73349
#
# Poissons Ratio (x) = -0.29773 0.55395
# Poissons Ratio (y) = -0.28296 0.52005
# Poissons Ratio (z) = 0.41848 0.41337
#
# Static dielectric constant tensor:
#      x y z
#    x 1.686390 0.000000 -0.003550 
#    y 0.000000 1.548270 0.000000 
#    z -0.003550 0.000000 1.663070 
# 
# From -- ./inp_files/170186.got.cif
#   From: 2010.05.17/outbox.cif.g08.bks.cpg/sg12_86_cif.got.tgz:170186.got - 2010.06.03 13:09:07.
