data_PCOD9169800
_publ_section_title
;
Structure prediction by ZEFSAII (Michael W. Deem and Ramdas Pophale) SiO2 
 PCOD9169800
Probable space group: C 2/M
;
_chemical_formula_sum "Si O2"
_cell_formula_units_Z 56
_cell_length_a 30.042114
_cell_length_b 8.692493
_cell_length_c 13.929317
_cell_angle_alpha 90.000000
_cell_angle_beta 77.124490
_cell_angle_gamma 90.000000
_cell_volume 3546.054175
_symmetry_space_group_name_H-M "C 2/M"
_symmetry_group_IT_number 12
_symmetry_cell_setting 'monoclinic'
loop_
_space_group_symop_operation_xyz
x,y,z
-x,y,-z
-x,-y,-z
x,-y,z
1/2+x,1/2+y,z
1/2-x,1/2+y,-z
1/2-x,1/2-y,-z
1/2+x,1/2-y,z
loop_
_atom_site_type_symbol
_atom_site_label
_atom_site_fract_x
_atom_site_fract_y
_atom_site_fract_z
Si Si1 0.145855 0.816412 0.749032
Si Si2 0.785170 0.184202 0.774646
Si Si3 0.448597 0.312922 0.134137
Si Si4 0.807604 0.685517 0.084662
Si Si5 0.448298 0.685744 0.911731
Si Si6 0.359256 0.183183 0.865368
Si Si7 0.768166 0.684221 0.391847
O O1 0.093072 0.763877 0.778145
O O2 0.165132 0.770412 0.844315
O O3 0.180805 0.740786 0.657807
O O4 0.147373 0.000000 0.736303
O O5 0.745343 0.223364 0.870863
O O6 0.832405 0.256734 0.785578
O O7 0.764483 0.232870 0.681709
O O8 0.789968 0.000000 0.771018
O O9 0.448330 0.500000 0.133105
O O10 0.499820 0.265980 0.137544
O O11 0.440337 0.265650 0.026944
O O12 0.812325 0.500000 0.094899
O O13 0.828508 0.729038 0.972700
O O14 0.446314 0.500000 0.910595
O O15 0.409286 0.750894 0.862264
O O16 0.361482 0.000000 0.861607
O O17 0.768045 0.500000 0.394063
O O18 0.750000 0.750000 0.500000
#
# Coordination Sequence:
#
# PCOD9169800 Si02
#       7
#     8   8   8   8   8   8   8
#     4  10  17  28  49  73  94 123 160 196 235 278
#     4   9  19  33  47  63  88 123 158 189 227 279
#     4   8  15  27  45  67  90 124 168 201 227 268
#     4   9  18  30  41  61  94 127 160 195 228 271
#     4   9  16  29  45  62  91 130 168 200 227 266
#     4  11  20  28  41  66  96 126 161 197 234 272
#     4  10  21  37  54  74  96 119 150 192 239 287
#
# _framework density 15.792201
#
# number of rings (size 3 to 8) (size 9 to 14) (size 15 to 20)
#    0.000    2.571    1.429    3.429    0.000    3.429 
#    0.000    2.857    0.000    0.000    0.000    1.000 
#    0.000    8.000    0.000    0.000    0.000    0.000 
#
# Total GULP energy -156022.955768 kJ/mol
# GULP energy per Si atom -5572.248420 kJ/mol
# Density = 1.575626 g / cm^3
# Si number density = 15.792201 Si / 1000 Ang^3
#
#
#
# Elastic Constant Matrix: (Units=GPa)
#
#
# Indices 1 2 3 4 5 6 
#
# 1 151.2390 31.7327 57.5293 0.0000 -8.2694 0.0000
# 2 31.7327 15.6922 22.2484 0.0000 -3.7860 0.0000
# 3 57.5293 22.2484 76.1337 0.0000 -14.4888 0.0000
# 4 0.0000 0.0000 0.0000 19.8077 0.0000 0.0790
# 5 -8.2694 -3.7860 -14.4888 0.0000 16.4009 0.0000
# 6 0.0000 0.0000 0.0000 0.0790 0.0000 22.2475
#
#
#
# Elastic Compliance Matrix: (Units=1/GPa)
#
#
# Indices 1 2 3 4 5 6 
#
# 1 0.012010 -0.019414 -0.003729 0.000000 -0.001721 0.000000
# 2 -0.019414 0.140365 -0.026500 0.000000 -0.000797 0.000000
# 3 -0.003729 -0.026500 0.026656 0.000000 0.015551 0.000000
# 4 0.000000 0.000000 0.000000 0.050486 0.000000 -0.000179
# 5 -0.001721 -0.000797 0.015551 0.000000 0.073659 0.000000
# 6 0.000000 0.000000 0.000000 -0.000179 0.000000 0.044950
#
#
# Mechanical properties :
#
#
# Convention : Reuss Voigt Hill
#
# Bulk Modulus (GPa) = 12.54018 51.78730 32.16374
# Shear Modulus (GPa) = 10.54866 20.46153 15.50510
#
# Velocity S-wave (km/s) = 2.58731 3.60345 3.13680
# Velocity P-wave (km/s) = 4.10896 7.08359 5.79055
#
# Compressibility (1/GPa) = 0.07974369
#
# Stress axis : x y z
#
# Youngs Moduli (GPa) = 83.26388 7.12430 37.51477
#
# Poissons Ratio (x) = 0.13831 0.13990
# Poissons Ratio (y) = 1.61652 0.99414
# Poissons Ratio (z) = 0.31051 0.18879
#
# Static dielectric constant tensor:
#      x y z
#    x 1.550040 0.000000 -0.014300 
#    y 0.000000 1.527740 0.000000 
#    z -0.014300 0.000000 1.506890 
# 
# From -- ./inp_files/247787.got.cif
#   From: 2010.05.17/outbox.cif.g08.bks.cpg/sg12_124_cif.got.tgz:247787.got - 2010.06.03 13:09:07.
