data_PCOD9169048
_publ_section_title
;
Structure prediction by ZEFSAII (Michael W. Deem and Ramdas Pophale) SiO2 
 PCOD9169048
Probable space group: C 2/M
;
_chemical_formula_sum "Si O2"
_cell_formula_units_Z 52
_cell_length_a 20.257154
_cell_length_b 11.937382
_cell_length_c 18.801538
_cell_angle_alpha 90.000000
_cell_angle_beta 139.357952
_cell_angle_gamma 90.000000
_cell_volume 2961.302789
_symmetry_space_group_name_H-M "C 2/M"
_symmetry_group_IT_number 12
_symmetry_cell_setting 'monoclinic'
loop_
_space_group_symop_operation_xyz
x,y,z
-x,y,-z
-x,-y,-z
x,-y,z
1/2+x,1/2+y,z
1/2-x,1/2+y,-z
1/2-x,1/2-y,-z
1/2+x,1/2-y,z
loop_
_atom_site_type_symbol
_atom_site_label
_atom_site_fract_x
_atom_site_fract_y
_atom_site_fract_z
Si Si1 0.138920 0.260708 0.941174
Si Si2 0.621515 0.000000 0.127023
Si Si3 0.179737 0.217288 0.508514
Si Si4 0.794669 0.500000 0.656310
Si Si5 0.961846 0.866994 0.720207
Si Si6 0.026045 0.500000 0.864928
Si Si7 0.380340 0.253832 0.913365
Si Si8 0.787092 0.132636 0.697807
O O1 0.089708 0.386833 0.903234
O O2 0.063496 0.187141 0.832221
O O3 0.250000 0.250000 0.000000
O O4 0.143271 0.213736 0.025283
O O5 0.703017 0.000000 0.257300
O O6 0.636401 0.879989 0.104043
O O7 0.483736 0.000000 0.912265
O O8 0.250000 0.250000 0.500000
O O9 0.074800 0.189353 0.383513
O O10 0.191802 0.308636 0.580598
O O11 0.234195 0.106592 0.581196
O O12 0.915490 0.500000 0.734453
O O13 0.879099 0.849100 0.716195
O O14 0.969185 0.000000 0.715593
O O15 0.319490 0.311618 0.799070
O O16 0.500000 0.275215 0.000000
O O17 0.772857 0.000000 0.694539
#
# Coordination Sequence:
#
# PCOD9169048 Si02
#       8
#     8   4   8   4   8   4   8   8
#     4  12  26  39  56  83 119 165 198 238 290 355
#     4  10  18  33  66  89 110 136 193 264 307 335
#     4  10  18  31  53  88 121 145 177 236 304 357
#     4  10  16  32  60  92 113 137 187 253 308 346
#     4  10  20  36  56  82 121 149 187 235 292 347
#     4  10  19  38  57  85 118 146 199 243 298 344
#     4  12  19  36  59  84 114 149 198 251 297 343
#     4  10  20  33  54  88 115 148 184 233 292 350
#
# _framework density 17.559840000000001
#
# number of rings (size 3 to 8) (size 9 to 14) (size 15 to 20)
#    0.462    0.923    5.385    2.538    2.154    0.923 
#    1.385    0.000    0.000    0.923    0.000    3.231 
#    0.000    0.000    0.000    0.000    0.000    0.000 
#
# Total GULP energy -144838.927617 kJ/mol
# GULP energy per Si atom -5570.727985 kJ/mol
# Density = 1.751987 g / cm^3
# Si number density = 17.559840 Si / 1000 Ang^3
#
#
#
# Elastic Constant Matrix: (Units=GPa)
#
#
# Indices 1 2 3 4 5 6 
#
# 1 63.1716 16.2329 50.0103 0.0000 -0.6416 0.0000
# 2 16.2329 74.1143 71.6704 0.0000 -3.9534 0.0000
# 3 50.0103 71.6704 179.7695 0.0000 -21.7578 0.0000
# 4 0.0000 0.0000 0.0000 46.7500 0.0000 -9.2840
# 5 -0.6416 -3.9534 -21.7578 0.0000 18.9238 0.0000
# 6 0.0000 0.0000 0.0000 -9.2840 0.0000 11.6484
#
#
#
# Elastic Compliance Matrix: (Units=1/GPa)
#
#
# Indices 1 2 3 4 5 6 
#
# 1 0.021353 0.002549 -0.007904 0.000000 -0.007832 0.000000
# 2 0.002549 0.022943 -0.010763 0.000000 -0.007496 0.000000
# 3 -0.007904 -0.010763 0.013647 0.000000 0.013174 0.000000
# 4 0.000000 0.000000 0.000000 0.025413 0.000000 0.020254
# 5 -0.007832 -0.007496 0.013174 0.000000 0.066159 0.000000
# 6 0.000000 0.000000 0.000000 0.020254 0.000000 0.101992
#
#
# Mechanical properties :
#
#
# Convention : Reuss Voigt Hill
#
# Bulk Modulus (GPa) = 38.90134 65.87585 52.38859
# Shear Modulus (GPa) = 17.10499 27.40723 22.25611
#
# Velocity S-wave (km/s) = 3.12444 3.95497 3.56398
# Velocity P-wave (km/s) = 5.93446 7.64541 6.84361
#
# Compressibility (1/GPa) = 0.02570606
#
# Stress axis : x y z
#
# Youngs Moduli (GPa) = 46.83215 43.58674 73.27536
#
# Poissons Ratio (x) = -0.11111 0.57919
# Poissons Ratio (y) = -0.11938 0.78867
# Poissons Ratio (z) = 0.37018 0.46913
#
# Static dielectric constant tensor:
#      x y z
#    x 1.558820 0.000000 -0.002460 
#    y 0.000000 1.608410 0.000000 
#    z -0.002460 0.000000 1.646720 
# 
# From -- ./inp_files/283391.got.cif
#   From: 2010.05.17/outbox.cif.g08.bks.cpg/sg12_142_cif.got.tgz:283391.got - 2010.06.03 13:09:07.
