data_PCOD9169167
_publ_section_title
;
Structure prediction by ZEFSAII (Michael W. Deem and Ramdas Pophale) SiO2 
 PCOD9169167
Probable space group: C 2/M
;
_chemical_formula_sum "Si O2"
_cell_formula_units_Z 56
_cell_length_a 14.192840
_cell_length_b 7.793837
_cell_length_c 26.388196
_cell_angle_alpha 90.000000
_cell_angle_beta 132.385356
_cell_angle_gamma 90.000000
_cell_volume 2156.035429
_symmetry_space_group_name_H-M "C 2/M"
_symmetry_group_IT_number 12
_symmetry_cell_setting 'monoclinic'
loop_
_space_group_symop_operation_xyz
x,y,z
-x,y,-z
-x,-y,-z
x,-y,z
1/2+x,1/2+y,z
1/2-x,1/2+y,-z
1/2-x,1/2-y,-z
1/2+x,1/2-y,z
loop_
_atom_site_type_symbol
_atom_site_label
_atom_site_fract_x
_atom_site_fract_y
_atom_site_fract_z
Si Si1 0.604991 0.305207 0.669321
Si Si2 0.451640 0.797049 0.055547
Si Si3 0.654709 0.307584 0.197906
Si Si4 0.995092 0.301527 0.234261
Si Si5 0.722266 0.792894 0.910940
Si Si6 0.618365 0.293878 0.478489
Si Si7 0.234271 0.302333 0.374844
O O1 0.576177 0.500000 0.673919
O O2 0.694119 0.224551 0.744380
O O3 0.483634 0.220983 0.598338
O O4 0.699480 0.308230 0.655316
O O5 0.587017 0.714911 0.119299
O O6 0.360071 0.737849 0.069195
O O7 0.468918 0.000000 0.064580
O O8 0.367080 0.759463 0.975413
O O9 0.633964 0.500000 0.208421
O O10 0.577099 0.196239 0.211028
O O11 0.975682 0.500000 0.241649
O O12 0.092994 0.226447 0.312244
O O13 0.860885 0.225285 0.166526
O O14 0.719347 0.000000 0.907748
O O15 0.588739 0.500000 0.471375
O O16 0.750000 0.250000 0.500000
O O17 0.655326 0.229758 0.548179
O O18 0.214953 0.500000 0.384934
#
# Coordination Sequence:
#
# PCOD9169167 Si02
#       7
#     8   8   8   8   8   8   8
#     4   9  17  31  49  66  86 117 156 190 221 263
#     4   9  15  22  32  48  76 114 148 176 211 261
#     4  10  17  24  37  58  83 110 143 185 227 263
#     4   8  14  25  40  57  80 111 148 185 218 259
#     4   8  13  20  31  50  76 107 142 180 218 253
#     4  10  20  33  50  70  93 119 147 184 227 271
#     4   8  14  28  50  70  86 114 157 192 218 258
#
# _framework density 25.973597999999999
#
# number of rings (size 3 to 8) (size 9 to 14) (size 15 to 20)
#    0.000    3.143    0.000    3.857    0.000    5.714 
#    0.000    2.857    0.000    4.286    0.000    0.000 
#    0.000    1.143    0.000   13.143    0.000   12.429 
#
# Total GULP energy -156092.132989 kJ/mol
# GULP energy per Si atom -5574.719035 kJ/mol
# Density = 2.591448 g / cm^3
# Si number density = 25.973598 Si / 1000 Ang^3
#
#
#
# Elastic Constant Matrix: (Units=GPa)
#
#
# Indices 1 2 3 4 5 6 
#
# 1 40.3395 5.5202 50.0672 0.0000 3.5042 0.0000
# 2 5.5202 53.1375 22.9554 0.0000 6.4809 0.0000
# 3 50.0672 22.9554 302.0998 0.0000 52.5347 0.0000
# 4 0.0000 0.0000 0.0000 17.8654 0.0000 6.2187
# 5 3.5042 6.4809 52.5347 0.0000 62.5071 0.0000
# 6 0.0000 0.0000 0.0000 6.2187 0.0000 13.1680
#
#
#
# Elastic Compliance Matrix: (Units=1/GPa)
#
#
# Indices 1 2 3 4 5 6 
#
# 1 0.031786 -0.001214 -0.005724 0.000000 0.003155 0.000000
# 2 -0.001214 0.019548 -0.001105 0.000000 -0.001030 0.000000
# 3 -0.005724 -0.001105 0.004998 0.000000 -0.003765 0.000000
# 4 0.000000 0.000000 0.000000 0.066986 0.000000 -0.031635
# 5 0.003155 -0.001030 -0.003765 0.000000 0.019092 0.000000
# 6 0.000000 0.000000 0.000000 -0.031635 0.000000 0.090882
#
#
# Mechanical properties :
#
#
# Convention : Reuss Voigt Hill
#
# Bulk Modulus (GPa) = 24.84767 61.40695 43.12731
# Shear Modulus (GPa) = 19.02631 39.84370 29.43501
#
# Velocity S-wave (km/s) = 2.70946 3.92089 3.37005
# Velocity P-wave (km/s) = 4.40176 6.64765 5.63767
#
# Compressibility (1/GPa) = 0.04024522
#
# Stress axis : x y z
#
# Youngs Moduli (GPa) = 31.45993 51.15556 200.09898
#
# Poissons Ratio (x) = 0.06210 1.14545
# Poissons Ratio (y) = 0.03819 0.22113
# Poissons Ratio (z) = 0.18009 0.05653
#
# Static dielectric constant tensor:
#      x y z
#    x 2.089670 0.000000 -0.007000 
#    y 0.000000 1.697240 0.000000 
#    z -0.007000 0.000000 2.233440 
# 
# From -- ./inp_files/377768.got.cif
#   From: 2010.05.17/outbox.cif.g08.bks.cpg/sg12_189_cif.got.tgz:377768.got - 2010.06.03 13:09:07.
