data_PCOD9169382
_publ_section_title
;
Structure prediction by ZEFSAII (Michael W. Deem and Ramdas Pophale) SiO2 
 PCOD9169382
Probable space group: C 2/M
;
_chemical_formula_sum "Si O2"
_cell_formula_units_Z 48
_cell_length_a 31.917756
_cell_length_b 7.830836
_cell_length_c 12.573837
_cell_angle_alpha 90.000000
_cell_angle_beta 73.587471
_cell_angle_gamma 90.000000
_cell_volume 3014.679267
_symmetry_space_group_name_H-M "C 2/M"
_symmetry_group_IT_number 12
_symmetry_cell_setting 'monoclinic'
loop_
_space_group_symop_operation_xyz
x,y,z
-x,y,-z
-x,-y,-z
x,-y,z
1/2+x,1/2+y,z
1/2-x,1/2+y,-z
1/2-x,1/2-y,-z
1/2+x,1/2-y,z
loop_
_atom_site_type_symbol
_atom_site_label
_atom_site_fract_x
_atom_site_fract_y
_atom_site_fract_z
Si Si1 0.593956 0.309397 0.737062
Si Si2 0.822482 0.297697 0.442589
Si Si3 0.533926 0.000000 0.818206
Si Si4 0.374993 0.298908 0.041300
Si Si5 0.725129 0.295237 0.910617
Si Si6 0.937918 0.500000 0.952764
Si Si7 0.255301 0.792559 0.661809
O O1 0.575612 0.500000 0.746239
O O2 0.632667 0.288223 0.624461
O O3 0.557099 0.166364 0.753389
O O4 0.616092 0.287206 0.838052
O O5 0.830411 0.500000 0.444097
O O6 0.786391 0.265979 0.376804
O O7 0.798657 0.236898 0.567497
O O8 0.481692 0.000000 0.851733
O O9 0.546631 0.000000 0.934646
O O10 0.380257 0.500000 0.008971
O O11 0.408677 0.169880 0.961721
O O12 0.325476 0.240996 0.054395
O O13 0.723789 0.500000 0.903064
O O14 0.749371 0.232421 0.786635
O O15 0.750000 0.250000 0.000000
O O16 0.255180 0.000000 0.659725
#
# Coordination Sequence:
#
# PCOD9169382 Si02
#       7
#     8   8   4   8   8   4   8
#     4  10  17  28  46  64  94 125 151 189 236 285
#     4  10  17  26  44  66  91 123 159 193 229 285
#     4   9  18  30  42  72  89 119 161 195 232 284
#     4   9  18  30  45  64  89 125 158 193 236 280
#     4  10  20  32  45  64  92 125 166 202 233 273
#     4   9  18  30  48  62  93 121 159 199 232 286
#     4   9  18  30  42  62  91 123 159 197 233 274
#
# _framework density 15.922091999999999
#
# number of rings (size 3 to 8) (size 9 to 14) (size 15 to 20)
#    0.000    2.500    2.500    0.500    1.167    2.000 
#    0.000    3.333    0.000    0.000    0.000    0.000 
#    0.000    2.667    0.000    5.167    0.000    0.333 
#
# Total GULP energy -133747.887127 kJ/mol
# GULP energy per Si atom -5572.828630 kJ/mol
# Density = 1.588585 g / cm^3
# Si number density = 15.922092 Si / 1000 Ang^3
#
#
#
# Elastic Constant Matrix: (Units=GPa)
#
#
# Indices 1 2 3 4 5 6 
#
# 1 78.4613 46.0387 58.5955 0.0000 -27.3871 0.0000
# 2 46.0387 76.3628 33.9946 0.0000 -22.1746 0.0000
# 3 58.5955 33.9946 87.5324 0.0000 -19.5771 0.0000
# 4 0.0000 0.0000 0.0000 14.4204 0.0000 -1.8872
# 5 -27.3871 -22.1746 -19.5771 0.0000 29.4048 0.0000
# 6 0.0000 0.0000 0.0000 -1.8872 0.0000 17.9066
#
#
#
# Elastic Compliance Matrix: (Units=1/GPa)
#
#
# Indices 1 2 3 4 5 6 
#
# 1 0.037052 -0.010142 -0.017456 0.000000 0.015239 0.000000
# 2 -0.010142 0.021066 0.000057 0.000000 0.006478 0.000000
# 3 -0.017456 0.000057 0.022866 0.000000 -0.000992 0.000000
# 4 0.000000 0.000000 0.000000 0.070316 0.000000 0.007411
# 5 0.015239 0.006478 -0.000992 0.000000 0.052426 0.000000
# 6 0.000000 0.000000 0.000000 0.007411 0.000000 0.056626
#
#
# Mechanical properties :
#
#
# Convention : Reuss Voigt Hill
#
# Bulk Modulus (GPa) = 38.60875 57.73491 48.17183
# Shear Modulus (GPa) = 15.42891 19.26155 17.34523
#
# Velocity S-wave (km/s) = 3.11629 3.48190 3.30416
# Velocity P-wave (km/s) = 6.10324 7.24600 6.69903
#
# Compressibility (1/GPa) = 0.02590086
#
# Stress axis : x y z
#
# Youngs Moduli (GPa) = 26.98942 47.47051 43.73397
#
# Poissons Ratio (x) = 0.48145 0.76340
# Poissons Ratio (y) = 0.27373 -0.00249
# Poissons Ratio (z) = 0.47112 -0.00270
#
# Static dielectric constant tensor:
#      x y z
#    x 1.503610 0.000000 -0.018550 
#    y 0.000000 1.433900 0.000000 
#    z -0.018550 0.000000 1.539580 
# 
# From -- ./inp_files/185756.got.cif
#   From: 2010.05.17/outbox.cif.g08.bks.cpg/sg12_93_cif.got.tgz:185756.got - 2010.06.03 13:09:07.
