data_PCOD9169192
_publ_section_title
;
Structure prediction by ZEFSAII (Michael W. Deem and Ramdas Pophale) SiO2 
 PCOD9169192
Probable space group: C 2/M
;
_chemical_formula_sum "Si O2"
_cell_formula_units_Z 64
_cell_length_a 19.935857
_cell_length_b 7.572157
_cell_length_c 21.592418
_cell_angle_alpha 90.000000
_cell_angle_beta 94.820041
_cell_angle_gamma 90.000000
_cell_volume 3248.008872
_symmetry_space_group_name_H-M "C 2/M"
_symmetry_group_IT_number 12
_symmetry_cell_setting 'monoclinic'
loop_
_space_group_symop_operation_xyz
x,y,z
-x,y,-z
-x,-y,-z
x,-y,z
1/2+x,1/2+y,z
1/2-x,1/2+y,-z
1/2-x,1/2-y,-z
1/2+x,1/2-y,z
loop_
_atom_site_type_symbol
_atom_site_label
_atom_site_fract_x
_atom_site_fract_y
_atom_site_fract_z
Si Si1 0.925623 0.287561 0.677935
Si Si2 0.983707 0.284031 0.429736
Si Si3 0.364258 0.784760 0.336208
Si Si4 0.779065 0.794011 0.848579
Si Si5 0.956810 0.287628 0.227877
Si Si6 0.866304 0.207913 0.110431
Si Si7 0.219960 0.210252 0.289391
Si Si8 0.175333 0.211390 0.020442
O O1 0.929237 0.500000 0.678184
O O2 0.848640 0.237580 0.679434
O O3 0.961534 0.228316 0.617429
O O4 0.971616 0.225668 0.739525
O O5 0.984199 0.500000 0.430748
O O6 0.911392 0.228233 0.396677
O O7 0.000000 0.223299 0.500000
O O8 0.401947 0.732755 0.275477
O O9 0.287679 0.722225 0.327307
O O10 0.364919 0.000000 0.337595
O O11 0.700173 0.787590 0.862033
O O12 0.786820 0.715530 0.780938
O O13 0.822104 0.716845 0.909293
O O14 0.797938 0.000000 0.845606
O O15 0.957612 0.500000 0.227666
O O16 0.930625 0.232459 0.158890
O O17 0.852035 0.000000 0.105765
O O18 0.871441 0.274603 0.039849
O O19 0.230274 0.000000 0.283535
O O20 0.166545 0.000000 0.025173
O O21 0.250000 0.250000 0.000000
#
# Coordination Sequence:
#
# PCOD9169192 Si02
#       8
#     8   8   8   8   8   8   8   8
#     4   9  19  32  48  70  95 120 151 192 228 266
#     4   8  14  28  51  73  92 119 155 189 219 261
#     4   8  14  26  45  68  89 116 157 189 214 261
#     4   9  16  28  44  60  86 127 159 179 221 283
#     4   9  16  30  47  62  86 122 158 187 224 276
#     4  10  17  24  40  68  93 111 144 200 243 264
#     4  10  18  29  47  68  93 124 154 187 226 272
#     4   8  15  25  37  58  87 115 148 188 229 272
#
# _framework density 19.704381000000001
#
# number of rings (size 3 to 8) (size 9 to 14) (size 15 to 20)
#    0.000    3.125    1.250    1.875    0.000    1.500 
#    0.000    0.625    0.000    1.125    0.000    5.250 
#    0.000    0.000    0.000    0.000    0.000    0.000 
#
# Total GULP energy -178232.511771 kJ/mol
# GULP energy per Si atom -5569.765993 kJ/mol
# Density = 1.965953 g / cm^3
# Si number density = 19.704381 Si / 1000 Ang^3
#
#
#
# Elastic Constant Matrix: (Units=GPa)
#
#
# Indices 1 2 3 4 5 6 
#
# 1 116.1735 -2.0117 75.1252 0.0000 21.2209 0.0000
# 2 -2.0117 41.6633 8.0022 0.0000 2.2679 0.0000
# 3 75.1252 8.0022 179.8693 0.0000 33.6458 0.0000
# 4 0.0000 0.0000 0.0000 4.7201 0.0000 -1.5500
# 5 21.2209 2.2679 33.6458 0.0000 22.7049 0.0000
# 6 0.0000 0.0000 0.0000 -1.5500 0.0000 15.4087
#
#
#
# Elastic Compliance Matrix: (Units=1/GPa)
#
#
# Indices 1 2 3 4 5 6 
#
# 1 0.012364 0.001705 -0.004215 0.000000 -0.005481 0.000000
# 2 0.001705 0.024465 -0.001446 0.000000 -0.001894 0.000000
# 3 -0.004215 -0.001446 0.009159 0.000000 -0.009489 0.000000
# 4 0.000000 0.000000 0.000000 0.219097 0.000000 0.022040
# 5 -0.005481 -0.001894 -0.009489 0.000000 0.063417 0.000000
# 6 0.000000 0.000000 0.000000 0.022040 0.000000 0.067116
#
#
# Mechanical properties :
#
#
# Convention : Reuss Voigt Hill
#
# Bulk Modulus (GPa) = 26.26309 55.54862 40.90586
# Shear Modulus (GPa) = 12.01284 25.67277 18.84281
#
# Velocity S-wave (km/s) = 2.47179 3.61348 3.09572
# Velocity P-wave (km/s) = 4.63722 6.75736 5.79507
#
# Compressibility (1/GPa) = 0.03807625
#
# Stress axis : x y z
#
# Youngs Moduli (GPa) = 80.88055 40.87456 109.17890
#
# Poissons Ratio (x) = -0.06968 0.46015
# Poissons Ratio (y) = -0.13789 0.15789
# Poissons Ratio (z) = 0.34088 0.05911
#
# Static dielectric constant tensor:
#      x y z
#    x 1.667140 0.000000 0.035160 
#    y 0.000000 1.677200 0.000000 
#    z 0.035160 0.000000 1.729180 
# 
# From -- ./inp_files/319244.got.cif
#   From: 2010.05.17/outbox.cif.g08.bks.cpg/sg12_160_cif.got.tgz:319244.got - 2010.06.03 13:09:07.
