data_PCOD9169430
_publ_section_title
;
Structure prediction by ZEFSAII (Michael W. Deem and Ramdas Pophale) SiO2 
 PCOD9169430
Probable space group: C 2/M
;
_chemical_formula_sum "Si O2"
_cell_formula_units_Z 64
_cell_length_a 17.312929
_cell_length_b 17.744752
_cell_length_c 19.989250
_cell_angle_alpha 90.000000
_cell_angle_beta 136.842683
_cell_angle_gamma 90.000000
_cell_volume 4200.447268
_symmetry_space_group_name_H-M "C 2/M"
_symmetry_group_IT_number 12
_symmetry_cell_setting 'monoclinic'
loop_
_space_group_symop_operation_xyz
x,y,z
-x,y,-z
-x,-y,-z
x,-y,z
1/2+x,1/2+y,z
1/2-x,1/2+y,-z
1/2-x,1/2-y,-z
1/2+x,1/2-y,z
loop_
_atom_site_type_symbol
_atom_site_label
_atom_site_fract_x
_atom_site_fract_y
_atom_site_fract_z
Si Si1 0.664313 0.911537 0.710505
Si Si2 0.015838 0.827815 0.354038
Si Si3 0.923698 0.091272 0.890872
Si Si4 0.692990 0.847222 0.589325
Si Si5 0.954908 0.348149 0.632954
Si Si6 0.113492 0.085872 0.617112
Si Si7 0.238923 0.172003 0.584886
Si Si8 0.937829 0.911801 0.749905
O O1 0.790862 0.890644 0.813847
O O2 0.640738 0.861053 0.629525
O O3 0.567623 0.897487 0.704114
O O4 0.664990 0.000000 0.692223
O O5 0.005704 0.738432 0.345116
O O6 0.139665 0.841592 0.466796
O O7 0.010880 0.864244 0.277948
O O8 0.922131 0.864921 0.342038
O O9 0.964029 0.114682 0.842107
O O10 0.930106 0.000000 0.894739
O O11 0.000000 0.119475 0.000000
O O12 0.609638 0.867428 0.476808
O O13 0.730891 0.760663 0.599189
O O14 0.803232 0.899533 0.658037
O O15 0.858871 0.350316 0.629236
O O16 0.207057 0.124150 0.629804
O O17 0.000000 0.084654 0.500000
O O18 0.141131 0.000000 0.652366
O O19 0.965157 0.000000 0.760250
#
# Coordination Sequence:
#
# PCOD9169430 Si02
#       8
#     8   8   8   8   8   8   8   8
#     4  10  21  31  45  71  93 118 155 191 234 277
#     4  10  17  31  43  62  88 122 164 190 216 260
#     4   8  16  32  50  68  91 115 143 185 240 292
#     4  10  17  31  42  62  91 125 160 180 217 267
#     4  11  19  29  43  63  96 128 152 180 218 273
#     4   9  18  28  39  56  80 116 160 199 221 238
#     4  10  18  30  43  59  88 133 164 180 217 264
#     4  10  17  26  47  71  88 112 152 198 230 259
#
# _framework density 15.236473
#
# number of rings (size 3 to 8) (size 9 to 14) (size 15 to 20)
#    0.000    2.250    2.500    3.375    0.000    4.500 
#    0.000    0.000    0.000    0.750    0.000    0.000 
#    0.000    0.000    0.000    7.500    0.000    0.000 
#
# Total GULP energy -178275.238101 kJ/mol
# GULP energy per Si atom -5571.101191 kJ/mol
# Density = 1.520179 g / cm^3
# Si number density = 15.236473 Si / 1000 Ang^3
#
#
#
# Elastic Constant Matrix: (Units=GPa)
#
#
# Indices 1 2 3 4 5 6 
#
# 1 121.0319 33.5625 40.5483 0.0000 -2.0535 0.0000
# 2 33.5625 32.9024 23.0505 0.0000 -6.1930 0.0000
# 3 40.5483 23.0505 61.7732 0.0000 -13.4970 0.0000
# 4 0.0000 0.0000 0.0000 8.0423 0.0000 -2.2297
# 5 -2.0535 -6.1930 -13.4970 0.0000 15.9473 0.0000
# 6 0.0000 0.0000 0.0000 -2.2297 0.0000 25.7434
#
#
#
# Elastic Compliance Matrix: (Units=1/GPa)
#
#
# Indices 1 2 3 4 5 6 
#
# 1 0.013180 -0.010369 -0.006491 0.000000 -0.007824 0.000000
# 2 -0.010369 0.049483 -0.009510 0.000000 0.009833 0.000000
# 3 -0.006491 -0.009510 0.028228 0.000000 0.019362 0.000000
# 4 0.000000 0.000000 0.000000 0.127401 0.000000 0.011035
# 5 -0.007824 0.009833 0.019362 0.000000 0.081905 0.000000
# 6 0.000000 0.000000 0.000000 0.011035 0.000000 0.039801
#
#
# Mechanical properties :
#
#
# Convention : Reuss Voigt Hill
#
# Bulk Modulus (GPa) = 26.21201 45.55889 35.88545
# Shear Modulus (GPa) = 12.33182 17.84969 15.09075
#
# Velocity S-wave (km/s) = 2.84801 3.42645 3.15053
# Velocity P-wave (km/s) = 5.29677 6.75427 6.06943
#
# Compressibility (1/GPa) = 0.03815046
#
# Stress axis : x y z
#
# Youngs Moduli (GPa) = 75.87446 20.20896 35.42537
#
# Poissons Ratio (x) = 0.20955 0.22996
# Poissons Ratio (y) = 0.78674 0.33689
# Poissons Ratio (z) = 0.49254 0.19218
#
# Static dielectric constant tensor:
#      x y z
#    x 1.539040 0.000000 -0.004190 
#    y 0.000000 1.508720 0.000000 
#    z -0.004190 0.000000 1.486480 
# 
# From -- ./inp_files/317038.got.cif
#   From: 2010.05.17/outbox.cif.g08.bks.cpg/sg12_159_cif.got.tgz:317038.got - 2010.06.03 13:09:07.
