data_PCOD9169582
_publ_section_title
;
Structure prediction by ZEFSAII (Michael W. Deem and Ramdas Pophale) SiO2 
 PCOD9169582
Probable space group: C 2/M
;
_chemical_formula_sum "Si O2"
_cell_formula_units_Z 64
_cell_length_a 25.733879
_cell_length_b 8.751583
_cell_length_c 18.143356
_cell_angle_alpha 90.000000
_cell_angle_beta 77.747470
_cell_angle_gamma 90.000000
_cell_volume 3993.030350
_symmetry_space_group_name_H-M "C 2/M"
_symmetry_group_IT_number 12
_symmetry_cell_setting 'monoclinic'
loop_
_space_group_symop_operation_xyz
x,y,z
-x,y,-z
-x,-y,-z
x,-y,z
1/2+x,1/2+y,z
1/2-x,1/2+y,-z
1/2-x,1/2-y,-z
1/2+x,1/2-y,z
loop_
_atom_site_type_symbol
_atom_site_label
_atom_site_fract_x
_atom_site_fract_y
_atom_site_fract_z
Si Si1 0.624679 0.682879 0.420905
Si Si2 0.739041 0.815943 0.422081
Si Si3 0.153824 0.814516 0.688346
Si Si4 0.066818 0.184280 0.591579
Si Si5 0.936987 0.322825 0.998726
Si Si6 0.546006 0.817017 0.326963
Si Si7 0.972855 0.684904 0.834703
Si Si8 0.912768 0.817451 0.155555
O O1 0.629801 0.500000 0.417791
O O2 0.682561 0.756657 0.410985
O O3 0.590733 0.722404 0.504532
O O4 0.592498 0.741852 0.360353
O O5 0.750000 0.750000 0.500000
O O6 0.788021 0.765408 0.355304
O O7 0.738903 0.000000 0.425893
O O8 0.109809 0.769658 0.640700
O O9 0.133340 0.765044 0.774668
O O10 0.154414 0.000000 0.688064
O O11 0.010595 0.261557 0.624220
O O12 0.060165 0.000000 0.597325
O O13 0.920941 0.500000 0.005935
O O14 0.936005 0.266019 0.914753
O O15 0.907537 0.235014 0.072709
O O16 0.000000 0.316260 0.000000
O O17 0.547275 0.773684 0.240156
O O18 0.549382 0.000000 0.331193
O O19 0.977009 0.500000 0.837878
O O20 0.031561 0.751970 0.830195
O O21 0.915814 0.000000 0.156926
#
# Coordination Sequence:
#
# PCOD9169582 Si02
#       8
#     8   8   8   8   8   8   8   8
#     4  11  23  38  53  71  97 133 171 208 253 296
#     4  11  21  37  56  74  97 129 168 210 251 294
#     4   9  18  32  50  72 100 132 162 197 249 296
#     4  10  19  35  52  69  99 137 166 197 248 300
#     4   8  15  28  43  62  95 132 158 188 237 291
#     4  11  22  34  50  75 101 130 171 209 242 290
#     4   9  18  31  45  65  98 134 161 191 239 293
#     4  10  17  27  46  71  97 125 162 199 235 286
#
# _framework density 16.027926000000001
#
# number of rings (size 3 to 8) (size 9 to 14) (size 15 to 20)
#    0.000    2.125    2.500    2.625    0.000    5.250 
#    0.000    2.500    0.000    0.000    0.000    0.875 
#    0.000    0.000    0.000    0.000    0.000    0.000 
#
# Total GULP energy -178469.425516 kJ/mol
# GULP energy per Si atom -5577.169547 kJ/mol
# Density = 1.599145 g / cm^3
# Si number density = 16.027926 Si / 1000 Ang^3
#
#
#
# Elastic Constant Matrix: (Units=GPa)
#
#
# Indices 1 2 3 4 5 6 
#
# 1 102.9790 29.9272 75.8648 0.0000 1.2932 0.0000
# 2 29.9272 31.7208 44.1882 0.0000 -1.2407 0.0000
# 3 75.8648 44.1882 165.5641 0.0000 -13.8039 0.0000
# 4 0.0000 0.0000 0.0000 26.2422 0.0000 0.4103
# 5 1.2932 -1.2407 -13.8039 0.0000 13.8727 0.0000
# 6 0.0000 0.0000 0.0000 0.4103 0.0000 22.2233
#
#
#
# Elastic Compliance Matrix: (Units=1/GPa)
#
#
# Indices 1 2 3 4 5 6 
#
# 1 0.016616 -0.007016 -0.006458 0.000000 -0.008603 0.000000
# 2 -0.007016 0.054355 -0.011813 0.000000 -0.006239 0.000000
# 3 -0.006458 -0.011813 0.013210 0.000000 0.012690 0.000000
# 4 0.000000 0.000000 0.000000 0.038117 0.000000 -0.000704
# 5 -0.008603 -0.006239 0.012690 0.000000 0.084955 0.000000
# 6 0.000000 0.000000 0.000000 -0.000704 0.000000 0.045011
#
#
# Mechanical properties :
#
#
# Convention : Reuss Voigt Hill
#
# Bulk Modulus (GPa) = 29.75517 66.69162 48.22339
# Shear Modulus (GPa) = 15.92152 22.48656 19.20404
#
# Velocity S-wave (km/s) = 3.15518 3.74968 3.46520
# Velocity P-wave (km/s) = 5.64610 7.77475 6.79431
#
# Compressibility (1/GPa) = 0.03360760
#
# Stress axis : x y z
#
# Youngs Moduli (GPa) = 60.18472 18.39741 75.70006
#
# Poissons Ratio (x) = 0.12907 0.48889
# Poissons Ratio (y) = 0.42225 0.89421
# Poissons Ratio (z) = 0.38869 0.21732
#
# Static dielectric constant tensor:
#      x y z
#    x 1.498140 0.000000 -0.004930 
#    y 0.000000 1.542240 0.000000 
#    z -0.004930 0.000000 1.567390 
# 
# From -- ./inp_files/287583.got.cif
#   From: 2010.05.17/outbox.cif.g08.bks.cpg/sg12_144_cif.got.tgz:287583.got - 2010.06.03 13:09:07.
