data_PCOD9169203
_publ_section_title
;
Structure prediction by ZEFSAII (Michael W. Deem and Ramdas Pophale) SiO2 
 PCOD9169203
Probable space group: C 2/M
;
_chemical_formula_sum "Si O2"
_cell_formula_units_Z 56
_cell_length_a 28.916019
_cell_length_b 7.399252
_cell_length_c 14.899826
_cell_angle_alpha 90.000000
_cell_angle_beta 74.965489
_cell_angle_gamma 90.000000
_cell_volume 3078.797448
_symmetry_space_group_name_H-M "C 2/M"
_symmetry_group_IT_number 12
_symmetry_cell_setting 'monoclinic'
loop_
_space_group_symop_operation_xyz
x,y,z
-x,y,-z
-x,-y,-z
x,-y,z
1/2+x,1/2+y,z
1/2-x,1/2+y,-z
1/2-x,1/2-y,-z
1/2+x,1/2-y,z
loop_
_atom_site_type_symbol
_atom_site_label
_atom_site_fract_x
_atom_site_fract_y
_atom_site_fract_z
Si Si1 0.945094 0.778853 0.023634
Si Si2 0.192791 0.778158 0.203516
Si Si3 0.633405 0.280719 0.795561
Si Si4 0.177099 0.209724 0.597059
Si Si5 0.784440 0.219685 0.606722
Si Si6 0.205719 0.709304 0.915106
Si Si7 0.875284 0.204108 0.907355
O O1 0.913781 0.724387 0.126012
O O2 0.943975 0.000000 0.022185
O O3 0.916726 0.714816 0.948941
O O4 0.000000 0.722456 0.000000
O O5 0.197627 0.723686 0.304535
O O6 0.240982 0.720035 0.127088
O O7 0.146032 0.715448 0.173076
O O8 0.193010 0.000000 0.201572
O O9 0.634061 0.500000 0.794004
O O10 0.641445 0.214505 0.690276
O O11 0.678175 0.221582 0.834088
O O12 0.183668 0.284523 0.493565
O O13 0.230208 0.219937 0.613948
O O14 0.164141 0.000000 0.592213
O O15 0.783484 0.000000 0.605648
O O16 0.208526 0.500000 0.940200
O O17 0.170996 0.802855 0.003508
O O18 0.890783 0.000000 0.878386
#
# Coordination Sequence:
#
# PCOD9169203 Si02
#       7
#     8   8   8   8   8   8   8
#     4   8  14  25  41  58  73  92 124 165 198 223
#     4   9  16  25  37  54  76 104 130 152 181 222
#     4   9  16  26  40  58  78 100 129 159 189 224
#     4   9  16  25  38  56  76 101 130 158 186 214
#     4   9  16  26  38  53  77 105 130 154 181 219
#     4  10  17  25  37  55  78 103 129 153 184 222
#     4   9  17  28  40  54  74  99 129 159 187 225
#
# _framework density 18.18892
#
# number of rings (size 3 to 8) (size 9 to 14) (size 15 to 20)
#    0.000    3.000    1.429    1.714    0.000    0.000 
#    0.000    1.429    0.000    6.857    0.000    1.000 
#    0.000    8.000    0.000    0.000    0.000   25.000 
#
# Total GULP energy -156049.225958 kJ/mol
# GULP energy per Si atom -5573.186641 kJ/mol
# Density = 1.814752 g / cm^3
# Si number density = 18.188920 Si / 1000 Ang^3
#
#
#
# Elastic Constant Matrix: (Units=GPa)
#
#
# Indices 1 2 3 4 5 6 
#
# 1 115.1113 -0.6609 55.6743 0.0000 6.0480 0.0000
# 2 -0.6609 65.8877 -3.5745 0.0000 -0.3583 0.0000
# 3 55.6743 -3.5745 84.5649 0.0000 17.6267 0.0000
# 4 0.0000 0.0000 0.0000 4.7881 0.0000 1.1859
# 5 6.0480 -0.3583 17.6267 0.0000 21.4065 0.0000
# 6 0.0000 0.0000 0.0000 1.1859 0.0000 5.8864
#
#
#
# Elastic Compliance Matrix: (Units=1/GPa)
#
#
# Indices 1 2 3 4 5 6 
#
# 1 0.013044 -0.000360 -0.009456 0.000000 0.004095 0.000000
# 2 -0.000360 0.015224 0.000973 0.000000 -0.000445 0.000000
# 3 -0.009456 0.000973 0.021164 0.000000 -0.014739 0.000000
# 4 0.000000 0.000000 0.000000 0.219819 0.000000 -0.044285
# 5 0.004095 -0.000445 -0.014739 0.000000 0.057687 0.000000
# 6 0.000000 0.000000 0.000000 -0.044285 0.000000 0.178806
#
#
# Mechanical properties :
#
#
# Convention : Reuss Voigt Hill
#
# Bulk Modulus (GPa) = 31.49999 40.93796 36.21897
# Shear Modulus (GPa) = 9.36309 20.69121 15.02715
#
# Velocity S-wave (km/s) = 2.27131 3.37645 2.87744
# Velocity P-wave (km/s) = 4.92284 6.14463 5.56735
#
# Compressibility (1/GPa) = 0.03174604
#
# Stress axis : x y z
#
# Youngs Moduli (GPa) = 76.66609 65.68531 47.24948
#
# Poissons Ratio (x) = 0.02364 0.44680
# Poissons Ratio (y) = 0.02759 -0.04598
# Poissons Ratio (z) = 0.72497 -0.06392
#
# Static dielectric constant tensor:
#      x y z
#    x 1.592640 0.000000 0.015160 
#    y 0.000000 1.711680 0.000000 
#    z 0.015160 0.000000 1.666920 
# 
# From -- ./inp_files/247775.got.cif
#   From: 2010.05.17/outbox.cif.g08.bks.cpg/sg12_124_cif.got.tgz:247775.got - 2010.06.03 13:09:07.
