data_PCOD9169164
_publ_section_title
;
Structure prediction by ZEFSAII (Michael W. Deem and Ramdas Pophale) SiO2 
 PCOD9169164
Probable space group: C 2/M
;
_chemical_formula_sum "Si O2"
_cell_formula_units_Z 56
_cell_length_a 20.927218
_cell_length_b 8.751502
_cell_length_c 18.581235
_cell_angle_alpha 90.000000
_cell_angle_beta 79.747820
_cell_angle_gamma 90.000000
_cell_volume 3348.719280
_symmetry_space_group_name_H-M "C 2/M"
_symmetry_group_IT_number 12
_symmetry_cell_setting 'monoclinic'
loop_
_space_group_symop_operation_xyz
x,y,z
-x,y,-z
-x,-y,-z
x,-y,z
1/2+x,1/2+y,z
1/2-x,1/2+y,-z
1/2-x,1/2-y,-z
1/2+x,1/2-y,z
loop_
_atom_site_type_symbol
_atom_site_label
_atom_site_fract_x
_atom_site_fract_y
_atom_site_fract_z
Si Si1 0.537002 0.818072 0.300522
Si Si2 0.555151 0.681297 0.150810
Si Si3 0.392310 0.683890 0.307908
Si Si4 0.932631 0.184004 0.554169
Si Si5 0.319452 0.316096 0.466497
Si Si6 0.422532 0.820375 0.998921
Si Si7 0.089680 0.315990 0.842078
O O1 0.574733 0.756080 0.222625
O O2 0.464432 0.745692 0.312179
O O3 0.568368 0.764593 0.368675
O O4 0.531567 0.000000 0.297513
O O5 0.553652 0.500000 0.157910
O O6 0.592507 0.730202 0.070865
O O7 0.482129 0.745227 0.153408
O O8 0.395648 0.500000 0.302976
O O9 0.345033 0.729191 0.382337
O O10 0.372586 0.752215 0.234424
O O11 0.873454 0.229125 0.514453
O O12 0.000000 0.220636 0.500000
O O13 0.931405 0.000000 0.564708
O O14 0.316480 0.500000 0.467676
O O15 0.250000 0.250000 0.500000
O O16 0.411583 0.000000 0.988177
O O17 0.500000 0.803106 0.000000
O O18 0.388765 0.775190 0.081041
O O19 0.084929 0.500000 0.839603
#
# Coordination Sequence:
#
# PCOD9169164 Si02
#       7
#     8   8   8   8   8   8   8
#     4  11  20  29  45  70  95 122 160 204 244 284
#     4  10  17  24  37  57  85 121 157 192 235 286
#     4  10  18  31  47  66  92 126 162 198 244 290
#     4  10  19  36  55  71  97 128 163 202 247 294
#     4  10  22  37  54  73  98 131 161 203 250 293
#     4   8  14  24  35  51  82 118 152 190 236 282
#     4   9  16  25  38  58  84 118 155 196 239 281
#
# _framework density 16.722811
#
# number of rings (size 3 to 8) (size 9 to 14) (size 15 to 20)
#    0.000    2.286    1.429    6.000    0.000    5.143 
#    0.000    0.000    0.000    0.000    0.000    0.000 
#    0.000    1.143    0.000    3.714    0.000    7.857 
#
# Total GULP energy -156014.843777 kJ/mol
# GULP energy per Si atom -5571.958706 kJ/mol
# Density = 1.668475 g / cm^3
# Si number density = 16.722811 Si / 1000 Ang^3
#
#
#
# Elastic Constant Matrix: (Units=GPa)
#
#
# Indices 1 2 3 4 5 6 
#
# 1 51.3174 18.2185 43.5313 0.0000 -2.3597 0.0000
# 2 18.2185 75.5750 67.9566 0.0000 2.7403 0.0000
# 3 43.5313 67.9566 200.9078 0.0000 3.4929 0.0000
# 4 0.0000 0.0000 0.0000 34.8885 0.0000 1.8702
# 5 -2.3597 2.7403 3.4929 0.0000 10.0384 0.0000
# 6 0.0000 0.0000 0.0000 1.8702 0.0000 16.1685
#
#
#
# Elastic Compliance Matrix: (Units=1/GPa)
#
#
# Indices 1 2 3 4 5 6 
#
# 1 0.024625 -0.001873 -0.004841 0.000000 0.007984 0.000000
# 2 -0.001873 0.019246 -0.006042 0.000000 -0.003592 0.000000
# 3 -0.004841 -0.006042 0.008110 0.000000 -0.002311 0.000000
# 4 0.000000 0.000000 0.000000 0.028842 0.000000 -0.003336
# 5 0.007984 -0.003592 -0.002311 0.000000 0.103279 0.000000
# 6 0.000000 0.000000 0.000000 -0.003336 0.000000 0.062235
#
#
# Mechanical properties :
#
#
# Convention : Reuss Voigt Hill
#
# Bulk Modulus (GPa) = 37.77800 65.24589 51.51195
# Shear Modulus (GPa) = 17.81442 25.42533 21.61987
#
# Velocity S-wave (km/s) = 3.26740 3.90346 3.59951
# Velocity P-wave (km/s) = 6.07242 7.70823 6.93870
#
# Compressibility (1/GPa) = 0.02647043
#
# Stress axis : x y z
#
# Youngs Moduli (GPa) = 40.60909 51.95788 123.30301
#
# Poissons Ratio (x) = 0.09731 0.59690
# Poissons Ratio (y) = 0.07605 0.74497
# Poissons Ratio (z) = 0.19659 0.31392
#
# Static dielectric constant tensor:
#      x y z
#    x 1.527710 0.000000 -0.006650 
#    y 0.000000 1.558480 0.000000 
#    z -0.006650 0.000000 1.638300 
# 
# From -- ./inp_files/287020.got.cif
#   From: 2010.05.17/outbox.cif.g08.bks.cpg/sg12_144_cif.got.tgz:287020.got - 2010.06.03 13:09:07.
