data_PCOD9169123
_publ_section_title
;
Structure prediction by ZEFSAII (Michael W. Deem and Ramdas Pophale) SiO2 
 PCOD9169123
Probable space group: C 2/M
;
_chemical_formula_sum "Si O2"
_cell_formula_units_Z 54
_cell_length_a 11.871661
_cell_length_b 13.489398
_cell_length_c 15.543353
_cell_angle_alpha 90.000000
_cell_angle_beta 107.078906
_cell_angle_gamma 90.000000
_cell_volume 2379.368863
_symmetry_space_group_name_H-M "C 2/M"
_symmetry_group_IT_number 12
_symmetry_cell_setting 'monoclinic'
loop_
_space_group_symop_operation_xyz
x,y,z
-x,y,-z
-x,-y,-z
x,-y,z
1/2+x,1/2+y,z
1/2-x,1/2+y,-z
1/2-x,1/2-y,-z
1/2+x,1/2-y,z
loop_
_atom_site_type_symbol
_atom_site_label
_atom_site_fract_x
_atom_site_fract_y
_atom_site_fract_z
Si Si1 0.500000 0.841239 0.000000
Si Si2 0.663262 0.387475 0.569248
Si Si3 0.288903 0.108059 0.840781
Si Si4 0.000000 0.000000 0.000000
Si Si5 0.095231 0.323036 0.308150
Si Si6 0.852204 0.107689 0.636079
Si Si7 0.586688 0.828304 0.599866
Si Si8 0.364288 0.689394 0.062134
O O1 0.385293 0.895997 0.939590
O O2 0.533932 0.768920 0.929167
O O3 0.641163 0.500000 0.596106
O O4 0.802392 0.363028 0.604726
O O5 0.625607 0.385994 0.461232
O O6 0.609859 0.291050 0.603609
O O7 0.357770 0.141384 0.772255
O O8 0.178716 0.169436 0.850988
O O9 0.241912 0.000000 0.812556
O O10 0.087812 0.089637 0.975733
O O11 0.094949 0.204006 0.308083
O O12 0.974740 0.357526 0.324445
O O13 0.711503 0.119468 0.616084
O O14 0.890779 0.000000 0.677088
O O15 0.500000 0.848970 0.500000
O O16 0.250000 0.750000 0.000000
#
# Coordination Sequence:
#
# PCOD9169123 Si02
#       8
#     4   8   8   2   8   8   8   8
#     4   9  21  39  65  94 122 153 199 245 311 384
#     4  10  20  35  56  84 111 151 205 257 306 359
#     4  11  22  39  62  90 125 159 197 253 312 373
#     4  10  16  36  70  96 128 166 214 246 330 406
#     4  11  22  37  56  83 123 157 198 250 304 358
#     4  10  21  36  57  80 113 154 207 259 304 359
#     4  11  19  35  55  82 114 157 203 250 297 357
#     4   9  19  37  65  96 123 157 205 258 312 383
#
# _framework density 22.695094000000001
#
# number of rings (size 3 to 8) (size 9 to 14) (size 15 to 20)
#    0.000    1.778    3.704    1.556    0.000    4.741 
#    0.000    0.000   14.667    0.000    0.000    0.000 
#    0.000    0.000    0.000    0.000    0.000    0.000 
#
# Total GULP energy -150313.182494 kJ/mol
# GULP energy per Si atom -5567.154907 kJ/mol
# Density = 2.264344 g / cm^3
# Si number density = 22.695094 Si / 1000 Ang^3
#
#
#
# Elastic Constant Matrix: (Units=GPa)
#
#
# Indices 1 2 3 4 5 6 
#
# 1 83.2574 -0.4104 10.2400 0.0000 -30.3887 0.0000
# 2 -0.4104 101.6212 8.4609 0.0000 -14.6023 0.0000
# 3 10.2400 8.4609 54.0101 0.0000 -35.4917 0.0000
# 4 0.0000 0.0000 0.0000 -8.8891 0.0000 -7.9089
# 5 -30.3887 -14.6023 -35.4917 0.0000 44.9653 0.0000
# 6 0.0000 0.0000 0.0000 -7.9089 0.0000 15.4884
#
#
#
# Elastic Compliance Matrix: (Units=1/GPa)
#
#
# Indices 1 2 3 4 5 6 
#
# 1 0.018524 0.002284 0.010064 0.000000 0.021205 0.000000
# 2 0.002284 0.010642 0.002462 0.000000 0.006943 0.000000
# 3 0.010064 0.002462 0.044079 0.000000 0.042394 0.000000
# 4 0.000000 0.000000 0.000000 -0.077354 0.000000 -0.039499
# 5 0.021205 0.006943 0.042394 0.000000 0.072287 0.000000
# 6 0.000000 0.000000 0.000000 -0.039499 0.000000 0.044395
#
#
# Mechanical properties :
#
#
# Convention : Reuss Voigt Hill
#
# Bulk Modulus (GPa) = 9.72132 30.60776 20.16454
# Shear Modulus (GPa) = 42.64703 25.01947 33.83325
#
# Velocity S-wave (km/s) = 4.33960 3.32387 3.86524
# Velocity P-wave (km/s) = 5.42238 5.31475 5.36884
#
# Compressibility (1/GPa) = 0.10286672
#
# Stress axis : x y z
#
# Youngs Moduli (GPa) = 53.98418 93.96422 22.68630
#
# Poissons Ratio (x) = -0.21460 -0.22832
# Poissons Ratio (y) = -0.12329 -0.05586
# Poissons Ratio (z) = -0.54331 -0.23137
#
# Static dielectric constant tensor:
#      x y z
#    x 1.864030 0.000000 -0.000560 
#    y 0.000000 1.857940 0.000000 
#    z -0.000560 0.000000 1.875370 
# 
# From -- ./inp_files/205053.got.cif
#   From: 2010.05.17/outbox.cif.g08.bks.cpg/sg12_103_cif.got.tgz:205053.got - 2010.06.03 13:09:07.
