data_PCOD9169562
_publ_section_title
;
Structure prediction by ZEFSAII (Michael W. Deem and Ramdas Pophale) SiO2 
 PCOD9169562
Probable space group: C 2/M
;
_chemical_formula_sum "Si O2"
_cell_formula_units_Z 56
_cell_length_a 21.090652
_cell_length_b 7.700281
_cell_length_c 20.637672
_cell_angle_alpha 90.000000
_cell_angle_beta 121.535399
_cell_angle_gamma 90.000000
_cell_volume 2856.659854
_symmetry_space_group_name_H-M "C 2/M"
_symmetry_group_IT_number 12
_symmetry_cell_setting 'monoclinic'
loop_
_space_group_symop_operation_xyz
x,y,z
-x,y,-z
-x,-y,-z
x,-y,z
1/2+x,1/2+y,z
1/2-x,1/2+y,-z
1/2-x,1/2-y,-z
1/2+x,1/2-y,z
loop_
_atom_site_type_symbol
_atom_site_label
_atom_site_fract_x
_atom_site_fract_y
_atom_site_fract_z
Si Si1 0.498523 0.294641 0.337324
Si Si2 0.968199 0.204062 0.179638
Si Si3 0.214394 0.787869 0.175046
Si Si4 0.043385 0.786863 0.088041
Si Si5 0.074433 0.209380 0.501466
Si Si6 0.652105 0.205123 0.667147
Si Si7 0.796788 0.706975 0.088539
O O1 0.512463 0.500000 0.338471
O O2 0.494272 0.219811 0.262762
O O3 0.560450 0.225925 0.420996
O O4 0.418111 0.278736 0.329836
O O5 0.879287 0.218012 0.129414
O O6 0.003735 0.274748 0.132706
O O7 0.987528 0.000000 0.190834
O O8 0.129298 0.731067 0.133635
O O9 0.270041 0.731404 0.261969
O O10 0.252647 0.732121 0.128439
O O11 0.212390 0.000000 0.174271
O O12 0.041862 0.000000 0.086761
O O13 0.000000 0.731606 0.000000
O O14 0.140373 0.262390 0.584541
O O15 0.000000 0.266142 0.500000
O O16 0.074450 0.000000 0.499857
O O17 0.648571 0.000000 0.676238
O O18 0.804677 0.500000 0.097995
O O19 0.750000 0.750000 0.000000
#
# Coordination Sequence:
#
# PCOD9169562 Si02
#       7
#     8   8   8   8   8   8   8
#     4   9  17  29  45  69 100 127 158 196 241 293
#     4  10  19  32  53  76  96 126 166 205 246 292
#     4   9  18  31  48  72 100 127 160 203 247 289
#     4   9  17  31  51  72  95 126 166 206 243 291
#     4   8  15  27  42  64  97 131 157 193 238 286
#     4  10  17  27  45  71  98 126 161 200 241 286
#     4  11  21  34  51  73 100 128 159 203 252 295
#
# _framework density 19.603314000000001
#
# number of rings (size 3 to 8) (size 9 to 14) (size 15 to 20)
#    0.000    2.571    1.429    2.571    0.000    4.857 
#    0.000    0.000    0.000    7.286    0.000    0.000 
#    0.000    0.000    0.000    0.000    0.000    1.429 
#
# Total GULP energy -156111.866994 kJ/mol
# GULP energy per Si atom -5575.423821 kJ/mol
# Density = 1.955870 g / cm^3
# Si number density = 19.603314 Si / 1000 Ang^3
#
#
#
# Elastic Constant Matrix: (Units=GPa)
#
#
# Indices 1 2 3 4 5 6 
#
# 1 124.2804 -1.5455 92.0767 0.0000 -7.5608 0.0000
# 2 -1.5455 29.9916 1.7553 0.0000 -5.8215 0.0000
# 3 92.0767 1.7553 236.2987 0.0000 -14.6695 0.0000
# 4 0.0000 0.0000 0.0000 4.9672 0.0000 -2.3783
# 5 -7.5608 -5.8215 -14.6695 0.0000 26.1146 0.0000
# 6 0.0000 0.0000 0.0000 -2.3783 0.0000 3.2632
#
#
#
# Elastic Compliance Matrix: (Units=1/GPa)
#
#
# Indices 1 2 3 4 5 6 
#
# 1 0.011361 0.001049 -0.004368 0.000000 0.001069 0.000000
# 2 0.001049 0.034960 -0.000172 0.000000 0.008000 0.000001
# 3 -0.004368 -0.000172 0.006066 0.000000 0.002105 0.000000
# 4 0.000000 0.000000 0.000000 0.309226 0.000000 0.225370
# 5 0.001069 0.008000 0.002105 0.000000 0.041568 0.000000
# 6 0.000000 0.000001 0.000000 0.225370 0.000000 0.470699
#
#
# Mechanical properties :
#
#
# Convention : Reuss Voigt Hill
#
# Bulk Modulus (GPa) = 22.02460 63.90487 42.96473
# Shear Modulus (GPa) = 5.58038 26.75463 16.16750
#
# Velocity S-wave (km/s) = 1.68903 3.69833 2.87493
# Velocity P-wave (km/s) = 3.88115 7.13489 5.74325
#
# Compressibility (1/GPa) = 0.04540378
#
# Stress axis : x y z
#
# Youngs Moduli (GPa) = 88.02221 28.60444 164.85303
#
# Poissons Ratio (x) = -0.02999 0.72012
# Poissons Ratio (y) = -0.09230 0.02829
# Poissons Ratio (z) = 0.38451 0.00491
#
# Static dielectric constant tensor:
#      x y z
#    x 1.647440 0.000000 -0.023780 
#    y 0.000000 1.720670 0.000000 
#    z -0.023780 0.000000 1.731280 
# 
# From -- ./inp_files/319700.got.cif
#   From: 2010.05.17/outbox.cif.g08.bks.cpg/sg12_160_cif.got.tgz:319700.got - 2010.06.03 13:09:07.
