data_PCOD9169680
_publ_section_title
;
Structure prediction by ZEFSAII (Michael W. Deem and Ramdas Pophale) SiO2 
 PCOD9169680
Probable space group: C 2/M
;
_chemical_formula_sum "Si O2"
_cell_formula_units_Z 56
_cell_length_a 27.853706
_cell_length_b 15.080300
_cell_length_c 9.514368
_cell_angle_alpha 90.000000
_cell_angle_beta 119.755696
_cell_angle_gamma 90.000000
_cell_volume 3469.504242
_symmetry_space_group_name_H-M "C 2/M"
_symmetry_group_IT_number 12
_symmetry_cell_setting 'monoclinic'
loop_
_space_group_symop_operation_xyz
x,y,z
-x,y,-z
-x,-y,-z
x,-y,z
1/2+x,1/2+y,z
1/2-x,1/2+y,-z
1/2-x,1/2-y,-z
1/2+x,1/2-y,z
loop_
_atom_site_type_symbol
_atom_site_label
_atom_site_fract_x
_atom_site_fract_y
_atom_site_fract_z
Si Si1 0.421444 0.603018 0.662629
Si Si2 0.643373 0.313386 0.203493
Si Si3 0.046705 0.103794 0.888245
Si Si4 0.714079 0.729222 0.808472
Si Si5 0.277577 0.828200 0.635556
Si Si6 0.760558 0.599130 0.323741
Si Si7 0.886889 0.100937 0.297156
O O1 0.413125 0.500000 0.689118
O O2 0.372690 0.658143 0.662719
O O3 0.482574 0.629438 0.801885
O O4 0.416963 0.609247 0.489794
O O5 0.663574 0.212402 0.233867
O O6 0.695714 0.371083 0.225629
O O7 0.589362 0.337904 0.037987
O O8 0.068754 0.108883 0.761673
O O9 0.050809 0.000000 0.937521
O O10 0.743494 0.667277 0.731042
O O11 0.707966 0.823905 0.718143
O O12 0.659769 0.676298 0.776955
O O13 0.750000 0.750000 0.000000
O O14 0.250000 0.750000 0.500000
O O15 0.277784 0.901075 0.514425
O O16 0.766959 0.500000 0.276080
O O17 0.863243 0.000000 0.253983
#
# Coordination Sequence:
#
# PCOD9169680 Si02
#       7
#     8   8   8   8   8   8   8
#     4  10  18  27  41  62  88 120 156 183 205 254
#     4  10  17  28  44  62  88 117 147 183 223 261
#     4  10  19  28  40  63  92 121 153 184 214 257
#     4  10  19  30  46  69  93 118 156 197 227 270
#     4   8  17  30  43  62  86 114 151 189 223 270
#     4  10  19  32  48  66  91 124 158 191 230 274
#     4  10  19  31  45  61  91 130 154 176 220 269
#
# _framework density 16.140633999999999
#
# number of rings (size 3 to 8) (size 9 to 14) (size 15 to 20)
#    0.000    2.571    0.000    6.429    0.000    6.286 
#    0.000    0.000    0.000    0.000    0.000    0.000 
#    0.000   18.286    0.000    0.571    0.000    0.000 
#
# Total GULP energy -155873.104888 kJ/mol
# GULP energy per Si atom -5566.896603 kJ/mol
# Density = 1.610390 g / cm^3
# Si number density = 16.140634 Si / 1000 Ang^3
#
#
#
# Elastic Constant Matrix: (Units=GPa)
#
#
# Indices 1 2 3 4 5 6 
#
# 1 55.3140 13.7998 -2.4437 0.0000 3.8413 0.0000
# 2 13.7998 58.4189 -2.8125 0.0000 8.7185 0.0000
# 3 -2.4437 -2.8125 31.3989 0.0000 -3.6712 0.0000
# 4 0.0000 0.0000 0.0000 19.8218 0.0000 -0.3760
# 5 3.8413 8.7185 -3.6712 0.0000 33.2515 0.0000
# 6 0.0000 0.0000 0.0000 -0.3760 0.0000 18.1967
#
#
#
# Elastic Compliance Matrix: (Units=1/GPa)
#
#
# Indices 1 2 3 4 5 6 
#
# 1 0.019278 -0.004361 0.000996 0.000000 -0.000974 0.000000
# 2 -0.004361 0.018836 0.000840 0.000000 -0.004342 0.000000
# 3 0.000996 0.000840 0.032380 0.000000 0.003240 0.000000
# 4 0.000000 0.000000 0.000000 0.050469 0.000000 0.001043
# 5 -0.000974 -0.004342 0.003240 0.000000 0.031683 0.000000
# 6 0.000000 0.000000 0.000000 0.001043 0.000000 0.054977
#
#
# Mechanical properties :
#
#
# Convention : Reuss Voigt Hill
#
# Bulk Modulus (GPa) = 15.28001 18.02435 16.65218
# Shear Modulus (GPa) = 21.32317 23.35989 22.34153
#
# Velocity S-wave (km/s) = 3.63862 3.80843 3.72449
# Velocity P-wave (km/s) = 5.20961 5.52541 5.36983
#
# Compressibility (1/GPa) = 0.06544499
#
# Stress axis : x y z
#
# Youngs Moduli (GPa) = 51.87233 53.08895 30.88349
#
# Poissons Ratio (x) = 0.23150 -0.03076
# Poissons Ratio (y) = 0.22620 -0.02595
# Poissons Ratio (z) = -0.05166 -0.04460
#
# Static dielectric constant tensor:
#      x y z
#    x 1.536560 0.000000 -0.023110 
#    y 0.000000 1.563640 0.000000 
#    z -0.023110 0.000000 1.603780 
# 
# From -- ./inp_files/97370.got.cif
#   From: 2010.05.17/outbox.cif.g08.bks.cpg/sg12_49_cif.got.tgz:97370.got - 2010.06.03 13:09:07.
