data_PCOD9169522
_publ_section_title
;
Structure prediction by ZEFSAII (Michael W. Deem and Ramdas Pophale) SiO2 
 PCOD9169522
Probable space group: C 2/M
;
_chemical_formula_sum "Si O2"
_cell_formula_units_Z 64
_cell_length_a 13.922223
_cell_length_b 24.289189
_cell_length_c 12.428065
_cell_angle_alpha 90.000000
_cell_angle_beta 68.035964
_cell_angle_gamma 90.000000
_cell_volume 3897.633645
_symmetry_space_group_name_H-M "C 2/M"
_symmetry_group_IT_number 12
_symmetry_cell_setting 'monoclinic'
loop_
_space_group_symop_operation_xyz
x,y,z
-x,y,-z
-x,-y,-z
x,-y,z
1/2+x,1/2+y,z
1/2-x,1/2+y,-z
1/2-x,1/2-y,-z
1/2+x,1/2-y,z
loop_
_atom_site_type_symbol
_atom_site_label
_atom_site_fract_x
_atom_site_fract_y
_atom_site_fract_z
Si Si1 0.744233 0.324980 0.293338
Si Si2 0.260868 0.675095 0.098070
Si Si3 0.587785 0.829816 0.593273
Si Si4 0.213546 0.437757 0.802432
Si Si5 0.707668 0.937233 0.062029
Si Si6 0.377578 0.217061 0.656886
Si Si7 0.515409 0.062813 0.732720
Si Si8 0.879596 0.717802 0.036009
O O1 0.814616 0.322565 0.370114
O O2 0.718456 0.388100 0.274355
O O3 0.652612 0.280960 0.341466
O O4 0.816613 0.305194 0.164282
O O5 0.281559 0.610927 0.073429
O O6 0.209334 0.688696 0.233638
O O7 0.354924 0.716995 0.039917
O O8 0.173086 0.691150 0.046628
O O9 0.616753 0.813596 0.459991
O O10 0.490214 0.790880 0.662999
O O11 0.543983 0.891299 0.632843
O O12 0.251909 0.500000 0.765661
O O13 0.102704 0.432489 0.789143
O O14 0.198676 0.431903 0.936636
O O15 0.596370 0.928227 0.165999
O O16 0.739848 0.000000 0.071532
O O17 0.518767 0.000000 0.690144
O O18 0.000000 0.706077 0.000000
#
# Coordination Sequence:
#
# PCOD9169522 Si02
#       8
#     8   8   8   8   8   8   8   8
#     4  10  19  31  49  69  93 123 154 192 235 279
#     4  10  19  32  45  68  97 121 158 191 228 282
#     4  10  19  32  48  65  95 126 156 198 224 269
#     4   9  17  27  43  69  95 120 150 188 235 284
#     4  10  17  27  44  67  96 125 152 186 232 279
#     4  10  20  32  45  66  94 127 161 189 226 271
#     4   9  17  28  44  67  94 126 157 186 226 278
#     4  10  20  30  48  69  93 124 154 192 237 279
#
# _framework density 16.420218999999999
#
# number of rings (size 3 to 8) (size 9 to 14) (size 15 to 20)
#    0.000    2.250    2.500    1.500    1.750    1.500 
#    0.000    1.875    0.000    0.375    0.000    1.750 
#    0.000    2.000    0.000    0.000    0.000    0.000 
#
# Total GULP energy -178312.256922 kJ/mol
# GULP energy per Si atom -5572.258029 kJ/mol
# Density = 1.638285 g / cm^3
# Si number density = 16.420219 Si / 1000 Ang^3
#
#
#
# Elastic Constant Matrix: (Units=GPa)
#
#
# Indices 1 2 3 4 5 6 
#
# 1 19.8139 11.0166 -0.2804 0.0000 -0.9464 0.0000
# 2 11.0166 127.4065 25.1961 0.0000 2.1516 0.0000
# 3 -0.2804 25.1961 58.8592 0.0000 3.6472 0.0000
# 4 0.0000 0.0000 0.0000 21.7277 0.0000 -0.1951
# 5 -0.9464 2.1516 3.6472 0.0000 9.1914 0.0000
# 6 0.0000 0.0000 0.0000 -0.1951 0.0000 23.4876
#
#
#
# Elastic Compliance Matrix: (Units=1/GPa)
#
#
# Indices 1 2 3 4 5 6 
#
# 1 0.053646 -0.005153 0.002096 0.000000 0.005898 0.000000
# 2 -0.005153 0.009073 -0.003838 0.000000 -0.001131 0.000000
# 3 0.002096 -0.003838 0.019042 0.000000 -0.006442 0.000000
# 4 0.000000 0.000000 0.000000 0.046028 0.000000 0.000382
# 5 0.005898 -0.001131 -0.006442 0.000000 0.112226 0.000000
# 6 0.000000 0.000000 0.000000 0.000382 0.000000 0.042579
#
#
# Mechanical properties :
#
#
# Convention : Reuss Voigt Hill
#
# Bulk Modulus (GPa) = 14.71232 30.88270 22.79751
# Shear Modulus (GPa) = 15.67204 22.22450 18.94827
#
# Velocity S-wave (km/s) = 3.09275 3.68296 3.40068
# Velocity P-wave (km/s) = 4.66184 6.07735 5.41604
#
# Compressibility (1/GPa) = 0.06797027
#
# Stress axis : x y z
#
# Youngs Moduli (GPa) = 18.64074 110.22208 52.51587
#
# Poissons Ratio (x) = 0.56795 -0.11007
# Poissons Ratio (y) = 0.09605 0.20157
# Poissons Ratio (z) = -0.03907 0.42305
#
# Static dielectric constant tensor:
#      x y z
#    x 1.527940 0.000000 0.011400 
#    y 0.000000 1.608510 0.000000 
#    z 0.011400 0.000000 1.548260 
# 
# From -- ./inp_files/148640.got.cif
#   From: 2010.05.17/outbox.cif.g08.bks.cpg/sg12_75_cif.got.tgz:148640.got - 2010.06.03 13:09:07.
