data_PCOD9169185
_publ_section_title
;
Structure prediction by ZEFSAII (Michael W. Deem and Ramdas Pophale) SiO2 
 PCOD9169185
Probable space group: C 2/M
;
_chemical_formula_sum "Si O2"
_cell_formula_units_Z 48
_cell_length_a 21.160192
_cell_length_b 8.285041
_cell_length_c 17.264190
_cell_angle_alpha 90.000000
_cell_angle_beta 64.930380
_cell_angle_gamma 90.000000
_cell_volume 2741.509269
_symmetry_space_group_name_H-M "C 2/M"
_symmetry_group_IT_number 12
_symmetry_cell_setting 'monoclinic'
loop_
_space_group_symop_operation_xyz
x,y,z
-x,y,-z
-x,-y,-z
x,-y,z
1/2+x,1/2+y,z
1/2-x,1/2+y,-z
1/2-x,1/2-y,-z
1/2+x,1/2-y,z
loop_
_atom_site_type_symbol
_atom_site_label
_atom_site_fract_x
_atom_site_fract_y
_atom_site_fract_z
Si Si1 0.789922 0.304891 0.556300
Si Si2 0.042564 0.811524 0.091121
Si Si3 0.948830 0.305148 0.458950
Si Si4 0.824132 0.805027 0.264371
Si Si5 0.532925 0.305112 0.722671
Si Si6 0.402635 0.187583 0.086646
O O1 0.790521 0.500000 0.556327
O O2 0.750000 0.250000 0.500000
O O3 0.869510 0.246828 0.512958
O O4 0.744831 0.252798 0.654131
O O5 0.027152 0.750469 0.185940
O O6 0.966329 0.789715 0.090578
O O7 0.060057 0.000000 0.084384
O O8 0.095821 0.724711 0.005447
O O9 0.947498 0.500000 0.462433
O O10 0.973495 0.255212 0.360890
O O11 0.000000 0.247161 0.500000
O O12 0.891584 0.755415 0.281282
O O13 0.836316 0.734365 0.172632
O O14 0.824773 0.000000 0.258942
O O15 0.532248 0.500000 0.723522
O O16 0.418966 0.000000 0.089522
#
# Coordination Sequence:
#
# PCOD9169185 Si02
#       6
#     8   8   8   8   8   8
#     4  10  19  32  50  70  94 126 163 199 237 286
#     4   9  16  27  41  59  90 125 155 188 232 283
#     4  10  21  34  48  70  99 128 158 197 244 287
#     4   9  17  29  44  64  92 124 157 192 235 281
#     4   9  17  29  46  67  90 122 162 196 231 279
#     4  10  17  24  38  64  93 120 153 190 234 281
#
# _framework density 17.508603000000001
#
# number of rings (size 3 to 8) (size 9 to 14) (size 15 to 20)
#    0.000    2.500    1.667    4.000    0.000    4.333 
#    0.000    0.000    0.000    0.000    0.000    1.167 
#    0.000    0.000    0.000    0.000    0.000    0.000 
#
# Total GULP energy -133704.466655 kJ/mol
# GULP energy per Si atom -5571.019444 kJ/mol
# Density = 1.746875 g / cm^3
# Si number density = 17.508603 Si / 1000 Ang^3
#
#
#
# Elastic Constant Matrix: (Units=GPa)
#
#
# Indices 1 2 3 4 5 6 
#
# 1 67.6184 7.5375 57.7949 0.0000 3.7396 0.0001
# 2 7.5375 11.1491 17.4490 0.0000 -0.7395 0.0002
# 3 57.7949 17.4490 207.7824 0.0000 -0.1494 0.0000
# 4 0.0000 0.0000 0.0000 28.6968 0.0000 0.3403
# 5 3.7396 -0.7395 -0.1494 0.0000 13.5350 0.0000
# 6 0.0001 0.0002 0.0000 0.3403 0.0000 16.8426
#
#
#
# Elastic Compliance Matrix: (Units=1/GPa)
#
#
# Indices 1 2 3 4 5 6 
#
# 1 0.020152 -0.006033 -0.005103 0.000000 -0.005954 0.000000
# 2 -0.006033 0.105490 -0.007176 0.000000 0.007351 -0.000001
# 3 -0.005103 -0.007176 0.006836 0.000000 0.001093 0.000000
# 4 0.000000 0.000000 0.000000 0.034855 0.000000 -0.000704
# 5 -0.005954 0.007351 0.001093 0.000000 0.075941 0.000000
# 6 0.000000 -0.000001 0.000000 -0.000704 0.000000 0.059387
#
#
# Mechanical properties :
#
#
# Convention : Reuss Voigt Hill
#
# Bulk Modulus (GPa) = 10.43239 50.23475 30.33357
# Shear Modulus (GPa) = 13.46853 25.39945 19.43399
#
# Velocity S-wave (km/s) = 2.77655 3.81292 3.33523
# Velocity P-wave (km/s) = 4.03117 6.93817 5.67400
#
# Compressibility (1/GPa) = 0.09585536
#
# Stress axis : x y z
#
# Youngs Moduli (GPa) = 49.62210 9.47959 146.29470
#
# Poissons Ratio (x) = 0.05719 0.74655
# Poissons Ratio (y) = 0.29935 1.04974
# Poissons Ratio (z) = 0.25323 0.06802
#
# Static dielectric constant tensor:
#      x y z
#    x 1.561480 0.000000 -0.010890 
#    y 0.000000 1.603030 0.000000 
#    z -0.010890 0.000000 1.659530 
# 
# From -- ./inp_files/280078.got.cif
#   From: 2010.05.17/outbox.cif.g08.bks.cpg/sg12_141_cif.got.tgz:280078.got - 2010.06.03 13:09:07.
