data_PCOD9169286
_publ_section_title
;
Structure prediction by ZEFSAII (Michael W. Deem and Ramdas Pophale) SiO2 
 PCOD9169286
Probable space group: C 2/M
;
_chemical_formula_sum "Si O2"
_cell_formula_units_Z 48
_cell_length_a 18.637089
_cell_length_b 8.375923
_cell_length_c 21.442175
_cell_angle_alpha 90.000000
_cell_angle_beta 130.417932
_cell_angle_gamma 90.000000
_cell_volume 2548.329786
_symmetry_space_group_name_H-M "C 2/M"
_symmetry_group_IT_number 12
_symmetry_cell_setting 'monoclinic'
loop_
_space_group_symop_operation_xyz
x,y,z
-x,y,-z
-x,-y,-z
x,-y,z
1/2+x,1/2+y,z
1/2-x,1/2+y,-z
1/2-x,1/2-y,-z
1/2+x,1/2-y,z
loop_
_atom_site_type_symbol
_atom_site_label
_atom_site_fract_x
_atom_site_fract_y
_atom_site_fract_z
Si Si1 0.222424 0.693005 0.742587
Si Si2 0.025271 0.812332 0.917526
Si Si3 0.148368 0.690885 0.420621
Si Si4 0.639057 0.186804 0.086537
Si Si5 0.613348 0.307104 0.261689
Si Si6 0.516832 0.804884 0.580501
O O1 0.224362 0.500000 0.747858
O O2 0.260561 0.763499 0.829065
O O3 0.297413 0.741097 0.731071
O O4 0.118347 0.744481 0.664144
O O5 0.936152 0.784310 0.913755
O O6 0.982612 0.754702 0.827697
O O7 0.045210 0.000000 0.925151
O O8 0.112411 0.726981 0.000378
O O9 0.148625 0.500000 0.422664
O O10 0.250000 0.750000 0.500000
O O11 0.125595 0.745420 0.337921
O O12 0.067570 0.748664 0.422478
O O13 0.622894 0.000000 0.088054
O O14 0.612593 0.500000 0.261973
O O15 0.500000 0.752770 0.500000
O O16 0.516990 0.000000 0.580082
#
# Coordination Sequence:
#
# PCOD9169286 Si02
#       6
#     8   8   8   8   8   8
#     4   9  17  32  53  73  98 134 173 207 242 294
#     4   9  16  28  46  68  97 136 176 205 238 290
#     4  11  22  35  54  77 101 130 163 204 251 298
#     4  10  17  25  42  72 106 132 161 208 257 292
#     4   9  18  32  52  76 101 131 166 207 250 292
#     4   9  18  34  55  75  95 126 170 209 240 288
#
# _framework density 18.835865999999999
#
# number of rings (size 3 to 8) (size 9 to 14) (size 15 to 20)
#    0.000    2.500    0.000    5.500    0.000    6.000 
#    0.000    1.667    0.000    4.500    0.000    0.000 
#    0.000    0.000    0.000    0.000    0.000    0.000 
#
# Total GULP energy -133814.555574 kJ/mol
# GULP energy per Si atom -5575.606482 kJ/mol
# Density = 1.879299 g / cm^3
# Si number density = 18.835866 Si / 1000 Ang^3
#
#
#
# Elastic Constant Matrix: (Units=GPa)
#
#
# Indices 1 2 3 4 5 6 
#
# 1 83.1637 13.5856 82.0169 0.0000 1.9865 0.0000
# 2 13.5856 13.7209 24.4492 0.0000 0.4051 0.0000
# 3 82.0169 24.4492 233.3540 0.0000 2.8396 0.0000
# 4 0.0000 0.0000 0.0000 23.9350 0.0000 -8.9460
# 5 1.9865 0.4051 2.8396 0.0000 25.5688 0.0000
# 6 0.0000 0.0000 0.0000 -8.9460 0.0000 12.0671
#
#
#
# Elastic Compliance Matrix: (Units=1/GPa)
#
#
# Indices 1 2 3 4 5 6 
#
# 1 0.019205 -0.008585 -0.005842 0.000000 -0.000707 0.000000
# 2 -0.008585 0.093453 -0.006773 0.000000 -0.000061 0.000000
# 3 -0.005842 -0.006773 0.007051 0.000000 -0.000222 0.000000
# 4 0.000000 0.000000 0.000000 0.057794 0.000000 0.042846
# 5 -0.000707 -0.000061 -0.000222 0.000000 0.039191 0.000000
# 6 0.000000 0.000000 0.000000 0.042846 0.000000 0.114634
#
#
# Mechanical properties :
#
#
# Convention : Reuss Voigt Hill
#
# Bulk Modulus (GPa) = 12.93520 63.37132 38.15326
# Shear Modulus (GPa) = 12.51573 26.32665 19.42119
#
# Velocity S-wave (km/s) = 2.58051 3.74262 3.21452
# Velocity P-wave (km/s) = 3.97001 7.23832 5.83756
#
# Compressibility (1/GPa) = 0.07730844
#
# Stress axis : x y z
#
# Youngs Moduli (GPa) = 52.06910 10.70058 141.82482
#
# Poissons Ratio (x) = 0.09187 0.82854
# Poissons Ratio (y) = 0.44702 0.96060
# Poissons Ratio (z) = 0.30419 0.07248
#
# Static dielectric constant tensor:
#      x y z
#    x 1.636570 0.000000 0.001430 
#    y 0.000000 1.649060 0.000000 
#    z 0.001430 0.000000 1.694800 
# 
# From -- ./inp_files/314485.got.cif
#   From: 2010.05.17/outbox.cif.g08.bks.cpg/sg12_158_cif.got.tgz:314485.got - 2010.06.03 13:09:07.
