data_PCOD9169440
_publ_section_title
;
Structure prediction by ZEFSAII (Michael W. Deem and Ramdas Pophale) SiO2 
 PCOD9169440
Probable space group: C 2/M
;
_chemical_formula_sum "Si O2"
_cell_formula_units_Z 56
_cell_length_a 27.297949
_cell_length_b 27.170078
_cell_length_c 5.420207
_cell_angle_alpha 90.000000
_cell_angle_beta 67.998324
_cell_angle_gamma 90.000000
_cell_volume 3727.327071
_symmetry_space_group_name_H-M "C 2/M"
_symmetry_group_IT_number 12
_symmetry_cell_setting 'monoclinic'
loop_
_space_group_symop_operation_xyz
x,y,z
-x,y,-z
-x,-y,-z
x,-y,z
1/2+x,1/2+y,z
1/2-x,1/2+y,-z
1/2-x,1/2-y,-z
1/2+x,1/2-y,z
loop_
_atom_site_type_symbol
_atom_site_label
_atom_site_fract_x
_atom_site_fract_y
_atom_site_fract_z
Si Si1 0.534520 0.255728 0.682391
Si Si2 0.149498 0.305561 0.955809
Si Si3 0.703184 0.206993 0.352006
Si Si4 0.858063 0.188554 0.525544
Si Si5 0.464847 0.054610 0.318412
Si Si6 0.561172 0.153834 0.808299
Si Si7 0.672590 0.692654 0.917191
O O1 0.500000 0.258645 0.500000
O O2 0.581335 0.295087 0.592406
O O3 0.563928 0.202491 0.634580
O O4 0.500000 0.259547 0.000000
O O5 0.187205 0.314581 0.647453
O O6 0.096737 0.334117 0.978701
O O7 0.141348 0.245710 0.975233
O O8 0.176182 0.317990 0.165060
O O9 0.679671 0.262381 0.400280
O O10 0.765807 0.206545 0.200862
O O11 0.842849 0.164085 0.299026
O O12 0.843465 0.163928 0.808711
O O13 0.500000 0.062731 0.500000
O O14 0.427936 0.102092 0.344710
O O15 0.559599 0.000000 0.608422
O O16 0.500000 0.052153 0.000000
O O17 0.500000 0.151832 0.000000
#
# Coordination Sequence:
#
# PCOD9169440 Si02
#       7
#     8   8   8   8   8   8   8
#     4  11  21  28  37  51  72  90 109 138 177 212
#     4  10  18  27  37  54  70  87 111 138 168 211
#     4  10  18  27  39  51  69  88 111 137 165 201
#     4  10  17  27  38  49  66  86 114 135 161 205
#     4   9  18  32  45  56  69  89 116 143 175 219
#     4  10  20  29  42  56  74  92 114 143 183 218
#     4  10  17  28  39  51  66  90 112 137 164 200
#
# _framework density 15.02417
#
# number of rings (size 3 to 8) (size 9 to 14) (size 15 to 20)
#    0.000    2.000    2.857    5.571    6.000    2.286 
#    0.000    0.000    0.000    0.000    0.000    0.000 
#    0.000    0.000    0.000    0.000    0.000    0.000 
#
# Total GULP energy -155929.889806 kJ/mol
# GULP energy per Si atom -5568.924636 kJ/mol
# Density = 1.498997 g / cm^3
# Si number density = 15.024170 Si / 1000 Ang^3
#
#
#
# Elastic Constant Matrix: (Units=GPa)
#
#
# Indices 1 2 3 4 5 6 
#
# 1 84.3201 12.2876 34.9422 0.0000 20.5284 0.0000
# 2 12.2876 12.8208 -0.8144 0.0000 0.8766 0.0000
# 3 34.9422 -0.8144 110.6005 0.0000 24.5979 0.0000
# 4 0.0000 0.0000 0.0000 6.2315 0.0000 4.5024
# 5 20.5284 0.8766 24.5979 0.0000 33.1803 0.0000
# 6 0.0000 0.0000 0.0000 4.5024 0.0000 4.1900
#
#
#
# Elastic Compliance Matrix: (Units=1/GPa)
#
#
# Indices 1 2 3 4 5 6 
#
# 1 0.017849 -0.016848 -0.004079 0.000000 -0.007574 0.000000
# 2 -0.016848 0.094184 0.005091 0.000000 0.004161 0.000000
# 3 -0.004079 0.005091 0.011778 0.000000 -0.006343 0.000000
# 4 0.000000 0.000000 0.000000 0.717691 0.000000 -0.771205
# 5 -0.007574 0.004161 -0.006343 0.000000 0.039417 0.000000
# 6 0.000000 0.000000 0.000000 -0.771205 0.000000 1.067371
#
#
# Mechanical properties :
#
#
# Convention : Reuss Voigt Hill
#
# Bulk Modulus (GPa) = 10.85302 33.39690 22.12496
# Shear Modulus (GPa) = 2.48673 19.47544 10.98108
#
# Velocity S-wave (km/s) = 1.28792 3.60429 2.70644
# Velocity P-wave (km/s) = 3.07426 6.29271 4.95223
#
# Compressibility (1/GPa) = 0.09214028
#
# Stress axis : x y z
#
# Youngs Moduli (GPa) = 56.02589 10.61748 84.90232
#
# Poissons Ratio (x) = 0.17888 0.34628
# Poissons Ratio (y) = 0.94391 -0.43222
# Poissons Ratio (z) = 0.22850 -0.05405
#
# Static dielectric constant tensor:
#      x y z
#    x 1.533050 0.000000 0.026530 
#    y 0.000000 1.483810 0.000000 
#    z 0.026530 0.000000 1.640760 
# 
# From -- ./inp_files/26588.got.cif
#   From: 2010.05.17/outbox.cif.g08.bks.cpg/sg12_14_cif.got.tgz:26588.got - 2010.06.03 13:09:07.
