data_PCOD9169130
_publ_section_title
;
Structure prediction by ZEFSAII (Michael W. Deem and Ramdas Pophale) SiO2 
 PCOD9169130
Probable space group: C 2/M
;
_chemical_formula_sum "Si O2"
_cell_formula_units_Z 64
_cell_length_a 25.050929
_cell_length_b 8.726475
_cell_length_c 19.356869
_cell_angle_alpha 90.000000
_cell_angle_beta 80.432426
_cell_angle_gamma 90.000000
_cell_volume 4172.674090
_symmetry_space_group_name_H-M "C 2/M"
_symmetry_group_IT_number 12
_symmetry_cell_setting 'monoclinic'
loop_
_space_group_symop_operation_xyz
x,y,z
-x,y,-z
-x,-y,-z
x,-y,z
1/2+x,1/2+y,z
1/2-x,1/2+y,-z
1/2-x,1/2-y,-z
1/2+x,1/2-y,z
loop_
_atom_site_type_symbol
_atom_site_label
_atom_site_fract_x
_atom_site_fract_y
_atom_site_fract_z
Si Si1 0.654540 0.684376 0.743357
Si Si2 0.060250 0.818787 0.019878
Si Si3 0.954373 0.682681 0.303339
Si Si4 0.763920 0.184184 0.389674
Si Si5 0.168280 0.184136 0.489135
Si Si6 0.495289 0.315604 0.834672
Si Si7 0.546432 0.685040 0.544746
Si Si8 0.604427 0.817998 0.880724
O O1 0.650979 0.500000 0.746969
O O2 0.602121 0.745344 0.712443
O O3 0.707190 0.729200 0.687738
O O4 0.651075 0.752458 0.821086
O O5 0.052561 0.772786 0.101617
O O6 0.071713 0.000000 0.013968
O O7 0.101672 0.731398 0.961290
O O8 0.000000 0.797186 0.000000
O O9 0.950952 0.500000 0.299310
O O10 0.001224 0.744101 0.241885
O O11 0.962812 0.737769 0.379361
O O12 0.803328 0.232185 0.444683
O O13 0.705366 0.250504 0.420204
O O14 0.761049 0.000000 0.391637
O O15 0.105806 0.230920 0.504286
O O16 0.170296 0.000000 0.485798
O O17 0.497246 0.500000 0.830615
O O18 0.550404 0.255978 0.858781
O O19 0.500000 0.723139 0.500000
O O20 0.546918 0.500000 0.554306
O O21 0.601944 0.000000 0.875277
#
# Coordination Sequence:
#
# PCOD9169130 Si02
#       8
#     8   8   8   8   8   8   8   8
#     4  10  17  28  42  56  80 111 144 173 203 249
#     4   8  14  24  35  48  68 101 138 168 200 240
#     4  11  20  28  41  61  83 104 135 177 219 252
#     4   9  17  28  44  63  83 108 137 173 214 251
#     4   9  17  30  45  64  83 103 136 174 213 253
#     4   9  16  26  39  51  70 102 139 172 203 244
#     4  10  20  35  51  63  81 112 145 175 210 256
#     4  10  17  22  32  53  78 103 134 170 209 244
#
# _framework density 15.337885
#
# number of rings (size 3 to 8) (size 9 to 14) (size 15 to 20)
#    0.000    2.500    1.250    5.250    0.000    4.500 
#    0.000    0.000    0.000    0.000    0.000    0.000 
#    0.000    0.000    0.000    1.125    0.000   13.625 
#
# Total GULP energy -178182.398858 kJ/mol
# GULP energy per Si atom -5568.199964 kJ/mol
# Density = 1.530298 g / cm^3
# Si number density = 15.337885 Si / 1000 Ang^3
#
#
#
# Elastic Constant Matrix: (Units=GPa)
#
#
# Indices 1 2 3 4 5 6 
#
# 1 57.8486 22.9129 56.5229 0.0000 -19.0221 0.0000
# 2 22.9129 35.7209 41.4833 0.0000 -12.5907 0.0000
# 3 56.5229 41.4833 129.5420 0.0000 -44.9489 0.0000
# 4 0.0000 0.0000 0.0000 32.2239 0.0000 5.5333
# 5 -19.0221 -12.5907 -44.9489 0.0000 26.9296 0.0000
# 6 0.0000 0.0000 0.0000 5.5333 0.0000 28.7480
#
#
#
# Elastic Compliance Matrix: (Units=1/GPa)
#
#
# Indices 1 2 3 4 5 6 
#
# 1 0.031104 -0.006626 -0.011646 0.000000 -0.000566 0.000000
# 2 -0.006626 0.046559 -0.014469 0.000000 -0.007063 0.000000
# 3 -0.011646 -0.014469 0.029068 0.000000 0.033526 0.000000
# 4 0.000000 0.000000 0.000000 0.032094 0.000000 -0.006177
# 5 -0.000566 -0.007063 0.033526 0.000000 0.089391 0.000000
# 6 0.000000 0.000000 0.000000 -0.006177 0.000000 0.035974
#
#
# Mechanical properties :
#
#
# Convention : Reuss Voigt Hill
#
# Bulk Modulus (GPa) = 24.24392 51.66108 37.95250
# Shear Modulus (GPa) = 14.55938 24.39312 19.47625
#
# Velocity S-wave (km/s) = 3.08432 3.99229 3.56731
# Velocity P-wave (km/s) = 5.34087 7.41662 6.46263
#
# Compressibility (1/GPa) = 0.04124745
#
# Stress axis : x y z
#
# Youngs Moduli (GPa) = 32.14998 21.47824 34.40261
#
# Poissons Ratio (x) = 0.14232 0.40066
# Poissons Ratio (y) = 0.21303 0.49778
# Poissons Ratio (z) = 0.37443 0.31077
#
# Static dielectric constant tensor:
#      x y z
#    x 1.486790 0.000000 -0.039780 
#    y 0.000000 1.513910 0.000000 
#    z -0.039780 0.000000 1.560120 
# 
# From -- ./inp_files/291583.got.cif
#   From: 2010.05.17/outbox.cif.g08.bks.cpg/sg12_146_cif.got.tgz:291583.got - 2010.06.03 13:09:07.
