data_PCOD9169434
_publ_section_title
;
Structure prediction by ZEFSAII (Michael W. Deem and Ramdas Pophale) SiO2 
 PCOD9169434
Probable space group: C 2/M
;
_chemical_formula_sum "Si O2"
_cell_formula_units_Z 64
_cell_length_a 20.282960
_cell_length_b 7.666709
_cell_length_c 21.320407
_cell_angle_alpha 90.000000
_cell_angle_beta 52.171896
_cell_angle_gamma 90.000000
_cell_volume 2618.682111
_symmetry_space_group_name_H-M "C 2/M"
_symmetry_group_IT_number 12
_symmetry_cell_setting 'monoclinic'
loop_
_space_group_symop_operation_xyz
x,y,z
-x,y,-z
-x,-y,-z
x,-y,z
1/2+x,1/2+y,z
1/2-x,1/2+y,-z
1/2-x,1/2-y,-z
1/2+x,1/2-y,z
loop_
_atom_site_type_symbol
_atom_site_label
_atom_site_fract_x
_atom_site_fract_y
_atom_site_fract_z
Si Si1 0.674145 0.700680 0.351482
Si Si2 0.054561 0.702492 0.244424
Si Si3 0.651614 0.293900 0.701600
Si Si4 0.346628 0.289936 0.437861
Si Si5 0.499030 0.702480 0.414702
Si Si6 0.824507 0.211609 0.006863
Si Si7 0.260683 0.799149 0.821790
Si Si8 0.999026 0.804161 0.143869
O O1 0.664890 0.500000 0.375228
O O2 0.749530 0.774783 0.347696
O O3 0.579553 0.777768 0.404519
O O4 0.712731 0.710417 0.258494
O O5 0.028710 0.500000 0.256694
O O6 0.028318 0.786683 0.325213
O O7 0.154434 0.699045 0.187505
O O8 0.025167 0.806967 0.201727
O O9 0.635615 0.500000 0.710981
O O10 0.629129 0.222984 0.645789
O O11 0.593722 0.222758 0.792436
O O12 0.355768 0.500000 0.432569
O O13 0.250000 0.250000 0.500000
O O14 0.406030 0.222563 0.459402
O O15 0.492612 0.500000 0.436387
O O16 0.917603 0.276978 0.934735
O O17 0.828179 0.000000 0.006201
O O18 0.750000 0.250000 0.000000
O O19 0.803891 0.272429 0.089742
O O20 0.238772 0.000000 0.817813
O O21 0.989904 0.000000 0.122634
#
# Coordination Sequence:
#
# PCOD9169434 Si02
#       8
#     8   8   8   8   8   8   8   8
#     4  10  21  36  59  84 106 145 192 233 274 322
#     4  10  17  26  47  78 107 135 174 228 272 311
#     4  10  21  39  59  80 111 148 184 225 275 332
#     4  10  21  38  61  88 116 146 177 219 272 325
#     4   9  18  36  57  80 111 145 183 222 267 327
#     4  10  19  30  48  76 109 144 186 235 285 333
#     4   9  18  32  48  74 110 143 181 229 281 329
#     4  10  19  32  51  74 104 146 185 222 275 333
#
# _framework density 24.439772999999999
#
# number of rings (size 3 to 8) (size 9 to 14) (size 15 to 20)
#    0.000    2.250    2.500    0.750    0.000    3.000 
#    0.000    1.250    0.000    7.500    0.000    0.000 
#    0.000    0.000    0.000    0.000    0.000    0.000 
#
# Total GULP energy -178431.888620 kJ/mol
# GULP energy per Si atom -5575.996519 kJ/mol
# Density = 2.438415 g / cm^3
# Si number density = 24.439773 Si / 1000 Ang^3
#
#
#
# Elastic Constant Matrix: (Units=GPa)
#
#
# Indices 1 2 3 4 5 6 
#
# 1 143.5081 7.1492 41.9487 0.0002 -34.5871 -0.0017
# 2 7.1492 65.6924 9.2010 0.0003 -4.8488 -0.0046
# 3 41.9487 9.2010 128.1778 0.0000 -34.7609 0.0002
# 4 0.0002 0.0003 0.0000 9.7023 -0.0001 -6.9293
# 5 -34.5871 -4.8488 -34.7609 -0.0001 43.6975 0.0005
# 6 -0.0017 -0.0046 0.0002 -6.9293 0.0005 19.6934
#
#
#
# Elastic Compliance Matrix: (Units=1/GPa)
#
#
# Indices 1 2 3 4 5 6 
#
# 1 0.008775 -0.000344 -0.001242 0.000000 0.005920 0.000001
# 2 -0.000344 0.015429 -0.000771 0.000003 0.000827 0.000004
# 3 -0.001242 -0.000771 0.010167 0.000000 0.007019 -0.000001
# 4 0.000000 0.000003 0.000000 0.137661 0.000000 0.048437
# 5 0.005920 0.000827 0.007019 0.000000 0.033246 0.000000
# 6 0.000001 0.000004 -0.000001 0.048437 0.000000 0.067821
#
#
# Mechanical properties :
#
#
# Convention : Reuss Voigt Hill
#
# Bulk Modulus (GPa) = 33.71817 50.44178 42.07998
# Shear Modulus (GPa) = 17.37935 33.22394 25.30164
#
# Velocity S-wave (km/s) = 2.66956 3.69103 3.22104
# Velocity P-wave (km/s) = 4.82995 6.23290 5.57572
#
# Compressibility (1/GPa) = 0.02965760
#
# Stress axis : x y z
#
# Youngs Moduli (GPa) = 113.95941 64.81354 98.35773
#
# Poissons Ratio (x) = 0.02230 0.12214
# Poissons Ratio (y) = 0.03922 0.07581
# Poissons Ratio (z) = 0.14151 0.04996
#
# Static dielectric constant tensor:
#      x y z
#    x 1.992950 0.000000 -0.065150 
#    y 0.000000 1.923790 0.000000 
#    z -0.065150 0.000000 2.047040 
# 
# From -- ./inp_files/346087.got.cif
#   From: 2010.05.17/outbox.cif.g08.bks.cpg/sg12_174_cif.got.tgz:346087.got - 2010.06.03 13:09:07.
