data_PCOD9169987
_publ_section_title
;
Structure prediction by ZEFSAII (Michael W. Deem and Ramdas Pophale) SiO2 
 PCOD9169987
Probable space group: C 2/M
;
_chemical_formula_sum "Si O2"
_cell_formula_units_Z 56
_cell_length_a 15.871212
_cell_length_b 18.490464
_cell_length_c 15.060447
_cell_angle_alpha 90.000000
_cell_angle_beta 136.547696
_cell_angle_gamma 90.000000
_cell_volume 3039.671683
_symmetry_space_group_name_H-M "C 2/M"
_symmetry_group_IT_number 12
_symmetry_cell_setting 'monoclinic'
loop_
_space_group_symop_operation_xyz
x,y,z
-x,y,-z
-x,-y,-z
x,-y,z
1/2+x,1/2+y,z
1/2-x,1/2+y,-z
1/2-x,1/2-y,-z
1/2+x,1/2-y,z
loop_
_atom_site_type_symbol
_atom_site_label
_atom_site_fract_x
_atom_site_fract_y
_atom_site_fract_z
Si Si1 0.933504 0.205334 0.124750
Si Si2 0.764577 0.783151 0.154279
Si Si3 0.839082 0.085227 0.939950
Si Si4 0.442229 0.086437 0.224070
Si Si5 0.607345 0.085701 0.508134
Si Si6 0.609455 0.914877 0.014290
Si Si7 0.811497 0.818902 0.753904
O O1 0.885112 0.223175 0.185818
O O2 0.075536 0.215894 0.212694
O O3 0.845807 0.247890 0.988690
O O4 0.901585 0.122501 0.072645
O O5 0.723550 0.866168 0.130312
O O6 0.761098 0.741072 0.244134
O O7 0.692876 0.098631 0.839719
O O8 0.868850 0.126229 0.871403
O O9 0.861052 0.000000 0.951793
O O10 0.546820 0.112879 0.370084
O O11 0.458615 0.000000 0.235110
O O12 0.437511 0.110065 0.118730
O O13 0.500000 0.090048 0.500000
O O14 0.720511 0.134046 0.624932
O O15 0.640441 0.000000 0.527621
O O16 0.640374 0.000000 0.031924
O O17 0.500000 0.905584 0.000000
#
# Coordination Sequence:
#
# PCOD9169987 Si02
#       7
#     8   8   8   8   8   8   8
#     4  10  21  32  50  77 107 152 183 223 285 336
#     4  10  20  36  52  73 111 147 178 234 286 334
#     4  10  17  29  49  78 115 144 175 221 274 336
#     4   9  17  30  51  81 112 142 180 221 272 325
#     4  10  19  33  54  81 116 155 185 221 270 329
#     4  10  19  33  57  84 106 138 188 240 282 327
#     4  11  21  33  51  81 110 150 193 217 272 343
#
# _framework density 18.423041999999999
#
# number of rings (size 3 to 8) (size 9 to 14) (size 15 to 20)
#    0.000    2.000    2.857    3.000    0.000    1.714 
#    0.000    0.000    0.000    7.714    0.000    0.000 
#    0.000    5.143    0.000    1.286    0.000    0.000 
#
# Total GULP energy -156252.394558 kJ/mol
# GULP energy per Si atom -5580.442663 kJ/mol
# Density = 1.838111 g / cm^3
# Si number density = 18.423042 Si / 1000 Ang^3
#
#
#
# Elastic Constant Matrix: (Units=GPa)
#
#
# Indices 1 2 3 4 5 6 
#
# 1 101.8046 41.6389 33.0418 0.0000 7.6950 0.0000
# 2 41.6389 60.3372 19.3474 0.0000 -6.0872 0.0000
# 3 33.0418 19.3474 65.8307 0.0000 -4.6681 0.0000
# 4 0.0000 0.0000 0.0000 28.2490 0.0000 2.1255
# 5 7.6950 -6.0872 -4.6681 0.0000 16.0996 0.0000
# 6 0.0000 0.0000 0.0000 2.1255 0.0000 17.8404
#
#
#
# Elastic Compliance Matrix: (Units=1/GPa)
#
#
# Indices 1 2 3 4 5 6 
#
# 1 0.017885 -0.011734 -0.006584 0.000000 -0.014894 0.000000
# 2 -0.011734 0.026480 -0.000802 0.000000 0.015388 0.000000
# 3 -0.006584 -0.000802 0.019330 0.000000 0.008449 0.000000
# 4 0.000000 0.000000 0.000000 0.035720 0.000000 -0.004256
# 5 -0.014894 0.015388 0.008449 0.000000 0.077500 0.000000
# 6 0.000000 0.000000 0.000000 -0.004256 0.000000 0.056560
#
#
# Mechanical properties :
#
#
# Convention : Reuss Voigt Hill
#
# Bulk Modulus (GPa) = 39.28444 46.22541 42.75493
# Shear Modulus (GPa) = 17.84444 21.36742 19.60593
#
# Velocity S-wave (km/s) = 3.11560 3.40931 3.26576
# Velocity P-wave (km/s) = 5.85768 6.37522 6.12192
#
# Compressibility (1/GPa) = 0.02545537
#
# Stress axis : x y z
#
# Youngs Moduli (GPa) = 55.91394 37.76368 51.73270
#
# Poissons Ratio (x) = 0.44310 0.34063
# Poissons Ratio (y) = 0.65607 0.04149
# Poissons Ratio (z) = 0.36816 0.03029
#
# Static dielectric constant tensor:
#      x y z
#    x 1.665090 0.000000 -0.004410 
#    y 0.000000 1.695860 0.000000 
#    z -0.004410 0.000000 1.606090 
# 
# From -- ./inp_files/217657.got.cif
#   From: 2010.05.17/outbox.cif.g08.bks.cpg/sg12_109_cif.got.tgz:217657.got - 2010.06.03 13:09:07.
