data_PCOD9169422
_publ_section_title
;
Structure prediction by ZEFSAII (Michael W. Deem and Ramdas Pophale) SiO2 
 PCOD9169422
Probable space group: C 2/M
;
_chemical_formula_sum "Si O2"
_cell_formula_units_Z 40
_cell_length_a 20.070501
_cell_length_b 7.506132
_cell_length_c 20.210764
_cell_angle_alpha 90.000000
_cell_angle_beta 138.709293
_cell_angle_gamma 90.000000
_cell_volume 2009.194506
_symmetry_space_group_name_H-M "C 2/M"
_symmetry_group_IT_number 12
_symmetry_cell_setting 'monoclinic'
loop_
_space_group_symop_operation_xyz
x,y,z
-x,y,-z
-x,-y,-z
x,-y,z
1/2+x,1/2+y,z
1/2-x,1/2+y,-z
1/2-x,1/2-y,-z
1/2+x,1/2-y,z
loop_
_atom_site_type_symbol
_atom_site_label
_atom_site_fract_x
_atom_site_fract_y
_atom_site_fract_z
Si Si1 0.839938 0.786890 0.617171
Si Si2 0.907896 0.216833 0.063216
Si Si3 0.260295 0.710903 0.839095
Si Si4 0.140371 0.217185 0.220502
Si Si5 0.433866 0.714510 0.230755
O O1 0.750000 0.750000 0.500000
O O2 0.823022 0.721955 0.679769
O O3 0.950565 0.722394 0.676359
O O4 0.848331 0.000000 0.627962
O O5 0.894319 0.276738 0.128977
O O6 0.021901 0.264101 0.126822
O O7 0.903418 0.000000 0.061142
O O8 0.826906 0.283192 0.949905
O O9 0.280888 0.500000 0.852616
O O10 0.296827 0.781834 0.795635
O O11 0.143756 0.733933 0.770409
O O12 0.144596 0.000000 0.223962
O O13 0.435518 0.500000 0.230157
#
# Coordination Sequence:
#
# PCOD9169422 Si02
#       5
#     8   8   8   8   8
#     4   9  18  34  53  67  83 114 153 190 227 266
#     4   8  14  26  45  67  92 124 155 178 208 258
#     4  10  17  26  46  73  95 117 148 184 217 256
#     4   8  15  28  46  69  93 116 148 188 224 257
#     4   9  18  31  45  65  95 124 146 176 224 272
#
# _framework density 19.908477000000001
#
# number of rings (size 3 to 8) (size 9 to 14) (size 15 to 20)
#    0.000    3.200    0.000    3.600    0.000    3.200 
#    0.000    2.000    0.000   10.800    0.000    0.000 
#    0.000    0.000    0.000    0.000    0.000    0.000 
#
# Total GULP energy -111537.467392 kJ/mol
# GULP energy per Si atom -5576.873370 kJ/mol
# Density = 1.986316 g / cm^3
# Si number density = 19.908477 Si / 1000 Ang^3
#
#
#
# Elastic Constant Matrix: (Units=GPa)
#
#
# Indices 1 2 3 4 5 6 
#
# 1 153.9681 -5.1810 54.5652 0.0000 11.2967 0.0000
# 2 -5.1810 48.0218 -3.6466 0.0000 -3.0043 0.0000
# 3 54.5652 -3.6466 119.9832 0.0000 -0.5140 0.0000
# 4 0.0000 0.0000 0.0000 11.4169 0.0000 5.0624
# 5 11.2967 -3.0043 -0.5140 0.0000 8.4174 0.0000
# 6 0.0000 0.0000 0.0000 5.0624 0.0000 14.1189
#
#
#
# Elastic Compliance Matrix: (Units=1/GPa)
#
#
# Indices 1 2 3 4 5 6 
#
# 1 0.008823 -0.000116 -0.004068 0.000000 -0.012130 0.000000
# 2 -0.000116 0.021357 0.000735 0.000000 0.007823 0.000000
# 3 -0.004068 0.000735 0.010234 0.000000 0.006347 0.000000
# 4 0.000000 0.000000 0.000000 0.104147 0.000000 -0.037343
# 5 -0.012130 0.007823 0.006347 0.000000 0.138261 0.000000
# 6 0.000000 0.000000 0.000000 -0.037343 0.000000 0.084216
#
#
# Mechanical properties :
#
#
# Convention : Reuss Voigt Hill
#
# Bulk Modulus (GPa) = 29.83612 45.93869 37.88741
# Shear Modulus (GPa) = 12.98340 25.20635 19.09487
#
# Velocity S-wave (km/s) = 2.55650 3.56211 3.10035
# Velocity P-wave (km/s) = 4.87170 6.32797 5.64697
#
# Compressibility (1/GPa) = 0.03351642
#
# Stress axis : x y z
#
# Youngs Moduli (GPa) = 113.34610 46.82382 97.71403
#
# Poissons Ratio (x) = 0.00543 0.39748
# Poissons Ratio (y) = 0.01314 -0.07185
# Poissons Ratio (z) = 0.46106 -0.03443
#
# Static dielectric constant tensor:
#      x y z
#    x 1.703710 0.000000 -0.008220 
#    y 0.000000 1.787760 0.000000 
#    z -0.008220 0.000000 1.681800 
# 
# From -- ./inp_files/140406.got.cif
#   From: 2010.05.17/outbox.cif.g08.bks.cpg/sg12_71_cif.got.tgz:140406.got - 2010.06.03 13:09:07.
