data_PCOD9169457
_publ_section_title
;
Structure prediction by ZEFSAII (Michael W. Deem and Ramdas Pophale) SiO2 
 PCOD9169457
Probable space group: C 2/M
;
_chemical_formula_sum "Si O2"
_cell_formula_units_Z 64
_cell_length_a 29.044986
_cell_length_b 9.165912
_cell_length_c 16.690981
_cell_angle_alpha 90.000000
_cell_angle_beta 96.816285
_cell_angle_gamma 90.000000
_cell_volume 4412.128411
_symmetry_space_group_name_H-M "C 2/M"
_symmetry_group_IT_number 12
_symmetry_cell_setting 'monoclinic'
loop_
_space_group_symop_operation_xyz
x,y,z
-x,y,-z
-x,-y,-z
x,-y,z
1/2+x,1/2+y,z
1/2-x,1/2+y,-z
1/2-x,1/2-y,-z
1/2+x,1/2-y,z
loop_
_atom_site_type_symbol
_atom_site_label
_atom_site_fract_x
_atom_site_fract_y
_atom_site_fract_z
Si Si1 0.107697 0.826485 0.513297
Si Si2 0.025453 0.331891 0.418318
Si Si3 0.278162 0.170592 0.277638
Si Si4 0.785127 0.174365 0.446544
Si Si5 0.127291 0.672579 0.806023
Si Si6 0.941446 0.173662 0.325914
Si Si7 0.677822 0.672167 0.951371
Si Si8 0.234115 0.826953 0.108352
O O1 0.075002 0.741033 0.445051
O O2 0.161602 0.787007 0.521142
O O3 0.088699 0.797509 0.599398
O O4 0.102653 0.000000 0.498909
O O5 0.029365 0.500000 0.394519
O O6 0.000000 0.328418 0.500000
O O7 0.991746 0.242424 0.353065
O O8 0.276017 0.269899 0.354751
O O9 0.326449 0.194819 0.239378
O O10 0.237507 0.196450 0.204012
O O11 0.277074 0.000000 0.301058
O O12 0.750000 0.250000 0.500000
O O13 0.780870 0.000000 0.449428
O O14 0.119566 0.500000 0.809634
O O15 0.085405 0.752123 0.752697
O O16 0.139047 0.739522 0.895271
O O17 0.944345 0.000000 0.316450
O O18 0.671267 0.500000 0.937467
O O19 0.725993 0.725621 0.920940
O O20 0.687487 0.698708 0.047829
O O21 0.246412 0.000000 0.098361
#
# Coordination Sequence:
#
# PCOD9169457 Si02
#       8
#     8   8   8   8   8   8   8   8
#     4   9  18  31  44  58  78 103 135 173 210 249
#     4   9  17  27  41  61  81 103 133 165 204 248
#     4   9  17  29  43  57  76 104 136 173 213 248
#     4  11  22  34  46  62  81 105 140 179 219 255
#     4  10  18  26  38  57  83 110 139 171 205 242
#     4  10  17  27  42  60  82 108 139 171 205 243
#     4   9  15  23  36  54  77 104 135 166 199 239
#     4   8  15  26  38  54  75 101 133 168 203 242
#
# _framework density 14.505470000000001
#
# number of rings (size 3 to 8) (size 9 to 14) (size 15 to 20)
#    0.000    2.625    1.250    2.625    0.000    5.500 
#    0.000    0.000    0.000    0.000    0.000    0.000 
#    0.000    0.000    0.000    1.125    0.000   22.500 
#
# Total GULP energy -178180.526831 kJ/mol
# GULP energy per Si atom -5568.141463 kJ/mol
# Density = 1.447246 g / cm^3
# Si number density = 14.505470 Si / 1000 Ang^3
#
#
#
# Elastic Constant Matrix: (Units=GPa)
#
#
# Indices 1 2 3 4 5 6 
#
# 1 56.9452 41.5932 50.6166 0.0000 18.9704 0.0000
# 2 41.5932 68.7241 61.2444 0.0000 23.5592 0.0000
# 3 50.6166 61.2444 102.6552 0.0000 39.7453 0.0000
# 4 0.0000 0.0000 0.0000 26.1513 0.0000 7.1502
# 5 18.9704 23.5592 39.7453 0.0000 25.1593 0.0000
# 6 0.0000 0.0000 0.0000 7.1502 0.0000 18.2050
#
#
#
# Elastic Compliance Matrix: (Units=1/GPa)
#
#
# Indices 1 2 3 4 5 6 
#
# 1 0.035817 -0.012671 -0.010914 0.000000 0.002100 0.000000
# 2 -0.012671 0.035555 -0.014865 0.000000 -0.000257 0.000000
# 3 -0.010914 -0.014865 0.039694 0.000000 -0.040558 0.000000
# 4 0.000000 0.000000 0.000000 0.042839 0.000000 -0.016826
# 5 0.002100 -0.000257 -0.040558 0.000000 0.102474 0.000000
# 6 0.000000 0.000000 0.000000 -0.016826 0.000000 0.061539
#
#
# Mechanical properties :
#
#
# Convention : Reuss Voigt Hill
#
# Bulk Modulus (GPa) = 29.26885 59.47033 44.36959
# Shear Modulus (GPa) = 12.30898 18.89447 15.60172
#
# Velocity S-wave (km/s) = 2.91619 3.61304 3.28315
# Velocity P-wave (km/s) = 5.61787 7.64807 6.71019
#
# Compressibility (1/GPa) = 0.03416602
#
# Stress axis : x y z
#
# Youngs Moduli (GPa) = 27.91946 28.12560 25.19267
#
# Poissons Ratio (x) = 0.35638 0.27495
# Poissons Ratio (y) = 0.35377 0.37449
# Poissons Ratio (z) = 0.30471 0.41809
#
# Static dielectric constant tensor:
#      x y z
#    x 1.449790 0.000000 0.027830 
#    y 0.000000 1.485050 0.000000 
#    z 0.027830 0.000000 1.497500 
# 
# From -- ./inp_files/287697.got.cif
#   From: 2010.05.17/outbox.cif.g08.bks.cpg/sg12_144_cif.got.tgz:287697.got - 2010.06.03 13:09:07.
