data_PCOD9169903
_publ_section_title
;
Structure prediction by ZEFSAII (Michael W. Deem and Ramdas Pophale) SiO2 
 PCOD9169903
Probable space group: C 2/M
;
_chemical_formula_sum "Si O2"
_cell_formula_units_Z 56
_cell_length_a 25.094977
_cell_length_b 24.233596
_cell_length_c 9.362212
_cell_angle_alpha 90.000000
_cell_angle_beta 145.870490
_cell_angle_gamma 90.000000
_cell_volume 3194.453947
_symmetry_space_group_name_H-M "C 2/M"
_symmetry_group_IT_number 12
_symmetry_cell_setting 'monoclinic'
loop_
_space_group_symop_operation_xyz
x,y,z
-x,y,-z
-x,-y,-z
x,-y,z
1/2+x,1/2+y,z
1/2-x,1/2+y,-z
1/2-x,1/2-y,-z
1/2+x,1/2-y,z
loop_
_atom_site_type_symbol
_atom_site_label
_atom_site_fract_x
_atom_site_fract_y
_atom_site_fract_z
Si Si1 0.040508 0.590738 0.833117
Si Si2 0.657461 0.852460 0.340318
Si Si3 0.779546 0.438428 0.948112
Si Si4 0.173478 0.438396 0.615662
Si Si5 0.736456 0.325974 0.710802
Si Si6 0.940518 0.290462 0.236968
Si Si7 0.942972 0.756741 0.749609
O O1 0.020762 0.647992 0.707681
O O2 0.941381 0.561518 0.634805
O O3 0.088181 0.609359 0.088613
O O4 0.118609 0.561536 0.907785
O O5 0.698360 0.890676 0.557402
O O6 0.731673 0.831518 0.385092
O O7 0.602457 0.800245 0.287180
O O8 0.738127 0.500000 0.838832
O O9 0.727175 0.386857 0.758190
O O10 0.793548 0.427892 0.148205
O O11 0.206079 0.500000 0.645635
O O12 0.642188 0.290532 0.508040
O O13 0.827147 0.297388 0.990511
O O14 0.000000 0.267916 0.500000
O O15 0.974183 0.256918 0.176358
O O16 0.000000 0.787729 0.000000
#
# Coordination Sequence:
#
# PCOD9169903 Si02
#       7
#     8   8   8   8   8   8   8
#     4  10  17  29  46  71 103 144 172 205 250 320
#     4  10  20  32  46  72 106 140 171 217 256 305
#     4   9  19  34  48  69 103 137 174 220 263 311
#     4  11  19  28  47  74 102 138 178 212 259 317
#     4  10  23  35  55  79 101 148 182 213 265 319
#     4  10  20  34  51  78 111 139 176 215 253 309
#     4  12  20  37  56  74 110 142 179 221 268 307
#
# _framework density 17.530383
#
# number of rings (size 3 to 8) (size 9 to 14) (size 15 to 20)
#    0.000    2.000    4.286    3.429    0.000    5.143 
#    0.000    0.000    0.000    0.429    0.000    0.000 
#    0.000    2.857    0.000    0.000    0.000    0.000 
#
# Total GULP energy -155991.474757 kJ/mol
# GULP energy per Si atom -5571.124098 kJ/mol
# Density = 1.749048 g / cm^3
# Si number density = 17.530383 Si / 1000 Ang^3
#
#
#
# Elastic Constant Matrix: (Units=GPa)
#
#
# Indices 1 2 3 4 5 6 
#
# 1 12.6324 3.3422 13.0873 0.0000 -14.1643 0.0000
# 2 3.3422 51.4912 33.5185 0.0000 -0.8304 0.0000
# 3 13.0873 33.5185 62.4999 0.0000 -6.6613 0.0000
# 4 0.0000 0.0000 0.0000 16.7254 0.0000 -8.2078
# 5 -14.1643 -0.8304 -6.6613 0.0000 25.4167 0.0000
# 6 0.0000 0.0000 0.0000 -8.2078 0.0000 3.1858
#
#
#
# Elastic Compliance Matrix: (Units=1/GPa)
#
#
# Indices 1 2 3 4 5 6 
#
# 1 0.318616 0.021675 -0.061047 0.000000 0.162267 0.000000
# 2 0.021675 0.031585 -0.020657 0.000000 0.007697 0.000000
# 3 -0.061047 -0.020657 0.037203 0.000000 -0.024945 0.000000
# 4 0.000000 0.000000 0.000000 -0.226197 0.000000 -0.582765
# 5 0.162267 0.007697 -0.024945 0.000000 0.123487 0.000000
# 6 0.000000 0.000000 0.000000 -0.582765 0.000000 -1.187523
#
#
# Mechanical properties :
#
#
# Convention : Reuss Voigt Hill
#
# Bulk Modulus (GPa) = 3.74049 25.16883 14.45466
# Shear Modulus (GPa) = -7.20818 14.17730 3.48456
#
# Velocity S-wave (km/s) = -2.02996 2.84690 1.41140
# Velocity P-wave (km/s) = 1.83193 5.01945 3.30446
#
# Compressibility (1/GPa) = 0.26734489
#
# Stress axis : x y z
#
# Youngs Moduli (GPa) = 3.13858 31.66067 26.87970
#
# Poissons Ratio (x) = -0.68623 1.64092
# Poissons Ratio (y) = -0.06803 0.55526
# Poissons Ratio (z) = 0.19160 0.65402
#
# Static dielectric constant tensor:
#      x y z
#    x 1.643890 0.000000 -0.053510 
#    y 0.000000 1.620170 0.000000 
#    z -0.053510 0.000000 1.621500 
# 
# From -- ./inp_files/99705.got.cif
#   From: 2010.05.17/outbox.cif.g08.bks.cpg/sg12_50_cif.got.tgz:99705.got - 2010.06.03 13:09:07.
