data_PCOD9169127
_publ_section_title
;
Structure prediction by ZEFSAII (Michael W. Deem and Ramdas Pophale) SiO2 
 PCOD9169127
Probable space group: C 2/M
;
_chemical_formula_sum "Si O2"
_cell_formula_units_Z 22
_cell_length_a 18.387759
_cell_length_b 9.069485
_cell_length_c 7.553347
_cell_angle_alpha 90.000000
_cell_angle_beta 137.821072
_cell_angle_gamma 90.000000
_cell_volume 845.791491
_symmetry_space_group_name_H-M "C 2/M"
_symmetry_group_IT_number 12
_symmetry_cell_setting 'monoclinic'
loop_
_space_group_symop_operation_xyz
x,y,z
-x,y,-z
-x,-y,-z
x,-y,z
1/2+x,1/2+y,z
1/2-x,1/2+y,-z
1/2-x,1/2-y,-z
1/2+x,1/2-y,z
loop_
_atom_site_type_symbol
_atom_site_label
_atom_site_fract_x
_atom_site_fract_y
_atom_site_fract_z
Si Si1 0.866033 0.000000 0.451613
Si Si2 0.331701 0.000000 0.179224
Si Si3 0.000000 0.500000 0.000000
Si Si4 0.544468 0.749678 0.798465
Si Si5 0.309715 0.500000 0.759173
O O1 0.809076 0.000000 0.544107
O O2 0.946372 0.138434 0.579439
O O3 0.777477 0.000000 0.137810
O O4 0.393334 0.850789 0.233905
O O5 0.300509 0.000000 0.328771
O O6 0.996243 0.372079 0.143132
O O7 0.628058 0.644078 0.056256
#
# Coordination Sequence:
#
# PCOD9169127 Si02
#       5
#     4   4   2   8   4
#     4  11  23  47  74  97 140 196 225 279 371 414
#     4  11  26  42  72 108 137 181 239 287 350 422
#     4  10  16  38  66  96 132 180 222 288 334 394
#     4  10  21  42  67  98 145 177 226 299 337 411
#     4  11  21  45  69 102 144 179 232 300 339 416
#
# _framework density 26.011139
#
# number of rings (size 3 to 8) (size 9 to 14) (size 15 to 20)
#    0.000    1.455    3.636    2.182    0.000    4.364 
#    0.000    9.091    0.000    6.545    0.000    0.000 
#    0.000    0.000    0.000    0.000    0.000    0.000 
#
# Total GULP energy -61448.943021 kJ/mol
# GULP energy per Si atom -5586.267547 kJ/mol
# Density = 2.595194 g / cm^3
# Si number density = 26.011139 Si / 1000 Ang^3
#
#
#
# Elastic Constant Matrix: (Units=GPa)
#
#
# Indices 1 2 3 4 5 6 
#
# 1 210.3281 85.1276 92.0688 0.0000 -27.8856 0.0000
# 2 85.1276 267.7456 43.7114 0.0000 1.5965 0.0000
# 3 92.0688 43.7114 -38.4504 0.0000 24.5501 0.0000
# 4 0.0000 0.0000 0.0000 38.7415 0.0000 -62.9130
# 5 -27.8856 1.5965 24.5501 0.0000 27.2770 0.0000
# 6 0.0000 0.0000 0.0000 -62.9130 0.0000 -140.8355
#
#
#
# Elastic Compliance Matrix: (Units=1/GPa)
#
#
# Indices 1 2 3 4 5 6 
#
# 1 0.003196 -0.001813 0.004918 0.000000 -0.001054 0.000000
# 2 -0.001813 0.004393 -0.000440 0.000000 -0.001714 0.000000
# 3 0.004918 -0.000440 -0.007306 0.000000 0.011629 0.000000
# 4 0.000000 0.000000 0.000000 0.014960 0.000000 -0.006683
# 5 -0.001054 -0.001714 0.011629 0.000000 0.025217 0.000000
# 6 0.000000 0.000000 0.000000 -0.006683 0.000000 -0.004115
#
#
# Mechanical properties :
#
#
# Convention : Reuss Voigt Hill
#
# Bulk Modulus (GPa) = 178.14798 97.93767 138.04282
# Shear Modulus (GPa) = 152.04488 -0.38238 75.83125
#
# Velocity S-wave (km/s) = 7.65380 -0.38383 5.40524
# Velocity P-wave (km/s) = 12.11385 6.12679 9.59903
#
# Compressibility (1/GPa) = 0.00561331
#
# Stress axis : x y z
#
# Youngs Moduli (GPa) = 312.93732 227.61914 -136.87119
#
# Poissons Ratio (x) = 0.41259 0.67316
# Poissons Ratio (y) = 0.56725 -0.06026
# Poissons Ratio (z) = -1.53910 0.10022
#
# Static dielectric constant tensor:
#      x y z
#    x 2.069770 0.000000 0.034720 
#    y 0.000000 1.910290 0.000000 
#    z 0.034720 0.000000 2.092870 
# 
# From -- ./inp_files/81946.got.cif
#   From: 2010.05.17/outbox.cif.g08.bks.cpg/sg12_41_cif.got.tgz:81946.got - 2010.06.03 13:09:07.
