data_PCOD9169852
_publ_section_title
;
Structure prediction by ZEFSAII (Michael W. Deem and Ramdas Pophale) SiO2 
 PCOD9169852
Probable space group: C 2/M
;
_chemical_formula_sum "Si O2"
_cell_formula_units_Z 48
_cell_length_a 20.213097
_cell_length_b 13.497661
_cell_length_c 29.325200
_cell_angle_alpha 90.000000
_cell_angle_beta 160.955187
_cell_angle_gamma 90.000000
_cell_volume 2610.715323
_symmetry_space_group_name_H-M "C 2/M"
_symmetry_group_IT_number 12
_symmetry_cell_setting 'monoclinic'
loop_
_space_group_symop_operation_xyz
x,y,z
-x,y,-z
-x,-y,-z
x,-y,z
1/2+x,1/2+y,z
1/2-x,1/2+y,-z
1/2-x,1/2-y,-z
1/2+x,1/2-y,z
loop_
_atom_site_type_symbol
_atom_site_label
_atom_site_fract_x
_atom_site_fract_y
_atom_site_fract_z
Si Si1 0.812012 0.884229 0.082479
Si Si2 0.565750 0.380761 0.404933
Si Si3 0.213060 0.705390 0.112031
Si Si4 0.641321 0.612594 0.636350
Si Si5 0.019885 0.309430 0.200166
Si Si6 0.000400 0.385017 0.715141
O O1 0.693471 0.851643 0.051129
O O2 0.992324 0.804038 0.197432
O O3 0.862449 0.000000 0.116844
O O4 0.681858 0.857592 0.952869
O O5 0.570035 0.500000 0.407015
O O6 0.400351 0.345613 0.260850
O O7 0.475819 0.351021 0.395646
O O8 0.803521 0.351944 0.557373
O O9 0.303369 0.815739 0.163010
O O10 0.000000 0.703641 0.000000
O O11 0.500000 0.607361 0.500000
O O12 0.717386 0.500000 0.694816
O O13 0.821464 0.681171 0.737013
O O14 0.069310 0.371545 0.277602
O O15 0.043159 0.500000 0.734003
#
# Coordination Sequence:
#
# PCOD9169852 Si02
#       6
#     8   8   8   8   8   8
#     4  10  21  35  53  76 107 142 173 210 264 324
#     4  10  20  34  55  81 108 138 177 223 267 313
#     4  11  23  36  52  79 111 145 178 215 269 325
#     4  10  17  28  52  82 104 125 165 220 266 299
#     4  10  19  33  54  81 105 133 172 222 265 310
#     4  10  20  36  57  79 105 140 182 225 265 310
#
# _framework density 18.385766
#
# number of rings (size 3 to 8) (size 9 to 14) (size 15 to 20)
#    0.000    1.833    1.667    3.500    0.000    3.000 
#    0.000    0.000    0.000    3.500    0.000    0.000 
#    0.000    0.000    0.000    0.000    0.000    0.000 
#
# Total GULP energy -133739.168252 kJ/mol
# GULP energy per Si atom -5572.465344 kJ/mol
# Density = 1.834392 g / cm^3
# Si number density = 18.385766 Si / 1000 Ang^3
#
#
#
# Elastic Constant Matrix: (Units=GPa)
#
#
# Indices 1 2 3 4 5 6 
#
# 1 40.3256 8.7967 4.4850 0.0004 -0.2760 0.0018
# 2 8.7967 86.6521 5.7653 0.0104 11.0588 0.0016
# 3 4.4850 5.7653 54.3776 0.0229 -7.3162 0.0032
# 4 0.0004 0.0104 0.0229 16.0180 -0.0011 -5.0586
# 5 -0.2760 11.0588 -7.3162 -0.0011 35.3409 0.0019
# 6 0.0018 0.0016 0.0032 -5.0586 0.0019 15.9777
#
#
#
# Elastic Compliance Matrix: (Units=1/GPa)
#
#
# Indices 1 2 3 4 5 6 
#
# 1 0.025555 -0.002559 -0.001751 0.000003 0.000638 -0.000001
# 2 -0.002559 0.012457 -0.001684 -0.000007 -0.004266 -0.000002
# 3 -0.001751 -0.001684 0.019320 -0.000030 0.004513 -0.000014
# 4 0.000003 -0.000007 -0.000030 0.069365 -0.000003 0.021961
# 5 0.000638 -0.004266 0.004513 -0.000003 0.030570 -0.000005
# 6 -0.000001 -0.000002 -0.000014 0.021961 -0.000005 0.069540
#
#
# Mechanical properties :
#
#
# Convention : Reuss Voigt Hill
#
# Bulk Modulus (GPa) = 22.05305 24.38324 23.21815
# Shear Modulus (GPa) = 19.69202 24.28788 21.98995
#
# Velocity S-wave (km/s) = 3.27624 3.63852 3.46212
# Velocity P-wave (km/s) = 5.13150 5.56261 5.35140
#
# Compressibility (1/GPa) = 0.04534521
#
# Stress axis : x y z
#
# Youngs Moduli (GPa) = 39.13054 80.27796 51.75982
#
# Poissons Ratio (x) = 0.20545 0.09061
# Poissons Ratio (y) = 0.10015 0.08715
# Poissons Ratio (z) = 0.06850 0.13516
#
# Static dielectric constant tensor:
#      x y z
#    x 1.628360 0.000000 0.000830 
#    y 0.000000 1.640250 -0.000010 
#    z 0.000830 -0.000010 1.687880 
# 
# From -- ./inp_files/165205.got.cif
#   From: 2010.05.17/outbox.cif.g08.bks.cpg/sg12_83_cif.got.tgz:165205.got - 2010.06.03 13:09:07.
