data_PCOD9169421
_publ_section_title
;
Structure prediction by ZEFSAII (Michael W. Deem and Ramdas Pophale) SiO2 
 PCOD9169421
Probable space group: C 2/M
;
_chemical_formula_sum "Si O2"
_cell_formula_units_Z 48
_cell_length_a 19.416496
_cell_length_b 17.135848
_cell_length_c 8.667126
_cell_angle_alpha 90.000000
_cell_angle_beta 117.051968
_cell_angle_gamma 90.000000
_cell_volume 2568.215842
_symmetry_space_group_name_H-M "C 2/M"
_symmetry_group_IT_number 12
_symmetry_cell_setting 'monoclinic'
loop_
_space_group_symop_operation_xyz
x,y,z
-x,y,-z
-x,-y,-z
x,-y,z
1/2+x,1/2+y,z
1/2-x,1/2+y,-z
1/2-x,1/2-y,-z
1/2+x,1/2-y,z
loop_
_atom_site_type_symbol
_atom_site_label
_atom_site_fract_x
_atom_site_fract_y
_atom_site_fract_z
Si Si1 0.169942 0.769804 0.123930
Si Si2 0.456287 0.313611 0.226809
Si Si3 0.710837 0.867962 0.959002
Si Si4 0.915399 0.343130 0.381266
Si Si5 0.865022 0.219801 0.565480
Si Si6 0.154254 0.086077 0.691862
O O1 0.239462 0.813406 0.106817
O O2 0.176265 0.772935 0.312903
O O3 0.090498 0.808278 0.980446
O O4 0.172546 0.683382 0.055811
O O5 0.432356 0.235172 0.296592
O O6 0.547890 0.311594 0.312152
O O7 0.420745 0.384249 0.289779
O O8 0.642047 0.896244 0.777860
O O9 0.775476 0.916362 0.113912
O O10 0.876444 0.303386 0.492229
O O11 0.000000 0.377627 0.500000
O O12 0.829712 0.154852 0.415079
O O13 0.143429 0.000000 0.613399
#
# Coordination Sequence:
#
# PCOD9169421 Si02
#       6
#     8   8   8   8   8   8
#     4   9  16  28  47  69  92 118 148 191 245 277
#     4   8  16  29  44  66  96 124 149 182 226 278
#     4   9  18  31  45  63  91 123 152 188 236 286
#     4   8  15  28  46  68  90 111 142 189 244 285
#     4  10  17  26  46  73  95 116 151 196 231 272
#     4  10  20  32  45  62  92 137 170 185 216 268
#
# _framework density 18.690017999999998
#
# number of rings (size 3 to 8) (size 9 to 14) (size 15 to 20)
#    0.000    3.000    0.000    5.000    0.000    4.000 
#    0.000    3.333    0.000    5.500    0.000    0.000 
#    0.000   26.667    0.000    0.000    0.000   16.333 
#
# Total GULP energy -133608.856301 kJ/mol
# GULP energy per Si atom -5567.035679 kJ/mol
# Density = 1.864748 g / cm^3
# Si number density = 18.690018 Si / 1000 Ang^3
#
#
#
# Elastic Constant Matrix: (Units=GPa)
#
#
# Indices 1 2 3 4 5 6 
#
# 1 60.3965 16.6852 42.1690 0.0000 -8.7322 0.0000
# 2 16.6852 27.2631 5.1283 0.0000 -4.9041 0.0000
# 3 42.1690 5.1283 113.1983 0.0000 2.7378 0.0000
# 4 0.0000 0.0000 0.0000 4.5031 0.0000 -3.1387
# 5 -8.7322 -4.9041 2.7378 0.0000 48.4654 0.0000
# 6 0.0000 0.0000 0.0000 -3.1387 0.0000 -1.0810
#
#
#
# Elastic Compliance Matrix: (Units=1/GPa)
#
#
# Indices 1 2 3 4 5 6 
#
# 1 0.028107 -0.014592 -0.009910 0.000000 0.004147 0.000000
# 2 -0.014592 0.045299 0.003341 0.000000 0.001766 0.000000
# 3 -0.009910 0.003341 0.012426 0.000000 -0.002149 0.000000
# 4 0.000000 0.000000 0.000000 0.073438 0.000000 -0.213239
# 5 0.004147 0.001766 -0.002149 0.000000 0.021681 0.000000
# 6 0.000000 0.000000 0.000000 -0.213239 0.000000 -0.305933
#
#
# Mechanical properties :
#
#
# Convention : Reuss Voigt Hill
#
# Bulk Modulus (GPa) = 22.98256 36.53586 29.75921
# Shear Modulus (GPa) = -73.36012 19.50253 -26.92879
#
# Velocity S-wave (km/s) = -6.27186 3.23379 -3.79992
# Velocity P-wave (km/s) = 6.33442 5.79085 1.81534
#
# Compressibility (1/GPa) = 0.04351125
#
# Stress axis : x y z
#
# Youngs Moduli (GPa) = 35.57832 22.07552 80.47443
#
# Poissons Ratio (x) = 0.32212 0.79748
# Poissons Ratio (y) = 0.51914 -0.26885
# Poissons Ratio (z) = 0.35257 -0.07375
#
# Static dielectric constant tensor:
#      x y z
#    x 1.659480 0.000000 0.043060 
#    y 0.000000 1.623350 0.000000 
#    z 0.043060 0.000000 1.725030 
# 
# From -- ./inp_files/77028.got.cif
#   From: 2010.05.17/outbox.cif.g08.bks.cpg/sg12_39_cif.got.tgz:77028.got - 2010.06.03 13:09:07.
