data_PCOD9169283
_publ_section_title
;
Structure prediction by ZEFSAII (Michael W. Deem and Ramdas Pophale) SiO2 
 PCOD9169283
Probable space group: C 2/M
;
_chemical_formula_sum "Si O2"
_cell_formula_units_Z 64
_cell_length_a 24.229544
_cell_length_b 8.044916
_cell_length_c 18.834404
_cell_angle_alpha 90.000000
_cell_angle_beta 89.937298
_cell_angle_gamma 90.000000
_cell_volume 3671.287338
_symmetry_space_group_name_H-M "C 2/M"
_symmetry_group_IT_number 12
_symmetry_cell_setting 'monoclinic'
loop_
_space_group_symop_operation_xyz
x,y,z
-x,y,-z
-x,-y,-z
x,-y,z
1/2+x,1/2+y,z
1/2-x,1/2+y,-z
1/2-x,1/2-y,-z
1/2+x,1/2-y,z
loop_
_atom_site_type_symbol
_atom_site_label
_atom_site_fract_x
_atom_site_fract_y
_atom_site_fract_z
Si Si1 0.249338 0.701134 0.082887
Si Si2 0.565946 0.200246 0.724707
Si Si3 0.446698 0.308217 0.577834
Si Si4 0.632644 0.299355 0.862523
Si Si5 0.438256 0.201239 0.729175
Si Si6 0.368216 0.800496 0.863317
Si Si7 0.563154 0.701305 0.998891
Si Si8 0.569915 0.808991 0.570333
O O1 0.248941 0.500000 0.084961
O O2 0.305209 0.758935 0.121397
O O3 0.193479 0.762661 0.120668
O O4 0.250000 0.750000 0.000000
O O5 0.605587 0.246795 0.788796
O O6 0.502434 0.257012 0.737950
O O7 0.586598 0.261539 0.647267
O O8 0.563586 0.000000 0.719560
O O9 0.463697 0.500000 0.580171
O O10 0.418510 0.260936 0.651764
O O11 0.415516 0.278023 0.503802
O O12 0.502957 0.201229 0.575384
O O13 0.633284 0.500000 0.863998
O O14 0.594303 0.241867 0.927880
O O15 0.399659 0.261819 0.793137
O O16 0.438434 0.000000 0.729674
O O17 0.404746 0.760653 0.931949
O O18 0.364622 0.000000 0.856347
O O19 0.563528 0.500000 0.999167
O O20 0.500000 0.758084 0.000000
O O21 0.587180 0.000000 0.564817
#
# Coordination Sequence:
#
# PCOD9169283 Si02
#       8
#     8   8   8   8   8   8   8   8
#     4  10  20  35  52  70  89 118 160 204 245 285
#     4   9  18  30  46  68  94 124 158 190 228 279
#     4  10  17  25  42  69  96 126 161 190 224 279
#     4  10  20  32  46  66  94 123 153 194 242 283
#     4   9  18  32  46  66  97 127 155 194 238 280
#     4  10  20  33  51  70  89 120 163 202 236 279
#     4  10  20  32  46  67  96 127 154 185 236 293
#     4   9  16  28  44  64  95 131 160 191 229 271
#
# _framework density 17.432576999999998
#
# number of rings (size 3 to 8) (size 9 to 14) (size 15 to 20)
#    0.000    2.375    1.250    3.750    0.000    4.250 
#    0.000    0.000    0.000    0.000    0.000    0.875 
#    0.000    0.000    0.000    0.000    0.000    0.000 
#
# Total GULP energy -178375.724670 kJ/mol
# GULP energy per Si atom -5574.241396 kJ/mol
# Density = 1.739290 g / cm^3
# Si number density = 17.432577 Si / 1000 Ang^3
#
#
#
# Elastic Constant Matrix: (Units=GPa)
#
#
# Indices 1 2 3 4 5 6 
#
# 1 112.4711 8.9851 77.8336 0.0000 7.3688 0.0000
# 2 8.9851 15.1769 6.9512 0.0000 1.3543 0.0000
# 3 77.8336 6.9512 192.9095 0.0000 -0.8680 0.0000
# 4 0.0000 0.0000 0.0000 18.3756 0.0000 10.4474
# 5 7.3688 1.3543 -0.8680 0.0000 1.5590 0.0000
# 6 0.0000 0.0000 0.0000 10.4474 0.0000 0.2058
#
#
#
# Elastic Compliance Matrix: (Units=1/GPa)
#
#
# Indices 1 2 3 4 5 6 
#
# 1 0.023410 0.001192 -0.010016 0.000000 -0.117267 0.000000
# 2 0.001192 0.073097 -0.003435 0.000000 -0.071050 0.000000
# 3 -0.010016 -0.003435 0.009599 0.000000 0.055672 0.000000
# 4 0.000000 0.000000 0.000000 -0.001953 0.000000 0.099153
# 5 -0.117267 -0.071050 0.055672 0.000000 1.288452 0.000000
# 6 0.000000 0.000000 0.000000 0.099153 0.000000 -0.174397
#
#
# Mechanical properties :
#
#
# Convention : Reuss Voigt Hill
#
# Bulk Modulus (GPa) = 12.25639 56.45524 34.35582
# Shear Modulus (GPa) = 3.93725 19.14725 11.54225
#
# Velocity S-wave (km/s) = 1.50448 3.31775 2.57594
# Velocity P-wave (km/s) = 3.17237 6.86526 5.34770
#
# Compressibility (1/GPa) = 0.08159007
#
# Stress axis : x y z
#
# Youngs Moduli (GPa) = 42.71595 13.68041 104.17452
#
# Poissons Ratio (x) = -0.01631 1.04342
# Poissons Ratio (y) = -0.05093 0.35781
# Poissons Ratio (z) = 0.42785 0.04699
#
# Static dielectric constant tensor:
#      x y z
#    x 1.577340 0.000000 -0.015020 
#    y 0.000000 1.619460 0.000000 
#    z -0.015020 0.000000 1.617950 
# 
# From -- ./inp_files/287714.got.cif
#   From: 2010.05.17/outbox.cif.g08.bks.cpg/sg12_144_cif.got.tgz:287714.got - 2010.06.03 13:09:07.
