data_PCOD9169961
_publ_section_title
;
Structure prediction by ZEFSAII (Michael W. Deem and Ramdas Pophale) SiO2 
 PCOD9169961
Probable space group: C 2/M
;
_chemical_formula_sum "Si O2"
_cell_formula_units_Z 56
_cell_length_a 18.952683
_cell_length_b 30.278726
_cell_length_c 10.213699
_cell_angle_alpha 90.000000
_cell_angle_beta 140.430617
_cell_angle_gamma 90.000000
_cell_volume 3733.697039
_symmetry_space_group_name_H-M "C 2/M"
_symmetry_group_IT_number 12
_symmetry_cell_setting 'monoclinic'
loop_
_space_group_symop_operation_xyz
x,y,z
-x,y,-z
-x,-y,-z
x,-y,z
1/2+x,1/2+y,z
1/2-x,1/2+y,-z
1/2-x,1/2-y,-z
1/2+x,1/2-y,z
loop_
_atom_site_type_symbol
_atom_site_label
_atom_site_fract_x
_atom_site_fract_y
_atom_site_fract_z
Si Si1 0.551285 0.500000 0.429134
Si Si2 0.401982 0.228562 0.964986
Si Si3 0.553801 0.596976 0.433039
Si Si4 0.777395 0.816227 0.706200
Si Si5 0.399660 0.500000 0.960790
Si Si6 0.685423 0.683342 0.552886
Si Si7 0.047570 0.270015 0.423006
Si Si8 0.899030 0.902939 0.960184
O O1 0.500000 0.500000 0.500000
O O2 0.607206 0.547903 0.493377
O O3 0.454732 0.500000 0.182795
O O4 0.352836 0.277929 0.878421
O O5 0.301050 0.196281 0.785595
O O6 0.500000 0.223308 0.000000
O O7 0.453350 0.221559 0.180782
O O8 0.500000 0.600387 0.500000
O O9 0.639080 0.636179 0.529348
O O10 0.457796 0.600641 0.185619
O O11 0.798505 0.814748 0.580547
O O12 0.650601 0.803228 0.551353
O O13 0.815191 0.863361 0.814272
O O14 0.345704 0.451835 0.868093
O O15 0.500000 0.500000 0.000000
O O16 0.598253 0.721460 0.467100
O O17 0.000000 0.272295 0.500000
O O18 0.000000 0.899043 0.000000
#
# Coordination Sequence:
#
# PCOD9169961 Si02
#       8
#     4   8   8   8   4   8   8   8
#     4   8  16  30  44  64 100 131 145 182 242 283
#     4  11  19  34  52  65  94 128 159 193 232 279
#     4  10  19  30  47  73 101 126 156 191 232 283
#     4  11  20  32  52  71  91 130 162 186 237 284
#     4   8  16  26  42  72  96 120 151 188 233 279
#     4  11  20  32  51  73  91 127 166 187 231 284
#     4  11  23  35  48  71  98 121 157 204 234 268
#     4  10  17  29  49  70 100 126 152 192 234 280
#
# _framework density 14.998538
#
# number of rings (size 3 to 8) (size 9 to 14) (size 15 to 20)
#    0.000    1.714    4.286    2.571    0.000    3.429 
#    0.000    0.000    0.000    0.000    0.000    2.000 
#    0.000    0.000    0.000    0.000    0.000    0.000 
#
# Total GULP energy -156091.013948 kJ/mol
# GULP energy per Si atom -5574.679070 kJ/mol
# Density = 1.496440 g / cm^3
# Si number density = 14.998538 Si / 1000 Ang^3
#
#
#
# Elastic Constant Matrix: (Units=GPa)
#
#
# Indices 1 2 3 4 5 6 
#
# 1 81.2745 41.7219 44.6821 0.0000 -20.6903 0.0000
# 2 41.7219 164.7959 54.9604 0.0000 11.0633 0.0000
# 3 44.6821 54.9604 104.2711 0.0000 -14.5151 0.0000
# 4 0.0000 0.0000 0.0000 22.6741 0.0000 0.3382
# 5 -20.6903 11.0633 -14.5151 0.0000 29.2440 0.0000
# 6 0.0000 0.0000 0.0000 0.3382 0.0000 14.0172
#
#
#
# Elastic Compliance Matrix: (Units=1/GPa)
#
#
# Indices 1 2 3 4 5 6 
#
# 1 0.020831 -0.004763 -0.004418 0.000000 0.014347 0.000000
# 2 -0.004763 0.009222 -0.004054 0.000000 -0.008871 0.000000
# 3 -0.004418 -0.004054 0.014394 0.000000 0.005552 0.000000
# 4 0.000000 0.000000 0.000000 0.044119 0.000000 -0.001065
# 5 0.014347 -0.008871 0.005552 0.000000 0.050457 0.000000
# 6 0.000000 0.000000 0.000000 -0.001065 0.000000 0.071367
#
#
# Mechanical properties :
#
#
# Convention : Reuss Voigt Hill
#
# Bulk Modulus (GPa) = 55.63705 70.34114 62.98910
# Shear Modulus (GPa) = 20.58858 27.11886 23.85372
#
# Velocity S-wave (km/s) = 3.70902 4.25679 3.99231
# Velocity P-wave (km/s) = 7.45104 8.43569 7.95861
#
# Compressibility (1/GPa) = 0.01797363
#
# Stress axis : x y z
#
# Youngs Moduli (GPa) = 48.00619 108.43863 69.47470
#
# Poissons Ratio (x) = 0.51653 0.30697
# Poissons Ratio (y) = 0.22867 0.28168
# Poissons Ratio (z) = 0.21211 0.43966
#
# Static dielectric constant tensor:
#      x y z
#    x 1.479190 0.000000 -0.020040 
#    y 0.000000 1.525790 0.000000 
#    z -0.020040 0.000000 1.485360 
# 
# From -- ./inp_files/80509.got.cif
#   From: 2010.05.17/outbox.cif.g08.bks.cpg/sg12_41_cif.got.tgz:80509.got - 2010.06.03 13:09:07.
