data_PCOD9169042
_publ_section_title
;
Structure prediction by ZEFSAII (Michael W. Deem and Ramdas Pophale) SiO2 
 PCOD9169042
Probable space group: C 2/M
;
_chemical_formula_sum "Si O2"
_cell_formula_units_Z 40
_cell_length_a 12.428751
_cell_length_b 25.516587
_cell_length_c 8.456179
_cell_angle_alpha 90.000000
_cell_angle_beta 44.181747
_cell_angle_gamma 90.000000
_cell_volume 1869.035542
_symmetry_space_group_name_H-M "C 2/M"
_symmetry_group_IT_number 12
_symmetry_cell_setting 'monoclinic'
loop_
_space_group_symop_operation_xyz
x,y,z
-x,y,-z
-x,-y,-z
x,-y,z
1/2+x,1/2+y,z
1/2-x,1/2+y,-z
1/2-x,1/2-y,-z
1/2+x,1/2-y,z
loop_
_atom_site_type_symbol
_atom_site_label
_atom_site_fract_x
_atom_site_fract_y
_atom_site_fract_z
Si Si1 0.675551 0.695409 0.627421
Si Si2 0.820020 0.196614 0.996185
Si Si3 0.624379 0.107724 0.753167
Si Si4 0.167266 0.500000 0.731352
Si Si5 0.684073 0.000000 0.337865
Si Si6 0.618958 0.899983 0.240420
O O1 0.750000 0.750000 0.500000
O O2 0.682553 0.694561 0.810053
O O3 0.771562 0.648751 0.446986
O O4 0.498191 0.692493 0.760561
O O5 0.718415 0.146110 0.059715
O O6 0.750000 0.250000 0.000000
O O7 0.719931 0.058974 0.724012
O O8 0.504607 0.079723 0.757002
O O9 0.500000 0.134387 0.000000
O O10 0.213982 0.500000 0.492922
O O11 0.000000 0.500000 0.000000
O O12 0.500000 0.000000 0.500000
O O13 0.724680 0.054477 0.206374
O O14 0.500000 0.878665 0.500000
#
# Coordination Sequence:
#
# PCOD9169042 Si02
#       6
#     8   8   8   4   4   8
#     4  11  25  42  59  86 121 155 202 250 298 362
#     4  11  25  41  62  86 117 158 201 251 303 351
#     4  11  22  37  61  90 123 157 198 245 296 352
#     4  10  18  32  57  91 121 154 195 243 294 351
#     4  10  16  32  59  89 117 155 198 242 289 352
#     4  11  19  37  62  87 118 154 200 245 289 352
#
# _framework density 21.401412000000001
#
# number of rings (size 3 to 8) (size 9 to 14) (size 15 to 20)
#    0.000    1.200    6.000    1.200    5.600    0.000 
#    0.000    1.000    0.000    3.600    0.000    5.600 
#    0.000    0.000    0.000    0.000    0.000    0.000 
#
# Total GULP energy -111384.131861 kJ/mol
# GULP energy per Si atom -5569.206593 kJ/mol
# Density = 2.135270 g / cm^3
# Si number density = 21.401412 Si / 1000 Ang^3
#
#
#
# Elastic Constant Matrix: (Units=GPa)
#
#
# Indices 1 2 3 4 5 6 
#
# 1 48.6127 20.2217 26.9791 0.0000 -11.6301 0.0000
# 2 20.2217 181.1384 70.0157 0.0000 -23.2468 0.0000
# 3 26.9791 70.0157 115.1878 0.0000 -11.8165 0.0000
# 4 0.0000 0.0000 0.0000 53.4506 0.0000 7.2992
# 5 -11.6301 -23.2468 -11.8165 0.0000 16.9813 0.0000
# 6 0.0000 0.0000 0.0000 7.2992 0.0000 20.9833
#
#
#
# Elastic Compliance Matrix: (Units=1/GPa)
#
#
# Indices 1 2 3 4 5 6 
#
# 1 0.026961 0.001148 -0.005338 0.000000 0.016322 0.000000
# 2 0.001148 0.008231 -0.004346 0.000000 0.009031 0.000000
# 3 -0.005338 -0.004346 0.012479 0.000000 -0.000922 0.000000
# 4 0.000000 0.000000 0.000000 0.019642 0.000000 -0.006833
# 5 0.016322 0.009031 -0.000922 0.000000 0.081788 0.000000
# 6 0.000000 0.000000 0.000000 -0.006833 0.000000 0.050034
#
#
# Mechanical properties :
#
#
# Convention : Reuss Voigt Hill
#
# Bulk Modulus (GPa) = 32.68066 64.37465 48.52766
# Shear Modulus (GPa) = 22.08429 33.46455 27.77442
#
# Velocity S-wave (km/s) = 3.21582 3.95860 3.60639
# Velocity P-wave (km/s) = 5.39371 7.14416 6.32974
#
# Compressibility (1/GPa) = 0.03059913
#
# Stress axis : x y z
#
# Youngs Moduli (GPa) = 37.09115 121.48888 80.13604
#
# Poissons Ratio (x) = -0.13951 0.42779
# Poissons Ratio (y) = -0.04259 0.34826
# Poissons Ratio (z) = 0.19800 0.52797
#
# Static dielectric constant tensor:
#      x y z
#    x 2.326860 0.000000 0.329530 
#    y 0.000000 1.839670 0.000000 
#    z 0.329530 0.000000 1.945900 
# 
# From -- ./inp_files/65102.got.cif
#   From: 2010.05.17/outbox.cif.g08.bks.cpg/sg12_33_cif.got.tgz:65102.got - 2010.06.03 13:09:07.
