data_PCOD9169225
_publ_section_title
;
Structure prediction by ZEFSAII (Michael W. Deem and Ramdas Pophale) SiO2 
 PCOD9169225
Probable space group: C 2/M
;
_chemical_formula_sum "Si O2"
_cell_formula_units_Z 64
_cell_length_a 27.923168
_cell_length_b 7.997652
_cell_length_c 20.370191
_cell_angle_alpha 90.000000
_cell_angle_beta 120.063035
_cell_angle_gamma 90.000000
_cell_volume 3937.102469
_symmetry_space_group_name_H-M "C 2/M"
_symmetry_group_IT_number 12
_symmetry_cell_setting 'monoclinic'
loop_
_space_group_symop_operation_xyz
x,y,z
-x,y,-z
-x,-y,-z
x,-y,z
1/2+x,1/2+y,z
1/2-x,1/2+y,-z
1/2-x,1/2-y,-z
1/2+x,1/2-y,z
loop_
_atom_site_type_symbol
_atom_site_label
_atom_site_fract_x
_atom_site_fract_y
_atom_site_fract_z
Si Si1 0.132856 0.796633 0.335866
Si Si2 0.694742 0.298780 0.501676
Si Si3 0.581815 0.702766 0.944729
Si Si4 0.792485 0.200396 0.973159
Si Si5 0.527836 0.693373 0.186897
Si Si6 0.580789 0.191522 0.092908
Si Si7 0.243996 0.699904 0.332970
Si Si8 0.295206 0.302386 0.828462
O O1 0.145933 0.741388 0.419599
O O2 0.075274 0.732388 0.266270
O O3 0.185050 0.745042 0.326475
O O4 0.131926 0.000000 0.333571
O O5 0.691216 0.500000 0.502297
O O6 0.750000 0.250000 0.500000
O O7 0.707708 0.238811 0.584294
O O8 0.581558 0.500000 0.942612
O O9 0.533709 0.765996 0.863349
O O10 0.644299 0.761359 0.973038
O O11 0.568035 0.753666 0.010031
O O12 0.775384 0.251047 0.887251
O O13 0.794964 0.000000 0.975152
O O14 0.750000 0.250000 0.000000
O O15 0.521499 0.500000 0.202386
O O16 0.552985 0.701422 0.130782
O O17 0.646961 0.210022 0.145245
O O18 0.564165 0.000000 0.091343
O O19 0.246906 0.500000 0.331026
O O20 0.244371 0.770774 0.260034
O O21 0.308202 0.500000 0.840246
#
# Coordination Sequence:
#
# PCOD9169225 Si02
#       8
#     8   8   8   8   8   8   8   8
#     4   9  16  26  40  56  80 118 151 173 202 244
#     4   8  15  25  36  54  80 110 145 177 207 238
#     4   9  19  33  45  60  82 110 141 170 205 254
#     4   9  19  34  50  64  81 104 133 172 216 260
#     4  10  18  28  43  59  82 116 148 172 199 242
#     4  11  20  28  40  60  85 111 142 179 211 237
#     4  10  17  25  39  60  85 111 142 182 212 237
#     4  10  19  31  45  62  84 112 143 172 209 259
#
# _framework density 16.255610999999998
#
# number of rings (size 3 to 8) (size 9 to 14) (size 15 to 20)
#    0.000    2.500    1.250    3.000    0.000    5.000 
#    0.000    0.000    0.000    0.000    0.000    0.000 
#    0.000    1.000    0.000   12.500    0.000    2.000 
#
# Total GULP energy -178217.820084 kJ/mol
# GULP energy per Si atom -5569.306878 kJ/mol
# Density = 1.621861 g / cm^3
# Si number density = 16.255611 Si / 1000 Ang^3
#
#
#
# Elastic Constant Matrix: (Units=GPa)
#
#
# Indices 1 2 3 4 5 6 
#
# 1 53.7352 0.6973 52.5273 0.0000 -5.7445 0.0000
# 2 0.6973 23.2662 5.8300 0.0000 0.4172 0.0000
# 3 52.5273 5.8300 166.9444 0.0000 5.5995 0.0000
# 4 0.0000 0.0000 0.0000 15.5044 0.0000 -2.0082
# 5 -5.7445 0.4172 5.5995 0.0000 14.3333 0.0000
# 6 0.0000 0.0000 0.0000 -2.0082 0.0000 13.2832
#
#
#
# Elastic Compliance Matrix: (Units=1/GPa)
#
#
# Indices 1 2 3 4 5 6 
#
# 1 0.030139 0.001333 -0.010065 0.000000 0.015972 0.000000
# 2 0.001333 0.043426 -0.001937 0.000000 0.000027 0.000000
# 3 -0.010065 -0.001937 0.009482 0.000000 -0.007682 0.000000
# 4 0.000000 0.000000 0.000000 0.065786 0.000000 0.009946
# 5 0.015972 0.000027 -0.007682 0.000000 0.079170 0.000000
# 6 0.000000 0.000000 0.000000 0.009946 0.000000 0.076787
#
#
# Mechanical properties :
#
#
# Convention : Reuss Voigt Hill
#
# Bulk Modulus (GPa) = 16.20531 40.22834 28.21683
# Shear Modulus (GPa) = 14.42179 20.95024 17.68602
#
# Velocity S-wave (km/s) = 2.98180 3.59388 3.30205
# Velocity P-wave (km/s) = 4.67392 6.48247 5.65102
#
# Compressibility (1/GPa) = 0.06170816
#
# Stress axis : x y z
#
# Youngs Moduli (GPa) = 33.17968 23.02786 105.46066
#
# Poissons Ratio (x) = -0.03068 1.06148
# Poissons Ratio (y) = -0.04421 0.20424
# Poissons Ratio (z) = 0.33396 0.04460
#
# Static dielectric constant tensor:
#      x y z
#    x 1.506390 0.000000 0.015040 
#    y 0.000000 1.581830 0.000000 
#    z 0.015040 0.000000 1.628630 
# 
# From -- ./inp_files/323639.got.cif
#   From: 2010.05.17/outbox.cif.g08.bks.cpg/sg12_162_cif.got.tgz:323639.got - 2010.06.03 13:09:07.
