data_PCOD9169864
_publ_section_title
;
Structure prediction by ZEFSAII (Michael W. Deem and Ramdas Pophale) SiO2 
 PCOD9169864
Probable space group: C 2/M
;
_chemical_formula_sum "Si O2"
_cell_formula_units_Z 50
_cell_length_a 25.774284
_cell_length_b 17.077872
_cell_length_c 8.078936
_cell_angle_alpha 90.000000
_cell_angle_beta 38.862048
_cell_angle_gamma 90.000000
_cell_volume 2231.268685
_symmetry_space_group_name_H-M "C 2/M"
_symmetry_group_IT_number 12
_symmetry_cell_setting 'monoclinic'
loop_
_space_group_symop_operation_xyz
x,y,z
-x,y,-z
-x,-y,-z
x,-y,z
1/2+x,1/2+y,z
1/2-x,1/2+y,-z
1/2-x,1/2-y,-z
1/2+x,1/2-y,z
loop_
_atom_site_type_symbol
_atom_site_label
_atom_site_fract_x
_atom_site_fract_y
_atom_site_fract_z
Si Si1 0.217037 0.690480 0.944695
Si Si2 0.681327 0.089211 0.536397
Si Si3 0.954602 0.311872 0.290615
Si Si4 0.320649 0.697446 0.236707
Si Si5 0.102665 0.849370 0.632026
Si Si6 0.591416 0.909424 0.119218
Si Si7 0.000000 0.000000 0.000000
O O1 0.164207 0.750106 0.958850
O O2 0.300948 0.650371 0.663635
O O3 0.250000 0.750000 0.000000
O O4 0.150419 0.621179 0.119218
O O5 0.632858 0.147434 0.535537
O O6 0.776363 0.116116 0.303281
O O7 0.669915 0.000000 0.513350
O O8 0.645583 0.096280 0.812520
O O9 0.938748 0.220967 0.368444
O O10 0.010517 0.358508 0.280772
O O11 0.000000 0.319478 0.000000
O O12 0.250000 0.750000 0.500000
O O13 0.390909 0.683222 0.194671
O O14 0.054497 0.930339 0.767410
O O15 0.569984 0.000000 0.192668
#
# Coordination Sequence:
#
# PCOD9169864 Si02
#       7
#     8   8   8   8   8   8   2
#     4  11  23  40  65  89 123 176 222 258 327 401
#     4  10  17  28  55  93 120 152 197 272 334 374
#     4  10  17  33  56  90 127 156 200 268 338 397
#     4  10  17  35  59  86 116 162 216 266 314 379
#     4  11  22  40  65  95 128 163 223 270 331 394
#     4  10  20  34  60  93 124 161 210 270 328 381
#     4  12  28  36  72 106 130 174 222 298 332 368
#
# _framework density 22.408778000000002
#
# number of rings (size 3 to 8) (size 9 to 14) (size 15 to 20)
#    0.000    1.600    7.200    1.440    2.240    1.920 
#    0.000    1.600    0.000    1.920    0.000    0.000 
#    0.000    0.000    0.000    0.000    0.000    0.000 
#
# Total GULP energy -139241.664461 kJ/mol
# GULP energy per Si atom -5569.666578 kJ/mol
# Density = 2.235777 g / cm^3
# Si number density = 22.408778 Si / 1000 Ang^3
#
#
#
# Elastic Constant Matrix: (Units=GPa)
#
#
# Indices 1 2 3 4 5 6 
#
# 1 91.1605 61.0754 14.8981 0.0000 -12.5177 0.0000
# 2 61.0754 191.9127 28.1772 0.0000 -18.3562 0.0000
# 3 14.8981 28.1772 70.1021 0.0000 -15.1612 0.0000
# 4 0.0000 0.0000 0.0000 22.2122 0.0000 -10.0574
# 5 -12.5177 -18.3562 -15.1612 0.0000 25.7127 0.0000
# 6 0.0000 0.0000 0.0000 -10.0574 0.0000 25.2784
#
#
#
# Elastic Compliance Matrix: (Units=1/GPa)
#
#
# Indices 1 2 3 4 5 6 
#
# 1 0.014335 -0.004122 -0.000592 0.000000 0.003686 0.000000
# 2 -0.004122 0.006936 -0.001461 0.000000 0.002083 0.000000
# 3 -0.000592 -0.001461 0.016837 0.000000 0.008596 0.000000
# 4 0.000000 0.000000 0.000000 0.054913 0.000000 0.021848
# 5 0.003686 0.002083 0.008596 0.000000 0.047242 0.000000
# 6 0.000000 0.000000 0.000000 0.021848 0.000000 0.048252
#
#
# Mechanical properties :
#
#
# Convention : Reuss Voigt Hill
#
# Bulk Modulus (GPa) = 38.82522 62.38629 50.60576
# Shear Modulus (GPa) = 23.87178 31.24230 27.55704
#
# Velocity S-wave (km/s) = 3.26741 3.73795 3.51057
# Velocity P-wave (km/s) = 5.62123 6.82131 6.25014
#
# Compressibility (1/GPa) = 0.02575645
#
# Stress axis : x y z
#
# Youngs Moduli (GPa) = 69.76161 144.16559 59.39185
#
# Poissons Ratio (x) = 0.59430 0.03517
# Poissons Ratio (y) = 0.28758 0.08680
# Poissons Ratio (z) = 0.04131 0.21069
#
# Static dielectric constant tensor:
#      x y z
#    x 1.875580 0.000000 0.026030 
#    y 0.000000 1.848540 0.000000 
#    z 0.026030 0.000000 1.957580 
# 
# From -- ./inp_files/105766.got.cif
#   From: 2010.05.17/outbox.cif.g08.bks.cpg/sg12_53_cif.got.tgz:105766.got - 2010.06.03 13:09:07.
