data_PCOD9169305
_publ_section_title
;
Structure prediction by ZEFSAII (Michael W. Deem and Ramdas Pophale) SiO2 
 PCOD9169305
Probable space group: C 2/M
;
_chemical_formula_sum "Si O2"
_cell_formula_units_Z 64
_cell_length_a 28.383939
_cell_length_b 9.153101
_cell_length_c 16.811012
_cell_angle_alpha 90.000000
_cell_angle_beta 97.454211
_cell_angle_gamma 90.000000
_cell_volume 4330.608220
_symmetry_space_group_name_H-M "C 2/M"
_symmetry_group_IT_number 12
_symmetry_cell_setting 'monoclinic'
loop_
_space_group_symop_operation_xyz
x,y,z
-x,y,-z
-x,-y,-z
x,-y,z
1/2+x,1/2+y,z
1/2-x,1/2+y,-z
1/2-x,1/2-y,-z
1/2+x,1/2-y,z
loop_
_atom_site_type_symbol
_atom_site_label
_atom_site_fract_x
_atom_site_fract_y
_atom_site_fract_z
Si Si1 0.769927 0.672818 0.259131
Si Si2 0.556905 0.672293 0.676059
Si Si3 0.214460 0.675487 0.553897
Si Si4 0.129583 0.674040 0.806053
Si Si5 0.971885 0.668631 0.578297
Si Si6 0.112738 0.172407 0.520461
Si Si7 0.323759 0.668575 0.040629
Si Si8 0.278292 0.832055 0.890415
O O1 0.761329 0.500000 0.246478
O O2 0.769362 0.707686 0.352020
O O3 0.823032 0.701547 0.236929
O O4 0.733125 0.761054 0.196965
O O5 0.550391 0.500000 0.688653
O O6 0.585999 0.748155 0.752895
O O7 0.507131 0.751347 0.646885
O O8 0.588439 0.687676 0.602293
O O9 0.213337 0.500000 0.544294
O O10 0.250000 0.750000 0.500000
O O11 0.162147 0.742270 0.531187
O O12 0.122810 0.500000 0.808734
O O13 0.141342 0.741147 0.894719
O O14 0.962937 0.500000 0.597942
O O15 0.923949 0.757260 0.550158
O O16 0.000000 0.667939 0.500000
O O17 0.119514 0.000000 0.507147
O O18 0.338241 0.500000 0.036893
O O19 0.272484 0.670936 0.074255
O O20 0.314278 0.741889 0.953421
O O21 0.292976 0.000000 0.886836
#
# Coordination Sequence:
#
# PCOD9169305 Si02
#       8
#     8   8   8   8   8   8   8   8
#     4   9  18  30  43  57  77 106 139 176 217 257
#     4  10  18  27  41  62  86 111 142 176 212 254
#     4  11  22  35  48  64  84 110 145 185 227 264
#     4  10  17  26  40  58  82 111 143 175 210 250
#     4   9  17  28  43  61  82 108 139 173 211 254
#     4  10  19  31  46  62  82 108 140 179 219 259
#     4   9  16  25  36  54  79 106 136 169 206 245
#     4   9  16  25  39  56  75 101 136 172 206 247
#
# _framework density 14.778525
#
# number of rings (size 3 to 8) (size 9 to 14) (size 15 to 20)
#    0.000    2.375    1.250    2.625    0.000    7.000 
#    0.000    0.000    0.000    0.000    0.000    0.000 
#    0.000    0.000    0.000    1.125    0.000   20.750 
#
# Total GULP energy -178388.068758 kJ/mol
# GULP energy per Si atom -5574.627149 kJ/mol
# Density = 1.474489 g / cm^3
# Si number density = 14.778525 Si / 1000 Ang^3
#
#
#
# Elastic Constant Matrix: (Units=GPa)
#
#
# Indices 1 2 3 4 5 6 
#
# 1 44.6526 47.9990 52.5435 0.0000 18.4434 0.0000
# 2 47.9990 116.2481 78.9405 0.0000 27.5410 0.0000
# 3 52.5435 78.9405 106.9847 0.0000 35.0039 0.0000
# 4 0.0000 0.0000 0.0000 26.5846 0.0000 8.9569
# 5 18.4434 27.5410 35.0039 0.0000 26.9332 0.0000
# 6 0.0000 0.0000 0.0000 8.9569 0.0000 21.3249
#
#
#
# Elastic Compliance Matrix: (Units=1/GPa)
#
#
# Indices 1 2 3 4 5 6 
#
# 1 0.057750 -0.009081 -0.020463 0.000000 -0.003665 0.000000
# 2 -0.009081 0.018726 -0.008920 0.000000 -0.001337 0.000000
# 3 -0.020463 -0.008920 0.032030 0.000000 -0.018494 0.000000
# 4 0.000000 0.000000 0.000000 0.043816 0.000000 -0.018404
# 5 -0.003665 -0.001337 -0.018494 0.000000 0.065042 0.000000
# 6 0.000000 0.000000 0.000000 -0.018404 0.000000 0.054624
#
#
# Mechanical properties :
#
#
# Convention : Reuss Voigt Hill
#
# Bulk Modulus (GPa) = 31.66747 69.65017 50.65882
# Shear Modulus (GPa) = 13.91055 20.86202 17.38628
#
# Velocity S-wave (km/s) = 3.07134 3.76126 3.43367
# Velocity P-wave (km/s) = 5.83541 8.12985 7.07624
#
# Compressibility (1/GPa) = 0.03157815
#
# Stress axis : x y z
#
# Youngs Moduli (GPa) = 17.31616 53.40280 31.22115
#
# Poissons Ratio (x) = 0.48493 0.63888
# Poissons Ratio (y) = 0.15724 0.27848
# Poissons Ratio (z) = 0.35434 0.47633
#
# Static dielectric constant tensor:
#      x y z
#    x 1.458510 0.000000 0.012460 
#    y 0.000000 1.491590 0.000000 
#    z 0.012460 0.000000 1.477330 
# 
# From -- ./inp_files/248492.got.cif
#   From: 2010.05.17/outbox.cif.g08.bks.cpg/sg12_125_cif.got.tgz:248492.got - 2010.06.03 13:09:07.
