data_PCOD9169513
_publ_section_title
;
Structure prediction by ZEFSAII (Michael W. Deem and Ramdas Pophale) SiO2 
 PCOD9169513
Probable space group: C 2/M
;
_chemical_formula_sum "Si O2"
_cell_formula_units_Z 64
_cell_length_a 23.103349
_cell_length_b 26.173774
_cell_length_c 17.450737
_cell_angle_alpha 90.000000
_cell_angle_beta 157.960803
_cell_angle_gamma 90.000000
_cell_volume 3959.725881
_symmetry_space_group_name_H-M "C 2/M"
_symmetry_group_IT_number 12
_symmetry_cell_setting 'monoclinic'
loop_
_space_group_symop_operation_xyz
x,y,z
-x,y,-z
-x,-y,-z
x,-y,z
1/2+x,1/2+y,z
1/2-x,1/2+y,-z
1/2-x,1/2-y,-z
1/2+x,1/2-y,z
loop_
_atom_site_type_symbol
_atom_site_label
_atom_site_fract_x
_atom_site_fract_y
_atom_site_fract_z
Si Si1 0.662302 0.288355 0.334236
Si Si2 0.343774 0.894029 0.758696
Si Si3 0.028841 0.439179 0.849562
Si Si4 0.956496 0.345393 0.672924
Si Si5 0.666444 0.438796 0.677615
Si Si6 0.962504 0.725904 0.365735
Si Si7 0.739295 0.215800 0.298184
Si Si8 0.631335 0.764503 0.995003
O O1 0.750000 0.250000 0.500000
O O2 0.668214 0.262487 0.257941
O O3 0.485415 0.283786 0.142308
O O4 0.773534 0.337069 0.464713
O O5 0.392580 0.921625 0.740690
O O6 0.214198 0.920323 0.651909
O O7 0.296865 0.834859 0.698265
O O8 0.500000 0.896559 0.000000
O O9 0.023838 0.500000 0.831139
O O10 0.007419 0.403117 0.750059
O O11 0.192475 0.426107 0.091733
O O12 0.000344 0.320697 0.645326
O O13 0.047505 0.309320 0.845378
O O14 0.500000 0.418408 0.500000
O O15 0.658619 0.500000 0.666426
O O16 0.000000 0.712749 0.500000
O O17 0.080089 0.771331 0.486866
O O18 0.788733 0.745992 0.149514
O O19 0.671635 0.214366 0.129463
#
# Coordination Sequence:
#
# PCOD9169513 Si02
#       8
#     8   8   8   8   8   8   8   8
#     4   9  17  28  43  63  90 123 155 189 226 270
#     4  10  17  27  44  66  92 126 159 188 222 269
#     4  10  20  33  49  67  90 126 169 208 241 275
#     4  10  19  32  47  66  94 124 157 198 243 284
#     4   9  18  31  45  65  94 126 161 198 234 273
#     4   9  20  33  48  71  98 125 155 192 235 292
#     4  10  18  28  44  69  98 124 153 186 224 278
#     4  10  17  29  47  70  98 126 154 185 228 287
#
# _framework density 16.162735000000001
#
# number of rings (size 3 to 8) (size 9 to 14) (size 15 to 20)
#    0.000    2.375    0.000    4.875    0.000    4.000 
#    0.000    1.250    0.000    0.375    0.000    0.000 
#    0.000   13.000    0.000    0.000    0.000    0.000 
#
# Total GULP energy -178304.244899 kJ/mol
# GULP energy per Si atom -5572.007653 kJ/mol
# Density = 1.612595 g / cm^3
# Si number density = 16.162735 Si / 1000 Ang^3
#
#
#
# Elastic Constant Matrix: (Units=GPa)
#
#
# Indices 1 2 3 4 5 6 
#
# 1 61.4721 17.9830 29.8474 0.0000 10.6762 0.0000
# 2 17.9830 56.5120 21.9502 0.0000 -1.2575 0.0000
# 3 29.8474 21.9502 72.7751 0.0000 27.9509 0.0000
# 4 0.0000 0.0000 0.0000 19.1117 0.0000 -2.7219
# 5 10.6762 -1.2575 27.9509 0.0000 32.0294 0.0000
# 6 0.0000 0.0000 0.0000 -2.7219 0.0000 20.2788
#
#
#
# Elastic Compliance Matrix: (Units=1/GPa)
#
#
# Indices 1 2 3 4 5 6 
#
# 1 0.021023 -0.003985 -0.007022 0.000000 -0.001036 0.000000
# 2 -0.003985 0.022741 -0.009142 0.000000 0.010199 0.000000
# 3 -0.007022 -0.009142 0.028003 0.000000 -0.022455 0.000000
# 4 0.000000 0.000000 0.000000 0.053344 0.000000 0.007160
# 5 -0.001036 0.010199 -0.022455 0.000000 0.051563 0.000000
# 6 0.000000 0.000000 0.000000 0.007160 0.000000 0.050274
#
#
# Mechanical properties :
#
#
# Convention : Reuss Voigt Hill
#
# Bulk Modulus (GPa) = 31.77810 36.70226 34.24018
# Shear Modulus (GPa) = 18.00275 22.34922 20.17599
#
# Velocity S-wave (km/s) = 3.34105 3.72259 3.53697
# Velocity P-wave (km/s) = 5.88111 6.42138 6.15718
#
# Compressibility (1/GPa) = 0.03146821
#
# Stress axis : x y z
#
# Youngs Moduli (GPa) = 47.56708 43.97288 35.71075
#
# Poissons Ratio (x) = 0.17524 0.25077
# Poissons Ratio (y) = 0.18957 0.32646
# Poissons Ratio (z) = 0.33403 0.40199
#
# Static dielectric constant tensor:
#      x y z
#    x 1.577410 0.000000 0.011480 
#    y 0.000000 1.533650 0.000000 
#    z 0.011480 0.000000 1.576290 
# 
# From -- ./inp_files/291200.got.cif
#   From: 2010.05.17/outbox.cif.g08.bks.cpg/sg12_146_cif.got.tgz:291200.got - 2010.06.03 13:09:07.
