data_PCOD9169658
_publ_section_title
;
Structure prediction by ZEFSAII (Michael W. Deem and Ramdas Pophale) SiO2 
 PCOD9169658
Probable space group: C 2/M
;
_chemical_formula_sum "Si O2"
_cell_formula_units_Z 56
_cell_length_a 27.666362
_cell_length_b 7.641692
_cell_length_c 15.250076
_cell_angle_alpha 90.000000
_cell_angle_beta 75.936226
_cell_angle_gamma 90.000000
_cell_volume 3127.496991
_symmetry_space_group_name_H-M "C 2/M"
_symmetry_group_IT_number 12
_symmetry_cell_setting 'monoclinic'
loop_
_space_group_symop_operation_xyz
x,y,z
-x,y,-z
-x,-y,-z
x,-y,z
1/2+x,1/2+y,z
1/2-x,1/2+y,-z
1/2-x,1/2-y,-z
1/2+x,1/2-y,z
loop_
_atom_site_type_symbol
_atom_site_label
_atom_site_fract_x
_atom_site_fract_y
_atom_site_fract_z
Si Si1 0.141062 0.215166 0.063557
Si Si2 0.793509 0.793047 0.601945
Si Si3 0.183053 0.711358 0.598457
Si Si4 0.220152 0.798002 0.890465
Si Si5 0.443904 0.710110 0.032727
Si Si6 0.175451 0.800555 0.227817
Si Si7 0.865549 0.291410 0.206948
O O1 0.093876 0.272791 0.026763
O O2 0.143060 0.276881 0.162797
O O3 0.141760 0.000000 0.062882
O O4 0.191098 0.269044 0.989111
O O5 0.823275 0.770813 0.498517
O O6 0.737622 0.724367 0.607489
O O7 0.818688 0.718326 0.678478
O O8 0.787134 0.000000 0.621517
O O9 0.184615 0.500000 0.595082
O O10 0.143071 0.765201 0.689114
O O11 0.268564 0.698132 0.836456
O O12 0.177996 0.789477 0.833626
O O13 0.234296 0.000000 0.897274
O O14 0.445646 0.500000 0.023487
O O15 0.500000 0.777782 0.000000
O O16 0.417315 0.749807 0.136790
O O17 0.157607 0.000000 0.247378
O O18 0.858254 0.500000 0.206828
#
# Coordination Sequence:
#
# PCOD9169658 Si02
#       7
#     8   8   8   8   8   8   8
#     4   8  16  28  43  62  85 116 146 175 215 261
#     4   9  17  27  40  59  84 117 151 182 215 248
#     4   9  17  29  41  59  85 115 149 183 218 251
#     4  10  18  27  40  62  89 119 152 178 212 254
#     4   9  18  33  50  70  93 113 140 180 224 267
#     4  10  17  28  42  59  87 119 151 180 211 254
#     4  10  18  30  47  66  89 117 150 183 219 261
#
# _framework density 17.905694
#
# number of rings (size 3 to 8) (size 9 to 14) (size 15 to 20)
#    0.000    2.714    1.429    2.143    0.000    2.000 
#    0.000    2.857    0.000    0.000    0.000    1.000 
#    0.000    8.000    0.000    0.000    0.000    0.000 
#
# Total GULP energy -156067.657726 kJ/mol
# GULP energy per Si atom -5573.844919 kJ/mol
# Density = 1.786494 g / cm^3
# Si number density = 17.905694 Si / 1000 Ang^3
#
#
#
# Elastic Constant Matrix: (Units=GPa)
#
#
# Indices 1 2 3 4 5 6 
#
# 1 63.0659 3.2787 63.6458 0.0000 2.3008 0.0000
# 2 3.2787 38.6905 -3.1855 0.0000 1.8925 0.0000
# 3 63.6458 -3.1855 158.9317 0.0000 26.3612 0.0000
# 4 0.0000 0.0000 0.0000 14.9835 0.0000 -2.0871
# 5 2.3008 1.8925 26.3612 0.0000 27.7413 0.0000
# 6 0.0000 0.0000 0.0000 -2.0871 0.0000 7.1879
#
#
#
# Elastic Compliance Matrix: (Units=1/GPa)
#
#
# Indices 1 2 3 4 5 6 
#
# 1 0.029499 -0.004158 -0.013697 0.000000 0.010852 0.000000
# 2 -0.004158 0.026644 0.002901 0.000000 -0.004229 0.000000
# 3 -0.013697 0.002901 0.013865 0.000000 -0.012237 0.000000
# 4 0.000000 0.000000 0.000000 0.069553 0.000000 0.020196
# 5 0.010852 -0.004229 -0.012237 0.000000 0.047064 0.000000
# 6 0.000000 0.000000 0.000000 0.020196 0.000000 0.144987
#
#
# Mechanical properties :
#
#
# Convention : Reuss Voigt Hill
#
# Bulk Modulus (GPa) = 24.93775 43.12957 34.03366
# Shear Modulus (GPa) = 13.33735 23.11249 18.22492
#
# Velocity S-wave (km/s) = 2.73218 3.59665 3.19380
# Velocity P-wave (km/s) = 4.88985 6.43329 5.71392
#
# Compressibility (1/GPa) = 0.04009985
#
# Stress axis : x y z
#
# Youngs Moduli (GPa) = 33.89905 37.53161 72.12503
#
# Poissons Ratio (x) = 0.15607 0.98787
# Poissons Ratio (y) = 0.14096 -0.20922
# Poissons Ratio (z) = 0.46430 -0.10887
#
# Static dielectric constant tensor:
#      x y z
#    x 1.601940 0.000000 0.036250 
#    y 0.000000 1.666240 0.000000 
#    z 0.036250 0.000000 1.649860 
# 
# From -- ./inp_files/243047.got.cif
#   From: 2010.05.17/outbox.cif.g08.bks.cpg/sg12_122_cif.got.tgz:243047.got - 2010.06.03 13:09:07.
