data_PCOD9169822
_publ_section_title
;
Structure prediction by ZEFSAII (Michael W. Deem and Ramdas Pophale) SiO2 
 PCOD9169822
Probable space group: C 2/M
;
_chemical_formula_sum "Si O2"
_cell_formula_units_Z 48
_cell_length_a 15.417438
_cell_length_b 16.310699
_cell_length_c 22.886972
_cell_angle_alpha 90.000000
_cell_angle_beta 152.805294
_cell_angle_gamma 90.000000
_cell_volume 2630.293942
_symmetry_space_group_name_H-M "C 2/M"
_symmetry_group_IT_number 12
_symmetry_cell_setting 'monoclinic'
loop_
_space_group_symop_operation_xyz
x,y,z
-x,y,-z
-x,-y,-z
x,-y,z
1/2+x,1/2+y,z
1/2-x,1/2+y,-z
1/2-x,1/2-y,-z
1/2+x,1/2-y,z
loop_
_atom_site_type_symbol
_atom_site_label
_atom_site_fract_x
_atom_site_fract_y
_atom_site_fract_z
Si Si1 0.886535 0.225670 0.875637
Si Si2 0.693581 0.094803 0.538216
Si Si3 0.552156 0.670559 0.718674
Si Si4 0.248031 0.593055 0.709831
Si Si5 0.376152 0.000000 0.023389
Si Si6 0.217298 0.675655 0.024872
Si Si7 0.268337 0.500000 0.198838
O O1 0.674878 0.257454 0.762974
O O2 0.875739 0.159535 0.818106
O O3 0.015949 0.302896 0.934901
O O4 0.000000 0.191936 0.000000
O O5 0.736594 0.102385 0.633238
O O6 0.468284 0.103010 0.396902
O O7 0.825491 0.160722 0.584903
O O8 0.743234 0.000000 0.552204
O O9 0.620111 0.585138 0.730590
O O10 0.626850 0.674196 0.830495
O O11 0.309370 0.500000 0.758821
O O12 0.303352 0.917055 0.009993
O O13 0.600634 0.000000 0.145816
O O14 0.301797 0.000000 0.911287
O O15 0.250000 0.750000 0.000000
#
# Coordination Sequence:
#
# PCOD9169822 Si02
#       7
#     8   8   8   8   4   8   4
#     4  10  20  32  47  71 101 132 159 199 240 290
#     4   9  17  31  52  74  94 121 162 212 250 285
#     4  10  17  28  50  71  96 124 157 202 249 285
#     4   9  19  34  49  69  99 130 164 202 245 290
#     4   9  16  28  46  66  93 130 154 198 257 278
#     4  10  19  30  45  71 103 127 161 201 240 296
#     4   9  14  26  46  69  92 116 155 203 250 290
#
# _framework density 18.248911
#
# number of rings (size 3 to 8) (size 9 to 14) (size 15 to 20)
#    0.000    2.500    2.500    2.000    0.000    1.000 
#    1.500    0.000    1.833    0.000    0.000    0.000 
#    0.000    4.333    0.000    0.000    0.000    0.000 
#
# Total GULP energy -133658.674993 kJ/mol
# GULP energy per Si atom -5569.111458 kJ/mol
# Density = 1.820738 g / cm^3
# Si number density = 18.248911 Si / 1000 Ang^3
#
#
#
# Elastic Constant Matrix: (Units=GPa)
#
#
# Indices 1 2 3 4 5 6 
#
# 1 29.2181 17.1331 -0.4300 0.0009 12.1263 -0.0020
# 2 17.1331 88.8213 18.2772 0.0140 -7.6260 -0.0007
# 3 -0.4300 18.2772 26.9392 0.0279 8.7359 -0.0042
# 4 0.0009 0.0140 0.0279 25.5773 0.0015 2.7227
# 5 12.1263 -7.6260 8.7359 0.0015 28.0663 -0.0019
# 6 -0.0020 -0.0007 -0.0042 2.7227 -0.0019 26.1895
#
#
#
# Elastic Compliance Matrix: (Units=1/GPa)
#
#
# Indices 1 2 3 4 5 6 
#
# 1 0.067072 -0.023294 0.031505 -0.000022 -0.045115 0.000009
# 2 -0.023294 0.022553 -0.023273 0.000013 0.023437 -0.000005
# 3 0.031505 -0.023273 0.066601 -0.000060 -0.040666 0.000016
# 4 -0.000022 0.000013 -0.000060 0.039535 0.000029 -0.004110
# 5 -0.045115 0.023437 -0.040666 0.000029 0.074148 -0.000007
# 6 0.000009 -0.000005 0.000016 -0.004110 -0.000007 0.038611
#
#
# Mechanical properties :
#
#
# Convention : Reuss Voigt Hill
#
# Bulk Modulus (GPa) = 7.93016 23.88213 15.90615
# Shear Modulus (GPa) = 13.13445 23.29983 18.21714
#
# Velocity S-wave (km/s) = 2.68571 3.57708 3.16295
# Velocity P-wave (km/s) = 3.73796 5.49327 4.69831
#
# Compressibility (1/GPa) = 0.12610080
#
# Stress axis : x y z
#
# Youngs Moduli (GPa) = 14.90932 44.33975 15.01481
#
# Poissons Ratio (x) = 1.03286 -0.47304
# Poissons Ratio (y) = 0.34730 0.34945
# Poissons Ratio (z) = -0.46972 1.03194
#
# Static dielectric constant tensor:
#      x y z
#    x 1.661330 0.000000 0.054410 
#    y 0.000000 1.624070 0.000000 
#    z 0.054410 0.000000 1.636880 
# 
# From -- ./inp_files/144976.got.cif
#   From: 2010.05.17/outbox.cif.g08.bks.cpg/sg12_73_cif.got.tgz:144976.got - 2010.06.03 13:09:07.
