data_PCOD9169579
_publ_section_title
;
Structure prediction by ZEFSAII (Michael W. Deem and Ramdas Pophale) SiO2 
 PCOD9169579
Probable space group: C 2/M
;
_chemical_formula_sum "Si O2"
_cell_formula_units_Z 40
_cell_length_a 21.680772
_cell_length_b 13.210574
_cell_length_c 26.510004
_cell_angle_alpha 90.000000
_cell_angle_beta 159.645850
_cell_angle_gamma 90.000000
_cell_volume 2640.967982
_symmetry_space_group_name_H-M "C 2/M"
_symmetry_group_IT_number 12
_symmetry_cell_setting 'monoclinic'
loop_
_space_group_symop_operation_xyz
x,y,z
-x,y,-z
-x,-y,-z
x,-y,z
1/2+x,1/2+y,z
1/2-x,1/2+y,-z
1/2-x,1/2-y,-z
1/2+x,1/2-y,z
loop_
_atom_site_type_symbol
_atom_site_label
_atom_site_fract_x
_atom_site_fract_y
_atom_site_fract_z
Si Si1 0.516740 0.695279 0.708759
Si Si2 0.901807 0.886511 0.120651
Si Si3 0.995438 0.674779 0.154712
Si Si4 0.826989 0.617978 0.610004
Si Si5 0.893600 0.619344 0.968981
O O1 0.517256 0.632340 0.761616
O O2 0.366946 0.652072 0.557117
O O3 0.463043 0.808660 0.684310
O O4 0.712592 0.682350 0.836669
O O5 0.973413 0.796065 0.141038
O O6 0.936505 0.000000 0.129866
O O7 0.691092 0.869738 0.966934
O O8 0.141704 0.639480 0.306724
O O9 0.008453 0.638645 0.107481
O O10 0.855402 0.500000 0.621583
O O11 0.845978 0.500000 0.931371
O O12 0.000000 0.643631 0.000000
#
# Coordination Sequence:
#
# PCOD9169579 Si02
#       5
#     8   8   8   8   8
#     4   9  18  29  44  68  92 116 144 173 214 267
#     4   9  15  26  43  61  86 114 139 174 217 260
#     4   9  17  26  41  65  85 108 145 181 213 252
#     4  10  17  27  46  70  94 112 134 181 230 259
#     4  10  19  32  47  60  84 122 153 177 209 255
#
# _framework density 15.145962000000001
#
# number of rings (size 3 to 8) (size 9 to 14) (size 15 to 20)
#    0.000    2.600    0.000    6.000    0.000    0.000 
#    0.000    1.000    0.000    6.000    0.000    0.000 
#    0.000    9.600    0.000    0.000    0.000    0.000 
#
# Total GULP energy -111434.318492 kJ/mol
# GULP energy per Si atom -5571.715925 kJ/mol
# Density = 1.511149 g / cm^3
# Si number density = 15.145962 Si / 1000 Ang^3
#
#
#
# Elastic Constant Matrix: (Units=GPa)
#
#
# Indices 1 2 3 4 5 6 
#
# 1 81.0146 28.1068 41.7513 0.0018 -4.8987 0.0003
# 2 28.1068 119.0942 24.0982 0.0005 2.4194 -0.0002
# 3 41.7513 24.0982 81.5590 -0.0018 -23.5941 0.0004
# 4 0.0018 0.0005 -0.0018 9.8854 0.0002 -0.7957
# 5 -4.8987 2.4194 -23.5941 0.0002 22.4373 0.0002
# 6 0.0003 -0.0002 0.0004 -0.7957 0.0002 13.7221
#
#
#
# Elastic Compliance Matrix: (Units=1/GPa)
#
#
# Indices 1 2 3 4 5 6 
#
# 1 0.018147 -0.001955 -0.010786 -0.000005 -0.007170 0.000000
# 2 -0.001955 0.009616 -0.003254 -0.000001 -0.004885 0.000000
# 3 -0.010786 -0.003254 0.026106 0.000006 0.025448 -0.000001
# 4 -0.000005 -0.000001 0.000006 0.101633 0.000005 0.005893
# 5 -0.007170 -0.004885 0.025448 0.000005 0.070290 -0.000001
# 6 0.000000 0.000000 -0.000001 0.005893 -0.000001 0.073217
#
#
# Mechanical properties :
#
#
# Convention : Reuss Voigt Hill
#
# Bulk Modulus (GPa) = 45.70550 52.17560 48.94055
# Shear Modulus (GPa) = 14.78022 21.72306 18.25164
#
# Velocity S-wave (km/s) = 3.12725 3.79126 3.47515
# Velocity P-wave (km/s) = 6.57889 7.32722 6.96311
#
# Compressibility (1/GPa) = 0.02187920
#
# Stress axis : x y z
#
# Youngs Moduli (GPa) = 55.10628 103.99748 38.30570
#
# Poissons Ratio (x) = 0.20327 0.41317
# Poissons Ratio (y) = 0.10771 0.12464
# Poissons Ratio (z) = 0.59439 0.33838
#
# Static dielectric constant tensor:
#      x y z
#    x 1.483200 0.000000 -0.028140 
#    y 0.000000 1.520260 0.000000 
#    z -0.028140 0.000000 1.515960 
# 
# From -- ./inp_files/101615.got.cif
#   From: 2010.05.17/outbox.cif.g08.bks.cpg/sg12_51_cif.got.tgz:101615.got - 2010.06.03 13:09:07.
