data_PCOD9169850
_publ_section_title
;
Structure prediction by ZEFSAII (Michael W. Deem and Ramdas Pophale) SiO2 
 PCOD9169850
Probable space group: C 2/M
;
_chemical_formula_sum "Si O2"
_cell_formula_units_Z 24
_cell_length_a 9.832117
_cell_length_b 25.095006
_cell_length_c 5.366911
_cell_angle_alpha 90.000000
_cell_angle_beta 116.713779
_cell_angle_gamma 90.000000
_cell_volume 1182.873301
_symmetry_space_group_name_H-M "C 2/M"
_symmetry_group_IT_number 12
_symmetry_cell_setting 'monoclinic'
loop_
_space_group_symop_operation_xyz
x,y,z
-x,y,-z
-x,-y,-z
x,-y,z
1/2+x,1/2+y,z
1/2-x,1/2+y,-z
1/2-x,1/2-y,-z
1/2+x,1/2-y,z
loop_
_atom_site_type_symbol
_atom_site_label
_atom_site_fract_x
_atom_site_fract_y
_atom_site_fract_z
Si Si1 0.824350 0.773319 0.811355
Si Si2 0.676496 0.603647 0.344428
Si Si3 0.829502 0.937988 0.156679
O O1 0.750000 0.750000 0.500000
O O2 0.815813 0.836781 0.754788
O O3 0.750000 0.750000 0.000000
O O4 0.000000 0.760023 0.000000
O O5 0.743920 0.594499 0.675374
O O6 0.500918 0.584926 0.249888
O O7 0.743770 0.568559 0.175978
O O8 0.837461 0.000000 0.231043
#
# Coordination Sequence:
#
# PCOD9169850 Si02
#       3
#     8   8   8
#     4  12  25  41  62  86 122 170 212 252 303 355
#     4  10  18  31  49  76 120 151 181 241 306 350
#     4  10  17  28  52  81 120 149 181 238 328 367
#
# _framework density 20.289577000000001
#
# number of rings (size 3 to 8) (size 9 to 14) (size 15 to 20)
#    0.000    1.333    3.333    8.000    4.667    0.000 
#    0.000    0.000    0.000    0.000    0.000    0.000 
#    0.000  154.667    0.000    0.000    0.000    0.000 
#
# Total GULP energy -66822.646348 kJ/mol
# GULP energy per Si atom -5568.553862 kJ/mol
# Density = 2.024340 g / cm^3
# Si number density = 20.289577 Si / 1000 Ang^3
#
#
#
# Elastic Constant Matrix: (Units=GPa)
#
#
# Indices 1 2 3 4 5 6 
#
# 1 77.3971 57.6316 62.9957 0.0000 -35.5270 0.0000
# 2 57.6316 124.3121 45.9926 0.0000 -16.2709 0.0000
# 3 62.9957 45.9926 174.8907 0.0000 -58.0884 0.0000
# 4 0.0000 0.0000 0.0000 35.6943 0.0000 -13.6449
# 5 -35.5270 -16.2709 -58.0884 0.0000 46.4917 0.0000
# 6 0.0000 0.0000 0.0000 -13.6449 0.0000 22.2941
#
#
#
# Elastic Compliance Matrix: (Units=1/GPa)
#
#
# Indices 1 2 3 4 5 6 
#
# 1 0.031036 -0.011213 -0.002832 0.000000 0.016254 0.000000
# 2 -0.011213 0.012966 -0.001213 0.000000 -0.005546 0.000000
# 3 -0.002832 -0.001213 0.010593 0.000000 0.010647 0.000000
# 4 0.000000 0.000000 0.000000 0.036572 0.000000 0.022384
# 5 0.016254 -0.005546 0.010647 0.000000 0.045292 0.000000
# 6 0.000000 0.000000 0.000000 0.022384 0.000000 0.058555
#
#
# Mechanical properties :
#
#
# Convention : Reuss Voigt Hill
#
# Bulk Modulus (GPa) = 41.53011 78.87108 60.20059
# Shear Modulus (GPa) = 21.40825 34.89467 28.15146
#
# Velocity S-wave (km/s) = 3.25181 4.15159 3.72894
# Velocity P-wave (km/s) = 5.88321 7.87007 6.94803
#
# Compressibility (1/GPa) = 0.02407892
#
# Stress axis : x y z
#
# Youngs Moduli (GPa) = 32.22100 77.12755 94.40077
#
# Poissons Ratio (x) = 0.86485 0.26731
# Poissons Ratio (y) = 0.36130 0.11450
# Poissons Ratio (z) = 0.09124 0.09355
#
# Static dielectric constant tensor:
#      x y z
#    x 1.188040 0.000000 0.190780 
#    y 0.000000 1.760270 0.000000 
#    z 0.190780 0.000000 1.949160 
# 
# From -- ./inp_files/2745.got.cif
#   From: 2010.05.17/outbox.cif.g08.bks.cpg/sg12_2_cif.got.tgz:2745.got - 2010.06.03 13:09:07.
