data_PCOD9169659
_publ_section_title
;
Structure prediction by ZEFSAII (Michael W. Deem and Ramdas Pophale) SiO2 
 PCOD9169659
Probable space group: C 2/M
;
_chemical_formula_sum "Si O2"
_cell_formula_units_Z 56
_cell_length_a 5.521792
_cell_length_b 19.284776
_cell_length_c 32.786138
_cell_angle_alpha 90.000000
_cell_angle_beta 126.357717
_cell_angle_gamma 90.000000
_cell_volume 2811.639237
_symmetry_space_group_name_H-M "C 2/M"
_symmetry_group_IT_number 12
_symmetry_cell_setting 'monoclinic'
loop_
_space_group_symop_operation_xyz
x,y,z
-x,y,-z
-x,-y,-z
x,-y,z
1/2+x,1/2+y,z
1/2-x,1/2+y,-z
1/2-x,1/2-y,-z
1/2+x,1/2-y,z
loop_
_atom_site_type_symbol
_atom_site_label
_atom_site_fract_x
_atom_site_fract_y
_atom_site_fract_z
Si Si1 0.587546 0.114074 0.653973
Si Si2 0.293290 0.292738 0.440917
Si Si3 0.199894 0.915275 0.855511
Si Si4 0.343159 0.915662 0.026548
Si Si5 0.033914 0.418820 0.808429
Si Si6 0.286949 0.603239 0.309685
Si Si7 0.374492 0.254149 0.728471
O O1 0.353495 0.144949 0.598617
O O2 0.404206 0.076606 0.671323
O O3 0.868617 0.080380 0.658933
O O4 0.753182 0.177258 0.694687
O O5 0.500000 0.313464 0.500000
O O6 0.514397 0.250926 0.432261
O O7 0.443776 0.897728 0.914211
O O8 0.323457 0.891027 0.823818
O O9 0.868955 0.889544 0.835355
O O10 0.176824 0.000000 0.851322
O O11 0.332081 0.000000 0.023598
O O12 0.500000 0.892521 0.000000
O O13 0.000000 0.892140 0.000000
O O14 0.075514 0.500000 0.822912
O O15 0.869656 0.414360 0.748671
O O16 0.263642 0.687803 0.309415
O O17 0.228695 0.250424 0.758122
#
# Coordination Sequence:
#
# PCOD9169659 Si02
#       7
#     8   8   8   8   8   8   8
#     4  10  17  28  42  60  83 106 135 163 195 242
#     4  10  18  27  41  62  89 117 136 156 193 243
#     4   9  17  28  40  54  78 108 134 170 210 239
#     4   9  15  23  37  56  74  96 132 168 196 236
#     4  10  19  30  41  56  80 109 143 176 207 238
#     4  10  18  27  42  58  76 107 142 170 198 235
#     4   8  14  23  37  54  74  97 125 154 185 227
#
# _framework density 19.917206
#
# number of rings (size 3 to 8) (size 9 to 14) (size 15 to 20)
#    0.000    2.571    0.000    5.143    0.000    3.429 
#    0.000    0.000    0.000    0.000    0.000    0.000 
#    0.000    3.429    0.000    0.000    0.000  450.000 
#
# Total GULP energy -156018.043878 kJ/mol
# GULP energy per Si atom -5572.072996 kJ/mol
# Density = 1.987187 g / cm^3
# Si number density = 19.917206 Si / 1000 Ang^3
#
#
#
# Elastic Constant Matrix: (Units=GPa)
#
#
# Indices 1 2 3 4 5 6 
#
# 1 178.9355 -1.5298 13.7082 0.0000 7.8466 0.0000
# 2 -1.5298 35.9880 -14.4926 0.0000 -1.5250 0.0000
# 3 13.7082 -14.4926 45.4902 0.0001 2.0846 0.0001
# 4 0.0000 0.0000 0.0001 17.6034 0.0000 -10.2497
# 5 7.8466 -1.5250 2.0846 0.0000 32.8839 0.0000
# 6 0.0000 0.0000 0.0001 -10.2497 0.0000 -7.4673
#
#
#
# Elastic Compliance Matrix: (Units=1/GPa)
#
#
# Indices 1 2 3 4 5 6 
#
# 1 0.005783 -0.000558 -0.001862 0.000000 -0.001288 0.000000
# 2 -0.000558 0.031954 0.010304 0.000000 0.000962 0.000000
# 3 -0.001862 0.010304 0.025859 0.000000 -0.000717 0.000000
# 4 0.000000 0.000000 0.000000 0.031573 0.000000 -0.043338
# 5 -0.001288 0.000962 -0.000717 0.000000 0.030807 0.000000
# 6 0.000000 0.000000 0.000000 -0.043338 0.000000 -0.074431
#
#
# Mechanical properties :
#
#
# Convention : Reuss Voigt Hill
#
# Bulk Modulus (GPa) = 12.60009 28.42059 20.51034
# Shear Modulus (GPa) = 80.34502 26.11920 53.23211
#
# Velocity S-wave (km/s) = 6.35823 3.62524 5.17540
# Velocity P-wave (km/s) = 7.76162 5.64123 6.78477
#
# Compressibility (1/GPa) = 0.07936453
#
# Stress axis : x y z
#
# Youngs Moduli (GPa) = 172.92323 31.29534 38.67066
#
# Poissons Ratio (x) = 0.01748 0.07199
# Poissons Ratio (y) = 0.09656 -0.39847
# Poissons Ratio (z) = 0.32190 -0.32247
#
# Static dielectric constant tensor:
#      x y z
#    x 1.805060 0.000000 0.006360 
#    y 0.000000 1.737100 0.000000 
#    z 0.006360 0.000000 1.649490 
# 
# From -- ./inp_files/331351.got.cif
#   From: 2010.05.17/outbox.cif.g08.bks.cpg/sg12_166_cif.got.tgz:331351.got - 2010.06.03 13:09:07.
