data_PCOD9169054
_publ_section_title
;
Structure prediction by ZEFSAII (Michael W. Deem and Ramdas Pophale) SiO2 
 PCOD9169054
Probable space group: C 2/M
;
_chemical_formula_sum "Si O2"
_cell_formula_units_Z 54
_cell_length_a 23.453088
_cell_length_b 14.508478
_cell_length_c 20.520966
_cell_angle_alpha 90.000000
_cell_angle_beta 22.919795
_cell_angle_gamma 90.000000
_cell_volume 2719.334816
_symmetry_space_group_name_H-M "C 2/M"
_symmetry_group_IT_number 12
_symmetry_cell_setting 'monoclinic'
loop_
_space_group_symop_operation_xyz
x,y,z
-x,y,-z
-x,-y,-z
x,-y,z
1/2+x,1/2+y,z
1/2-x,1/2+y,-z
1/2-x,1/2-y,-z
1/2+x,1/2-y,z
loop_
_atom_site_type_symbol
_atom_site_label
_atom_site_fract_x
_atom_site_fract_y
_atom_site_fract_z
Si Si1 0.307830 0.853975 0.946373
Si Si2 0.052277 0.397255 0.584381
Si Si3 0.500000 0.500000 0.500000
Si Si4 0.500000 0.828173 0.500000
Si Si5 0.456616 0.601653 0.701992
Si Si6 0.488372 0.889424 0.889486
Si Si7 0.200781 0.833636 0.258751
Si Si8 0.230190 0.775483 0.444836
O O1 0.409139 0.879633 0.779426
O O2 0.407405 0.875048 0.904861
O O3 0.250000 0.750000 0.000000
O O4 0.156412 0.905601 0.119829
O O5 0.107700 0.500000 0.540244
O O6 0.170296 0.318225 0.475821
O O7 0.005133 0.386825 0.559586
O O8 0.626832 0.418270 0.373809
O O9 0.357524 0.760867 0.649980
O O10 0.475856 0.500000 0.650115
O O11 0.377472 0.662082 0.730274
O O12 0.602609 0.648935 0.571386
O O13 0.629474 0.823879 0.735623
O O14 0.516129 0.000000 0.868284
O O15 0.370694 0.853616 0.066571
O O16 0.250000 0.750000 0.500000
#
# Coordination Sequence:
#
# PCOD9169054 Si02
#       8
#     8   8   2   4   8   8   8   8
#     4  11  19  37  63  94 127 158 210 267 326 374
#     4  12  24  42  65  92 125 173 223 274 316 375
#     4  10  16  32  62  98 126 160 202 252 316 380
#     4  11  23  41  67  90 122 170 224 272 310 370
#     4  11  20  36  61  95 124 160 202 264 326 391
#     4  11  21  38  61  97 133 169 204 260 333 405
#     4  10  19  36  65  92 128 162 210 261 319 374
#     4  12  24  39  59  92 135 173 204 259 328 392
#
# _framework density 19.857797000000001
#
# number of rings (size 3 to 8) (size 9 to 14) (size 15 to 20)
#    0.000    0.889    5.926    3.778    0.000    0.593 
#    0.000    0.741    0.000    4.444    0.000    0.000 
#    0.000    0.000    0.000    0.000    0.000    0.000 
#
# Total GULP energy -150558.289658 kJ/mol
# GULP energy per Si atom -5576.232950 kJ/mol
# Density = 1.981260 g / cm^3
# Si number density = 19.857797 Si / 1000 Ang^3
#
#
#
# Elastic Constant Matrix: (Units=GPa)
#
#
# Indices 1 2 3 4 5 6 
#
# 1 38.5748 2.2296 20.4129 0.0002 8.4585 0.0000
# 2 2.2296 113.2851 57.3030 -0.0005 -1.0554 0.0006
# 3 20.4129 57.3030 183.6963 0.0006 3.2542 0.0000
# 4 0.0002 -0.0005 0.0006 25.2878 -0.0002 7.7696
# 5 8.4585 -1.0554 3.2542 -0.0002 31.0220 0.0000
# 6 0.0000 0.0006 0.0000 7.7696 0.0000 18.7580
#
#
#
# Elastic Compliance Matrix: (Units=1/GPa)
#
#
# Indices 1 2 3 4 5 6 
#
# 1 0.029366 0.001109 -0.003474 0.000000 -0.007605 0.000000
# 2 0.001109 0.010538 -0.003418 0.000000 0.000415 -0.000001
# 3 -0.003474 -0.003418 0.006894 0.000000 0.000108 0.000000
# 4 0.000000 0.000000 0.000000 0.045311 0.000000 -0.018768
# 5 -0.007605 0.000415 0.000108 0.000000 0.034311 0.000000
# 6 0.000000 -0.000001 0.000000 -0.018768 0.000000 0.061084
#
#
# Mechanical properties :
#
#
# Convention : Reuss Voigt Hill
#
# Bulk Modulus (GPa) = 28.38428 55.04968 41.71698
# Shear Modulus (GPa) = 23.71743 32.05428 27.88586
#
# Velocity S-wave (km/s) = 3.45971 4.02206 3.75143
# Velocity P-wave (km/s) = 5.50311 7.02506 6.31014
#
# Compressibility (1/GPa) = 0.03523077
#
# Stress axis : x y z
#
# Youngs Moduli (GPa) = 34.05346 94.89300 145.05131
#
# Poissons Ratio (x) = -0.10520 0.50395
# Poissons Ratio (y) = -0.03775 0.49577
# Poissons Ratio (z) = 0.11831 0.32433
#
# Static dielectric constant tensor:
#      x y z
#    x 1.680710 0.000000 -0.028260 
#    y 0.000000 1.669050 0.000000 
#    z -0.028260 0.000000 1.668450 
# 
# From -- ./inp_files/352058.got.cif
#   From: 2010.05.17/outbox.cif.g08.bks.cpg/sg12_177_cif.got.tgz:352058.got - 2010.06.03 13:09:07.
