data_PCOD9169789
_publ_section_title
;
Structure prediction by ZEFSAII (Michael W. Deem and Ramdas Pophale) SiO2 
 PCOD9169789
Probable space group: C 2/M
;
_chemical_formula_sum "Si O2"
_cell_formula_units_Z 56
_cell_length_a 14.348622
_cell_length_b 13.133856
_cell_length_c 12.677980
_cell_angle_alpha 90.000000
_cell_angle_beta 103.306133
_cell_angle_gamma 90.000000
_cell_volume 2325.060123
_symmetry_space_group_name_H-M "C 2/M"
_symmetry_group_IT_number 12
_symmetry_cell_setting 'monoclinic'
loop_
_space_group_symop_operation_xyz
x,y,z
-x,y,-z
-x,-y,-z
x,-y,z
1/2+x,1/2+y,z
1/2-x,1/2+y,-z
1/2-x,1/2-y,-z
1/2+x,1/2-y,z
loop_
_atom_site_type_symbol
_atom_site_label
_atom_site_fract_x
_atom_site_fract_y
_atom_site_fract_z
Si Si1 0.349036 0.617945 0.261101
Si Si2 0.268271 0.382359 0.465428
Si Si3 0.992826 0.615670 0.259273
Si Si4 0.632045 0.117277 0.977741
Si Si5 0.542299 0.704188 0.397260
Si Si6 0.704617 0.119954 0.660496
Si Si7 0.723762 0.722032 0.129555
O O1 0.335310 0.500000 0.232750
O O2 0.288341 0.646172 0.350360
O O3 0.458294 0.641388 0.317533
O O4 0.308053 0.693317 0.163866
O O5 0.241216 0.500000 0.448755
O O6 0.369835 0.368119 0.551423
O O7 0.200665 0.337181 0.539911
O O8 0.028097 0.500000 0.280706
O O9 0.953704 0.626698 0.129895
O O10 0.897165 0.629224 0.306806
O O11 0.062465 0.699821 0.326015
O O12 0.729850 0.138258 0.935976
O O13 0.630649 0.000000 0.017387
O O14 0.637441 0.209229 0.063342
O O15 0.500000 0.737359 0.500000
O O16 0.782697 0.168336 0.759196
O O17 0.723601 0.000000 0.658961
#
# Coordination Sequence:
#
# PCOD9169789 Si02
#       7
#     8   8   8   8   8   8   8
#     4  10  18  29  45  71 102 129 162 200 239 287
#     4   9  19  32  49  71 102 136 160 193 244 295
#     4   9  17  32  52  73  97 124 164 207 241 284
#     4   9  17  29  47  72  96 121 157 204 252 288
#     4  10  18  31  47  72  97 133 167 195 237 285
#     4   9  17  32  51  72  98 130 162 198 246 292
#     4  10  17  28  48  74  97 121 160 205 249 283
#
# _framework density 24.085398999999999
#
# number of rings (size 3 to 8) (size 9 to 14) (size 15 to 20)
#    0.000    2.571    2.857    2.143    0.000    2.571 
#    0.000    0.000    0.000    2.571    0.000    4.000 
#    0.000    0.000    0.000    0.000    0.000    0.000 
#
# Total GULP energy -156348.556054 kJ/mol
# GULP energy per Si atom -5583.877002 kJ/mol
# Density = 2.403058 g / cm^3
# Si number density = 24.085399 Si / 1000 Ang^3
#
#
#
# Elastic Constant Matrix: (Units=GPa)
#
#
# Indices 1 2 3 4 5 6 
#
# 1 57.5579 1.6901 7.1520 0.0000 -1.0159 0.0000
# 2 1.6901 88.1908 9.9766 0.0000 0.6255 0.0000
# 3 7.1520 9.9766 79.7696 0.0000 14.5776 0.0000
# 4 0.0000 0.0000 0.0000 37.6532 0.0000 0.9943
# 5 -1.0159 0.6255 14.5776 0.0000 19.8701 0.0000
# 6 0.0000 0.0000 0.0000 0.9943 0.0000 25.0758
#
#
#
# Elastic Compliance Matrix: (Units=1/GPa)
#
#
# Indices 1 2 3 4 5 6 
#
# 1 0.017668 -0.000129 -0.002002 0.000000 0.002376 0.000000
# 2 -0.000129 0.011514 -0.001572 0.000000 0.000784 0.000000
# 3 -0.002002 -0.001572 0.014923 0.000000 -0.011001 0.000000
# 4 0.000000 0.000000 0.000000 0.026586 0.000000 -0.001054
# 5 0.002376 0.000784 -0.011001 0.000000 0.058494 0.000000
# 6 0.000000 0.000000 0.000000 -0.001054 0.000000 0.039921
#
#
# Mechanical properties :
#
#
# Convention : Reuss Voigt Hill
#
# Bulk Modulus (GPa) = 27.24885 29.23953 28.24419
# Shear Modulus (GPa) = 26.49083 30.29979 28.39531
#
# Velocity S-wave (km/s) = 3.32003 3.55070 3.43730
# Velocity P-wave (km/s) = 5.10243 5.38296 5.24457
#
# Compressibility (1/GPa) = 0.03669879
#
# Stress axis : x y z
#
# Youngs Moduli (GPa) = 56.59838 86.85256 67.01272
#
# Poissons Ratio (x) = 0.01120 0.13418
# Poissons Ratio (y) = 0.00730 0.10533
# Poissons Ratio (z) = 0.11332 0.13651
#
# Static dielectric constant tensor:
#      x y z
#    x 1.964870 0.000000 -0.022700 
#    y 0.000000 1.936510 0.000000 
#    z -0.022700 0.000000 1.946040 
# 
# From -- ./inp_files/156173.got.cif
#   From: 2010.05.17/outbox.cif.g08.bks.cpg/sg12_79_cif.got.tgz:156173.got - 2010.06.03 13:09:07.
