data_PCOD9169662
_publ_section_title
;
Structure prediction by ZEFSAII (Michael W. Deem and Ramdas Pophale) SiO2 
 PCOD9169662
Probable space group: C 2/M
;
_chemical_formula_sum "Si O2"
_cell_formula_units_Z 64
_cell_length_a 24.745815
_cell_length_b 8.991663
_cell_length_c 25.067384
_cell_angle_alpha 90.000000
_cell_angle_beta 130.781269
_cell_angle_gamma 90.000000
_cell_volume 4223.440228
_symmetry_space_group_name_H-M "C 2/M"
_symmetry_group_IT_number 12
_symmetry_cell_setting 'monoclinic'
loop_
_space_group_symop_operation_xyz
x,y,z
-x,y,-z
-x,-y,-z
x,-y,z
1/2+x,1/2+y,z
1/2-x,1/2+y,-z
1/2-x,1/2-y,-z
1/2+x,1/2-y,z
loop_
_atom_site_type_symbol
_atom_site_label
_atom_site_fract_x
_atom_site_fract_y
_atom_site_fract_z
Si Si1 0.424217 0.820733 0.006695
Si Si2 0.289144 0.823053 0.762306
Si Si3 0.448590 0.328429 0.519324
Si Si4 0.428372 0.321382 0.891741
Si Si5 0.169230 0.328542 0.620651
Si Si6 0.772019 0.678489 0.958764
Si Si7 0.688230 0.322157 0.799620
Si Si8 0.066544 0.328995 0.659154
O O1 0.495827 0.748312 0.076523
O O2 0.431525 0.000000 0.005949
O O3 0.415755 0.748280 0.942617
O O4 0.353516 0.788285 0.994835
O O5 0.363013 0.734993 0.813815
O O6 0.237906 0.766064 0.682129
O O7 0.245496 0.793012 0.789260
O O8 0.300944 0.000000 0.766733
O O9 0.500000 0.324293 0.500000
O O10 0.432559 0.500000 0.519906
O O11 0.377707 0.240260 0.457027
O O12 0.494965 0.256246 0.596245
O O13 0.431674 0.500000 0.896645
O O14 0.187702 0.500000 0.622508
O O15 0.117121 0.325344 0.638983
O O16 0.766060 0.500000 0.958528
O O17 0.721596 0.727417 0.877105
O O18 0.750000 0.750000 0.000000
O O19 0.678150 0.500000 0.794287
O O20 0.614394 0.245875 0.735519
O O21 0.051241 0.500000 0.661531
#
# Coordination Sequence:
#
# PCOD9169662 Si02
#       8
#     8   8   8   8   8   8   8   8
#     4  10  19  34  49  64  86 115 146 178 222 273
#     4  10  17  28  43  59  83 115 146 177 216 264
#     4   9  15  23  34  49  71 105 141 171 207 253
#     4  11  20  29  45  69  90 111 143 186 226 260
#     4   9  16  24  34  53  79 105 138 178 213 249
#     4  10  21  35  50  67  87 115 148 185 227 270
#     4   9  17  30  43  58  80 108 144 179 215 264
#     4   9  16  24  36  54  74 101 136 178 218 248
#
# _framework density 15.153523
#
# number of rings (size 3 to 8) (size 9 to 14) (size 15 to 20)
#    0.000    2.375    1.250    3.750    0.000    6.500 
#    0.000    0.000    0.000    0.000    0.000    0.000 
#    0.000    0.000    0.000    1.125    0.000   15.375 
#
# Total GULP energy -178344.251117 kJ/mol
# GULP energy per Si atom -5573.257847 kJ/mol
# Density = 1.511903 g / cm^3
# Si number density = 15.153523 Si / 1000 Ang^3
#
#
#
# Elastic Constant Matrix: (Units=GPa)
#
#
# Indices 1 2 3 4 5 6 
#
# 1 48.7092 33.0272 47.3475 0.0000 6.8583 0.0000
# 2 33.0272 91.0294 63.0590 0.0000 12.7277 0.0000
# 3 47.3475 63.0590 133.8423 0.0000 26.0898 0.0000
# 4 0.0000 0.0000 0.0000 28.8226 0.0000 3.0166
# 5 6.8583 12.7277 26.0898 0.0000 15.6293 0.0000
# 6 0.0000 0.0000 0.0000 3.0166 0.0000 14.2103
#
#
#
# Elastic Compliance Matrix: (Units=1/GPa)
#
#
# Indices 1 2 3 4 5 6 
#
# 1 0.033878 -0.005978 -0.010701 0.000000 0.007866 0.000000
# 2 -0.005978 0.017368 -0.005666 0.000000 -0.002062 0.000000
# 3 -0.010701 -0.005666 0.017954 0.000000 -0.020660 0.000000
# 4 0.000000 0.000000 0.000000 0.035483 0.000000 -0.007532
# 5 0.007866 -0.002062 -0.020660 0.000000 0.096698 0.000000
# 6 0.000000 0.000000 0.000000 -0.007532 0.000000 0.071970
#
#
# Mechanical properties :
#
#
# Convention : Reuss Voigt Hill
#
# Bulk Modulus (GPa) = 40.80154 62.27204 51.53679
# Shear Modulus (GPa) = 15.32744 20.40892 17.86818
#
# Velocity S-wave (km/s) = 3.18382 3.67387 3.43759
# Velocity P-wave (km/s) = 6.36392 7.69284 7.05972
#
# Compressibility (1/GPa) = 0.02450888
#
# Stress axis : x y z
#
# Youngs Moduli (GPa) = 29.51750 57.57781 55.69825
#
# Poissons Ratio (x) = 0.34422 0.59604
# Poissons Ratio (y) = 0.17647 0.31558
# Poissons Ratio (z) = 0.31587 0.32623
#
# Static dielectric constant tensor:
#      x y z
#    x 1.472400 0.000000 0.020300 
#    y 0.000000 1.505950 0.000000 
#    z 0.020300 0.000000 1.511000 
# 
# From -- ./inp_files/348570.got.cif
#   From: 2010.05.17/outbox.cif.g08.bks.cpg/sg12_175_cif.got.tgz:348570.got - 2010.06.03 13:09:07.
