data_PCOD9169461
_publ_section_title
;
Structure prediction by ZEFSAII (Michael W. Deem and Ramdas Pophale) SiO2 
 PCOD9169461
Probable space group: C 2/M
;
_chemical_formula_sum "Si O2"
_cell_formula_units_Z 64
_cell_length_a 27.491023
_cell_length_b 9.386505
_cell_length_c 17.329683
_cell_angle_alpha 90.000000
_cell_angle_beta 102.133315
_cell_angle_gamma 90.000000
_cell_volume 4371.936142
_symmetry_space_group_name_H-M "C 2/M"
_symmetry_group_IT_number 12
_symmetry_cell_setting 'monoclinic'
loop_
_space_group_symop_operation_xyz
x,y,z
-x,y,-z
-x,-y,-z
x,-y,z
1/2+x,1/2+y,z
1/2-x,1/2+y,-z
1/2-x,1/2-y,-z
1/2+x,1/2-y,z
loop_
_atom_site_type_symbol
_atom_site_label
_atom_site_fract_x
_atom_site_fract_y
_atom_site_fract_z
Si Si1 0.559549 0.336169 0.003783
Si Si2 0.465606 0.336701 0.593243
Si Si3 0.540493 0.830964 0.846945
Si Si4 0.612276 0.669149 0.566885
Si Si5 0.802033 0.828397 0.525724
Si Si6 0.938774 0.669738 0.321749
Si Si7 0.923229 0.669151 0.838099
Si Si8 0.624227 0.665185 0.313958
O O1 0.576259 0.500000 0.008326
O O2 0.582560 0.247560 0.081939
O O3 0.500000 0.336402 0.000000
O O4 0.565074 0.258918 0.923590
O O5 0.484740 0.500000 0.596423
O O6 0.435581 0.307048 0.504752
O O7 0.509368 0.229736 0.627455
O O8 0.424044 0.330560 0.646324
O O9 0.560809 0.794827 0.769047
O O10 0.480680 0.805561 0.830060
O O11 0.547429 0.000000 0.863059
O O12 0.614677 0.500000 0.582688
O O13 0.660185 0.708771 0.531510
O O14 0.603814 0.756134 0.641803
O O15 0.750000 0.750000 0.500000
O O16 0.830068 0.792900 0.615382
O O17 0.796221 0.000000 0.522533
O O18 0.936738 0.500000 0.328790
O O19 0.916755 0.500000 0.843452
O O20 0.887092 0.735855 0.762215
O O21 0.630552 0.500000 0.292111
#
# Coordination Sequence:
#
# PCOD9169461 Si02
#       8
#     8   8   8   8   8   8   8   8
#     4   9  17  27  40  58  79 111 154 188 215 255
#     4   9  17  29  43  57  82 118 150 180 216 255
#     4   9  18  29  38  55  86 119 149 183 222 255
#     4   9  19  33  45  61  84 114 148 180 219 265
#     4   9  19  35  52  68  88 113 144 185 230 271
#     4  11  20  28  40  62  89 116 149 186 217 252
#     4  10  17  27  42  60  86 117 147 184 224 258
#     4   9  17  29  45  65  87 114 149 185 219 262
#
# _framework density 14.638824
#
# number of rings (size 3 to 8) (size 9 to 14) (size 15 to 20)
#    0.000    2.625    1.250    3.000    0.000    6.000 
#    0.000    2.500    0.000    0.000    0.000    0.000 
#    0.000    1.000    0.000    3.250    0.000    4.750 
#
# Total GULP energy -178361.215996 kJ/mol
# GULP energy per Si atom -5573.788000 kJ/mol
# Density = 1.460551 g / cm^3
# Si number density = 14.638824 Si / 1000 Ang^3
#
#
#
# Elastic Constant Matrix: (Units=GPa)
#
#
# Indices 1 2 3 4 5 6 
#
# 1 53.3877 37.5002 54.3543 0.0000 0.5426 0.0000
# 2 37.5002 73.2323 82.7471 0.0000 -5.3665 0.0000
# 3 54.3543 82.7471 133.4103 0.0000 -12.4645 0.0000
# 4 0.0000 0.0000 0.0000 29.3906 0.0000 -0.3336
# 5 0.5426 -5.3665 -12.4645 0.0000 16.7182 0.0000
# 6 0.0000 0.0000 0.0000 -0.3336 0.0000 21.0040
#
#
#
# Elastic Compliance Matrix: (Units=1/GPa)
#
#
# Indices 1 2 3 4 5 6 
#
# 1 0.034708 -0.004723 -0.012316 0.000000 -0.011825 0.000000
# 2 -0.004723 0.047048 -0.027766 0.000000 -0.005445 0.000000
# 3 -0.012316 -0.027766 0.031106 0.000000 0.014679 0.000000
# 4 0.000000 0.000000 0.000000 0.034031 0.000000 0.000540
# 5 -0.011825 -0.005445 0.014679 0.000000 0.069395 0.000000
# 6 0.000000 0.000000 0.000000 0.000540 0.000000 0.047618
#
#
# Mechanical properties :
#
#
# Convention : Reuss Voigt Hill
#
# Bulk Modulus (GPa) = 43.00646 67.69260 55.34953
# Shear Modulus (GPa) = 13.84021 19.11781 16.47901
#
# Velocity S-wave (km/s) = 3.07815 3.61774 3.35879
# Velocity P-wave (km/s) = 6.48656 7.98705 7.27559
#
# Compressibility (1/GPa) = 0.02325232
#
# Stress axis : x y z
#
# Youngs Moduli (GPa) = 28.81206 21.25493 32.14779
#
# Poissons Ratio (x) = 0.10039 0.39593
# Poissons Ratio (y) = 0.13609 0.89260
# Poissons Ratio (z) = 0.35484 0.59016
#
# Static dielectric constant tensor:
#      x y z
#    x 1.463450 0.000000 -0.016270 
#    y 0.000000 1.484850 0.000000 
#    z -0.016270 0.000000 1.485520 
# 
# From -- ./inp_files/244252.got.cif
#   From: 2010.05.17/outbox.cif.g08.bks.cpg/sg12_123_cif.got.tgz:244252.got - 2010.06.03 13:09:07.
