data_PCOD9169916
_publ_section_title
;
Structure prediction by ZEFSAII (Michael W. Deem and Ramdas Pophale) SiO2 
 PCOD9169916
Probable space group: C 2/M
;
_chemical_formula_sum "Si O2"
_cell_formula_units_Z 56
_cell_length_a 30.550405
_cell_length_b 14.514389
_cell_length_c 13.281049
_cell_angle_alpha 90.000000
_cell_angle_beta 141.532334
_cell_angle_gamma 90.000000
_cell_volume 3663.442511
_symmetry_space_group_name_H-M "C 2/M"
_symmetry_group_IT_number 12
_symmetry_cell_setting 'monoclinic'
loop_
_space_group_symop_operation_xyz
x,y,z
-x,y,-z
-x,-y,-z
x,-y,z
1/2+x,1/2+y,z
1/2-x,1/2+y,-z
1/2-x,1/2-y,-z
1/2+x,1/2-y,z
loop_
_atom_site_type_symbol
_atom_site_label
_atom_site_fract_x
_atom_site_fract_y
_atom_site_fract_z
Si Si1 0.702331 0.106606 0.327675
Si Si2 0.369129 0.392315 0.945443
Si Si3 0.587166 0.610694 0.758716
Si Si4 0.210132 0.600886 0.582700
Si Si5 0.846029 0.794276 0.525557
Si Si6 0.079494 0.110145 0.525438
Si Si7 0.918372 0.246939 0.868799
O O1 0.716673 0.104231 0.473452
O O2 0.769249 0.159230 0.401422
O O3 0.631642 0.167359 0.189098
O O4 0.696404 0.000000 0.282868
O O5 0.392121 0.500000 0.982494
O O6 0.287777 0.389450 0.767288
O O7 0.411429 0.330494 0.942476
O O8 0.376773 0.357303 0.073680
O O9 0.596664 0.500000 0.772569
O O10 0.609008 0.644415 0.686938
O O11 0.504040 0.627740 0.621857
O O12 0.181613 0.500000 0.559204
O O13 0.164108 0.688662 0.526757
O O14 0.887398 0.846783 0.513629
O O15 0.885522 0.791551 0.704662
O O16 0.088967 0.000000 0.538107
O O17 0.000000 0.272047 0.000000
#
# Coordination Sequence:
#
# PCOD9169916 Si02
#       7
#     8   8   8   8   8   8   8
#     4  10  19  33  49  66  96 133 161 188 228 280
#     4  10  17  29  47  67  94 123 149 189 239 278
#     4   8  16  30  45  66  95 125 151 182 232 287
#     4   9  17  30  47  65  92 124 154 189 229 279
#     4  11  18  31  49  74  92 121 161 194 237 273
#     4   9  17  29  46  68  95 123 153 186 226 284
#     4  11  21  31  46  73 101 123 156 196 236 283
#
# _framework density 15.286168999999999
#
# number of rings (size 3 to 8) (size 9 to 14) (size 15 to 20)
#    0.000    2.286    2.857    3.000    0.000    1.143 
#    0.000    0.714    0.000    0.000    0.000    2.000 
#    0.000    0.000    0.000    0.000    0.000    0.000 
#
# Total GULP energy -155899.242912 kJ/mol
# GULP energy per Si atom -5567.830104 kJ/mol
# Density = 1.525138 g / cm^3
# Si number density = 15.286169 Si / 1000 Ang^3
#
#
#
# Elastic Constant Matrix: (Units=GPa)
#
#
# Indices 1 2 3 4 5 6 
#
# 1 54.4822 26.3146 8.0936 0.0000 -1.1731 0.0000
# 2 26.3146 66.4718 16.7713 0.0000 -3.4547 0.0000
# 3 8.0936 16.7713 36.4732 0.0000 -3.0919 0.0000
# 4 0.0000 0.0000 0.0000 12.1614 0.0000 3.9383
# 5 -1.1731 -3.4547 -3.0919 0.0000 17.5398 0.0000
# 6 0.0000 0.0000 0.0000 3.9383 0.0000 17.7780
#
#
#
# Elastic Compliance Matrix: (Units=1/GPa)
#
#
# Indices 1 2 3 4 5 6 
#
# 1 0.022730 -0.008753 -0.001052 0.000000 -0.000389 0.000000
# 2 -0.008753 0.020459 -0.007282 0.000000 0.002161 0.000000
# 3 -0.001052 -0.007282 0.031340 0.000000 0.004020 0.000000
# 4 0.000000 0.000000 0.000000 0.088582 0.000000 -0.019624
# 5 -0.000389 0.002161 0.004020 0.000000 0.058121 0.000000
# 6 0.000000 0.000000 0.000000 -0.019624 0.000000 0.060597
#
#
# Mechanical properties :
#
#
# Convention : Reuss Voigt Hill
#
# Bulk Modulus (GPa) = 24.78024 28.86516 26.82270
# Shear Modulus (GPa) = 15.17659 16.57902 15.87781
#
# Velocity S-wave (km/s) = 3.15434 3.29686 3.22639
# Velocity P-wave (km/s) = 5.43255 5.78071 5.60933
#
# Compressibility (1/GPa) = 0.04035473
#
# Stress axis : x y z
#
# Youngs Moduli (GPa) = 43.99426 48.87897 31.90807
#
# Poissons Ratio (x) = 0.42785 0.03357
# Poissons Ratio (y) = 0.38509 0.23235
# Poissons Ratio (z) = 0.04628 0.35593
#
# Static dielectric constant tensor:
#      x y z
#    x 1.480980 0.000000 -0.012800 
#    y 0.000000 1.527050 0.000000 
#    z -0.012800 0.000000 1.521520 
# 
# From -- ./inp_files/166768.got.cif
#   From: 2010.05.17/outbox.cif.g08.bks.cpg/sg12_84_cif.got.tgz:166768.got - 2010.06.03 13:09:07.
