data_PCOD9169738
_publ_section_title
;
Structure prediction by ZEFSAII (Michael W. Deem and Ramdas Pophale) SiO2 
 PCOD9169738
Probable space group: C 2/M
;
_chemical_formula_sum "Si O2"
_cell_formula_units_Z 64
_cell_length_a 30.098187
_cell_length_b 18.371138
_cell_length_c 20.094022
_cell_angle_alpha 90.000000
_cell_angle_beta 19.201493
_cell_angle_gamma 90.000000
_cell_volume 3654.227613
_symmetry_space_group_name_H-M "C 2/M"
_symmetry_group_IT_number 12
_symmetry_cell_setting 'monoclinic'
loop_
_space_group_symop_operation_xyz
x,y,z
-x,y,-z
-x,-y,-z
x,-y,z
1/2+x,1/2+y,z
1/2-x,1/2+y,-z
1/2-x,1/2-y,-z
1/2+x,1/2-y,z
loop_
_atom_site_type_symbol
_atom_site_label
_atom_site_fract_x
_atom_site_fract_y
_atom_site_fract_z
Si Si1 0.671062 0.766847 0.429032
Si Si2 0.973773 0.583835 0.930976
Si Si3 0.499638 0.376421 0.108623
Si Si4 0.976271 0.920580 0.773739
Si Si5 0.716729 0.583832 0.687973
Si Si6 0.633763 0.276999 0.116203
Si Si7 0.216147 0.623588 0.675550
Si Si8 0.371108 0.766841 0.028885
O O1 0.685134 0.849337 0.434370
O O2 0.514167 0.748476 0.651307
O O3 0.754874 0.710165 0.357575
O O4 0.740601 0.750000 0.259449
O O5 0.966218 0.500000 0.918571
O O6 0.873595 0.594200 0.136212
O O7 0.924010 0.650670 0.956558
O O8 0.125774 0.601872 0.740398
O O9 0.528586 0.409545 0.139736
O O10 0.358180 0.398130 0.275650
O O11 0.606839 0.405808 0.902925
O O12 0.520340 0.289845 0.092061
O O13 0.134768 0.909524 0.533615
O O14 0.884384 0.863250 0.865629
O O15 0.932178 0.000000 0.817799
O O16 0.764213 0.500000 0.620513
O O17 0.750000 0.250000 0.000000
O O18 0.655083 0.251540 0.010274
#
# Coordination Sequence:
#
# PCOD9169738 Si02
#       8
#     8   8   8   8   8   8   8   8
#     4   9  19  34  52  72  98 132 164 198 243 292
#     4  10  17  28  46  73 105 136 161 189 228 283
#     4   9  17  29  47  71 103 135 163 189 228 285
#     4  10  18  31  51  75  95 121 162 209 243 278
#     4  10  17  28  46  73 105 136 161 189 228 283
#     4  10  22  39  55  71  93 123 166 211 255 300
#     4   9  17  29  47  71 103 135 163 189 228 285
#     4   9  19  34  52  72  98 132 164 198 243 292
#
# _framework density 17.513961999999999
#
# number of rings (size 3 to 8) (size 9 to 14) (size 15 to 20)
#    0.000    2.500    0.000    3.750    0.000    4.500 
#    0.000    6.875    0.000    0.000    0.000   10.500 
#    0.000    0.000    0.000    0.000    0.000    0.000 
#
# Total GULP energy -178271.071429 kJ/mol
# GULP energy per Si atom -5570.970982 kJ/mol
# Density = 1.747410 g / cm^3
# Si number density = 17.513962 Si / 1000 Ang^3
#
#
#
# Elastic Constant Matrix: (Units=GPa)
#
#
# Indices 1 2 3 4 5 6 
#
# 1 74.1851 61.2705 33.1205 0.0001 -12.0565 -0.0001
# 2 61.2705 193.7600 48.2041 0.0003 -16.5941 -0.0002
# 3 33.1205 48.2041 54.3613 0.0005 -13.1955 -0.0004
# 4 0.0001 0.0003 0.0005 9.2294 -0.0003 -3.4866
# 5 -12.0565 -16.5941 -13.1955 -0.0003 14.3828 0.0001
# 6 -0.0001 -0.0002 -0.0004 -3.4866 0.0001 12.0081
#
#
#
# Elastic Compliance Matrix: (Units=1/GPa)
#
#
# Indices 1 2 3 4 5 6 
#
# 1 0.021524 -0.004358 -0.007835 0.000000 0.005826 0.000000
# 2 -0.004358 0.007600 -0.003656 0.000000 0.001760 0.000000
# 3 -0.007835 -0.003656 0.030610 -0.000001 0.017297 0.000001
# 4 0.000000 0.000000 -0.000001 0.121698 0.000002 0.035336
# 5 0.005826 0.001760 0.017297 0.000002 0.092311 0.000000
# 6 0.000000 0.000000 0.000001 0.035336 0.000000 0.093537
#
#
# Mechanical properties :
#
#
# Convention : Reuss Voigt Hill
#
# Bulk Modulus (GPa) = 35.67048 67.49962 51.58505
# Shear Modulus (GPa) = 12.24522 19.10483 15.67502
#
# Velocity S-wave (km/s) = 2.64705 3.30636 2.99490
# Velocity P-wave (km/s) = 5.45468 7.29384 6.44025
#
# Compressibility (1/GPa) = 0.02803439
#
# Stress axis : x y z
#
# Youngs Moduli (GPa) = 46.45936 131.58760 32.66927
#
# Poissons Ratio (x) = 0.57347 0.25597
# Poissons Ratio (y) = 0.20247 0.11945
# Poissons Ratio (z) = 0.36402 0.48111
#
# Static dielectric constant tensor:
#      x y z
#    x 1.565690 0.000000 0.044240 
#    y 0.000000 1.640670 0.000000 
#    z 0.044240 0.000000 1.600950 
# 
# From -- ./inp_files/330478.got.cif
#   From: 2010.05.17/outbox.cif.g08.bks.cpg/sg12_166_cif.got.tgz:330478.got - 2010.06.03 13:09:07.
