data_PCOD9169113
_publ_section_title
;
Structure prediction by ZEFSAII (Michael W. Deem and Ramdas Pophale) SiO2 
 PCOD9169113
Probable space group: C 2/M
;
_chemical_formula_sum "Si O2"
_cell_formula_units_Z 44
_cell_length_a 13.833110
_cell_length_b 26.716289
_cell_length_c 5.284030
_cell_angle_alpha 90.000000
_cell_angle_beta 97.288525
_cell_angle_gamma 90.000000
_cell_volume 1937.036607
_symmetry_space_group_name_H-M "C 2/M"
_symmetry_group_IT_number 12
_symmetry_cell_setting 'monoclinic'
loop_
_space_group_symop_operation_xyz
x,y,z
-x,y,-z
-x,-y,-z
x,-y,z
1/2+x,1/2+y,z
1/2-x,1/2+y,-z
1/2-x,1/2-y,-z
1/2+x,1/2-y,z
loop_
_atom_site_type_symbol
_atom_site_label
_atom_site_fract_x
_atom_site_fract_y
_atom_site_fract_z
Si Si1 0.125798 0.056612 0.905034
Si Si2 0.635029 0.612270 0.402909
Si Si3 0.182878 0.407618 0.828506
Si Si4 0.894830 0.325499 0.839563
Si Si5 0.435197 0.277131 0.725200
Si Si6 0.500000 0.898869 0.500000
O O1 0.090671 0.078926 0.160988
O O2 0.244673 0.058153 0.982489
O O3 0.095266 0.000000 0.847705
O O4 0.104627 0.092919 0.665170
O O5 0.614086 0.670242 0.355626
O O6 0.749352 0.602437 0.392543
O O7 0.075348 0.426227 0.713771
O O8 0.169125 0.356207 0.982491
O O9 0.863240 0.270103 0.747403
O O10 0.927545 0.362612 0.628727
O O11 0.000000 0.315280 0.000000
O O12 0.500000 0.263473 0.500000
O O13 0.500000 0.285974 0.000000
#
# Coordination Sequence:
#
# PCOD9169113 Si02
#       6
#     8   8   8   8   8   4
#     4  10  21  41  63  86 118 159 198 250 316 349
#     4  10  22  39  62  92 116 159 202 250 294 358
#     4   9  21  34  60  90 117 164 197 247 289 352
#     4   9  18  33  55  85 127 165 192 229 295 352
#     4  11  22  39  62  89 126 163 197 239 298 355
#     4  10  16  36  55  86 128 156 201 230 294 346
#
# _framework density 22.715108000000001
#
# number of rings (size 3 to 8) (size 9 to 14) (size 15 to 20)
#    1.091    1.091    0.909    2.727    0.000    0.727 
#    0.000    2.273    0.000   16.909    0.000    0.000 
#    0.000    0.000    0.000    0.000    0.000    0.000 
#
# Total GULP energy -122642.963644 kJ/mol
# GULP energy per Si atom -5574.680166 kJ/mol
# Density = 2.266341 g / cm^3
# Si number density = 22.715108 Si / 1000 Ang^3
#
#
#
# Elastic Constant Matrix: (Units=GPa)
#
#
# Indices 1 2 3 4 5 6 
#
# 1 62.2343 20.9851 32.0187 0.0000 -0.1091 0.0000
# 2 20.9851 61.0943 4.5888 0.0000 -9.1115 0.0000
# 3 32.0187 4.5888 114.9780 0.0000 -10.5392 0.0000
# 4 0.0000 0.0000 0.0000 -3.3815 0.0000 13.5035
# 5 -0.1091 -9.1115 -10.5392 0.0000 42.1464 0.0000
# 6 0.0000 0.0000 0.0000 13.5035 0.0000 -8.9557
#
#
#
# Elastic Compliance Matrix: (Units=1/GPa)
#
#
# Indices 1 2 3 4 5 6 
#
# 1 0.021670 -0.007448 -0.006018 0.000000 -0.003059 0.000000
# 2 -0.007448 0.019487 0.001720 0.000000 0.004624 0.000000
# 3 -0.006018 0.001720 0.010580 0.000000 0.003002 0.000000
# 4 0.000000 0.000000 0.000000 0.058896 0.000000 0.088803
# 5 -0.003059 0.004624 0.003002 0.000000 0.025469 0.000000
# 6 0.000000 0.000000 0.000000 0.088803 0.000000 0.022238
#
#
# Mechanical properties :
#
#
# Convention : Reuss Voigt Hill
#
# Bulk Modulus (GPa) = 35.40342 39.27689 37.34015
# Shear Modulus (GPa) = 26.14436 18.00941 22.07689
#
# Velocity S-wave (km/s) = 3.39627 2.81879 3.12092
# Velocity P-wave (km/s) = 5.56770 5.28420 5.42780
#
# Compressibility (1/GPa) = 0.02824586
#
# Stress axis : x y z
#
# Youngs Moduli (GPa) = 46.14596 51.31707 94.52102
#
# Poissons Ratio (x) = 0.38219 0.56881
# Poissons Ratio (y) = 0.34368 -0.16259
# Poissons Ratio (z) = 0.27770 -0.08827
#
# Static dielectric constant tensor:
#      x y z
#    x 1.922020 0.000000 0.091920 
#    y 0.000000 1.832130 0.000000 
#    z 0.091920 0.000000 1.964450 
# 
# From -- ./inp_files/16717.got.cif
#   From: 2010.05.17/outbox.cif.g08.bks.cpg/sg12_9_cif.got.tgz:16717.got - 2010.06.03 13:09:07.
