data_PCOD9169665
_publ_section_title
;
Structure prediction by ZEFSAII (Michael W. Deem and Ramdas Pophale) SiO2 
 PCOD9169665
Probable space group: C 2/M
;
_chemical_formula_sum "Si O2"
_cell_formula_units_Z 64
_cell_length_a 28.219513
_cell_length_b 8.718907
_cell_length_c 17.719683
_cell_angle_alpha 90.000000
_cell_angle_beta 77.061952
_cell_angle_gamma 90.000000
_cell_volume 4249.125775
_symmetry_space_group_name_H-M "C 2/M"
_symmetry_group_IT_number 12
_symmetry_cell_setting 'monoclinic'
loop_
_space_group_symop_operation_xyz
x,y,z
-x,y,-z
-x,-y,-z
x,-y,z
1/2+x,1/2+y,z
1/2-x,1/2+y,-z
1/2-x,1/2-y,-z
1/2+x,1/2-y,z
loop_
_atom_site_type_symbol
_atom_site_label
_atom_site_fract_x
_atom_site_fract_y
_atom_site_fract_z
Si Si1 0.575710 0.682779 0.331610
Si Si2 0.941876 0.676665 0.505219
Si Si3 0.454851 0.683708 0.903028
Si Si4 0.062950 0.813574 0.814975
Si Si5 0.463058 0.314793 0.341498
Si Si6 0.884521 0.815124 0.061957
Si Si7 0.196321 0.815503 0.027747
Si Si8 0.873503 0.318774 0.825093
O O1 0.578509 0.500000 0.324041
O O2 0.581154 0.733795 0.416361
O O3 0.520516 0.728626 0.325645
O O4 0.614877 0.758287 0.262482
O O5 0.926459 0.500000 0.511261
O O6 0.936538 0.749822 0.424699
O O7 0.000000 0.681493 0.500000
O O8 0.449498 0.500000 0.890860
O O9 0.510720 0.722717 0.870715
O O10 0.421143 0.771732 0.856110
O O11 0.431950 0.714058 0.993033
O O12 0.060130 0.761891 0.729278
O O13 0.104474 0.757523 0.857711
O O14 0.066051 0.000000 0.811523
O O15 0.461875 0.500000 0.344659
O O16 0.879796 0.000000 0.068244
O O17 0.838468 0.761497 0.029359
O O18 0.170548 0.759729 0.113851
O O19 0.197033 0.000000 0.026947
O O20 0.250000 0.750000 0.000000
O O21 0.866712 0.500000 0.827450
#
# Coordination Sequence:
#
# PCOD9169665 Si02
#       8
#     8   8   8   8   8   8   8   8
#     4  10  17  28  43  61  84 113 151 189 220 254
#     4   9  17  27  38  55  81 115 151 185 221 258
#     4   9  15  26  41  60  85 116 150 183 216 250
#     4   9  14  23  40  63  87 114 150 186 215 251
#     4   9  16  25  39  58  83 117 153 185 217 252
#     4   8  15  25  43  66  85 108 145 186 220 258
#     4  10  20  35  52  68  87 113 145 184 230 271
#     4  11  20  29  44  66  90 117 148 182 222 265
#
# _framework density 15.061921999999999
#
# number of rings (size 3 to 8) (size 9 to 14) (size 15 to 20)
#    0.000    2.625    1.250    3.375    0.000    3.500 
#    0.000    0.000    0.000   10.500    0.000    0.000 
#    0.000    1.000    0.000    2.750    0.000    4.000 
#
# Total GULP energy -178227.748689 kJ/mol
# GULP energy per Si atom -5569.617147 kJ/mol
# Density = 1.502764 g / cm^3
# Si number density = 15.061922 Si / 1000 Ang^3
#
#
#
# Elastic Constant Matrix: (Units=GPa)
#
#
# Indices 1 2 3 4 5 6 
#
# 1 56.0276 19.7581 58.8194 0.0000 2.0321 0.0000
# 2 19.7581 40.0497 34.4750 0.0000 -1.6613 0.0000
# 3 58.8194 34.4750 129.2679 0.0000 12.5423 0.0000
# 4 0.0000 0.0000 0.0000 15.3949 0.0000 -7.5643
# 5 2.0321 -1.6613 12.5423 0.0000 17.8702 0.0000
# 6 0.0000 0.0000 0.0000 -7.5643 0.0000 9.7753
#
#
#
# Elastic Compliance Matrix: (Units=1/GPa)
#
#
# Indices 1 2 3 4 5 6 
#
# 1 0.035520 -0.003590 -0.015861 0.000000 0.006759 0.000000
# 2 -0.003590 0.034434 -0.008477 0.000000 0.009559 0.000000
# 3 -0.015861 -0.008477 0.018366 0.000000 -0.011875 0.000000
# 4 0.000000 0.000000 0.000000 0.104806 0.000000 0.081102
# 5 0.006759 0.009559 -0.011875 0.000000 0.064413 0.000000
# 6 0.000000 0.000000 0.000000 0.081102 0.000000 0.165058
#
#
# Mechanical properties :
#
#
# Convention : Reuss Voigt Hill
#
# Bulk Modulus (GPa) = 30.80358 50.16113 40.48236
# Shear Modulus (GPa) = 10.21920 16.09425 13.15672
#
# Velocity S-wave (km/s) = 2.60759 3.27240 2.95872
# Velocity P-wave (km/s) = 5.43707 6.90316 6.21351
#
# Compressibility (1/GPa) = 0.03246375
#
# Stress axis : x y z
#
# Youngs Moduli (GPa) = 28.15286 29.04110 54.44906
#
# Poissons Ratio (x) = 0.10426 0.86360
# Poissons Ratio (y) = 0.10107 0.46158
# Poissons Ratio (z) = 0.44653 0.24619
#
# Static dielectric constant tensor:
#      x y z
#    x 1.481670 0.000000 0.021160 
#    y 0.000000 1.504730 0.000000 
#    z 0.021160 0.000000 1.522490 
# 
# From -- ./inp_files/294553.got.cif
#   From: 2010.05.17/outbox.cif.g08.bks.cpg/sg12_148_cif.got.tgz:294553.got - 2010.06.03 13:09:07.
