data_PCOD9169138
_publ_section_title
;
Structure prediction by ZEFSAII (Michael W. Deem and Ramdas Pophale) SiO2 
 PCOD9169138
Probable space group: C 2/M
;
_chemical_formula_sum "Si O2"
_cell_formula_units_Z 56
_cell_length_a 20.635361
_cell_length_b 9.182779
_cell_length_c 18.383762
_cell_angle_alpha 90.000000
_cell_angle_beta 100.407516
_cell_angle_gamma 90.000000
_cell_volume 3426.226388
_symmetry_space_group_name_H-M "C 2/M"
_symmetry_group_IT_number 12
_symmetry_cell_setting 'monoclinic'
loop_
_space_group_symop_operation_xyz
x,y,z
-x,y,-z
-x,-y,-z
x,-y,z
1/2+x,1/2+y,z
1/2-x,1/2+y,-z
1/2-x,1/2-y,-z
1/2+x,1/2-y,z
loop_
_atom_site_type_symbol
_atom_site_label
_atom_site_fract_x
_atom_site_fract_y
_atom_site_fract_z
Si Si1 0.567069 0.826285 0.556412
Si Si2 0.955867 0.172562 0.298483
Si Si3 0.614236 0.670602 0.319291
Si Si4 0.054540 0.672968 0.850490
Si Si5 0.317426 0.827015 0.535107
Si Si6 0.921505 0.167943 0.003735
Si Si7 0.085435 0.173895 0.155742
O O1 0.500000 0.787553 0.500000
O O2 0.570301 0.739944 0.632219
O O3 0.627745 0.796077 0.515372
O O4 0.564703 0.000000 0.570824
O O5 0.926381 0.251654 0.221584
O O6 0.035574 0.195568 0.313674
O O7 0.944837 0.000000 0.291906
O O8 0.626756 0.500000 0.336780
O O9 0.654606 0.767149 0.383202
O O10 0.628172 0.698383 0.236604
O O11 0.057488 0.500000 0.845882
O O12 0.091636 0.731329 0.929855
O O13 0.979501 0.728610 0.847639
O O14 0.250000 0.750000 0.500000
O O15 0.308619 0.000000 0.537271
O O16 0.908612 0.000000 0.020642
O O17 0.887241 0.202173 0.919471
O O18 0.000000 0.177314 0.000000
O O19 0.066731 0.000000 0.153587
#
# Coordination Sequence:
#
# PCOD9169138 Si02
#       7
#     8   8   8   8   8   8   8
#     4  10  20  35  53  74  99 124 159 205 251 290
#     4  10  19  30  47  69  93 124 162 200 240 290
#     4   9  17  30  47  68  93 122 161 201 241 288
#     4  10  17  23  35  57  88 121 155 195 238 282
#     4  11  23  37  53  72  99 131 161 201 248 294
#     4   8  13  23  36  51  80 119 156 190 232 283
#     4   8  15  26  39  57  83 119 157 195 236 285
#
# _framework density 16.344512999999999
#
# number of rings (size 3 to 8) (size 9 to 14) (size 15 to 20)
#    0.000    2.571    1.429    3.857    0.000    6.286 
#    0.000    0.000    0.000    0.000    0.000    0.000 
#    0.000    1.143    0.000    3.429    0.000    6.143 
#
# Total GULP energy -155964.173463 kJ/mol
# GULP energy per Si atom -5570.149052 kJ/mol
# Density = 1.630731 g / cm^3
# Si number density = 16.344513 Si / 1000 Ang^3
#
#
#
# Elastic Constant Matrix: (Units=GPa)
#
#
# Indices 1 2 3 4 5 6 
#
# 1 43.7341 37.1701 39.7728 0.0000 1.7078 0.0000
# 2 37.1701 86.7852 94.9260 0.0000 1.7650 0.0000
# 3 39.7728 94.9260 187.6169 0.0000 3.8953 0.0000
# 4 0.0000 0.0000 0.0000 31.5340 0.0000 -1.9209
# 5 1.7078 1.7650 3.8953 0.0000 5.9957 0.0000
# 6 0.0000 0.0000 0.0000 -1.9209 0.0000 14.1024
#
#
#
# Elastic Compliance Matrix: (Units=1/GPa)
#
#
# Indices 1 2 3 4 5 6 
#
# 1 0.036173 -0.015942 0.000521 0.000000 -0.005949 0.000000
# 2 -0.015942 0.032833 -0.013305 0.000000 0.003520 0.000000
# 3 0.000521 -0.013305 0.012036 0.000000 -0.004051 0.000000
# 4 0.000000 0.000000 0.000000 0.031977 0.000000 0.004356
# 5 -0.005949 0.003520 -0.004051 0.000000 0.170075 0.000000
# 6 0.000000 0.000000 0.000000 0.004356 0.000000 0.071503
#
#
# Mechanical properties :
#
#
# Convention : Reuss Voigt Hill
#
# Bulk Modulus (GPa) = 42.39302 73.54155 57.96729
# Shear Modulus (GPa) = 11.90725 20.07758 15.99242
#
# Velocity S-wave (km/s) = 2.70203 3.50865 3.13142
# Velocity P-wave (km/s) = 5.97730 7.84261 6.97261
#
# Compressibility (1/GPa) = 0.02358879
#
# Stress axis : x y z
#
# Youngs Moduli (GPa) = 27.64482 30.45750 83.08685
#
# Poissons Ratio (x) = 0.48555 -0.04330
# Poissons Ratio (y) = 0.44072 1.10551
# Poissons Ratio (z) = -0.01441 0.40525
#
# Static dielectric constant tensor:
#      x y z
#    x 1.517900 0.000000 0.007220 
#    y 0.000000 1.541120 0.000000 
#    z 0.007220 0.000000 1.594350 
# 
# From -- ./inp_files/280331.got.cif
#   From: 2010.05.17/outbox.cif.g08.bks.cpg/sg12_141_cif.got.tgz:280331.got - 2010.06.03 13:09:07.
