data_PCOD9169184
_publ_section_title
;
Structure prediction by ZEFSAII (Michael W. Deem and Ramdas Pophale) SiO2 
 PCOD9169184
Probable space group: C 2/M
;
_chemical_formula_sum "Si O2"
_cell_formula_units_Z 56
_cell_length_a 18.753542
_cell_length_b 7.785927
_cell_length_c 29.797853
_cell_angle_alpha 90.000000
_cell_angle_beta 139.948863
_cell_angle_gamma 90.000000
_cell_volume 2799.675020
_symmetry_space_group_name_H-M "C 2/M"
_symmetry_group_IT_number 12
_symmetry_cell_setting 'monoclinic'
loop_
_space_group_symop_operation_xyz
x,y,z
-x,y,-z
-x,-y,-z
x,-y,z
1/2+x,1/2+y,z
1/2-x,1/2+y,-z
1/2-x,1/2-y,-z
1/2+x,1/2-y,z
loop_
_atom_site_type_symbol
_atom_site_label
_atom_site_fract_x
_atom_site_fract_y
_atom_site_fract_z
Si Si1 0.079018 0.792551 0.996656
Si Si2 0.379671 0.800994 0.850192
Si Si3 0.706150 0.792925 0.429658
Si Si4 0.124139 0.796730 0.562506
Si Si5 0.045065 0.289095 0.703517
Si Si6 0.704905 0.205197 0.699157
Si Si7 0.723815 0.196979 0.855170
O O1 0.009310 0.737564 0.919741
O O2 0.082935 0.000000 0.999030
O O3 0.201838 0.727921 0.068629
O O4 0.000000 0.735819 0.000000
O O5 0.324424 0.758939 0.776093
O O6 0.308589 0.697189 0.853216
O O7 0.360704 0.000000 0.850975
O O8 0.750000 0.750000 0.500000
O O9 0.792307 0.724788 0.434354
O O10 0.581012 0.730956 0.360991
O O11 0.701258 0.000000 0.423554
O O12 0.173971 0.775099 0.635860
O O13 0.000000 0.723164 0.500000
O O14 0.114887 0.000000 0.548523
O O15 0.047331 0.500000 0.705573
O O16 0.115039 0.236709 0.693234
O O17 0.112410 0.227490 0.779997
O O18 0.700741 0.000000 0.695195
O O19 0.699112 0.000000 0.855472
#
# Coordination Sequence:
#
# PCOD9169184 Si02
#       7
#     8   8   8   8   8   8   8
#     4   8  13  22  36  56  86 122 156 191 231 275
#     4  10  17  24  38  62  93 124 154 191 236 281
#     4  10  20  34  52  72  96 124 155 192 231 277
#     4  10  21  35  50  72 101 127 151 187 238 286
#     4   8  15  29  48  69  91 121 161 198 232 271
#     4  10  19  32  50  69  92 124 163 200 231 274
#     4   8  14  25  40  59  87 122 159 196 232 274
#
# _framework density 20.002320999999998
#
# number of rings (size 3 to 8) (size 9 to 14) (size 15 to 20)
#    0.000    2.857    0.000    4.286    0.000    3.429 
#    0.000    2.857    0.000    0.000    0.000    1.000 
#    0.000    0.000    0.000    0.000    0.000    0.000 
#
# Total GULP energy -155997.871868 kJ/mol
# GULP energy per Si atom -5571.352567 kJ/mol
# Density = 1.995679 g / cm^3
# Si number density = 20.002321 Si / 1000 Ang^3
#
#
#
# Elastic Constant Matrix: (Units=GPa)
#
#
# Indices 1 2 3 4 5 6 
#
# 1 70.9141 1.7473 72.8113 0.0000 7.0838 0.0005
# 2 1.7473 25.7840 -18.1346 0.0001 8.9676 0.0011
# 3 72.8113 -18.1346 216.9392 0.0000 20.1460 0.0000
# 4 0.0000 0.0001 0.0000 16.6992 0.0000 -10.3289
# 5 7.0838 8.9676 20.1460 0.0000 18.5549 -0.0001
# 6 0.0005 0.0011 0.0000 -10.3289 -0.0001 1.7828
#
#
#
# Elastic Compliance Matrix: (Units=1/GPa)
#
#
# Indices 1 2 3 4 5 6 
#
# 1 0.023181 -0.010123 -0.009185 0.000000 0.006015 0.000000
# 2 -0.010123 0.061669 0.012191 0.000009 -0.039176 0.000015
# 3 -0.009185 0.012191 0.009935 0.000001 -0.013172 0.000002
# 4 0.000000 0.000009 0.000001 -0.023179 -0.000006 -0.134291
# 5 0.006015 -0.039176 -0.013172 -0.000006 0.084833 -0.000011
# 6 0.000000 0.000015 0.000002 -0.134291 -0.000011 -0.217113
#
#
# Mechanical properties :
#
#
# Convention : Reuss Voigt Hill
#
# Bulk Modulus (GPa) = 12.41459 47.38726 29.90093
# Shear Modulus (GPa) = -255.22973 24.55493 -115.33740
#
# Velocity S-wave (km/s) = -11.30827 3.50752 -7.60179
# Velocity P-wave (km/s) = 12.81728 6.33608 7.87835
#
# Compressibility (1/GPa) = 0.08055038
#
# Stress axis : x y z
#
# Youngs Moduli (GPa) = 43.13907 16.21550 100.65826
#
# Poissons Ratio (x) = 0.16415 0.92455
# Poissons Ratio (y) = 0.43670 -1.22711
# Poissons Ratio (z) = 0.39623 -0.19768
#
# Static dielectric constant tensor:
#      x y z
#    x 1.681850 0.000000 0.019530 
#    y 0.000000 1.730010 0.000000 
#    z 0.019530 0.000000 1.768030 
# 
# From -- ./inp_files/377729.got.cif
#   From: 2010.05.17/outbox.cif.g08.bks.cpg/sg12_189_cif.got.tgz:377729.got - 2010.06.03 13:09:07.
