data_PCOD9169438
_publ_section_title
;
Structure prediction by ZEFSAII (Michael W. Deem and Ramdas Pophale) SiO2 
 PCOD9169438
Probable space group: C 2/M
;
_chemical_formula_sum "Si O2"
_cell_formula_units_Z 64
_cell_length_a 14.742041
_cell_length_b 27.974364
_cell_length_c 7.782634
_cell_angle_alpha 90.000000
_cell_angle_beta 77.019562
_cell_angle_gamma 90.000000
_cell_volume 3127.537906
_symmetry_space_group_name_H-M "C 2/M"
_symmetry_group_IT_number 12
_symmetry_cell_setting 'monoclinic'
loop_
_space_group_symop_operation_xyz
x,y,z
-x,y,-z
-x,-y,-z
x,-y,z
1/2+x,1/2+y,z
1/2-x,1/2+y,-z
1/2-x,1/2-y,-z
1/2+x,1/2-y,z
loop_
_atom_site_type_symbol
_atom_site_label
_atom_site_fract_x
_atom_site_fract_y
_atom_site_fract_z
Si Si1 0.104869 0.445413 0.664350
Si Si2 0.606448 0.054729 0.244474
Si Si3 0.578936 0.679504 0.852262
Si Si4 0.103696 0.275058 0.256536
Si Si5 0.929104 0.170343 0.679024
Si Si6 0.391296 0.776876 0.332970
Si Si7 0.763836 0.359111 0.809327
Si Si8 0.258537 0.861924 0.391465
O O1 0.122601 0.500000 0.710410
O O2 0.105802 0.444733 0.454358
O O3 0.181818 0.407834 0.688648
O O4 0.999358 0.432399 0.762424
O O5 0.681730 0.093666 0.156567
O O6 0.625149 0.000000 0.183547
O O7 0.508224 0.647767 0.767352
O O8 0.626393 0.723395 0.729545
O O9 0.657610 0.648673 0.908993
O O10 0.500000 0.704021 0.000000
O O11 0.114933 0.218629 0.221428
O O12 0.112986 0.278303 0.459079
O O13 0.177445 0.312907 0.157355
O O14 0.998826 0.289453 0.247961
O O15 0.845506 0.140151 0.637712
O O16 0.000000 0.188731 0.500000
O O17 0.315886 0.815229 0.306422
O O18 0.756816 0.361162 0.601901
#
# Coordination Sequence:
#
# PCOD9169438 Si02
#       8
#     8   8   8   8   8   8   8   8
#     4   8  14  25  42  73 106 122 139 187 251 289
#     4   8  14  25  43  70 104 126 144 186 243 291
#     4  11  22  34  45  64  98 131 160 199 238 272
#     4   9  15  27  47  68  92 117 158 204 224 274
#     4  11  18  32  45  66  94 125 166 198 226 270
#     4   9  16  29  44  69  93 120 157 193 236 275
#     4  10  17  27  47  71  91 125 166 194 230 280
#     4  10  17  26  50  70  91 126 163 193 228 285
#
# _framework density 20.463380000000001
#
# number of rings (size 3 to 8) (size 9 to 14) (size 15 to 20)
#    0.000    2.500    3.750    2.250    0.000    5.000 
#    0.000    5.625    0.000    1.500    0.000    0.000 
#    0.000    2.500    0.000    0.000    0.000    0.000 
#
# Total GULP energy -178331.611227 kJ/mol
# GULP energy per Si atom -5572.862851 kJ/mol
# Density = 2.041680 g / cm^3
# Si number density = 20.463380 Si / 1000 Ang^3
#
#
#
# Elastic Constant Matrix: (Units=GPa)
#
#
# Indices 1 2 3 4 5 6 
#
# 1 148.9370 86.3547 7.8168 0.0000 -11.8785 0.0000
# 2 86.3547 98.3820 7.5245 0.0000 -12.2024 0.0000
# 3 7.8168 7.5245 20.4207 0.0000 -3.4798 0.0000
# 4 0.0000 0.0000 0.0000 3.0781 0.0000 -5.8316
# 5 -11.8785 -12.2024 -3.4798 0.0000 17.2304 0.0000
# 6 0.0000 0.0000 0.0000 -5.8316 0.0000 31.8455
#
#
#
# Elastic Compliance Matrix: (Units=1/GPa)
#
#
# Indices 1 2 3 4 5 6 
#
# 1 0.013699 -0.011857 -0.000721 0.000000 0.000901 0.000000
# 2 -0.011857 0.021570 -0.002277 0.000000 0.006641 0.000000
# 3 -0.000721 -0.002277 0.051498 0.000000 0.008290 0.000000
# 4 0.000000 0.000000 0.000000 0.497453 0.000000 0.091094
# 5 0.000901 0.006641 0.008290 0.000000 0.065036 0.000000
# 6 0.000000 0.000000 0.000000 0.091094 0.000000 0.048083
#
#
# Mechanical properties :
#
#
# Convention : Reuss Voigt Hill
#
# Bulk Modulus (GPa) = 17.52687 52.34796 34.93741
# Shear Modulus (GPa) = 6.70180 21.50037 14.10108
#
# Velocity S-wave (km/s) = 1.81166 3.24493 2.62790
# Velocity P-wave (km/s) = 3.59997 6.29891 5.13011
#
# Compressibility (1/GPa) = 0.05705526
#
# Stress axis : x y z
#
# Youngs Moduli (GPa) = 72.99867 46.36054 19.41824
#
# Poissons Ratio (x) = 0.54971 0.01400
# Poissons Ratio (y) = 0.86556 0.04422
# Poissons Ratio (z) = 0.05265 0.10558
#
# Static dielectric constant tensor:
#      x y z
#    x 1.737440 0.000000 0.034320 
#    y 0.000000 1.698790 0.000000 
#    z 0.034320 0.000000 1.914550 
# 
# From -- ./inp_files/67835.got.cif
#   From: 2010.05.17/outbox.cif.g08.bks.cpg/sg12_34_cif.got.tgz:67835.got - 2010.06.03 13:09:07.
