data_PCOD9169536
_publ_section_title
;
Structure prediction by ZEFSAII (Michael W. Deem and Ramdas Pophale) SiO2 
 PCOD9169536
Probable space group: C 2/M
;
_chemical_formula_sum "Si O2"
_cell_formula_units_Z 56
_cell_length_a 20.439533
_cell_length_b 7.341292
_cell_length_c 22.212480
_cell_angle_alpha 90.000000
_cell_angle_beta 38.761911
_cell_angle_gamma 90.000000
_cell_volume 2086.768260
_symmetry_space_group_name_H-M "C 2/M"
_symmetry_group_IT_number 12
_symmetry_cell_setting 'monoclinic'
loop_
_space_group_symop_operation_xyz
x,y,z
-x,y,-z
-x,-y,-z
x,-y,z
1/2+x,1/2+y,z
1/2-x,1/2+y,-z
1/2-x,1/2-y,-z
1/2+x,1/2-y,z
loop_
_atom_site_type_symbol
_atom_site_label
_atom_site_fract_x
_atom_site_fract_y
_atom_site_fract_z
Si Si1 0.824479 0.222712 0.590745
Si Si2 0.710473 0.780759 0.786157
Si Si3 0.688939 0.722262 0.168584
Si Si4 0.482064 0.288492 0.947405
Si Si5 0.896319 0.213537 0.890362
Si Si6 0.882287 0.718540 0.333733
Si Si7 0.480527 0.291078 0.384690
O O1 0.802741 0.277039 0.675074
O O2 0.721997 0.277348 0.625921
O O3 0.927108 0.287448 0.482303
O O4 0.828248 0.000000 0.587170
O O5 0.723776 0.722104 0.845956
O O6 0.601144 0.717114 0.837977
O O7 0.709593 0.000000 0.786675
O O8 0.687788 0.500000 0.166543
O O9 0.681174 0.787877 0.105450
O O10 0.583321 0.784715 0.278839
O O11 0.454620 0.500000 0.974736
O O12 0.409185 0.205616 0.947933
O O13 0.500000 0.201670 0.000000
O O14 0.011016 0.226781 0.777023
O O15 0.875145 0.000000 0.912687
O O16 0.880975 0.500000 0.336624
O O17 0.894089 0.788239 0.393472
O O18 0.508723 0.500000 0.378706
#
# Coordination Sequence:
#
# PCOD9169536 Si02
#       7
#     8   8   8   8   8   8   8
#     4   9  17  27  44  70 101 131 168 213 247 284
#     4  10  19  34  53  76 104 131 164 208 256 296
#     4   8  16  30  51  74  99 134 171 205 240 288
#     4  10  21  37  57  79 101 127 162 204 250 305
#     4   9  17  33  54  74  97 131 169 202 244 301
#     4  10  17  27  44  71 102 130 166 212 254 286
#     4   9  17  30  45  67  99 139 178 204 237 286
#
# _framework density 26.835754000000001
#
# number of rings (size 3 to 8) (size 9 to 14) (size 15 to 20)
#    0.000    2.714    1.429    1.714    0.000    0.857 
#    0.000    7.857    0.000    0.000    0.000    5.000 
#    0.000    0.000    0.000    0.000    0.000    0.000 
#
# Total GULP energy -156590.011628 kJ/mol
# GULP energy per Si atom -5592.500415 kJ/mol
# Density = 2.677467 g / cm^3
# Si number density = 26.835754 Si / 1000 Ang^3
#
#
#
# Elastic Constant Matrix: (Units=GPa)
#
#
# Indices 1 2 3 4 5 6 
#
# 1 175.0123 6.9208 47.9551 -0.0005 28.6246 -0.0023
# 2 6.9208 125.1391 15.9692 -0.0007 -1.0396 -0.0030
# 3 47.9551 15.9692 132.9291 -0.0006 27.2448 -0.0012
# 4 -0.0005 -0.0007 -0.0006 6.1865 0.0001 -6.7222
# 5 28.6246 -1.0396 27.2448 0.0001 49.0334 -0.0001
# 6 -0.0023 -0.0030 -0.0012 -6.7222 -0.0001 8.1666
#
#
#
# Elastic Compliance Matrix: (Units=1/GPa)
#
#
# Indices 1 2 3 4 5 6 
#
# 1 0.006689 -0.000165 -0.001797 0.000020 -0.002910 0.000018
# 2 -0.000165 0.008148 -0.001100 0.000036 0.000880 0.000032
# 3 -0.001797 -0.001100 0.009133 0.000010 -0.004049 0.000008
# 4 0.000020 0.000036 0.000010 1.530858 -0.000019 1.260101
# 5 -0.002910 0.000880 -0.004049 -0.000019 0.024361 -0.000016
# 6 0.000018 0.000032 0.000008 1.260101 -0.000016 1.159681
#
#
# Mechanical properties :
#
#
# Convention : Reuss Voigt Hill
#
# Bulk Modulus (GPa) = 56.03223 63.86341 59.94782
# Shear Modulus (GPa) = 1.81756 36.82634 19.32195
#
# Velocity S-wave (km/s) = 0.82387 3.70846 2.68621
# Velocity P-wave (km/s) = 4.67226 6.49511 5.65758
#
# Compressibility (1/GPa) = 0.01784687
#
# Stress axis : x y z
#
# Youngs Moduli (GPa) = 149.50675 122.73141 109.49292
#
# Poissons Ratio (x) = 0.02023 0.19674
# Poissons Ratio (y) = 0.02464 0.12041
# Poissons Ratio (z) = 0.26863 0.13497
#
# Static dielectric constant tensor:
#      x y z
#    x 2.097130 0.000000 0.000630 
#    y 0.000000 2.013380 0.000000 
#    z 0.000630 0.000000 2.132240 
# 
# From -- ./inp_files/319646.got.cif
#   From: 2010.05.17/outbox.cif.g08.bks.cpg/sg12_160_cif.got.tgz:319646.got - 2010.06.03 13:09:07.
