data_PCOD9169705
_publ_section_title
;
Structure prediction by ZEFSAII (Michael W. Deem and Ramdas Pophale) SiO2 
 PCOD9169705
Probable space group: C 2/M
;
_chemical_formula_sum "Si O2"
_cell_formula_units_Z 56
_cell_length_a 29.942588
_cell_length_b 13.734071
_cell_length_c 12.472595
_cell_angle_alpha 90.000000
_cell_angle_beta 146.804649
_cell_angle_gamma 90.000000
_cell_volume 2808.185933
_symmetry_space_group_name_H-M "C 2/M"
_symmetry_group_IT_number 12
_symmetry_cell_setting 'monoclinic'
loop_
_space_group_symop_operation_xyz
x,y,z
-x,y,-z
-x,-y,-z
x,-y,z
1/2+x,1/2+y,z
1/2-x,1/2+y,-z
1/2-x,1/2-y,-z
1/2+x,1/2-y,z
loop_
_atom_site_type_symbol
_atom_site_label
_atom_site_fract_x
_atom_site_fract_y
_atom_site_fract_z
Si Si1 0.305984 0.889900 0.196382
Si Si2 0.910153 0.114602 0.287187
Si Si3 0.630893 0.384786 0.452896
Si Si4 0.506991 0.110846 0.387070
Si Si5 0.045392 0.798075 0.838795
Si Si6 0.734251 0.318977 0.849035
Si Si7 0.093833 0.888327 0.147112
O O1 0.394761 0.885455 0.427862
O O2 0.257770 0.797096 0.145365
O O3 0.273853 0.000000 0.146803
O O4 0.303586 0.869102 0.061938
O O5 0.910864 0.136922 0.163287
O O6 0.844965 0.164646 0.233213
O O7 0.000000 0.148281 0.500000
O O8 0.903707 0.000000 0.295466
O O9 0.614204 0.500000 0.422853
O O10 0.548304 0.333969 0.330650
O O11 0.707558 0.362672 0.682809
O O12 0.643029 0.358725 0.352411
O O13 0.500000 0.129887 0.500000
O O14 0.462271 0.189872 0.224373
O O15 0.479672 0.000000 0.311798
O O16 0.092610 0.815959 0.044562
O O17 0.114742 0.000000 0.157358
O O18 0.000000 0.891341 0.000000
#
# Coordination Sequence:
#
# PCOD9169705 Si02
#       7
#     8   8   8   8   8   8   8
#     4  10  20  33  47  66  95 127 162 197 235 289
#     4  11  19  26  42  70 101 125 149 189 237 287
#     4  10  17  28  45  68  99 130 157 191 234 285
#     4  10  20  34  50  69  95 127 163 203 245 286
#     4  11  17  28  46  68  96 127 156 191 236 283
#     4  11  20  31  47  71  99 128 158 193 240 290
#     4   8  16  27  42  66  97 128 156 190 235 280
#
# _framework density 19.941699
#
# number of rings (size 3 to 8) (size 9 to 14) (size 15 to 20)
#    0.000    1.857    2.857    4.714    0.000    0.000 
#    0.000    0.000    0.000    4.714    0.000    9.000 
#    0.000    9.143    0.000    0.000    0.000    0.000 
#
# Total GULP energy -156181.364550 kJ/mol
# GULP energy per Si atom -5577.905877 kJ/mol
# Density = 1.989631 g / cm^3
# Si number density = 19.941699 Si / 1000 Ang^3
#
#
#
# Elastic Constant Matrix: (Units=GPa)
#
#
# Indices 1 2 3 4 5 6 
#
# 1 40.3543 16.0579 20.4432 0.0000 -20.5447 0.0000
# 2 16.0579 120.0128 12.1689 0.0000 -20.6833 0.0000
# 3 20.4432 12.1689 77.2041 0.0000 -36.1962 0.0000
# 4 0.0000 0.0000 0.0000 11.5243 0.0000 -15.5627
# 5 -20.5447 -20.6833 -36.1962 0.0000 40.5429 0.0000
# 6 0.0000 0.0000 0.0000 -15.5627 0.0000 15.1447
#
#
#
# Elastic Compliance Matrix: (Units=1/GPa)
#
#
# Indices 1 2 3 4 5 6 
#
# 1 0.033867 -0.001831 -0.001842 0.000000 0.014583 0.000000
# 2 -0.001831 0.009309 0.001392 0.000000 0.005063 0.000000
# 3 -0.001842 0.001392 0.022559 0.000000 0.019917 0.000000
# 4 0.000000 0.000000 0.000000 -0.223820 0.000000 -0.229997
# 5 0.014583 0.005063 0.019917 0.000000 0.052419 0.000000
# 6 0.000000 0.000000 0.000000 -0.229997 0.000000 -0.170314
#
#
# Mechanical properties :
#
#
# Convention : Reuss Voigt Hill
#
# Bulk Modulus (GPa) = 16.34776 37.21236 26.78006
# Shear Modulus (GPa) = -19.91820 26.03581 3.05880
#
# Velocity S-wave (km/s) = -3.16384 3.61722 1.23984
# Velocity P-wave (km/s) = 2.26516 6.01222 3.93801
#
# Compressibility (1/GPa) = 0.06117045
#
# Stress axis : x y z
#
# Youngs Moduli (GPa) = 29.52766 107.42269 44.32855
#
# Poissons Ratio (x) = 0.19674 0.08166
# Poissons Ratio (y) = 0.05408 -0.06169
# Poissons Ratio (z) = 0.05439 -0.14949
#
# Static dielectric constant tensor:
#      x y z
#    x 1.718100 0.000000 0.016820 
#    y 0.000000 1.723540 0.000000 
#    z 0.016820 0.000000 1.783350 
# 
# From -- ./inp_files/189240.got.cif
#   From: 2010.05.17/outbox.cif.g08.bks.cpg/sg12_95_cif.got.tgz:189240.got - 2010.06.03 13:09:07.
