data_PCOD9169686
_publ_section_title
;
Structure prediction by ZEFSAII (Michael W. Deem and Ramdas Pophale) SiO2 
 PCOD9169686
Probable space group: C 2/M
;
_chemical_formula_sum "Si O2"
_cell_formula_units_Z 44
_cell_length_a 5.546572
_cell_length_b 18.271975
_cell_length_c 18.763358
_cell_angle_alpha 90.000000
_cell_angle_beta 97.558299
_cell_angle_gamma 90.000000
_cell_volume 1885.084717
_symmetry_space_group_name_H-M "C 2/M"
_symmetry_group_IT_number 12
_symmetry_cell_setting 'monoclinic'
loop_
_space_group_symop_operation_xyz
x,y,z
-x,y,-z
-x,-y,-z
x,-y,z
1/2+x,1/2+y,z
1/2-x,1/2+y,-z
1/2-x,1/2-y,-z
1/2+x,1/2-y,z
loop_
_atom_site_type_symbol
_atom_site_label
_atom_site_fract_x
_atom_site_fract_y
_atom_site_fract_z
Si Si1 0.230167 0.000000 0.216981
Si Si2 0.023121 0.340750 0.918370
Si Si3 0.738774 0.123279 0.337982
Si Si4 0.727467 0.000000 0.214970
Si Si5 0.729891 0.000000 0.455785
Si Si6 0.281877 0.343805 0.707035
Si Si7 0.502248 0.676731 0.135727
O O1 0.458590 0.000000 0.174233
O O2 0.242141 0.929111 0.268507
O O3 0.962181 0.000000 0.175351
O O4 0.764368 0.359463 0.871922
O O5 0.040230 0.252525 0.907740
O O6 0.278606 0.365955 0.894598
O O7 0.000000 0.358934 0.000000
O O8 0.713046 0.071422 0.405072
O O9 0.497568 0.173464 0.323043
O O10 0.005993 0.159438 0.343551
O O11 0.741114 0.069189 0.269428
O O12 0.500000 0.000000 0.500000
O O13 0.000000 0.000000 0.500000
O O14 0.388182 0.305747 0.782172
#
# Coordination Sequence:
#
# PCOD9169686 Si02
#       7
#     4   8   8   4   4   8   8
#     4   8  14  23  36  55  81 106 141 174 205 258
#     4  10  19  33  48  69  96 122 151 196 242 291
#     4   9  17  28  40  60  91 119 153 193 225 262
#     4   7  12  22  36  49  72 110 136 166 205 240
#     4  11  20  31  48  68  92 136 175 194 225 274
#     4  10  17  28  44  65  91 124 154 190 235 281
#     4  10  18  28  47  70  90 121 158 188 235 295
#
# _framework density 23.341127
#
# number of rings (size 3 to 8) (size 9 to 14) (size 15 to 20)
#    0.000    2.545    0.000    6.000    0.000    1.455 
#    0.000    0.000    0.000    0.000    0.000    7.000 
#    0.000    0.000    0.000  229.091    0.000    0.000 
#
# Total GULP energy -122757.081032 kJ/mol
# GULP energy per Si atom -5579.867320 kJ/mol
# Density = 2.328800 g / cm^3
# Si number density = 23.341127 Si / 1000 Ang^3
#
#
#
# Elastic Constant Matrix: (Units=GPa)
#
#
# Indices 1 2 3 4 5 6 
#
# 1 279.6291 4.4640 43.7488 0.0000 -29.2529 0.0000
# 2 4.4640 60.1535 1.0631 0.0000 1.0276 0.0000
# 3 43.7488 1.0631 99.9509 0.0000 -14.9159 0.0000
# 4 0.0000 0.0000 0.0000 23.6905 0.0000 11.8943
# 5 -29.2529 1.0276 -14.9159 0.0000 43.2568 0.0000
# 6 0.0000 0.0000 0.0000 11.8943 0.0000 12.0433
#
#
#
# Elastic Compliance Matrix: (Units=1/GPa)
#
#
# Indices 1 2 3 4 5 6 
#
# 1 0.004040 -0.000313 -0.001430 0.000000 0.002246 0.000000
# 2 -0.000313 0.016661 -0.000138 0.000000 -0.000655 0.000000
# 3 -0.001430 -0.000138 0.011057 0.000000 0.002849 0.000000
# 4 0.000000 0.000000 0.000000 0.083729 0.000000 -0.082693
# 5 0.002246 -0.000655 0.002849 0.000000 0.025635 0.000000
# 6 0.000000 0.000000 0.000000 -0.082693 0.000000 0.164703
#
#
# Mechanical properties :
#
#
# Convention : Reuss Voigt Hill
#
# Bulk Modulus (GPa) = 35.71807 59.80948 47.76377
# Shear Modulus (GPa) = 15.67797 41.82864 28.75330
#
# Velocity S-wave (km/s) = 2.59451 4.23786 3.51361
# Velocity P-wave (km/s) = 4.93063 7.04455 6.08017
#
# Compressibility (1/GPa) = 0.02799703
#
# Stress axis : x y z
#
# Youngs Moduli (GPa) = 247.53418 60.02046 90.43753
#
# Poissons Ratio (x) = 0.01878 0.12930
# Poissons Ratio (y) = 0.07746 0.01248
# Poissons Ratio (z) = 0.35390 0.00828
#
# Static dielectric constant tensor:
#      x y z
#    x 2.030160 0.000000 -0.003420 
#    y 0.000000 2.040780 0.000000 
#    z -0.003420 0.000000 1.809870 
# 
# From -- ./inp_files/191951.got.cif
#   From: 2010.05.17/outbox.cif.g08.bks.cpg/sg12_96_cif.got.tgz:191951.got - 2010.06.03 13:09:07.
