data_PCOD9169314
_publ_section_title
;
Structure prediction by ZEFSAII (Michael W. Deem and Ramdas Pophale) SiO2 
 PCOD9169314
Probable space group: C 2/M
;
_chemical_formula_sum "Si O2"
_cell_formula_units_Z 64
_cell_length_a 20.749190
_cell_length_b 23.887031
_cell_length_c 8.815811
_cell_angle_alpha 90.000000
_cell_angle_beta 70.471987
_cell_angle_gamma 90.000000
_cell_volume 4118.100044
_symmetry_space_group_name_H-M "C 2/M"
_symmetry_group_IT_number 12
_symmetry_cell_setting 'monoclinic'
loop_
_space_group_symop_operation_xyz
x,y,z
-x,y,-z
-x,-y,-z
x,-y,z
1/2+x,1/2+y,z
1/2-x,1/2+y,-z
1/2-x,1/2-y,-z
1/2+x,1/2-y,z
loop_
_atom_site_type_symbol
_atom_site_label
_atom_site_fract_x
_atom_site_fract_y
_atom_site_fract_z
Si Si1 0.577877 0.813591 0.895449
Si Si2 0.215675 0.303475 0.951262
Si Si3 0.225732 0.564597 0.487297
Si Si4 0.093800 0.561604 0.812823
Si Si5 0.144700 0.278341 0.538265
Si Si6 0.839959 0.634420 0.731300
Si Si7 0.281189 0.330103 0.582834
Si Si8 0.034657 0.561989 0.309229
O O1 0.590913 0.880433 0.903547
O O2 0.590667 0.795506 0.710073
O O3 0.500000 0.800750 0.000000
O O4 0.640232 0.788075 0.944235
O O5 0.207282 0.347175 0.093682
O O6 0.239632 0.173664 0.224345
O O7 0.250000 0.250000 0.000000
O O8 0.247097 0.500000 0.452626
O O9 0.160109 0.564744 0.652339
O O10 0.197488 0.591578 0.353784
O O11 0.281177 0.606904 0.517625
O O12 0.094830 0.500000 0.888765
O O13 0.025605 0.563800 0.764808
O O14 0.136813 0.312223 0.388236
O O15 0.215723 0.302964 0.549083
O O16 0.156692 0.212301 0.501692
O O17 0.907040 0.607017 0.748596
O O18 0.065931 0.500000 0.282498
O O19 0.000000 0.569290 0.500000
#
# Coordination Sequence:
#
# PCOD9169314 Si02
#       8
#     8   8   8   8   8   8   8   8
#     4  11  21  35  48  72  98 132 178 210 247 291
#     4  11  21  32  49  74  98 127 168 212 261 302
#     4  10  18  31  50  69  91 129 174 206 238 294
#     4  10  18  30  45  61  93 138 179 205 230 272
#     4   9  17  31  51  65  87 130 168 203 250 299
#     4  11  18  28  46  68  93 124 169 215 248 279
#     4   9  17  33  50  67  90 127 168 201 253 306
#     4  10  17  26  40  61  93 133 174 208 232 260
#
# _framework density 15.541148
#
# number of rings (size 3 to 8) (size 9 to 14) (size 15 to 20)
#    0.000    1.875    6.250    1.125    1.750    0.250 
#    0.000    2.500    0.000    0.000    0.000    0.000 
#    0.000    0.500    0.000    1.125    0.000    0.125 
#
# Total GULP energy -178372.132273 kJ/mol
# GULP energy per Si atom -5574.129134 kJ/mol
# Density = 1.550578 g / cm^3
# Si number density = 15.541148 Si / 1000 Ang^3
#
#
#
# Elastic Constant Matrix: (Units=GPa)
#
#
# Indices 1 2 3 4 5 6 
#
# 1 35.5141 35.0939 17.2655 0.0000 -0.7395 0.0000
# 2 35.0939 109.7235 33.3017 0.0000 -0.0944 0.0000
# 3 17.2655 33.3017 77.1059 0.0000 -1.4842 0.0000
# 4 0.0000 0.0000 0.0000 15.4830 0.0000 2.6371
# 5 -0.7395 -0.0944 -1.4842 0.0000 17.0816 0.0000
# 6 0.0000 0.0000 0.0000 2.6371 0.0000 27.1470
#
#
#
# Elastic Compliance Matrix: (Units=1/GPa)
#
#
# Indices 1 2 3 4 5 6 
#
# 1 0.042341 -0.012282 -0.004149 0.000000 0.001405 0.000000
# 2 -0.012282 0.014053 -0.003334 0.000000 -0.000744 0.000000
# 3 -0.004149 -0.003334 0.015360 0.000000 0.001137 0.000000
# 4 0.000000 0.000000 0.000000 0.065674 0.000000 -0.006380
# 5 0.001405 -0.000744 0.001137 0.000000 0.058698 0.000000
# 6 0.000000 0.000000 0.000000 -0.006380 0.000000 0.037456
#
#
# Mechanical properties :
#
#
# Convention : Reuss Voigt Hill
#
# Bulk Modulus (GPa) = 31.03253 43.74060 37.38657
# Shear Modulus (GPa) = 17.61479 21.05449 19.33464
#
# Velocity S-wave (km/s) = 3.37030 3.68470 3.53100
# Velocity P-wave (km/s) = 5.92929 6.80506 6.38221
#
# Compressibility (1/GPa) = 0.03222425
#
# Stress axis : x y z
#
# Youngs Moduli (GPa) = 23.61795 71.15856 65.10407
#
# Poissons Ratio (x) = 0.87394 0.27015
# Poissons Ratio (y) = 0.29007 0.21704
# Poissons Ratio (z) = 0.09800 0.23722
#
# Static dielectric constant tensor:
#      x y z
#    x 1.500790 0.000000 0.007900 
#    y 0.000000 1.565550 0.000000 
#    z 0.007900 0.000000 1.566830 
# 
# From -- ./inp_files/90129.got.cif
#   From: 2010.05.17/outbox.cif.g08.bks.cpg/sg12_46_cif.got.tgz:90129.got - 2010.06.03 13:09:07.
