data_PCOD9169241
_publ_section_title
;
Structure prediction by ZEFSAII (Michael W. Deem and Ramdas Pophale) SiO2 
 PCOD9169241
Probable space group: C 2/M
;
_chemical_formula_sum "Si O2"
_cell_formula_units_Z 56
_cell_length_a 28.172398
_cell_length_b 8.853205
_cell_length_c 25.983536
_cell_angle_alpha 90.000000
_cell_angle_beta 144.466556
_cell_angle_gamma 90.000000
_cell_volume 3766.446481
_symmetry_space_group_name_H-M "C 2/M"
_symmetry_group_IT_number 12
_symmetry_cell_setting 'monoclinic'
loop_
_space_group_symop_operation_xyz
x,y,z
-x,y,-z
-x,-y,-z
x,-y,z
1/2+x,1/2+y,z
1/2-x,1/2+y,-z
1/2-x,1/2-y,-z
1/2+x,1/2-y,z
loop_
_atom_site_type_symbol
_atom_site_label
_atom_site_fract_x
_atom_site_fract_y
_atom_site_fract_z
Si Si1 0.306488 0.680781 0.812788
Si Si2 0.409486 0.816889 0.809952
Si Si3 0.834017 0.318250 0.634577
Si Si4 0.545193 0.182581 0.460512
Si Si5 0.877803 0.683381 0.362944
Si Si6 0.144477 0.819574 0.455541
Si Si7 0.560931 0.174242 0.004360
O O1 0.308164 0.500000 0.810615
O O2 0.349263 0.748786 0.799678
O O3 0.212598 0.733391 0.731996
O O4 0.360606 0.732564 0.909107
O O5 0.380510 0.773614 0.727597
O O6 0.406204 0.000000 0.811498
O O7 0.502173 0.771550 0.906556
O O8 0.838739 0.500000 0.633836
O O9 0.868092 0.243981 0.612860
O O10 0.737912 0.277373 0.553314
O O11 0.452365 0.229990 0.391860
O O12 0.598477 0.227238 0.557784
O O13 0.582946 0.252046 0.442813
O O14 0.547216 0.000000 0.458805
O O15 0.878033 0.500000 0.362653
O O16 0.139055 0.000000 0.450409
O O17 0.584229 0.000000 0.016146
O O18 0.500000 0.176874 0.000000
#
# Coordination Sequence:
#
# PCOD9169241 Si02
#       7
#     8   8   8   8   8   8   8
#     4  10  17  25  40  63  88 110 136 170 207 243
#     4   9  17  29  43  59  82 112 144 171 197 240
#     4   9  18  31  45  60  81 113 144 166 199 247
#     4   9  16  30  47  59  80 114 145 169 199 240
#     4   8  16  28  43  63  83 109 144 173 197 238
#     4  10  19  29  42  64  89 107 133 174 210 240
#     4   8  15  27  40  56  81 111 139 167 201 243
#
# _framework density 14.868124999999999
#
# number of rings (size 3 to 8) (size 9 to 14) (size 15 to 20)
#    0.000    3.000    0.000    3.429    0.000    3.714 
#    0.000    3.571    0.000    0.000    0.000    1.000 
#    0.000    0.000    0.000    0.000    0.000    0.000 
#
# Total GULP energy -155935.169740 kJ/mol
# GULP energy per Si atom -5569.113205 kJ/mol
# Density = 1.483428 g / cm^3
# Si number density = 14.868125 Si / 1000 Ang^3
#
#
#
# Elastic Constant Matrix: (Units=GPa)
#
#
# Indices 1 2 3 4 5 6 
#
# 1 105.7076 29.0190 71.0173 0.0000 -2.2041 0.0000
# 2 29.0190 19.6527 33.4812 0.0000 -0.0881 0.0000
# 3 71.0173 33.4812 147.7603 0.0000 -2.4432 0.0000
# 4 0.0000 0.0000 0.0000 19.9450 0.0000 -1.1616
# 5 -2.2041 -0.0881 -2.4432 0.0000 23.6478 0.0000
# 6 0.0000 0.0000 0.0000 -1.1616 0.0000 19.2116
#
#
#
# Elastic Compliance Matrix: (Units=1/GPa)
#
#
# Indices 1 2 3 4 5 6 
#
# 1 0.017353 -0.018635 -0.004099 0.000000 0.001124 0.000000
# 2 -0.018635 0.102950 -0.014418 0.000000 -0.002843 0.000000
# 3 -0.004099 -0.014418 0.012018 0.000000 0.000806 0.000000
# 4 0.000000 0.000000 0.000000 0.050315 0.000000 0.003042
# 5 0.001124 -0.002843 0.000806 0.000000 0.042465 0.000000
# 6 0.000000 0.000000 0.000000 0.003042 0.000000 0.052236
#
#
# Mechanical properties :
#
#
# Convention : Reuss Voigt Hill
#
# Bulk Modulus (GPa) = 17.23631 60.01727 38.62679
# Shear Modulus (GPa) = 13.47778 21.86774 17.67276
#
# Velocity S-wave (km/s) = 3.01406 3.83924 3.45140
# Velocity P-wave (km/s) = 4.87142 7.75287 6.47448
#
# Compressibility (1/GPa) = 0.05801704
#
# Stress axis : x y z
#
# Youngs Moduli (GPa) = 57.62638 9.71344 83.20615
#
# Poissons Ratio (x) = 0.18101 0.34109
# Poissons Ratio (y) = 1.07385 1.19969
# Poissons Ratio (z) = 0.23623 0.14005
#
# Static dielectric constant tensor:
#      x y z
#    x 1.461350 0.000000 0.002580 
#    y 0.000000 1.499750 0.000000 
#    z 0.002580 0.000000 1.515710 
# 
# From -- ./inp_files/348632.got.cif
#   From: 2010.05.17/outbox.cif.g08.bks.cpg/sg12_175_cif.got.tgz:348632.got - 2010.06.03 13:09:07.
