data_PCOD9169211
_publ_section_title
;
Structure prediction by ZEFSAII (Michael W. Deem and Ramdas Pophale) SiO2 
 PCOD9169211
Probable space group: C 2/M
;
_chemical_formula_sum "Si O2"
_cell_formula_units_Z 48
_cell_length_a 21.136971
_cell_length_b 8.289505
_cell_length_c 17.356686
_cell_angle_alpha 90.000000
_cell_angle_beta 115.580916
_cell_angle_gamma 90.000000
_cell_volume 2743.047500
_symmetry_space_group_name_H-M "C 2/M"
_symmetry_group_IT_number 12
_symmetry_cell_setting 'monoclinic'
loop_
_space_group_symop_operation_xyz
x,y,z
-x,y,-z
-x,-y,-z
x,-y,z
1/2+x,1/2+y,z
1/2-x,1/2+y,-z
1/2-x,1/2-y,-z
1/2+x,1/2-y,z
loop_
_atom_site_type_symbol
_atom_site_label
_atom_site_fract_x
_atom_site_fract_y
_atom_site_fract_z
Si Si1 0.597524 0.687333 0.587815
Si Si2 0.456587 0.811651 0.589568
Si Si3 0.550626 0.802674 0.958208
Si Si4 0.967903 0.696798 0.224711
Si Si5 0.788405 0.306699 0.942486
Si Si6 0.324072 0.807302 0.234964
O O1 0.580665 0.500000 0.590007
O O2 0.533512 0.789997 0.590678
O O3 0.596508 0.724823 0.496509
O O4 0.664226 0.732824 0.674355
O O5 0.471629 0.749915 0.683873
O O6 0.438848 0.000000 0.582559
O O7 0.526349 0.750494 0.860305
O O8 0.550146 0.000000 0.957543
O O9 0.500000 0.748810 0.000000
O O10 0.630910 0.751871 0.013641
O O11 0.968790 0.500000 0.226539
O O12 0.891829 0.744849 0.219080
O O13 0.788085 0.500000 0.941698
O O14 0.744833 0.244872 0.846599
O O15 0.750000 0.250000 0.000000
O O16 0.326215 0.000000 0.242102
#
# Coordination Sequence:
#
# PCOD9169211 Si02
#       6
#     8   8   8   8   8   8
#     4  10  17  25  38  62  93 121 155 195 239 287
#     4   9  15  24  39  59  90 127 158 190 235 288
#     4   9  17  30  48  71  98 127 163 203 237 278
#     4   8  14  25  42  65  90 121 159 194 232 280
#     4  11  20  31  49  73  97 127 164 201 243 286
#     4  10  18  30  46  66  94 125 159 197 241 290
#
# _framework density 17.498785000000002
#
# number of rings (size 3 to 8) (size 9 to 14) (size 15 to 20)
#    0.000    2.500    1.667    5.000    0.000    0.000 
#    0.000    0.000    0.000    2.000    0.000    1.167 
#    0.000    0.000    0.000    0.000    0.000    0.000 
#
# Total GULP energy -133704.918581 kJ/mol
# GULP energy per Si atom -5571.038274 kJ/mol
# Density = 1.745896 g / cm^3
# Si number density = 17.498785 Si / 1000 Ang^3
#
#
#
# Elastic Constant Matrix: (Units=GPa)
#
#
# Indices 1 2 3 4 5 6 
#
# 1 66.5645 7.7912 56.5844 0.0000 -4.7637 0.0000
# 2 7.7912 29.2300 19.4515 0.0000 0.8262 0.0000
# 3 56.5844 19.4515 211.4898 0.0000 -3.0173 0.0000
# 4 0.0000 0.0000 0.0000 26.5965 0.0000 5.1513
# 5 -4.7637 0.8262 -3.0173 0.0000 13.8738 0.0000
# 6 0.0000 0.0000 0.0000 5.1513 0.0000 6.3870
#
#
#
# Elastic Compliance Matrix: (Units=1/GPa)
#
#
# Indices 1 2 3 4 5 6 
#
# 1 0.020006 -0.002123 -0.005073 0.000000 0.005892 0.000000
# 2 -0.002123 0.036785 -0.002866 0.000000 -0.003543 0.000000
# 3 -0.005073 -0.002866 0.006347 0.000000 -0.000191 0.000000
# 4 0.000000 0.000000 0.000000 0.044560 0.000000 -0.035939
# 5 0.005892 -0.003543 -0.000191 0.000000 0.074271 0.000000
# 6 0.000000 0.000000 0.000000 -0.035939 0.000000 0.185555
#
#
# Mechanical properties :
#
#
# Convention : Reuss Voigt Hill
#
# Bulk Modulus (GPa) = 23.24885 52.77094 38.00989
# Shear Modulus (GPa) = 12.43832 24.26860 18.35346
#
# Velocity S-wave (km/s) = 2.66900 3.72812 3.24210
# Velocity P-wave (km/s) = 4.77628 6.98242 5.98193
#
# Compressibility (1/GPa) = 0.04301289
#
# Stress axis : x y z
#
# Youngs Moduli (GPa) = 49.98545 27.18535 157.56548
#
# Poissons Ratio (x) = 0.05771 0.79937
# Poissons Ratio (y) = 0.10612 0.45154
# Poissons Ratio (z) = 0.25359 0.07791
#
# Static dielectric constant tensor:
#      x y z
#    x 1.550090 0.000000 -0.003430 
#    y 0.000000 1.599050 0.000000 
#    z -0.003430 0.000000 1.660160 
# 
# From -- ./inp_files/280044.got.cif
#   From: 2010.05.17/outbox.cif.g08.bks.cpg/sg12_141_cif.got.tgz:280044.got - 2010.06.03 13:09:07.
