data_PCOD9169145
_publ_section_title
;
Structure prediction by ZEFSAII (Michael W. Deem and Ramdas Pophale) SiO2 
 PCOD9169145
Probable space group: C 2/M
;
_chemical_formula_sum "Si O2"
_cell_formula_units_Z 40
_cell_length_a 14.543832
_cell_length_b 9.205679
_cell_length_c 17.918748
_cell_angle_alpha 90.000000
_cell_angle_beta 50.460288
_cell_angle_gamma 90.000000
_cell_volume 1850.120790
_symmetry_space_group_name_H-M "C 2/M"
_symmetry_group_IT_number 12
_symmetry_cell_setting 'monoclinic'
loop_
_space_group_symop_operation_xyz
x,y,z
-x,y,-z
-x,-y,-z
x,-y,z
1/2+x,1/2+y,z
1/2-x,1/2+y,-z
1/2-x,1/2-y,-z
1/2+x,1/2-y,z
loop_
_atom_site_type_symbol
_atom_site_label
_atom_site_fract_x
_atom_site_fract_y
_atom_site_fract_z
Si Si1 0.186010 0.161636 0.097843
Si Si2 0.899740 0.665067 0.106089
Si Si3 0.250105 0.172255 0.704140
Si Si4 0.624040 0.333600 0.484506
Si Si5 0.044249 0.822843 0.304186
O O1 0.284515 0.153877 0.112559
O O2 0.070261 0.213493 0.204317
O O3 0.161031 0.000000 0.082157
O O4 0.250000 0.250000 0.000000
O O5 0.936199 0.500000 0.108127
O O6 0.863126 0.756490 0.196596
O O7 0.000000 0.729413 0.000000
O O8 0.283467 0.231575 0.605412
O O9 0.360270 0.230552 0.697830
O O10 0.241915 0.000000 0.708785
O O11 0.500000 0.330749 0.500000
O O12 0.666644 0.500000 0.460590
O O13 0.580765 0.294458 0.590066
O O14 0.063797 0.000000 0.301911
#
# Coordination Sequence:
#
# PCOD9169145 Si02
#       5
#     8   8   8   8   8
#     4   9  17  29  45  66  89 113 143 178 217 256
#     4   9  18  33  49  62  82 117 156 183 204 247
#     4  10  17  23  36  61  89 110 133 174 225 264
#     4   8  13  23  38  54  77 111 145 174 206 250
#     4   8  15  27  40  55  80 115 150 176 202 250
#
# _framework density 21.62021
#
# number of rings (size 3 to 8) (size 9 to 14) (size 15 to 20)
#    0.000    3.200    0.000    4.200    0.000    7.200 
#    0.000    0.000    0.000    0.000    0.000    1.400 
#    0.000    0.000    0.000    0.000    0.000    0.000 
#
# Total GULP energy -111422.548781 kJ/mol
# GULP energy per Si atom -5571.127439 kJ/mol
# Density = 2.157100 g / cm^3
# Si number density = 21.620210 Si / 1000 Ang^3
#
#
#
# Elastic Constant Matrix: (Units=GPa)
#
#
# Indices 1 2 3 4 5 6 
#
# 1 49.7702 8.4693 9.2584 0.0000 6.6028 0.0000
# 2 8.4693 94.9074 113.6521 0.0000 6.1050 0.0000
# 3 9.2584 113.6521 288.1257 0.0000 11.2311 0.0000
# 4 0.0000 0.0000 0.0000 22.0048 0.0000 6.0097
# 5 6.6028 6.1050 11.2311 0.0000 14.8223 0.0000
# 6 0.0000 0.0000 0.0000 6.0097 0.0000 -0.4483
#
#
#
# Elastic Compliance Matrix: (Units=1/GPa)
#
#
# Indices 1 2 3 4 5 6 
#
# 1 0.021538 -0.001766 0.000361 0.000000 -0.009141 0.000000
# 2 -0.001766 0.020192 -0.007846 0.000000 -0.001585 0.000000
# 3 0.000361 -0.007846 0.006630 0.000000 -0.001953 0.000000
# 4 0.000000 0.000000 0.000000 0.009749 0.000000 0.130700
# 5 -0.009141 -0.001585 -0.001953 0.000000 0.073670 0.000000
# 6 0.000000 0.000000 0.000000 0.130700 0.000000 -0.478562
#
#
# Mechanical properties :
#
#
# Convention : Reuss Voigt Hill
#
# Bulk Modulus (GPa) = 33.49242 77.28478 55.38860
# Shear Modulus (GPa) = -15.70719 27.37065 5.83173
#
# Velocity S-wave (km/s) = -2.69830 3.56191 1.64414
# Velocity P-wave (km/s) = 2.41187 7.26226 5.41099
#
# Compressibility (1/GPa) = 0.02985750
#
# Stress axis : x y z
#
# Youngs Moduli (GPa) = 46.42866 49.52414 150.82391
#
# Poissons Ratio (x) = 0.08747 -0.05443
# Poissons Ratio (y) = 0.08200 1.18342
# Poissons Ratio (z) = -0.01676 0.38858
#
# Static dielectric constant tensor:
#      x y z
#    x 1.941140 0.000000 -0.026470 
#    y 0.000000 1.740200 0.000000 
#    z -0.026470 0.000000 1.865290 
# 
# From -- ./inp_files/171420.got.cif
#   From: 2010.05.17/outbox.cif.g08.bks.cpg/sg12_86_cif.got.tgz:171420.got - 2010.06.03 13:09:07.
