data_PCOD9169311
_publ_section_title
;
Structure prediction by ZEFSAII (Michael W. Deem and Ramdas Pophale) SiO2 
 PCOD9169311
Probable space group: C 2/M
;
_chemical_formula_sum "Si O2"
_cell_formula_units_Z 64
_cell_length_a 27.632118
_cell_length_b 8.954095
_cell_length_c 17.809545
_cell_angle_alpha 90.000000
_cell_angle_beta 102.213746
_cell_angle_gamma 90.000000
_cell_volume 4306.709254
_symmetry_space_group_name_H-M "C 2/M"
_symmetry_group_IT_number 12
_symmetry_cell_setting 'monoclinic'
loop_
_space_group_symop_operation_xyz
x,y,z
-x,y,-z
-x,-y,-z
x,-y,z
1/2+x,1/2+y,z
1/2-x,1/2+y,-z
1/2-x,1/2-y,-z
1/2+x,1/2-y,z
loop_
_atom_site_type_symbol
_atom_site_label
_atom_site_fract_x
_atom_site_fract_y
_atom_site_fract_z
Si Si1 0.303347 0.678467 0.029190
Si Si2 0.869691 0.674021 0.172484
Si Si3 0.929785 0.678842 0.333495
Si Si4 0.559843 0.327895 0.509903
Si Si5 0.108847 0.820163 0.052606
Si Si6 0.537599 0.681183 0.340912
Si Si7 0.439220 0.320354 0.816232
Si Si8 0.538293 0.826399 0.911870
O O1 0.299698 0.500000 0.027321
O O2 0.328693 0.732645 0.114860
O O3 0.250000 0.750000 0.000000
O O4 0.341353 0.725041 0.974834
O O5 0.854403 0.500000 0.170192
O O6 0.887160 0.723803 0.260622
O O7 0.919375 0.682110 0.138174
O O8 0.934770 0.500000 0.331405
O O9 0.919591 0.731424 0.414995
O O10 0.982302 0.751111 0.326339
O O11 0.500000 0.326876 0.500000
O O12 0.576116 0.500000 0.522742
O O13 0.566501 0.274818 0.426457
O O14 0.103319 0.777879 0.138135
O O15 0.105255 0.000000 0.045434
O O16 0.062998 0.749006 0.992438
O O17 0.532937 0.500000 0.342012
O O18 0.563478 0.726210 0.271601
O O19 0.442014 0.500000 0.817096
O O20 0.490143 0.256682 0.866276
O O21 0.527409 0.000000 0.922349
#
# Coordination Sequence:
#
# PCOD9169311 Si02
#       8
#     8   8   8   8   8   8   8   8
#     4  10  20  34  51  66  83 107 136 173 217 260
#     4   9  18  30  43  62  87 112 142 176 209 250
#     4  10  17  26  40  59  83 111 144 180 211 242
#     4   8  15  26  37  53  78 110 147 179 208 243
#     4   9  19  32  44  61  81 107 142 174 207 251
#     4   9  17  27  39  55  80 116 149 177 208 241
#     4  10  18  28  42  58  82 114 147 177 203 241
#     4  10  18  28  40  58  85 114 142 175 211 242
#
# _framework density 14.860533999999999
#
# number of rings (size 3 to 8) (size 9 to 14) (size 15 to 20)
#    0.000    2.625    1.250    2.250    0.000    6.250 
#    0.000    0.000    0.000    0.000    0.000    0.000 
#    0.000    1.000    0.000    2.000    0.000    2.625 
#
# Total GULP energy -178234.298536 kJ/mol
# GULP energy per Si atom -5569.821829 kJ/mol
# Density = 1.482671 g / cm^3
# Si number density = 14.860534 Si / 1000 Ang^3
#
#
#
# Elastic Constant Matrix: (Units=GPa)
#
#
# Indices 1 2 3 4 5 6 
#
# 1 45.3162 18.2802 48.5162 0.0000 2.2974 0.0000
# 2 18.2802 21.4461 33.7107 0.0000 2.2973 0.0000
# 3 48.5162 33.7107 149.1951 0.0000 -10.4003 0.0000
# 4 0.0000 0.0000 0.0000 20.6529 0.0000 4.4071
# 5 2.2974 2.2973 -10.4003 0.0000 16.2754 0.0000
# 6 0.0000 0.0000 0.0000 4.4071 0.0000 15.0475
#
#
#
# Elastic Compliance Matrix: (Units=1/GPa)
#
#
# Indices 1 2 3 4 5 6 
#
# 1 0.040119 -0.018126 -0.009594 0.000000 -0.009236 0.000000
# 2 -0.018126 0.088574 -0.015503 0.000000 -0.019850 0.000000
# 3 -0.009594 -0.015503 0.014205 0.000000 0.012620 0.000000
# 4 0.000000 0.000000 0.000000 0.051647 0.000000 -0.015127
# 5 -0.009236 -0.019850 0.012620 0.000000 0.073612 0.000000
# 6 0.000000 0.000000 0.000000 -0.015127 0.000000 0.070887
#
#
# Mechanical properties :
#
#
# Convention : Reuss Voigt Hill
#
# Bulk Modulus (GPa) = 17.71426 46.33017 32.02221
# Shear Modulus (GPa) = 11.25345 18.09184 14.67264
#
# Velocity S-wave (km/s) = 2.75484 3.49297 3.14563
# Velocity P-wave (km/s) = 4.69735 6.89290 5.89819
#
# Compressibility (1/GPa) = 0.05645171
#
# Stress axis : x y z
#
# Youngs Moduli (GPa) = 24.92566 11.29003 70.39692
#
# Poissons Ratio (x) = 0.20464 0.67542
# Poissons Ratio (y) = 0.45181 1.09134
# Poissons Ratio (z) = 0.23915 0.17503
#
# Static dielectric constant tensor:
#      x y z
#    x 1.464040 0.000000 -0.035390 
#    y 0.000000 1.496470 0.000000 
#    z -0.035390 0.000000 1.536070 
# 
# From -- ./inp_files/287748.got.cif
#   From: 2010.05.17/outbox.cif.g08.bks.cpg/sg12_144_cif.got.tgz:287748.got - 2010.06.03 13:09:07.
