data_PCOD9169496
_publ_section_title
;
Structure prediction by ZEFSAII (Michael W. Deem and Ramdas Pophale) SiO2 
 PCOD9169496
Probable space group: C 2/M
;
_chemical_formula_sum "Si O2"
_cell_formula_units_Z 56
_cell_length_a 17.804225
_cell_length_b 24.366225
_cell_length_c 8.845681
_cell_angle_alpha 90.000000
_cell_angle_beta 61.323483
_cell_angle_gamma 90.000000
_cell_volume 3366.758534
_symmetry_space_group_name_H-M "C 2/M"
_symmetry_group_IT_number 12
_symmetry_cell_setting 'monoclinic'
loop_
_space_group_symop_operation_xyz
x,y,z
-x,y,-z
-x,-y,-z
x,-y,z
1/2+x,1/2+y,z
1/2-x,1/2+y,-z
1/2-x,1/2-y,-z
1/2+x,1/2-y,z
loop_
_atom_site_type_symbol
_atom_site_label
_atom_site_fract_x
_atom_site_fract_y
_atom_site_fract_z
Si Si1 0.405065 0.275803 0.157430
Si Si2 0.014629 0.252825 0.311469
Si Si3 0.811110 0.662337 0.254504
Si Si4 0.425813 0.124780 0.690984
Si Si5 0.594515 0.938134 0.978718
Si Si6 0.309213 0.277989 0.816862
Si Si7 0.723691 0.823464 0.354218
O O1 0.431855 0.266530 0.304717
O O2 0.370201 0.214772 0.148616
O O3 0.325902 0.318087 0.221336
O O4 0.500000 0.287243 0.000000
O O5 0.039767 0.317180 0.270577
O O6 0.099098 0.217845 0.193809
O O7 0.000000 0.244985 0.500000
O O8 0.730214 0.668620 0.220565
O O9 0.790420 0.668587 0.452762
O O10 0.855086 0.605539 0.171759
O O11 0.500000 0.108142 0.500000
O O12 0.410950 0.084270 0.844379
O O13 0.337701 0.135971 0.682932
O O14 0.629663 0.000000 0.941263
O O15 0.500000 0.939451 0.000000
O O16 0.310252 0.234793 0.677004
O O17 0.250000 0.250000 0.000000
#
# Coordination Sequence:
#
# PCOD9169496 Si02
#       7
#     8   8   8   8   8   8   8
#     4  11  19  28  46  73 106 137 164 196 242 298
#     4  10  17  27  43  68 100 131 162 190 232 291
#     4  11  19  33  50  67 102 142 174 210 252 296
#     4  10  19  34  53  72 100 137 170 205 252 304
#     4  11  23  36  51  73  97 127 172 218 258 300
#     4  10  18  28  45  70  99 133 171 204 237 293
#     4  10  20  32  48  74 101 136 177 204 244 309
#
# _framework density 16.633208
#
# number of rings (size 3 to 8) (size 9 to 14) (size 15 to 20)
#    0.000    1.571    0.000   11.571    0.000    0.286 
#    0.000    0.714    0.000    0.000    0.000    0.000 
#    0.000   20.000    0.000    0.000    0.000    0.000 
#
# Total GULP energy -155973.945491 kJ/mol
# GULP energy per Si atom -5570.498053 kJ/mol
# Density = 1.659535 g / cm^3
# Si number density = 16.633208 Si / 1000 Ang^3
#
#
#
# Elastic Constant Matrix: (Units=GPa)
#
#
# Indices 1 2 3 4 5 6 
#
# 1 102.3824 24.9214 30.7866 0.0000 -4.3657 0.0000
# 2 24.9214 55.1519 41.3434 0.0000 -1.1385 0.0000
# 3 30.7866 41.3434 112.6973 0.0000 -3.7436 0.0000
# 4 0.0000 0.0000 0.0000 12.7224 0.0000 -2.3213
# 5 -4.3657 -1.1385 -3.7436 0.0000 30.9274 0.0000
# 6 0.0000 0.0000 0.0000 -2.3213 0.0000 16.4361
#
#
#
# Elastic Compliance Matrix: (Units=1/GPa)
#
#
# Indices 1 2 3 4 5 6 
#
# 1 0.011243 -0.003839 -0.001621 0.000000 0.001249 0.000000
# 2 -0.003839 0.026321 -0.008628 0.000000 -0.000617 0.000000
# 3 -0.001621 -0.008628 0.012514 0.000000 0.000968 0.000000
# 4 0.000000 0.000000 0.000000 0.080681 0.000000 0.011394
# 5 0.001249 -0.000617 0.000968 0.000000 0.032605 0.000000
# 6 0.000000 0.000000 0.000000 0.011394 0.000000 0.062451
#
#
# Mechanical properties :
#
#
# Convention : Reuss Voigt Hill
#
# Bulk Modulus (GPa) = 45.65977 51.59272 48.62625
# Shear Modulus (GPa) = 19.13579 23.56253 21.34916
#
# Velocity S-wave (km/s) = 3.39552 3.76785 3.58652
# Velocity P-wave (km/s) = 6.54853 7.07207 6.81533
#
# Compressibility (1/GPa) = 0.02190112
#
# Stress axis : x y z
#
# Youngs Moduli (GPa) = 88.94747 37.99194 79.91304
#
# Poissons Ratio (x) = 0.14585 0.12957
# Poissons Ratio (y) = 0.34146 0.68948
# Poissons Ratio (z) = 0.14422 0.32779
#
# Static dielectric constant tensor:
#      x y z
#    x 1.679900 0.000000 0.010340 
#    y 0.000000 1.531470 0.000000 
#    z 0.010340 0.000000 1.679540 
# 
# From -- ./inp_files/78705.got.cif
#   From: 2010.05.17/outbox.cif.g08.bks.cpg/sg12_40_cif.got.tgz:78705.got - 2010.06.03 13:09:07.
