data_PCOD9169639
_publ_section_title
;
Structure prediction by ZEFSAII (Michael W. Deem and Ramdas Pophale) SiO2 
 PCOD9169639
Probable space group: C 2/M
;
_chemical_formula_sum "Si O2"
_cell_formula_units_Z 40
_cell_length_a 23.598381
_cell_length_b 7.873249
_cell_length_c 19.412396
_cell_angle_alpha 90.000000
_cell_angle_beta 35.065635
_cell_angle_gamma 90.000000
_cell_volume 2072.126590
_symmetry_space_group_name_H-M "C 2/M"
_symmetry_group_IT_number 12
_symmetry_cell_setting 'monoclinic'
loop_
_space_group_symop_operation_xyz
x,y,z
-x,y,-z
-x,-y,-z
x,-y,z
1/2+x,1/2+y,z
1/2-x,1/2+y,-z
1/2-x,1/2-y,-z
1/2+x,1/2-y,z
loop_
_atom_site_type_symbol
_atom_site_label
_atom_site_fract_x
_atom_site_fract_y
_atom_site_fract_z
Si Si1 0.215107 0.500000 0.624829
Si Si2 0.677047 0.000000 0.824506
Si Si3 0.628986 0.500000 0.273563
Si Si4 0.085777 0.191707 0.996065
Si Si5 0.916773 0.190574 0.275235
Si Si6 0.219180 0.311172 0.105436
Si Si7 0.551310 0.500000 0.628044
O O1 0.188341 0.500000 0.732026
O O2 0.165394 0.333598 0.641449
O O3 0.332293 0.500000 0.501122
O O4 0.789026 0.000000 0.746418
O O5 0.615539 0.164249 0.911943
O O6 0.655005 0.669000 0.205546
O O7 0.509698 0.500000 0.382553
O O8 0.180456 0.183249 0.951125
O O9 0.073048 0.000000 0.980826
O O10 0.995030 0.233259 0.137292
O O11 0.877047 0.000000 0.298408
O O12 0.967179 0.157840 0.300010
O O13 0.175348 0.500000 0.147074
O O14 0.250000 0.250000 0.000000
#
# Coordination Sequence:
#
# PCOD9169639 Si02
#       7
#     4   4   4   8   8   8   4
#     4  12  23  41  58  83 115 154 196 238 272 336
#     4  10  23  35  60  87 117 154 184 222 288 348
#     4  10  20  38  51  82 115 146 191 228 274 347
#     4   9  18  35  53  83 120 145 182 231 281 351
#     4   9  21  37  61  86 110 147 189 239 293 322
#     4  10  17  27  50  80 116 149 177 224 290 338
#     4  10  22  42  61  81 115 148 197 243 284 323
#
# _framework density 19.303840999999998
#
# number of rings (size 3 to 8) (size 9 to 14) (size 15 to 20)
#    0.600    1.600    1.000    2.400    0.000    2.800 
#    5.400    2.000    0.000    0.000    0.000    7.000 
#    0.000    0.000    0.000    0.000    0.000    0.000 
#
# Total GULP energy -111380.693396 kJ/mol
# GULP energy per Si atom -5569.034670 kJ/mol
# Density = 1.925990 g / cm^3
# Si number density = 19.303841 Si / 1000 Ang^3
#
#
#
# Elastic Constant Matrix: (Units=GPa)
#
#
# Indices 1 2 3 4 5 6 
#
# 1 73.7125 16.3109 11.9583 -0.0002 -11.0538 0.0004
# 2 16.3109 96.4314 23.9787 0.0001 -6.3444 -0.0015
# 3 11.9583 23.9787 64.9552 0.0001 -13.8762 -0.0009
# 4 -0.0002 0.0001 0.0001 24.5358 -0.0001 -41.1554
# 5 -11.0538 -6.3444 -13.8762 -0.0001 36.8601 0.0002
# 6 0.0004 -0.0015 -0.0009 -41.1554 0.0002 152.8462
#
#
#
# Elastic Compliance Matrix: (Units=1/GPa)
#
#
# Indices 1 2 3 4 5 6 
#
# 1 0.014739 -0.001952 -0.001219 0.000000 0.003625 0.000000
# 2 -0.001952 0.011682 -0.003968 0.000000 -0.000068 0.000000
# 3 -0.001219 -0.003968 0.018335 0.000000 0.005854 0.000000
# 4 0.000000 0.000000 0.000000 0.074325 0.000000 0.020013
# 5 0.003625 -0.000068 0.005854 0.000000 0.030409 0.000000
# 6 0.000000 0.000000 0.000000 0.020013 0.000000 0.011931
#
#
# Mechanical properties :
#
#
# Convention : Reuss Voigt Hill
#
# Bulk Modulus (GPa) = 32.80786 37.73279 35.27032
# Shear Modulus (GPa) = 26.90219 55.03851 40.97035
#
# Velocity S-wave (km/s) = 3.73717 5.34543 4.61194
# Velocity P-wave (km/s) = 5.97112 7.59522 6.83160
#
# Compressibility (1/GPa) = 0.03048050
#
# Stress axis : x y z
#
# Youngs Moduli (GPa) = 67.84530 85.59925 54.54076
#
# Poissons Ratio (x) = 0.16705 0.06646
# Poissons Ratio (y) = 0.13240 0.21641
# Poissons Ratio (z) = 0.08268 0.33965
#
# Static dielectric constant tensor:
#      x y z
#    x 1.691730 0.000000 -0.043420 
#    y 0.000000 1.705070 0.000000 
#    z -0.043420 0.000000 1.641920 
# 
# From -- ./inp_files/171905.got.cif
#   From: 2010.05.17/outbox.cif.g08.bks.cpg/sg12_86_cif.got.tgz:171905.got - 2010.06.03 13:09:07.
