data_PCOD9169026
_publ_section_title
;
Structure prediction by ZEFSAII (Michael W. Deem and Ramdas Pophale) SiO2 
 PCOD9169026
Probable space group: C 2/M
;
_chemical_formula_sum "Si O2"
_cell_formula_units_Z 48
_cell_length_a 26.360832
_cell_length_b 15.356242
_cell_length_c 9.198347
_cell_angle_alpha 90.000000
_cell_angle_beta 147.432914
_cell_angle_gamma 90.000000
_cell_volume 2004.322187
_symmetry_space_group_name_H-M "C 2/M"
_symmetry_group_IT_number 12
_symmetry_cell_setting 'monoclinic'
loop_
_space_group_symop_operation_xyz
x,y,z
-x,y,-z
-x,-y,-z
x,-y,z
1/2+x,1/2+y,z
1/2-x,1/2+y,-z
1/2-x,1/2-y,-z
1/2+x,1/2-y,z
loop_
_atom_site_type_symbol
_atom_site_label
_atom_site_fract_x
_atom_site_fract_y
_atom_site_fract_z
Si Si1 0.151929 0.900572 0.538825
Si Si2 0.225591 0.596928 0.652074
Si Si3 0.353871 0.768575 0.312863
Si Si4 0.153252 0.806455 0.241829
Si Si5 0.575292 0.125841 0.062008
Si Si6 0.621799 0.094398 0.856033
O O1 0.110863 0.824289 0.543074
O O2 0.134989 0.869200 0.333043
O O3 0.120633 0.000000 0.488270
O O4 0.265905 0.898628 0.836984
O O5 0.232791 0.500000 0.731746
O O6 0.164627 0.663887 0.599720
O O7 0.325605 0.640325 0.853774
O O8 0.172273 0.592745 0.368491
O O9 0.402129 0.824851 0.304257
O O10 0.250000 0.750000 0.000000
O O11 0.250000 0.750000 0.500000
O O12 0.076933 0.730535 0.051793
O O13 0.500000 0.098910 0.000000
O O14 0.569548 0.094827 0.884036
O O15 0.607699 0.000000 0.750350
#
# Coordination Sequence:
#
# PCOD9169026 Si02
#       6
#     8   8   8   8   8   8
#     4  10  17  30  55  82 107 138 183 236 284 326
#     4  11  20  34  60  87 113 146 189 236 281 338
#     4  10  19  33  51  82 118 143 182 232 289 341
#     4  10  16  32  54  81 107 142 189 230 275 322
#     4  11  22  36  56  82 117 157 189 227 279 342
#     4  10  19  32  51  80 116 146 174 223 284 339
#
# _framework density 23.948245
#
# number of rings (size 3 to 8) (size 9 to 14) (size 15 to 20)
#    0.000    1.667    6.667    2.500    0.000    2.000 
#    0.000    0.833    0.000    4.000    0.000    1.167 
#    0.000    0.000    0.000    0.000    0.000    0.000 
#
# Total GULP energy -134078.528095 kJ/mol
# GULP energy per Si atom -5586.605337 kJ/mol
# Density = 2.389374 g / cm^3
# Si number density = 23.948245 Si / 1000 Ang^3
#
#
#
# Elastic Constant Matrix: (Units=GPa)
#
#
# Indices 1 2 3 4 5 6 
#
# 1 129.5155 76.1591 7.3488 0.0000 -24.6125 0.0000
# 2 76.1591 241.2923 16.6174 0.0000 -22.9307 0.0000
# 3 7.3488 16.6174 29.7473 0.0000 -6.2077 0.0000
# 4 0.0000 0.0000 0.0000 12.3931 0.0000 -15.4103
# 5 -24.6125 -22.9307 -6.2077 0.0000 29.1134 0.0000
# 6 0.0000 0.0000 0.0000 -15.4103 0.0000 8.0845
#
#
#
# Elastic Compliance Matrix: (Units=1/GPa)
#
#
# Indices 1 2 3 4 5 6 
#
# 1 0.010611 -0.002716 0.000337 0.000000 0.006903 0.000000
# 2 -0.002716 0.005274 -0.001975 0.000000 0.001437 0.000000
# 3 0.000337 -0.001975 0.035972 0.000000 0.006399 0.000000
# 4 0.000000 0.000000 0.000000 -0.058888 0.000000 -0.112249
# 5 0.006903 0.001437 0.006399 0.000000 0.042680 0.000000
# 6 0.000000 0.000000 0.000000 -0.112249 0.000000 -0.090271
#
#
# Mechanical properties :
#
#
# Convention : Reuss Voigt Hill
#
# Bulk Modulus (GPa) = 23.17660 66.75619 44.96639
# Shear Modulus (GPa) = -158.58453 29.94685 -64.31884
#
# Velocity S-wave (km/s) = -8.14638 3.54005 -5.18804
# Velocity P-wave (km/s) = 8.87614 6.68169 4.13163
#
# Compressibility (1/GPa) = 0.04314697
#
# Stress axis : x y z
#
# Youngs Moduli (GPa) = 94.24117 189.59918 27.79923
#
# Poissons Ratio (x) = 0.51502 -0.00936
# Poissons Ratio (y) = 0.25599 0.05492
# Poissons Ratio (z) = -0.03172 0.37455
#
# Static dielectric constant tensor:
#      x y z
#    x 1.918230 0.000000 0.024880 
#    y 0.000000 1.969110 0.000000 
#    z 0.024880 0.000000 2.001860 
# 
# From -- ./inp_files/85179.got.cif
#   From: 2010.05.17/outbox.cif.g08.bks.cpg/sg12_43_cif.got.tgz:85179.got - 2010.06.03 13:09:07.
