data_PCOD9169883
_publ_section_title
;
Structure prediction by ZEFSAII (Michael W. Deem and Ramdas Pophale) SiO2 
 PCOD9169883
Probable space group: C 2/M
;
_chemical_formula_sum "Si O2"
_cell_formula_units_Z 40
_cell_length_a 9.181992
_cell_length_b 19.881686
_cell_length_c 14.222098
_cell_angle_alpha 90.000000
_cell_angle_beta 124.065064
_cell_angle_gamma 90.000000
_cell_volume 2150.774811
_symmetry_space_group_name_H-M "C 2/M"
_symmetry_group_IT_number 12
_symmetry_cell_setting 'monoclinic'
loop_
_space_group_symop_operation_xyz
x,y,z
-x,y,-z
-x,-y,-z
x,-y,z
1/2+x,1/2+y,z
1/2-x,1/2+y,-z
1/2-x,1/2-y,-z
1/2+x,1/2-y,z
loop_
_atom_site_type_symbol
_atom_site_label
_atom_site_fract_x
_atom_site_fract_y
_atom_site_fract_z
Si Si1 0.697180 0.634026 0.261318
Si Si2 0.353493 0.000000 0.784340
Si Si3 0.000000 0.385121 0.500000
Si Si4 0.189732 0.423609 0.898653
Si Si5 0.109596 0.808856 0.944454
Si Si6 0.303458 0.000000 0.544418
Si Si7 0.031867 0.000000 0.290858
O O1 0.850259 0.654168 0.388950
O O2 0.779737 0.613776 0.189766
O O3 0.538481 0.686544 0.189272
O O4 0.611527 0.565498 0.269900
O O5 0.484858 0.063251 0.847136
O O6 0.305575 0.000000 0.656762
O O7 0.177807 0.000000 0.780593
O O8 0.092171 0.435300 0.458268
O O9 0.262381 0.500000 0.917416
O O10 0.288320 0.379754 0.011635
O O11 0.250000 0.750000 0.000000
O O12 0.000000 0.802987 0.000000
O O13 0.114638 0.000000 0.425892
#
# Coordination Sequence:
#
# PCOD9169883 Si02
#       7
#     8   4   4   8   8   4   4
#     4  10  18  32  54  78 108 134 181 211 253 324
#     4  10  17  29  44  80 111 139 167 217 258 310
#     4   9  14  28  52  78  98 142 171 218 244 304
#     4   9  18  34  55  76 103 139 177 218 256 314
#     4  10  23  38  57  76 102 144 175 224 267 314
#     4   9  15  26  43  75 119 137 169 202 259 321
#     4  10  19  25  47  82 113 142 160 218 273 296
#
# _framework density 18.597949
#
# number of rings (size 3 to 8) (size 9 to 14) (size 15 to 20)
#    0.600    1.800    3.000    0.900    1.400    2.800 
#    0.000    1.000    0.000    4.800    5.200    0.000 
#    0.000    0.000    0.000    0.000    0.000    0.000 
#
# Total GULP energy -111402.364698 kJ/mol
# GULP energy per Si atom -5570.118235 kJ/mol
# Density = 1.855562 g / cm^3
# Si number density = 18.597949 Si / 1000 Ang^3
#
#
#
# Elastic Constant Matrix: (Units=GPa)
#
#
# Indices 1 2 3 4 5 6 
#
# 1 65.7013 -0.6001 23.1793 0.0000 31.6655 0.0000
# 2 -0.6001 37.9024 34.9054 0.0000 17.5491 0.0000
# 3 23.1793 34.9054 142.7432 0.0000 36.1777 0.0000
# 4 0.0000 0.0000 0.0000 21.1756 0.0000 17.4098
# 5 31.6655 17.5491 36.1777 0.0000 30.4946 0.0000
# 6 0.0000 0.0000 0.0000 17.4098 0.0000 19.1942
#
#
#
# Elastic Compliance Matrix: (Units=1/GPa)
#
#
# Indices 1 2 3 4 5 6 
#
# 1 0.050447 0.032815 0.002640 0.000000 -0.074401 0.000000
# 2 0.032815 0.060082 -0.003748 0.000000 -0.064204 0.000000
# 3 0.002640 -0.003748 0.010927 0.000000 -0.013548 0.000000
# 4 0.000000 0.000000 0.000000 0.185726 0.000000 -0.168460
# 5 -0.074401 -0.064204 -0.013548 0.000000 0.163072 0.000000
# 6 0.000000 0.000000 0.000000 -0.168460 0.000000 0.204899
#
#
# Mechanical properties :
#
#
# Convention : Reuss Voigt Hill
#
# Bulk Modulus (GPa) = 5.40918 40.14624 22.77771
# Shear Modulus (GPa) = 7.42542 26.76371 17.09456
#
# Velocity S-wave (km/s) = 2.00032 3.79762 3.03506
# Velocity P-wave (km/s) = 2.87225 6.39238 4.95542
#
# Compressibility (1/GPa) = 0.18487102
#
# Stress axis : x y z
#
# Youngs Moduli (GPa) = 19.82276 16.64385 91.51477
#
# Poissons Ratio (x) = -0.54617 -0.24164
# Poissons Ratio (y) = -0.65049 0.34304
# Poissons Ratio (z) = -0.05234 0.06239
#
# Static dielectric constant tensor:
#      x y z
#    x 1.642470 0.000000 0.034390 
#    y 0.000000 1.668590 0.000000 
#    z 0.034390 0.000000 1.710200 
# 
# From -- ./inp_files/197361.got.cif
#   From: 2010.05.17/outbox.cif.g08.bks.cpg/sg12_99_cif.got.tgz:197361.got - 2010.06.03 13:09:07.
