data_PCOD9169256
_publ_section_title
;
Structure prediction by ZEFSAII (Michael W. Deem and Ramdas Pophale) SiO2 
 PCOD9169256
Probable space group: C 2/M
;
_chemical_formula_sum "Si O2"
_cell_formula_units_Z 40
_cell_length_a 28.940386
_cell_length_b 7.386264
_cell_length_c 12.122421
_cell_angle_alpha 90.000000
_cell_angle_beta 138.624161
_cell_angle_gamma 90.000000
_cell_volume 1712.840827
_symmetry_space_group_name_H-M "C 2/M"
_symmetry_group_IT_number 12
_symmetry_cell_setting 'monoclinic'
loop_
_space_group_symop_operation_xyz
x,y,z
-x,y,-z
-x,-y,-z
x,-y,z
1/2+x,1/2+y,z
1/2-x,1/2+y,-z
1/2-x,1/2-y,-z
1/2+x,1/2-y,z
loop_
_atom_site_type_symbol
_atom_site_label
_atom_site_fract_x
_atom_site_fract_y
_atom_site_fract_z
Si Si1 0.658167 0.717479 0.132139
Si Si2 0.303329 0.714380 0.322431
Si Si3 0.440031 0.712567 0.470232
Si Si4 0.141885 0.778643 0.344107
Si Si5 0.998244 0.212676 0.172586
O O1 0.655894 0.500000 0.128607
O O2 0.720773 0.763218 0.161642
O O3 0.674000 0.780644 0.285806
O O4 0.580161 0.786041 0.967491
O O5 0.316598 0.500000 0.350431
O O6 0.360809 0.785929 0.338922
O O7 0.322055 0.785651 0.478787
O O8 0.500000 0.792600 0.500000
O O9 0.433852 0.500000 0.426257
O O10 0.469964 0.723352 0.647856
O O11 0.060424 0.720024 0.205331
O O12 0.142927 0.000000 0.347061
O O13 0.991277 0.000000 0.132047
#
# Coordination Sequence:
#
# PCOD9169256 Si02
#       5
#     8   8   8   8   8
#     4  10  17  25  41  64  88 109 130 164 206 242
#     4   9  17  28  42  61  84 108 136 168 200 239
#     4   8  14  27  46  62  76 102 141 176 201 232
#     4   8  14  25  41  60  82 111 142 166 191 230
#     4   8  14  24  40  62  82 103 138 175 199 228
#
# _framework density 23.353016
#
# number of rings (size 3 to 8) (size 9 to 14) (size 15 to 20)
#    0.000    3.400    0.000    3.600    0.000    2.400 
#    0.000    1.000    0.000    7.800    0.000    0.000 
#    0.000    0.000    0.000    0.000    0.000    0.000 
#
# Total GULP energy -111474.979297 kJ/mol
# GULP energy per Si atom -5573.748965 kJ/mol
# Density = 2.329986 g / cm^3
# Si number density = 23.353016 Si / 1000 Ang^3
#
#
#
# Elastic Constant Matrix: (Units=GPa)
#
#
# Indices 1 2 3 4 5 6 
#
# 1 184.2041 5.9571 22.3852 0.0000 68.4131 0.0000
# 2 5.9571 78.4263 -4.2204 0.0000 -2.4087 0.0000
# 3 22.3852 -4.2204 31.4624 0.0000 43.6480 0.0000
# 4 0.0000 0.0000 0.0000 -70.5300 0.0000 29.3782
# 5 68.4131 -2.4087 43.6480 0.0000 36.6516 0.0000
# 6 0.0000 0.0000 0.0000 29.3782 0.0000 2.6529
#
#
#
# Elastic Compliance Matrix: (Units=1/GPa)
#
#
# Indices 1 2 3 4 5 6 
#
# 1 0.004463 -0.000817 -0.012800 0.000000 0.006859 0.000000
# 2 -0.000817 0.012912 0.001503 0.000000 0.000584 0.000000
# 3 -0.012800 0.001503 -0.011975 0.000000 0.038252 0.000000
# 4 0.000000 0.000000 0.000000 -0.002526 0.000000 0.027974
# 5 0.006859 0.000584 0.038252 0.000000 -0.031034 0.000000
# 6 0.000000 0.000000 0.000000 0.027974 0.000000 0.067160
#
#
# Mechanical properties :
#
#
# Convention : Reuss Voigt Hill
#
# Bulk Modulus (GPa) = -53.10816 38.03740 -7.53538
# Shear Modulus (GPa) = 87.79254 11.75295 49.77274
#
# Velocity S-wave (km/s) = 6.13802 2.24581 4.62163
# Velocity P-wave (km/s) = 5.23859 4.80086 5.02450
#
# Compressibility (1/GPa) = -0.01882950
#
# Stress axis : x y z
#
# Youngs Moduli (GPa) = 224.04055 77.44910 -83.50650
#
# Poissons Ratio (x) = 0.06329 -1.06890
# Poissons Ratio (y) = 0.18309 0.12548
# Poissons Ratio (z) = 2.86777 -0.11638
#
# Static dielectric constant tensor:
#      x y z
#    x 1.914500 0.000000 0.056810 
#    y 0.000000 1.939600 0.000000 
#    z 0.056810 0.000000 1.901020 
# 
# From -- ./inp_files/140402.got.cif
#   From: 2010.05.17/outbox.cif.g08.bks.cpg/sg12_71_cif.got.tgz:140402.got - 2010.06.03 13:09:07.
