data_PCOD9169830
_publ_section_title
;
Structure prediction by ZEFSAII (Michael W. Deem and Ramdas Pophale) SiO2 
 PCOD9169830
Probable space group: C 2/M
;
_chemical_formula_sum "Si O2"
_cell_formula_units_Z 64
_cell_length_a 26.429729
_cell_length_b 15.744157
_cell_length_c 9.177721
_cell_angle_alpha 90.000000
_cell_angle_beta 67.540667
_cell_angle_gamma 90.000000
_cell_volume 3529.310534
_symmetry_space_group_name_H-M "C 2/M"
_symmetry_group_IT_number 12
_symmetry_cell_setting 'monoclinic'
loop_
_space_group_symop_operation_xyz
x,y,z
-x,y,-z
-x,-y,-z
x,-y,z
1/2+x,1/2+y,z
1/2-x,1/2+y,-z
1/2-x,1/2-y,-z
1/2+x,1/2-y,z
loop_
_atom_site_type_symbol
_atom_site_label
_atom_site_fract_x
_atom_site_fract_y
_atom_site_fract_z
Si Si1 0.368145 0.598584 0.594707
Si Si2 0.593408 0.260881 0.861121
Si Si3 0.455296 0.906392 0.204301
Si Si4 0.578486 0.677066 0.195835
Si Si5 0.634601 0.906311 0.436558
Si Si6 0.034951 0.095726 0.739954
Si Si7 0.544071 0.139615 0.325889
Si Si8 0.812174 0.245850 0.481733
O O1 0.351723 0.500000 0.611129
O O2 0.378386 0.633604 0.744857
O O3 0.426627 0.604713 0.445211
O O4 0.327430 0.660545 0.553211
O O5 0.561350 0.172161 0.878067
O O6 0.556303 0.333481 0.827369
O O7 0.647965 0.253434 0.703423
O O8 0.602069 0.288680 0.017345
O O9 0.411738 0.903008 0.385787
O O10 0.514628 0.894571 0.213827
O O11 0.450139 0.000000 0.144213
O O12 0.528105 0.613556 0.223958
O O13 0.552534 0.759822 0.301308
O O14 0.601506 0.896052 0.321458
O O15 0.672624 0.826683 0.433272
O O16 0.660540 0.000000 0.413637
O O17 0.042670 0.000000 0.787224
O O18 0.500000 0.121179 0.500000
O O19 0.750000 0.250000 0.500000
#
# Coordination Sequence:
#
# PCOD9169830 Si02
#       8
#     8   8   8   8   8   8   8   8
#     4  10  21  37  58  84 110 144 189 226 265 326
#     4  10  22  35  51  81 113 142 185 222 269 324
#     4   9  17  31  50  74 109 148 178 211 257 314
#     4  12  20  31  52  80 116 150 172 213 266 322
#     4   9  17  31  54  80 102 132 179 223 265 316
#     4  10  20  34  54  80 115 154 187 215 254 319
#     4  10  17  28  50  77 107 143 178 212 253 313
#     4  10  21  40  61  80 100 137 182 238 281 319
#
# _framework density 18.133852000000001
#
# number of rings (size 3 to 8) (size 9 to 14) (size 15 to 20)
#    0.000    2.000    2.500    2.250    0.000    4.500 
#    0.000    2.500    0.000    0.000    0.000    0.000 
#    0.000    0.000    0.000    0.000    0.000    0.000 
#
# Total GULP energy -178570.153599 kJ/mol
# GULP energy per Si atom -5580.317300 kJ/mol
# Density = 1.809258 g / cm^3
# Si number density = 18.133852 Si / 1000 Ang^3
#
#
#
# Elastic Constant Matrix: (Units=GPa)
#
#
# Indices 1 2 3 4 5 6 
#
# 1 116.5127 62.0554 41.7060 0.0000 14.4353 0.0000
# 2 62.0554 167.4996 42.9682 0.0000 19.1450 0.0000
# 3 41.7060 42.9682 78.5960 0.0000 19.7483 0.0000
# 4 0.0000 0.0000 0.0000 1.7825 0.0000 -7.1558
# 5 14.4353 19.1450 19.7483 0.0000 14.3527 0.0000
# 6 0.0000 0.0000 0.0000 -7.1558 0.0000 4.5785
#
#
#
# Elastic Compliance Matrix: (Units=1/GPa)
#
#
# Indices 1 2 3 4 5 6 
#
# 1 0.011995 -0.003139 -0.004081 0.000000 -0.002263 0.000000
# 2 -0.003139 0.008143 -0.001299 0.000000 -0.005917 0.000000
# 3 -0.004081 -0.001299 0.021600 0.000000 -0.023882 0.000000
# 4 0.000000 0.000000 0.000000 -0.106366 0.000000 -0.166242
# 5 -0.002263 -0.005917 -0.023882 0.000000 0.112702 0.000000
# 6 0.000000 0.000000 0.000000 -0.166242 0.000000 -0.041410
#
#
# Mechanical properties :
#
#
# Convention : Reuss Voigt Hill
#
# Bulk Modulus (GPa) = 40.48525 72.89639 56.69082
# Shear Modulus (GPa) = 156.57305 18.53465 87.55385
#
# Velocity S-wave (km/s) = 9.30217 3.20050 6.95606
# Velocity P-wave (km/s) = 11.73661 7.34465 9.79010
#
# Compressibility (1/GPa) = 0.02470035
#
# Stress axis : x y z
#
# Youngs Moduli (GPa) = 83.36462 122.81137 46.29672
#
# Poissons Ratio (x) = 0.38546 0.18893
# Poissons Ratio (y) = 0.26165 0.06016
# Poissons Ratio (z) = 0.34019 0.15958
#
# Static dielectric constant tensor:
#      x y z
#    x 1.589640 0.000000 0.004560 
#    y 0.000000 1.639220 0.000000 
#    z 0.004560 0.000000 1.661240 
# 
# From -- ./inp_files/104599.got.cif
#   From: 2010.05.17/outbox.cif.g08.bks.cpg/sg12_53_cif.got.tgz:104599.got - 2010.06.03 13:09:07.
