data_PCOD9169120
_publ_section_title
;
Structure prediction by ZEFSAII (Michael W. Deem and Ramdas Pophale) SiO2 
 PCOD9169120
Probable space group: C 2/M
;
_chemical_formula_sum "Si O2"
_cell_formula_units_Z 64
_cell_length_a 16.765699
_cell_length_b 29.685313
_cell_length_c 9.205322
_cell_angle_alpha 90.000000
_cell_angle_beta 42.595873
_cell_angle_gamma 90.000000
_cell_volume 3100.825712
_symmetry_space_group_name_H-M "C 2/M"
_symmetry_group_IT_number 12
_symmetry_cell_setting 'monoclinic'
loop_
_space_group_symop_operation_xyz
x,y,z
-x,y,-z
-x,-y,-z
x,-y,z
1/2+x,1/2+y,z
1/2-x,1/2+y,-z
1/2-x,1/2-y,-z
1/2+x,1/2-y,z
loop_
_atom_site_type_symbol
_atom_site_label
_atom_site_fract_x
_atom_site_fract_y
_atom_site_fract_z
Si Si1 0.936990 0.341208 0.710395
Si Si2 0.095479 0.362380 0.747018
Si Si3 0.881638 0.100148 0.735993
Si Si4 0.234708 0.271259 0.178459
Si Si5 0.676015 0.319739 0.417429
Si Si6 0.107948 0.549573 0.547841
Si Si7 0.048046 0.838882 0.093146
Si Si8 0.336170 0.068687 0.857719
O O1 0.878067 0.302370 0.697910
O O2 0.842330 0.377483 0.885776
O O3 0.000000 0.369860 0.500000
O O4 0.023688 0.332259 0.725732
O O5 0.209649 0.337853 0.652594
O O6 0.134742 0.407993 0.613611
O O7 0.000000 0.372422 0.000000
O O8 0.850983 0.143881 0.673983
O O9 0.909254 0.120780 0.859319
O O10 0.000000 0.082232 0.500000
O O11 0.783252 0.061142 0.892386
O O12 0.208463 0.229697 0.317002
O O13 0.250000 0.250000 0.000000
O O14 0.345619 0.302838 0.067975
O O15 0.561291 0.317266 0.672583
O O16 0.143526 0.500000 0.552754
O O17 0.166129 0.556922 0.310241
O O18 0.963731 0.550044 0.734290
O O19 0.000000 0.853016 0.000000
#
# Coordination Sequence:
#
# PCOD9169120 Si02
#       8
#     8   8   8   8   8   8   8   8
#     4  11  22  36  64  88 120 172 215 262 322 379
#     4  11  23  42  65  95 131 166 216 262 334 397
#     4  10  21  41  63  87 125 177 228 260 318 372
#     4  12  24  40  61  83 125 171 225 271 326 363
#     4  11  25  44  60  88 130 175 221 279 319 380
#     4  10  21  36  66 105 134 160 198 264 335 402
#     4  11  26  40  60  88 119 165 233 274 318 372
#     4  10  16  36  63  93 131 163 209 253 312 394
#
# _framework density 20.639662999999999
#
# number of rings (size 3 to 8) (size 9 to 14) (size 15 to 20)
#    0.000    1.250    5.000    3.000    5.250    2.250 
#    0.000    0.000    0.000    1.500    0.000    8.750 
#    0.000    0.000    0.000    0.000    0.000    0.000 
#
# Total GULP energy -178412.167678 kJ/mol
# GULP energy per Si atom -5575.380240 kJ/mol
# Density = 2.059269 g / cm^3
# Si number density = 20.639663 Si / 1000 Ang^3
#
#
#
# Elastic Constant Matrix: (Units=GPa)
#
#
# Indices 1 2 3 4 5 6 
#
# 1 122.0177 37.3413 26.4804 0.0000 2.6910 0.0000
# 2 37.3413 85.2900 20.9260 0.0000 -6.0108 0.0000
# 3 26.4804 20.9260 106.0182 0.0000 -11.9870 0.0000
# 4 0.0000 0.0000 0.0000 9.7306 0.0000 -4.8187
# 5 2.6910 -6.0108 -11.9870 0.0000 33.0198 0.0000
# 6 0.0000 0.0000 0.0000 -4.8187 0.0000 -14.1497
#
#
#
# Elastic Compliance Matrix: (Units=1/GPa)
#
#
# Indices 1 2 3 4 5 6 
#
# 1 0.009893 -0.004015 -0.001932 0.000000 -0.002238 0.000000
# 2 -0.004015 0.014015 -0.001500 0.000000 0.002334 0.000000
# 3 -0.001932 -0.001500 0.010634 0.000000 0.003745 0.000000
# 4 0.000000 0.000000 0.000000 0.087938 0.000000 -0.029948
# 5 -0.002238 0.002334 0.003745 0.000000 0.032252 0.000000
# 6 0.000000 0.000000 0.000000 -0.029948 0.000000 -0.060474
#
#
# Mechanical properties :
#
#
# Convention : Reuss Voigt Hill
#
# Bulk Modulus (GPa) = 50.89135 53.64682 52.26909
# Shear Modulus (GPa) = 43.21530 20.95868 32.08699
#
# Velocity S-wave (km/s) = 4.58077 3.19008 3.94715
# Velocity P-wave (km/s) = 7.25869 6.29423 6.79359
#
# Compressibility (1/GPa) = 0.01964970
#
# Stress axis : x y z
#
# Youngs Moduli (GPa) = 101.08349 71.35223 94.03639
#
# Poissons Ratio (x) = 0.28648 0.18163
# Poissons Ratio (y) = 0.40586 0.14101
# Poissons Ratio (z) = 0.19525 0.10700
#
# Static dielectric constant tensor:
#      x y z
#    x 1.744190 0.000000 -0.013530 
#    y 0.000000 1.403920 0.000000 
#    z -0.013530 0.000000 1.815950 
# 
# From -- ./inp_files/68594.got.cif
#   From: 2010.05.17/outbox.cif.g08.bks.cpg/sg12_35_cif.got.tgz:68594.got - 2010.06.03 13:09:07.
