data_PCOD9169487
_publ_section_title
;
Structure prediction by ZEFSAII (Michael W. Deem and Ramdas Pophale) SiO2 
 PCOD9169487
Probable space group: C 2/M
;
_chemical_formula_sum "Si O2"
_cell_formula_units_Z 56
_cell_length_a 11.555584
_cell_length_b 29.899993
_cell_length_c 8.047370
_cell_angle_alpha 90.000000
_cell_angle_beta 97.774120
_cell_angle_gamma 90.000000
_cell_volume 2754.906832
_symmetry_space_group_name_H-M "C 2/M"
_symmetry_group_IT_number 12
_symmetry_cell_setting 'monoclinic'
loop_
_space_group_symop_operation_xyz
x,y,z
-x,y,-z
-x,-y,-z
x,-y,z
1/2+x,1/2+y,z
1/2-x,1/2+y,-z
1/2-x,1/2-y,-z
1/2+x,1/2-y,z
loop_
_atom_site_type_symbol
_atom_site_label
_atom_site_fract_x
_atom_site_fract_y
_atom_site_fract_z
Si Si1 0.275119 0.642772 0.541051
Si Si2 0.189115 0.449900 0.454252
Si Si3 0.069168 0.692587 0.342778
Si Si4 0.685714 0.297210 0.957186
Si Si5 0.544410 0.703835 0.269076
Si Si6 0.367174 0.142085 0.133319
Si Si7 0.548853 0.950165 0.778110
O O1 0.277114 0.591552 0.480045
O O2 0.193269 0.669993 0.398180
O O3 0.395705 0.668191 0.598101
O O4 0.205544 0.643087 0.705691
O O5 0.237593 0.500000 0.439808
O O6 0.120075 0.449859 0.617269
O O7 0.085836 0.442473 0.300041
O O8 0.078228 0.745589 0.322926
O O9 0.000000 0.684311 0.500000
O O10 0.984843 0.670466 0.189506
O O11 0.606561 0.304356 0.104596
O O12 0.785130 0.334726 0.982434
O O13 0.750000 0.250000 0.000000
O O14 0.594570 0.297276 0.788252
O O15 0.400965 0.090897 0.108752
O O16 0.563029 0.000000 0.850670
#
# Coordination Sequence:
#
# PCOD9169487 Si02
#       7
#     8   8   8   8   8   8   8
#     4   9  16  25  38  60  86 109 135 169 214 257
#     4   8  12  19  34  56  82 108 131 162 207 256
#     4  10  17  27  43  63  88 115 135 169 216 253
#     4  10  19  32  45  57  81 117 152 180 199 240
#     4  10  20  30  43  61  83 118 149 171 207 248
#     4   9  15  25  41  58  82 113 139 168 210 249
#     4   8  12  19  34  57  81 105 134 166 206 254
#
# _framework density 20.327366999999999
#
# number of rings (size 3 to 8) (size 9 to 14) (size 15 to 20)
#    0.000    2.857    2.857    1.286    0.000    0.000 
#    0.000    0.000    0.000    0.857    0.000    6.000 
#    0.000    4.000    0.000    0.000    0.000    0.000 
#
# Total GULP energy -156289.017459 kJ/mol
# GULP energy per Si atom -5581.750624 kJ/mol
# Density = 2.028110 g / cm^3
# Si number density = 20.327367 Si / 1000 Ang^3
#
#
#
# Elastic Constant Matrix: (Units=GPa)
#
#
# Indices 1 2 3 4 5 6 
#
# 1 79.4187 52.8100 43.9845 0.0000 22.1860 0.0000
# 2 52.8100 205.4970 60.3420 0.0000 60.3255 0.0000
# 3 43.9845 60.3420 80.1474 0.0000 25.5584 0.0000
# 4 0.0000 0.0000 0.0000 9.4110 0.0000 10.5367
# 5 22.1860 60.3255 25.5584 0.0000 42.6298 0.0000
# 6 0.0000 0.0000 0.0000 10.5367 0.0000 24.4395
#
#
#
# Elastic Compliance Matrix: (Units=1/GPa)
#
#
# Indices 1 2 3 4 5 6 
#
# 1 0.019064 -0.001711 -0.008386 0.000000 -0.002473 0.000000
# 2 -0.001711 0.009153 -0.002604 0.000000 -0.010501 0.000000
# 3 -0.008386 -0.002604 0.020366 0.000000 -0.004162 0.000000
# 4 0.000000 0.000000 0.000000 0.205414 0.000000 -0.088561
# 5 -0.002473 -0.010501 -0.004162 0.000000 0.042101 0.000000
# 6 0.000000 0.000000 0.000000 -0.088561 0.000000 0.079099
#
#
# Mechanical properties :
#
#
# Convention : Reuss Voigt Hill
#
# Bulk Modulus (GPa) = 43.13382 75.48178 59.30780
# Shear Modulus (GPa) = 12.24513 29.15782 20.70147
#
# Velocity S-wave (km/s) = 2.45704 3.79147 3.19471
# Velocity P-wave (km/s) = 5.41434 7.50871 6.54583
#
# Compressibility (1/GPa) = 0.02318367
#
# Stress axis : x y z
#
# Youngs Moduli (GPa) = 52.45416 109.25113 49.10036
#
# Poissons Ratio (x) = 0.18692 0.41174
# Poissons Ratio (y) = 0.08975 0.12784
# Poissons Ratio (z) = 0.43986 0.28444
#
# Static dielectric constant tensor:
#      x y z
#    x 1.776730 0.000000 -0.071320 
#    y 0.000000 1.716610 0.000000 
#    z -0.071320 0.000000 1.789540 
# 
# From -- ./inp_files/67913.got.cif
#   From: 2010.05.17/outbox.cif.g08.bks.cpg/sg12_34_cif.got.tgz:67913.got - 2010.06.03 13:09:07.
