data_PCOD9169089
_publ_section_title
;
Structure prediction by ZEFSAII (Michael W. Deem and Ramdas Pophale) SiO2 
 PCOD9169089
Probable space group: C 2/M
;
_chemical_formula_sum "Si O2"
_cell_formula_units_Z 46
_cell_length_a 8.576209
_cell_length_b 23.298301
_cell_length_c 24.655905
_cell_angle_alpha 90.000000
_cell_angle_beta 149.798470
_cell_angle_gamma 90.000000
_cell_volume 2478.253271
_symmetry_space_group_name_H-M "C 2/M"
_symmetry_group_IT_number 12
_symmetry_cell_setting 'monoclinic'
loop_
_space_group_symop_operation_xyz
x,y,z
-x,y,-z
-x,-y,-z
x,-y,z
1/2+x,1/2+y,z
1/2-x,1/2+y,-z
1/2-x,1/2-y,-z
1/2+x,1/2-y,z
loop_
_atom_site_type_symbol
_atom_site_label
_atom_site_fract_x
_atom_site_fract_y
_atom_site_fract_z
Si Si1 0.559396 0.000000 0.621687
Si Si2 0.757073 0.500000 0.805275
Si Si3 0.182401 0.617431 0.497884
Si Si4 0.828407 0.590928 0.129584
Si Si5 0.296018 0.177033 0.702654
Si Si6 0.500000 0.000000 0.000000
Si Si7 0.630242 0.784213 0.392637
Si Si8 0.784613 0.000000 0.813244
O O1 0.383933 0.057174 0.550604
O O2 0.633045 0.000000 0.708107
O O3 0.888201 0.000000 0.688669
O O4 0.831409 0.500000 0.890541
O O5 0.919151 0.555739 0.828766
O O6 0.544659 0.626718 0.618289
O O7 0.094349 0.668223 0.428981
O O8 0.000000 0.621749 0.500000
O O9 0.805291 0.556070 0.179016
O O10 0.951997 0.654273 0.179578
O O11 0.500000 0.589447 0.000000
O O12 0.443791 0.191566 0.689012
O O13 0.087888 0.230635 0.659606
O O14 0.155326 0.000000 0.924531
O O15 0.000000 0.769335 0.500000
#
# Coordination Sequence:
#
# PCOD9169089 Si02
#       8
#     4   4   8   8   8   2   8   4
#     4  11  23  34  57  94 124 144 185 239 295 336
#     4  10  20  34  57  81 119 154 190 223 283 343
#     4  11  21  37  56  88 122 153 187 230 288 354
#     4  11  21  39  59  85 111 155 198 240 283 339
#     4  11  22  37  62  81 115 152 197 241 288 334
#     4  10  16  34  56  80 106 156 192 228 256 342
#     4  10  21  39  60  84 111 157 196 230 282 362
#     4  10  20  37  58  81 119 153 191 229 280 354
#
# _framework density 18.561461000000001
#
# number of rings (size 3 to 8) (size 9 to 14) (size 15 to 20)
#    0.000    1.391    1.739    6.522    0.000    1.391 
#    0.000    5.652    0.000    0.000    0.000    0.000 
#    0.000    0.000    0.000    0.000    0.000    0.000 
#
# Total GULP energy -128214.852681 kJ/mol
# GULP energy per Si atom -5574.558812 kJ/mol
# Density = 1.851921 g / cm^3
# Si number density = 18.561461 Si / 1000 Ang^3
#
#
#
# Elastic Constant Matrix: (Units=GPa)
#
#
# Indices 1 2 3 4 5 6 
#
# 1 90.1387 43.9407 28.6227 0.0030 -8.8144 -0.0001
# 2 43.9407 113.4733 56.6906 0.0012 -3.7975 0.0015
# 3 28.6227 56.6906 71.4138 0.0153 -6.3365 -0.0038
# 4 0.0030 0.0012 0.0153 11.8745 0.0029 2.7114
# 5 -8.8144 -3.7975 -6.3365 0.0029 21.6838 -0.0018
# 6 -0.0001 0.0015 -0.0038 2.7114 -0.0018 2.9666
#
#
#
# Elastic Compliance Matrix: (Units=1/GPa)
#
#
# Indices 1 2 3 4 5 6 
#
# 1 0.014288 -0.004509 -0.001747 -0.000003 0.004508 0.000006
# 2 -0.004509 0.016043 -0.011130 0.000025 -0.002276 -0.000047
# 3 -0.001747 -0.011130 0.023923 -0.000049 0.004331 0.000084
# 4 -0.000003 0.000025 -0.000049 0.106425 -0.000033 -0.097271
# 5 0.004508 -0.002276 0.004331 -0.000033 0.048817 0.000067
# 6 0.000006 -0.000047 0.000084 -0.097271 0.000067 0.425991
#
#
# Mechanical properties :
#
#
# Convention : Reuss Voigt Hill
#
# Bulk Modulus (GPa) = 51.33206 59.28154 55.30680
# Shear Modulus (GPa) = 7.38822 17.02310 12.20566
#
# Velocity S-wave (km/s) = 1.99726 3.03169 2.56712
# Velocity P-wave (km/s) = 5.74752 6.65298 6.21675
#
# Compressibility (1/GPa) = 0.01948100
#
# Stress axis : x y z
#
# Youngs Moduli (GPa) = 69.99074 62.33201 41.80054
#
# Poissons Ratio (x) = 0.28105 0.07303
# Poissons Ratio (y) = 0.31558 0.46525
# Poissons Ratio (z) = 0.12229 0.69377
#
# Static dielectric constant tensor:
#      x y z
#    x 1.669370 0.000000 0.004880 
#    y 0.000000 1.657310 0.000000 
#    z 0.004880 0.000000 1.621250 
# 
# From -- ./inp_files/334122.got.cif
#   From: 2010.05.17/outbox.cif.g08.bks.cpg/sg12_168_cif.got.tgz:334122.got - 2010.06.03 13:09:07.
