data_PCOD9169921
_publ_section_title
;
Structure prediction by ZEFSAII (Michael W. Deem and Ramdas Pophale) SiO2 
 PCOD9169921
Probable space group: C 2/M
;
_chemical_formula_sum "Si O2"
_cell_formula_units_Z 56
_cell_length_a 26.537845
_cell_length_b 8.023745
_cell_length_c 14.966717
_cell_angle_alpha 90.000000
_cell_angle_beta 133.424791
_cell_angle_gamma 90.000000
_cell_volume 2314.577862
_symmetry_space_group_name_H-M "C 2/M"
_symmetry_group_IT_number 12
_symmetry_cell_setting 'monoclinic'
loop_
_space_group_symop_operation_xyz
x,y,z
-x,y,-z
-x,-y,-z
x,-y,z
1/2+x,1/2+y,z
1/2-x,1/2+y,-z
1/2-x,1/2-y,-z
1/2+x,1/2-y,z
loop_
_atom_site_type_symbol
_atom_site_label
_atom_site_fract_x
_atom_site_fract_y
_atom_site_fract_z
Si Si1 0.001322 0.242847 0.747808
Si Si2 0.138465 0.699945 0.860810
Si Si3 0.703830 0.307618 0.618003
Si Si4 0.751231 0.201072 0.147311
Si Si5 0.850415 0.189483 0.638283
Si Si6 0.061903 0.314169 0.513115
Si Si7 0.042253 0.500000 0.940780
Si Si8 0.120800 0.500000 0.203855
O O1 0.071282 0.182208 0.784673
O O2 0.038320 0.340507 0.872985
O O3 0.931574 0.171346 0.707211
O O4 0.967942 0.333899 0.622774
O O5 0.121850 0.500000 0.841964
O O6 0.182294 0.731312 0.825091
O O7 0.187620 0.740416 0.004796
O O8 0.723140 0.500000 0.629060
O O9 0.752281 0.233622 0.754834
O O10 0.690617 0.245952 0.500721
O O11 0.629170 0.296366 0.576875
O O12 0.757064 0.000000 0.157862
O O13 0.849810 0.333131 0.713044
O O14 0.827981 0.000000 0.635012
O O15 0.080842 0.500000 0.569537
O O16 0.000000 0.249092 0.500000
O O17 0.962790 0.500000 0.880467
O O18 0.111514 0.500000 0.085501
#
# Coordination Sequence:
#
# PCOD9169921 Si02
#       8
#     8   8   8   8   8   8   4   4
#     4  10  17  29  47  69  99 129 162 203 245 293
#     4  10  18  30  48  67  92 130 172 205 243 286
#     4   9  18  30  43  62  91 124 161 202 238 289
#     4   9  19  32  44  64  97 131 169 210 244 282
#     4   9  19  33  51  75 102 130 162 203 251 304
#     4  10  18  26  41  65  91 122 158 196 238 281
#     4   9  16  30  47  72 100 128 157 206 244 302
#     4   9  18  32  52  74 102 132 156 200 255 307
#
# _framework density 24.194476999999999
#
# number of rings (size 3 to 8) (size 9 to 14) (size 15 to 20)
#    0.000    2.571    1.429    0.857    3.000    2.571 
#    0.000    8.571    0.000    0.000    0.000    1.000 
#    0.000    0.000    0.000    0.000    0.000    0.286 
#
# Total GULP energy -155900.105484 kJ/mol
# GULP energy per Si atom -5567.860910 kJ/mol
# Density = 2.413941 g / cm^3
# Si number density = 24.194477 Si / 1000 Ang^3
#
#
#
# Elastic Constant Matrix: (Units=GPa)
#
#
# Indices 1 2 3 4 5 6 
#
# 1 95.4144 24.3706 12.4774 0.0000 6.3944 0.0000
# 2 24.3706 80.3468 44.1280 0.0000 -4.4929 0.0000
# 3 12.4774 44.1280 192.7102 0.0000 -33.2798 0.0000
# 4 0.0000 0.0000 0.0000 12.4000 0.0000 0.4914
# 5 6.3944 -4.4929 -33.2798 0.0000 34.5181 0.0000
# 6 0.0000 0.0000 0.0000 0.4914 0.0000 22.5408
#
#
#
# Elastic Compliance Matrix: (Units=1/GPa)
#
#
# Indices 1 2 3 4 5 6 
#
# 1 0.011627 -0.003424 -0.000501 0.000000 -0.003083 0.000000
# 2 -0.003424 0.015314 -0.003397 0.000000 -0.000647 0.000000
# 3 -0.000501 -0.003397 0.007125 0.000000 0.006521 0.000000
# 4 0.000000 0.000000 0.000000 0.080715 0.000000 -0.001760
# 5 -0.003083 -0.000647 0.006521 0.000000 0.035744 0.000000
# 6 0.000000 0.000000 0.000000 -0.001760 0.000000 0.044402
#
#
# Mechanical properties :
#
#
# Convention : Reuss Voigt Hill
#
# Bulk Modulus (GPa) = 51.48549 58.93594 55.21072
# Shear Modulus (GPa) = 23.14325 33.05814 28.10069
#
# Velocity S-wave (km/s) = 3.09617 3.70043 3.41170
# Velocity P-wave (km/s) = 5.84018 6.53220 6.19586
#
# Compressibility (1/GPa) = 0.01942295
#
# Stress axis : x y z
#
# Youngs Moduli (GPa) = 86.00481 65.29985 140.34159
#
# Poissons Ratio (x) = 0.22358 0.07034
# Poissons Ratio (y) = 0.29447 0.47671
# Poissons Ratio (z) = 0.04310 0.22181
#
# Static dielectric constant tensor:
#      x y z
#    x 2.045700 0.000000 -0.052090 
#    y 0.000000 1.818360 0.000000 
#    z -0.052090 0.000000 1.988880 
# 
# From -- ./inp_files/249311.got.cif
#   From: 2010.05.17/outbox.cif.g08.bks.cpg/sg12_125_cif.got.tgz:249311.got - 2010.06.03 13:09:07.
