data_PCOD9169078
_publ_section_title
;
Structure prediction by ZEFSAII (Michael W. Deem and Ramdas Pophale) SiO2 
 PCOD9169078
Probable space group: C 2/M
;
_chemical_formula_sum "Si O2"
_cell_formula_units_Z 44
_cell_length_a 8.590755
_cell_length_b 18.095800
_cell_length_c 21.620675
_cell_angle_alpha 90.000000
_cell_angle_beta 49.513244
_cell_angle_gamma 90.000000
_cell_volume 2556.286958
_symmetry_space_group_name_H-M "C 2/M"
_symmetry_group_IT_number 12
_symmetry_cell_setting 'monoclinic'
loop_
_space_group_symop_operation_xyz
x,y,z
-x,y,-z
-x,-y,-z
x,-y,z
1/2+x,1/2+y,z
1/2-x,1/2+y,-z
1/2-x,1/2-y,-z
1/2+x,1/2-y,z
loop_
_atom_site_type_symbol
_atom_site_label
_atom_site_fract_x
_atom_site_fract_y
_atom_site_fract_z
Si Si1 0.372609 0.787252 0.858648
Si Si2 0.559234 0.298850 0.617939
Si Si3 0.731680 0.819025 0.249518
Si Si4 0.088626 0.648237 0.914969
Si Si5 0.485225 0.414393 0.745087
Si Si6 0.500000 0.732795 0.500000
O O1 0.330561 0.830524 0.805749
O O2 0.582207 0.740548 0.796755
O O3 0.193818 0.726145 0.908753
O O4 0.413732 0.834803 0.909224
O O5 0.450846 0.222693 0.668100
O O6 0.497553 0.361315 0.682338
O O7 0.497155 0.313783 0.563575
O O8 0.800044 0.283770 0.554330
O O9 0.826660 0.888985 0.259534
O O10 0.272892 0.603876 0.835180
O O11 0.000000 0.613051 0.000000
O O12 0.496470 0.500000 0.726651
#
# Coordination Sequence:
#
# PCOD9169078 Si02
#       6
#     8   8   8   8   8   4
#     4   9  16  29  54  84 102 141 194 236 268 310
#     4  11  18  37  58  86 108 143 185 230 271 338
#     4  10  16  33  60  77 108 143 190 227 264 334
#     4  10  19  32  54  84 115 147 188 236 279 323
#     4  11  23  37  56  82 117 154 181 227 288 337
#     4  10  22  30  64  90 104 134 196 232 274 316
#
# _framework density 17.212465000000002
#
# number of rings (size 3 to 8) (size 9 to 14) (size 15 to 20)
#    0.000    1.818    7.273    0.545    0.000    0.364 
#    0.000    1.818    0.000    1.091    0.000    0.000 
#    0.000    0.000    0.000    0.000    0.000    0.000 
#
# Total GULP energy -122631.995929 kJ/mol
# GULP energy per Si atom -5574.181633 kJ/mol
# Density = 1.717329 g / cm^3
# Si number density = 17.212465 Si / 1000 Ang^3
#
#
#
# Elastic Constant Matrix: (Units=GPa)
#
#
# Indices 1 2 3 4 5 6 
#
# 1 112.4866 23.7510 44.4211 0.0000 27.0970 0.0000
# 2 23.7510 57.0196 26.2515 0.0000 6.8978 0.0000
# 3 44.4211 26.2515 114.4244 -0.0001 15.3730 0.0001
# 4 0.0000 0.0000 -0.0001 2.6566 0.0000 3.7718
# 5 27.0970 6.8978 15.3730 0.0000 31.6227 0.0000
# 6 0.0000 0.0000 0.0001 3.7718 0.0000 10.3215
#
#
#
# Elastic Compliance Matrix: (Units=1/GPa)
#
#
# Indices 1 2 3 4 5 6 
#
# 1 0.012873 -0.002836 -0.003154 0.000000 -0.008879 0.000000
# 2 -0.002836 0.020383 -0.003535 0.000000 -0.000297 0.000000
# 3 -0.003154 -0.003535 0.011028 0.000001 -0.001888 0.000000
# 4 0.000000 0.000000 0.000001 0.782294 -0.000001 -0.285872
# 5 -0.008879 -0.000297 -0.001888 -0.000001 0.040213 0.000000
# 6 0.000000 0.000000 0.000000 -0.285872 0.000000 0.201350
#
#
# Mechanical properties :
#
#
# Convention : Reuss Voigt Hill
#
# Bulk Modulus (GPa) = 39.62951 52.53085 46.08018
# Shear Modulus (GPa) = 4.56369 21.55398 13.05884
#
# Velocity S-wave (km/s) = 1.63007 3.54253 2.75741
# Velocity P-wave (km/s) = 5.15912 6.87881 6.08007
#
# Compressibility (1/GPa) = 0.02523372
#
# Stress axis : x y z
#
# Youngs Moduli (GPa) = 77.68136 49.06109 90.67420
#
# Poissons Ratio (x) = 0.13914 0.28599
# Poissons Ratio (y) = 0.22030 0.32056
# Poissons Ratio (z) = 0.24501 0.17345
#
# Static dielectric constant tensor:
#      x y z
#    x 1.621460 0.000000 0.016150 
#    y 0.000000 1.545830 0.000000 
#    z 0.016150 0.000000 1.617290 
# 
# From -- ./inp_files/300380.got.cif
#   From: 2010.05.17/outbox.cif.g08.bks.cpg/sg12_151_cif.got.tgz:300380.got - 2010.06.03 13:09:07.
