data_PCOD9169091
_publ_section_title
;
Structure prediction by ZEFSAII (Michael W. Deem and Ramdas Pophale) SiO2 
 PCOD9169091
Probable space group: C 2/M
;
_chemical_formula_sum "Si O2"
_cell_formula_units_Z 60
_cell_length_a 8.375659
_cell_length_b 24.262625
_cell_length_c 18.464855
_cell_angle_alpha 90.000000
_cell_angle_beta 43.559408
_cell_angle_gamma 90.000000
_cell_volume 2585.764142
_symmetry_space_group_name_H-M "C 2/M"
_symmetry_group_IT_number 12
_symmetry_cell_setting 'monoclinic'
loop_
_space_group_symop_operation_xyz
x,y,z
-x,y,-z
-x,-y,-z
x,-y,z
1/2+x,1/2+y,z
1/2-x,1/2+y,-z
1/2-x,1/2-y,-z
1/2+x,1/2-y,z
loop_
_atom_site_type_symbol
_atom_site_label
_atom_site_fract_x
_atom_site_fract_y
_atom_site_fract_z
Si Si1 0.845995 0.665486 0.283446
Si Si2 0.696423 0.500000 0.045307
Si Si3 0.261136 0.885317 0.946689
Si Si4 0.986044 0.082294 0.236418
Si Si5 0.320347 0.316435 0.889271
Si Si6 0.210774 0.738033 0.222940
Si Si7 0.534108 0.561570 0.390944
Si Si8 0.490645 0.065383 0.420914
O O1 0.717116 0.711291 0.276660
O O2 0.682402 0.615378 0.359080
O O3 0.975068 0.703327 0.300384
O O4 0.054389 0.635105 0.172084
O O5 0.788864 0.449386 0.962048
O O6 0.595459 0.546314 0.136448
O O7 0.299241 0.844200 0.002676
O O8 0.000000 0.881227 0.000000
O O9 0.139639 0.136637 0.183122
O O10 0.713060 0.090697 0.308316
O O11 0.002449 0.060819 0.313154
O O12 0.576268 0.300832 0.830401
O O13 0.238931 0.262589 0.873981
O O14 0.624867 0.500000 0.379558
O O15 0.278686 0.568647 0.509461
O O16 0.500000 0.087132 0.500000
O O17 0.545715 0.000000 0.403390
#
# Coordination Sequence:
#
# PCOD9169091 Si02
#       8
#     8   4   8   8   8   8   8   8
#     4  11  23  39  60  85 119 157 200 251 295 344
#     4  10  21  34  56  82 127 157 187 229 292 371
#     4  11  23  39  55  86 115 158 201 235 300 352
#     4  10  16  34  56  88 118 155 192 233 291 361
#     4  10  21  36  58  83 109 151 197 248 286 346
#     4  10  22  40  60  81 113 157 204 249 294 339
#     4  10  19  34  57  91 124 151 193 243 302 352
#     4   8  14  27  55  85 116 152 188 234 287 352
#
# _framework density 23.203973000000001
#
# number of rings (size 3 to 8) (size 9 to 14) (size 15 to 20)
#    0.000    2.000    4.000    1.000    0.933    3.733 
#    0.000    0.667    0.000    5.600    0.000    2.800 
#    0.000    0.000    0.000    0.000    0.000    0.000 
#
# Total GULP energy -167006.570185 kJ/mol
# GULP energy per Si atom -5566.885673 kJ/mol
# Density = 2.315116 g / cm^3
# Si number density = 23.203973 Si / 1000 Ang^3
#
#
#
# Elastic Constant Matrix: (Units=GPa)
#
#
# Indices 1 2 3 4 5 6 
#
# 1 71.3979 46.9342 27.2879 0.0000 -5.5561 0.0000
# 2 46.9342 128.9076 41.4639 0.0000 -13.9829 0.0000
# 3 27.2879 41.4639 46.9545 0.0000 -3.1838 0.0000
# 4 0.0000 0.0000 0.0000 25.0638 0.0000 -13.2211
# 5 -5.5561 -13.9829 -3.1838 0.0000 28.4386 0.0000
# 6 0.0000 0.0000 0.0000 -13.2211 0.0000 14.5117
#
#
#
# Elastic Compliance Matrix: (Units=1/GPa)
#
#
# Indices 1 2 3 4 5 6 
#
# 1 0.020058 -0.004878 -0.007301 0.000000 0.000703 0.000000
# 2 -0.004878 0.012567 -0.007968 0.000000 0.004334 0.000000
# 3 -0.007301 -0.007968 0.032461 0.000000 -0.001710 0.000000
# 4 0.000000 0.000000 0.000000 0.076814 0.000000 0.069983
# 5 0.000703 0.004334 -0.001710 0.000000 0.037240 0.000000
# 6 0.000000 0.000000 0.000000 0.069983 0.000000 0.132670
#
#
# Mechanical properties :
#
#
# Convention : Reuss Voigt Hill
#
# Bulk Modulus (GPa) = 40.33912 53.18134 46.76023
# Shear Modulus (GPa) = 13.87465 22.37441 18.12453
#
# Velocity S-wave (km/s) = 2.44794 3.10861 2.79784
# Velocity P-wave (km/s) = 5.04105 5.98777 5.53469
#
# Compressibility (1/GPa) = 0.02478983
#
# Stress axis : x y z
#
# Youngs Moduli (GPa) = 49.85537 79.57480 30.80601
#
# Poissons Ratio (x) = 0.38818 0.22493
# Poissons Ratio (y) = 0.24320 0.24548
# Poissons Ratio (z) = 0.36402 0.63409
#
# Static dielectric constant tensor:
#      x y z
#    x 1.968420 0.000000 -0.013090 
#    y 0.000000 1.894970 0.000000 
#    z -0.013090 0.000000 1.848160 
# 
# From -- ./inp_files/302744.got.cif
#   From: 2010.05.17/outbox.cif.g08.bks.cpg/sg12_152_cif.got.tgz:302744.got - 2010.06.03 13:09:07.
