data_PCOD9169004
_publ_section_title
;
Structure prediction by ZEFSAII (Michael W. Deem and Ramdas Pophale) SiO2 
 PCOD9169004
Probable space group: C 2/M
;
_chemical_formula_sum "Si O2"
_cell_formula_units_Z 56
_cell_length_a 16.095158
_cell_length_b 29.451961
_cell_length_c 9.595996
_cell_angle_alpha 90.000000
_cell_angle_beta 55.953369
_cell_angle_gamma 90.000000
_cell_volume 3769.077902
_symmetry_space_group_name_H-M "C 2/M"
_symmetry_group_IT_number 12
_symmetry_cell_setting 'monoclinic'
loop_
_space_group_symop_operation_xyz
x,y,z
-x,y,-z
-x,-y,-z
x,-y,z
1/2+x,1/2+y,z
1/2-x,1/2+y,-z
1/2-x,1/2-y,-z
1/2+x,1/2-y,z
loop_
_atom_site_type_symbol
_atom_site_label
_atom_site_fract_x
_atom_site_fract_y
_atom_site_fract_z
Si Si1 0.899906 0.760141 0.005774
Si Si2 0.902131 0.790039 0.678419
Si Si3 0.390327 0.875856 0.819485
Si Si4 0.121557 0.551593 0.396980
Si Si5 0.196238 0.338964 0.840263
Si Si6 0.696776 0.801960 0.300371
Si Si7 0.368206 0.870625 0.402857
O O1 0.863479 0.708000 0.065958
O O2 0.810557 0.790447 0.154106
O O3 0.914570 0.773986 0.828970
O O4 0.000000 0.766895 0.000000
O O5 0.812453 0.826473 0.754479
O O6 0.861164 0.745430 0.637399
O O7 0.000000 0.804747 0.500000
O O8 0.354205 0.918237 0.761049
O O9 0.349352 0.831362 0.780779
O O10 0.510403 0.870599 0.711608
O O11 0.344016 0.876061 0.014625
O O12 0.158550 0.500000 0.363182
O O13 0.154440 0.581075 0.500744
O O14 0.000000 0.549913 0.500000
O O15 0.172551 0.357897 0.709938
O O16 0.675927 0.831792 0.455191
#
# Coordination Sequence:
#
# PCOD9169004 Si02
#       7
#     8   8   8   8   8   8   8
#     4  11  22  33  47  66  97 132 167 214 237 268
#     4  11  22  34  48  64  97 134 166 208 244 273
#     4  10  16  32  49  69  96 131 161 192 238 278
#     4   8  16  31  50  72  98 126 156 189 236 294
#     4  11  21  33  46  70 100 126 170 204 235 279
#     4  10  19  33  47  65  94 130 170 200 233 278
#     4  10  20  28  51  74  94 131 160 196 233 294
#
# _framework density 14.857746000000001
#
# number of rings (size 3 to 8) (size 9 to 14) (size 15 to 20)
#    0.000    1.857    2.857    4.286    4.000    1.143 
#    0.000    0.714    0.000    3.429    0.000    0.000 
#    0.000   21.714    0.000    0.000    0.000    0.000 
#
# Total GULP energy -155976.500026 kJ/mol
# GULP energy per Si atom -5570.589287 kJ/mol
# Density = 1.482393 g / cm^3
# Si number density = 14.857746 Si / 1000 Ang^3
#
#
#
# Elastic Constant Matrix: (Units=GPa)
#
#
# Indices 1 2 3 4 5 6 
#
# 1 83.2900 31.2824 54.1040 0.0000 4.3739 0.0000
# 2 31.2824 77.7555 45.3766 0.0000 4.9380 0.0000
# 3 54.1040 45.3766 118.5520 0.0000 15.0679 0.0000
# 4 0.0000 0.0000 0.0000 17.7971 0.0000 -0.8235
# 5 4.3739 4.9380 15.0679 0.0000 31.3613 0.0000
# 6 0.0000 0.0000 0.0000 -0.8235 0.0000 12.5791
#
#
#
# Elastic Compliance Matrix: (Units=1/GPa)
#
#
# Indices 1 2 3 4 5 6 
#
# 1 0.017681 -0.003076 -0.007072 0.000000 0.001416 0.000000
# 2 -0.003076 0.017101 -0.005170 0.000000 0.000220 0.000000
# 3 -0.007072 -0.005170 0.014285 0.000000 -0.005063 0.000000
# 4 0.000000 0.000000 0.000000 0.056360 0.000000 0.003690
# 5 0.001416 0.000220 -0.005063 0.000000 0.034087 0.000000
# 6 0.000000 0.000000 0.000000 0.003690 0.000000 0.079739
#
#
# Mechanical properties :
#
#
# Convention : Reuss Voigt Hill
#
# Bulk Modulus (GPa) = 54.25451 60.12482 57.18967
# Shear Modulus (GPa) = 19.52887 22.26980 20.89933
#
# Velocity S-wave (km/s) = 3.62938 3.87572 3.75457
# Velocity P-wave (km/s) = 7.35925 7.78352 7.57435
#
# Compressibility (1/GPa) = 0.01843165
#
# Stress axis : x y z
#
# Youngs Moduli (GPa) = 56.55813 58.47448 70.00534
#
# Poissons Ratio (x) = 0.17989 0.49505
# Poissons Ratio (y) = 0.17400 0.36191
# Poissons Ratio (z) = 0.39995 0.30229
#
# Static dielectric constant tensor:
#      x y z
#    x 1.505660 0.000000 0.030340 
#    y 0.000000 1.482750 0.000000 
#    z 0.030340 0.000000 1.565530 
# 
# From -- ./inp_files/67085.got.cif
#   From: 2010.05.17/outbox.cif.g08.bks.cpg/sg12_34_cif.got.tgz:67085.got - 2010.06.03 13:09:07.
