data_PCOD9169909
_publ_section_title
;
Structure prediction by ZEFSAII (Michael W. Deem and Ramdas Pophale) SiO2 
 PCOD9169909
Probable space group: C 2/M
;
_chemical_formula_sum "Si O2"
_cell_formula_units_Z 40
_cell_length_a 20.862491
_cell_length_b 9.863042
_cell_length_c 13.648229
_cell_angle_alpha 90.000000
_cell_angle_beta 126.581823
_cell_angle_gamma 90.000000
_cell_volume 2255.134521
_symmetry_space_group_name_H-M "C 2/M"
_symmetry_group_IT_number 12
_symmetry_cell_setting 'monoclinic'
loop_
_space_group_symop_operation_xyz
x,y,z
-x,y,-z
-x,-y,-z
x,-y,z
1/2+x,1/2+y,z
1/2-x,1/2+y,-z
1/2-x,1/2-y,-z
1/2+x,1/2-y,z
loop_
_atom_site_type_symbol
_atom_site_label
_atom_site_fract_x
_atom_site_fract_y
_atom_site_fract_z
Si Si1 0.934459 0.500000 0.143406
Si Si2 0.408253 0.500000 0.935075
Si Si3 0.921759 0.500000 0.362137
Si Si4 0.853415 0.711912 0.936128
Si Si5 0.291362 0.500000 0.652940
Si Si6 0.104656 0.500000 0.189017
Si Si7 0.210835 0.000000 0.578305
Si Si8 0.301934 0.768057 0.319671
O O1 0.941420 0.500000 0.265618
O O2 0.023815 0.500000 0.178126
O O3 0.883236 0.627352 0.056047
O O4 0.381870 0.365218 0.966155
O O5 0.367956 0.500000 0.791690
O O6 0.500000 0.500000 0.000000
O O7 0.870196 0.365172 0.339654
O O8 0.000000 0.500000 0.500000
O O9 0.892946 0.630870 0.880260
O O10 0.760023 0.721013 0.821951
O O11 0.307013 0.500000 0.552713
O O12 0.243945 0.366488 0.645287
O O13 0.191283 0.500000 0.321513
O O14 0.177287 0.132738 0.602172
#
# Coordination Sequence:
#
# PCOD9169909 Si02
#       8
#     4   4   4   8   4   4   4   8
#     4  11  21  36  61  86 114 157 194 224 289 349
#     4  10  17  29  46  79 123 140 165 231 295 338
#     4  11  26  45  56  78 115 163 201 242 277 339
#     4   9  18  35  57  86 115 142 181 241 291 334
#     4   9  18  31  53  86 115 153 183 222 295 355
#     4   9  18  31  57  92 120 140 184 238 285 349
#     4  10  18  34  61  90 109 152 193 240 290 339
#     4   9  20  38  58  81 119 145 190 246 277 337
#
# _framework density 17.737300999999999
#
# number of rings (size 3 to 8) (size 9 to 14) (size 15 to 20)
#    0.000    2.400    0.000    4.200    2.800    0.800 
#    3.600    1.500    0.000    0.000    0.000    0.000 
#    0.000    0.000    0.000    0.000    0.000    0.000 
#
# Total GULP energy -111497.448882 kJ/mol
# GULP energy per Si atom -5574.872444 kJ/mol
# Density = 1.769693 g / cm^3
# Si number density = 17.737301 Si / 1000 Ang^3
#
#
#
# Elastic Constant Matrix: (Units=GPa)
#
#
# Indices 1 2 3 4 5 6 
#
# 1 83.2729 40.5060 61.1423 0.0000 0.2953 0.0000
# 2 40.5060 141.7850 63.0561 0.0000 -5.2693 0.0000
# 3 61.1423 63.0561 108.7043 0.0000 -15.6399 0.0000
# 4 0.0000 0.0000 0.0000 20.9907 0.0000 5.5945
# 5 0.2953 -5.2693 -15.6399 0.0000 21.7314 0.0000
# 6 0.0000 0.0000 0.0000 5.5945 0.0000 16.9917
#
#
#
# Elastic Compliance Matrix: (Units=1/GPa)
#
#
# Indices 1 2 3 4 5 6 
#
# 1 0.022453 -0.000702 -0.013710 0.000000 -0.010342 0.000000
# 2 -0.000702 0.009594 -0.005393 0.000000 -0.001545 0.000000
# 3 -0.013710 -0.005393 0.022174 0.000000 0.014837 0.000000
# 4 0.000000 0.000000 0.000000 0.052223 0.000000 -0.017194
# 5 -0.010342 -0.001545 0.014837 0.000000 0.056460 0.000000
# 6 0.000000 0.000000 0.000000 -0.017194 0.000000 0.064514
#
#
# Mechanical properties :
#
#
# Convention : Reuss Voigt Hill
#
# Bulk Modulus (GPa) = 68.43877 73.68567 71.06222
# Shear Modulus (GPa) = 18.38921 23.21328 20.80125
#
# Velocity S-wave (km/s) = 3.22336 3.62156 3.42824
# Velocity P-wave (km/s) = 7.24719 7.68899 7.47136
#
# Compressibility (1/GPa) = 0.01461160
#
# Stress axis : x y z
#
# Youngs Moduli (GPa) = 44.53698 104.22702 45.09818
#
# Poissons Ratio (x) = 0.07313 0.61830
# Poissons Ratio (y) = 0.03125 0.24322
# Poissons Ratio (z) = 0.61061 0.56211
#
# Static dielectric constant tensor:
#      x y z
#    x 1.606380 0.000000 -0.006240 
#    y 0.000000 1.619020 0.000000 
#    z -0.006240 0.000000 1.631530 
# 
# From -- ./inp_files/230669.got.cif
#   From: 2010.05.17/outbox.cif.g08.bks.cpg/sg12_116_cif.got.tgz:230669.got - 2010.06.03 13:09:07.
