data_PCOD9169856
_publ_section_title
;
Structure prediction by ZEFSAII (Michael W. Deem and Ramdas Pophale) SiO2 
 PCOD9169856
Probable space group: C 2/M
;
_chemical_formula_sum "Si O2"
_cell_formula_units_Z 56
_cell_length_a 14.491569
_cell_length_b 21.166488
_cell_length_c 17.217617
_cell_angle_alpha 90.000000
_cell_angle_beta 147.127863
_cell_angle_gamma 90.000000
_cell_volume 2866.486848
_symmetry_space_group_name_H-M "C 2/M"
_symmetry_group_IT_number 12
_symmetry_cell_setting 'monoclinic'
loop_
_space_group_symop_operation_xyz
x,y,z
-x,y,-z
-x,-y,-z
x,-y,z
1/2+x,1/2+y,z
1/2-x,1/2+y,-z
1/2-x,1/2-y,-z
1/2+x,1/2-y,z
loop_
_atom_site_type_symbol
_atom_site_label
_atom_site_fract_x
_atom_site_fract_y
_atom_site_fract_z
Si Si1 0.500000 0.730975 0.000000
Si Si2 0.539768 0.568531 0.621051
Si Si3 0.274433 0.190788 0.074531
Si Si4 0.178710 0.568628 0.449819
Si Si5 0.909308 0.294023 0.589063
Si Si6 0.935638 0.427788 0.127562
Si Si7 0.500000 0.726532 0.500000
Si Si8 0.698427 0.839908 0.227251
O O1 0.625301 0.692150 0.033031
O O2 0.608812 0.779467 0.128896
O O3 0.500000 0.569592 0.500000
O O4 0.619315 0.500000 0.692468
O O5 0.364135 0.572404 0.542004
O O6 0.668305 0.623999 0.733770
O O7 0.454429 0.202083 0.245069
O O8 0.288489 0.123541 0.040493
O O9 0.250000 0.250000 0.000000
O O10 0.165826 0.500000 0.481529
O O11 0.148598 0.634494 0.471420
O O12 0.043427 0.567268 0.283686
O O13 0.750000 0.250000 0.500000
O O14 0.003613 0.266031 0.580861
O O15 0.890764 0.500000 0.073327
O O16 0.063638 0.391748 0.159629
O O17 0.672964 0.685809 0.616086
#
# Coordination Sequence:
#
# PCOD9169856 Si02
#       8
#     4   8   8   8   8   8   4   8
#     4  12  26  38  58  88 122 168 198 240 314 362
#     4  10  17  28  52  84 116 150 189 236 296 362
#     4  11  23  42  62  87 123 162 203 249 302 362
#     4   9  18  33  54  84 118 153 196 246 300 353
#     4  11  23  37  61  93 116 154 202 253 298 351
#     4  10  19  35  61  86 114 156 203 249 297 359
#     4  12  22  36  58  92 124 150 200 256 298 358
#     4  12  20  36  56  87 122 154 195 246 301 365
#
# _framework density 19.536110000000001
#
# number of rings (size 3 to 8) (size 9 to 14) (size 15 to 20)
#    0.000    1.286    5.000    3.000    0.000    0.000 
#    0.000    2.143    0.000    0.857    0.000    0.000 
#    0.000    0.000    0.000    0.000    0.000    0.000 
#
# Total GULP energy -156187.459977 kJ/mol
# GULP energy per Si atom -5578.123571 kJ/mol
# Density = 1.949164 g / cm^3
# Si number density = 19.536110 Si / 1000 Ang^3
#
#
#
# Elastic Constant Matrix: (Units=GPa)
#
#
# Indices 1 2 3 4 5 6 
#
# 1 66.3898 50.5728 13.8178 -0.0005 18.2836 -0.0005
# 2 50.5728 164.3410 32.9627 -0.0033 19.7274 -0.0007
# 3 13.8178 32.9627 52.1026 -0.0099 15.3682 0.0003
# 4 -0.0005 -0.0033 -0.0099 20.5027 -0.0021 8.1821
# 5 18.2836 19.7274 15.3682 -0.0021 24.2227 0.0000
# 6 -0.0005 -0.0007 0.0003 8.1821 0.0000 -22.9615
#
#
#
# Elastic Compliance Matrix: (Units=1/GPa)
#
#
# Indices 1 2 3 4 5 6 
#
# 1 0.022822 -0.005707 0.001560 -0.000001 -0.013568 -0.000001
# 2 -0.005707 0.008653 -0.003878 0.000000 -0.000278 0.000000
# 3 0.001560 -0.003878 0.025402 0.000009 -0.014136 0.000004
# 4 -0.000001 0.000000 0.000009 0.042701 -0.000001 0.015216
# 5 -0.013568 -0.000278 -0.014136 -0.000001 0.060720 0.000000
# 6 -0.000001 0.000000 0.000004 0.015216 0.000000 -0.038129
#
#
# Mechanical properties :
#
#
# Convention : Reuss Voigt Hill
#
# Bulk Modulus (GPa) = 24.49419 53.05999 38.77709
# Shear Modulus (GPa) = 32.93191 16.71815 24.82503
#
# Velocity S-wave (km/s) = 4.11018 2.92850 3.56859
# Velocity P-wave (km/s) = 5.92367 6.21722 6.07222
#
# Compressibility (1/GPa) = 0.04082600
#
# Stress axis : x y z
#
# Youngs Moduli (GPa) = 43.81742 115.57348 39.36667
#
# Poissons Ratio (x) = 0.65961 -0.06142
# Poissons Ratio (y) = 0.25008 0.15268
# Poissons Ratio (z) = -0.06837 0.44823
#
# Static dielectric constant tensor:
#      x y z
#    x 1.693740 0.000000 -0.025460 
#    y 0.000000 1.761240 0.000000 
#    z -0.025460 0.000000 1.743730 
# 
# From -- ./inp_files/272450.got.cif
#   From: 2010.05.17/outbox.cif.g08.bks.cpg/sg12_137_cif.got.tgz:272450.got - 2010.06.03 13:09:07.
