data_PCOD9169266
_publ_section_title
;
Structure prediction by ZEFSAII (Michael W. Deem and Ramdas Pophale) SiO2 
 PCOD9169266
Probable space group: C 2/M
;
_chemical_formula_sum "Si O2"
_cell_formula_units_Z 48
_cell_length_a 15.885090
_cell_length_b 7.918283
_cell_length_c 18.287774
_cell_angle_alpha 90.000000
_cell_angle_beta 52.279520
_cell_angle_gamma 90.000000
_cell_volume 1819.536269
_symmetry_space_group_name_H-M "C 2/M"
_symmetry_group_IT_number 12
_symmetry_cell_setting 'monoclinic'
loop_
_space_group_symop_operation_xyz
x,y,z
-x,y,-z
-x,-y,-z
x,-y,z
1/2+x,1/2+y,z
1/2-x,1/2+y,-z
1/2-x,1/2-y,-z
1/2+x,1/2-y,z
loop_
_atom_site_type_symbol
_atom_site_label
_atom_site_fract_x
_atom_site_fract_y
_atom_site_fract_z
Si Si1 0.151736 0.296961 0.974985
Si Si2 0.857191 0.693860 0.643755
Si Si3 0.357067 0.201543 0.801702
Si Si4 0.093234 0.191305 0.534455
Si Si5 0.426996 0.206213 0.144138
Si Si6 0.606225 0.203067 0.683024
O O1 0.151588 0.500000 0.979372
O O2 0.274413 0.242332 0.909898
O O3 0.118985 0.243009 0.909494
O O4 0.051071 0.238540 0.075868
O O5 0.824409 0.500000 0.655226
O O6 0.824689 0.774745 0.738984
O O7 0.838513 0.780939 0.575295
O O8 0.987279 0.696000 0.584166
O O9 0.479295 0.245967 0.749701
O O10 0.355249 0.000000 0.794744
O O11 0.144811 0.221760 0.586004
O O12 0.054616 0.000000 0.552879
O O13 0.365784 0.262309 0.249751
O O14 0.427439 0.000000 0.145751
O O15 0.618689 0.000000 0.672058
#
# Coordination Sequence:
#
# PCOD9169266 Si02
#       6
#     8   8   8   8   8   8
#     4   9  17  31  51  70  89 117 155 195 230 268
#     4   9  16  28  44  62  90 128 159 179 216 278
#     4   9  18  29  44  69  96 121 150 185 226 272
#     4  10  17  25  41  68  96 117 148 194 233 263
#     4   8  16  32  51  68  87 120 161 190 221 274
#     4   9  17  31  48  65  92 127 157 184 222 277
#
# _framework density 26.380347
#
# number of rings (size 3 to 8) (size 9 to 14) (size 15 to 20)
#    0.000    3.000    0.000    5.000    0.000    4.000 
#    0.000    3.333    0.000    1.000    0.000    0.000 
#    0.000    0.000    0.000    0.000    0.000    0.000 
#
# Total GULP energy -134089.318102 kJ/mol
# GULP energy per Si atom -5587.054921 kJ/mol
# Density = 2.632030 g / cm^3
# Si number density = 26.380347 Si / 1000 Ang^3
#
#
#
# Elastic Constant Matrix: (Units=GPa)
#
#
# Indices 1 2 3 4 5 6 
#
# 1 54.8680 5.7646 -5.4264 0.0000 6.7378 0.0000
# 2 5.7646 57.1418 5.3894 0.0000 3.5547 0.0001
# 3 -5.4264 5.3894 188.2156 0.0000 6.7531 0.0000
# 4 0.0000 0.0000 0.0000 28.3854 0.0000 -9.6157
# 5 6.7378 3.5547 6.7531 0.0000 57.0485 0.0000
# 6 0.0000 0.0001 0.0000 -9.6157 0.0000 -2.1206
#
#
#
# Elastic Compliance Matrix: (Units=1/GPa)
#
#
# Indices 1 2 3 4 5 6 
#
# 1 0.018751 -0.001819 0.000671 0.000000 -0.002181 0.000000
# 2 -0.001819 0.017786 -0.000532 0.000000 -0.000830 0.000000
# 3 0.000671 -0.000532 0.005372 0.000000 -0.000682 0.000000
# 4 0.000000 0.000000 0.000000 0.013892 0.000000 -0.062989
# 5 -0.002181 -0.000830 -0.000682 0.000000 0.017919 0.000000
# 6 0.000000 0.000000 0.000000 -0.062989 0.000000 -0.185941
#
#
# Mechanical properties :
#
#
# Convention : Reuss Voigt Hill
#
# Bulk Modulus (GPa) = 25.94159 34.63116 30.28637
# Shear Modulus (GPa) = -52.07658 36.29583 -7.89038
#
# Velocity S-wave (km/s) = -4.44787 3.71329 -1.73133
# Velocity P-wave (km/s) = 4.06485 5.61612 2.74024
#
# Compressibility (1/GPa) = 0.03854815
#
# Stress axis : x y z
#
# Youngs Moduli (GPa) = 53.33093 56.22503 186.14691
#
# Poissons Ratio (x) = 0.10229 -0.12489
# Poissons Ratio (y) = 0.09702 0.09902
# Poissons Ratio (z) = -0.03578 0.02991
#
# Static dielectric constant tensor:
#      x y z
#    x 2.263460 0.000000 0.008190 
#    y 0.000000 1.908160 0.000000 
#    z 0.008190 0.000000 2.100080 
# 
# From -- ./inp_files/280061.got.cif
#   From: 2010.05.17/outbox.cif.g08.bks.cpg/sg12_141_cif.got.tgz:280061.got - 2010.06.03 13:09:07.
