data_PCOD9169935
_publ_section_title
;
Structure prediction by ZEFSAII (Michael W. Deem and Ramdas Pophale) SiO2 
 PCOD9169935
Probable space group: C 2/M
;
_chemical_formula_sum "Si O2"
_cell_formula_units_Z 64
_cell_length_a 31.101153
_cell_length_b 8.379562
_cell_length_c 32.006801
_cell_angle_alpha 90.000000
_cell_angle_beta 28.648491
_cell_angle_gamma 90.000000
_cell_volume 3999.167413
_symmetry_space_group_name_H-M "C 2/M"
_symmetry_group_IT_number 12
_symmetry_cell_setting 'monoclinic'
loop_
_space_group_symop_operation_xyz
x,y,z
-x,y,-z
-x,-y,-z
x,-y,z
1/2+x,1/2+y,z
1/2-x,1/2+y,-z
1/2-x,1/2-y,-z
1/2+x,1/2-y,z
loop_
_atom_site_type_symbol
_atom_site_label
_atom_site_fract_x
_atom_site_fract_y
_atom_site_fract_z
Si Si1 0.228261 0.190441 0.420218
Si Si2 0.734235 0.692427 0.079233
Si Si3 0.110029 0.192271 0.107156
Si Si4 0.415898 0.192208 0.626330
Si Si5 0.619517 0.307585 0.253932
Si Si6 0.379869 0.807310 0.564482
Si Si7 0.925370 0.805194 0.384649
Si Si8 0.413821 0.307234 0.298195
O O1 0.193732 0.243044 0.404336
O O2 0.154621 0.249365 0.516938
O O3 0.325850 0.252012 0.349216
O O4 0.228621 0.000000 0.421821
O O5 0.734833 0.500000 0.078654
O O6 0.664116 0.744068 0.102772
O O7 0.695637 0.747158 0.156574
O O8 0.831362 0.750846 0.981913
O O9 0.007595 0.247387 0.197839
O O10 0.109772 0.000000 0.107533
O O11 0.370904 0.252995 0.706754
O O12 0.520625 0.243841 0.535740
O O13 0.372855 0.243100 0.618910
O O14 0.415953 0.000000 0.626720
O O15 0.618773 0.500000 0.253802
O O16 0.522119 0.253756 0.319703
O O17 0.378108 0.000000 0.564982
O O18 0.911826 0.753875 0.348375
O O19 0.925745 0.000000 0.384464
O O20 0.414917 0.500000 0.297695
#
# Coordination Sequence:
#
# PCOD9169935 Si02
#       8
#     8   8   8   8   8   8   8   8
#     4  11  21  31  46  69  94 123 163 203 230 263
#     4   9  17  29  47  68  93 122 152 191 236 277
#     4   9  17  30  47  66  89 122 160 194 229 273
#     4   9  18  31  48  69  93 120 155 195 231 274
#     4  10  17  29  48  70  96 127 155 185 233 283
#     4   9  18  33  48  65  92 125 156 190 235 279
#     4   9  17  30  45  64  94 128 161 191 222 269
#     4  10  19  33  49  63  90 132 166 192 230 275
#
# _framework density 16.003329999999998
#
# number of rings (size 3 to 8) (size 9 to 14) (size 15 to 20)
#    0.000    2.500    2.500    1.500    0.000    1.500 
#    0.000    2.500    0.000    0.000    0.000    0.875 
#    0.000    7.000    0.000    0.000    0.000    0.000 
#
# Total GULP energy -178411.060392 kJ/mol
# GULP energy per Si atom -5575.345637 kJ/mol
# Density = 1.596691 g / cm^3
# Si number density = 16.003330 Si / 1000 Ang^3
#
#
#
# Elastic Constant Matrix: (Units=GPa)
#
#
# Indices 1 2 3 4 5 6 
#
# 1 119.3862 15.7466 85.2034 -0.0097 10.2537 0.0055
# 2 15.7466 7.2935 19.0733 -0.0081 1.5672 0.0049
# 3 85.2034 19.0733 139.1350 -0.0080 14.0728 0.0076
# 4 -0.0097 -0.0081 -0.0080 21.4510 0.0061 2.0069
# 5 10.2537 1.5672 14.0728 0.0061 25.1894 -0.0037
# 6 0.0055 0.0049 0.0076 2.0069 -0.0037 18.8920
#
#
#
# Elastic Compliance Matrix: (Units=1/GPa)
#
#
# Indices 1 2 3 4 5 6 
#
# 1 0.015744 -0.013784 -0.007621 -0.000001 -0.001294 0.000002
# 2 -0.013784 0.226051 -0.022991 0.000075 0.004392 -0.000053
# 3 -0.007621 -0.022991 0.015419 -0.000005 -0.004082 0.000002
# 4 -0.000001 0.000075 -0.000005 0.047086 -0.000014 -0.005002
# 5 -0.001294 0.004392 -0.004082 -0.000014 0.042233 0.000011
# 6 0.000002 -0.000053 0.000002 -0.005002 0.000011 0.053464
#
#
# Mechanical properties :
#
#
# Convention : Reuss Voigt Hill
#
# Bulk Modulus (GPa) = 5.93750 56.20680 31.07215
# Shear Modulus (GPa) = 9.17550 22.82590 16.00070
#
# Velocity S-wave (km/s) = 2.39707 3.78076 3.16545
# Velocity P-wave (km/s) = 3.37335 7.36594 5.72872
#
# Compressibility (1/GPa) = 0.16842100
#
# Stress axis : x y z
#
# Youngs Moduli (GPa) = 63.51475 4.42379 64.85557
#
# Poissons Ratio (x) = 0.06098 0.49427
# Poissons Ratio (y) = 0.87549 1.49112
# Poissons Ratio (z) = 0.48405 0.10171
#
# Static dielectric constant tensor:
#      x y z
#    x 1.518160 0.000000 0.013580 
#    y 0.000000 1.557440 0.000000 
#    z 0.013580 0.000000 1.537660 
# 
# From -- ./inp_files/248517.got.cif
#   From: 2010.05.17/outbox.cif.g08.bks.cpg/sg12_125_cif.got.tgz:248517.got - 2010.06.03 13:09:07.
