data_PCOD9169029
_publ_section_title
;
Structure prediction by ZEFSAII (Michael W. Deem and Ramdas Pophale) SiO2 
 PCOD9169029
Probable space group: C 2/M
;
_chemical_formula_sum "Si O2"
_cell_formula_units_Z 48
_cell_length_a 17.018193
_cell_length_b 15.924857
_cell_length_c 10.129607
_cell_angle_alpha 90.000000
_cell_angle_beta 108.047587
_cell_angle_gamma 90.000000
_cell_volume 2610.180510
_symmetry_space_group_name_H-M "C 2/M"
_symmetry_group_IT_number 12
_symmetry_cell_setting 'monoclinic'
loop_
_space_group_symop_operation_xyz
x,y,z
-x,y,-z
-x,-y,-z
x,-y,z
1/2+x,1/2+y,z
1/2-x,1/2+y,-z
1/2-x,1/2-y,-z
1/2+x,1/2-y,z
loop_
_atom_site_type_symbol
_atom_site_label
_atom_site_fract_x
_atom_site_fract_y
_atom_site_fract_z
Si Si1 0.588549 0.167674 0.563690
Si Si2 0.907740 0.687720 0.926639
Si Si3 0.102606 0.786144 0.813012
Si Si4 0.921565 0.801897 0.675216
Si Si5 0.754115 0.147877 0.518117
Si Si6 0.753782 0.095081 0.215625
O O1 0.500000 0.122145 0.500000
O O2 0.598982 0.204460 0.715533
O O3 0.579268 0.248635 0.461133
O O4 0.672841 0.123907 0.559218
O O5 0.906614 0.736511 0.786721
O O6 0.836120 0.619665 0.885391
O O7 0.891102 0.754249 0.034539
O O8 0.000000 0.654074 0.000000
O O9 0.179058 0.841741 0.808549
O O10 0.014851 0.833145 0.745355
O O11 0.844401 0.865112 0.629263
O O12 0.750000 0.250000 0.500000
O O13 0.751731 0.108266 0.372524
O O14 0.775182 0.000000 0.195249
#
# Coordination Sequence:
#
# PCOD9169029 Si02
#       6
#     8   8   8   8   8   8
#     4   9  15  27  55  82 102 130 182 235 260 303
#     4  10  20  35  58  85 104 147 195 233 266 324
#     4  10  19  32  55  88 106 143 191 227 268 327
#     4   9  16  31  57  83 109 133 193 235 264 310
#     4  10  16  32  55  75 106 142 189 221 267 317
#     4  12  23  35  53  85 120 149 176 228 289 334
#
# _framework density 18.389534000000001
#
# number of rings (size 3 to 8) (size 9 to 14) (size 15 to 20)
#    0.000    2.000    6.667    0.500    0.000    0.333 
#    0.000    1.667    0.000    9.000    0.000    0.000 
#    0.000    0.000    0.000    0.000    0.000    0.000 
#
# Total GULP energy -133730.544591 kJ/mol
# GULP energy per Si atom -5572.106025 kJ/mol
# Density = 1.834768 g / cm^3
# Si number density = 18.389534 Si / 1000 Ang^3
#
#
#
# Elastic Constant Matrix: (Units=GPa)
#
#
# Indices 1 2 3 4 5 6 
#
# 1 64.7094 -5.9371 5.1833 0.0000 -8.8134 0.0000
# 2 -5.9371 13.2527 -0.2753 0.0000 2.4287 0.0000
# 3 5.1833 -0.2753 51.6808 0.0000 3.2281 0.0000
# 4 0.0000 0.0000 0.0000 8.5243 0.0000 0.6547
# 5 -8.8134 2.4287 3.2281 0.0000 25.8170 0.0000
# 6 0.0000 0.0000 0.0000 0.6547 0.0000 -0.8896
#
#
#
# Elastic Compliance Matrix: (Units=1/GPa)
#
#
# Indices 1 2 3 4 5 6 
#
# 1 0.016955 0.006560 -0.002004 0.000000 0.005421 0.000000
# 2 0.006560 0.079357 0.000092 0.000000 -0.005237 0.000000
# 3 -0.002004 0.000092 0.019749 0.000000 -0.003162 0.000000
# 4 0.000000 0.000000 0.000000 0.111034 0.000000 0.081722
# 5 0.005421 -0.005237 -0.003162 0.000000 0.041473 0.000000
# 6 0.000000 0.000000 0.000000 0.081722 0.000000 -1.064007
#
#
# Mechanical properties :
#
#
# Convention : Reuss Voigt Hill
#
# Bulk Modulus (GPa) = 7.97727 14.17608 11.07667
# Shear Modulus (GPa) = -6.55351 15.40182 4.42416
#
# Velocity S-wave (km/s) = -1.88983 2.89715 1.55275
# Velocity P-wave (km/s) = 0.64388 4.34935 3.04157
#
# Compressibility (1/GPa) = 0.12535622
#
# Stress axis : x y z
#
# Youngs Moduli (GPa) = 58.98124 12.60128 50.63666
#
# Poissons Ratio (x) = -0.08267 0.10148
# Poissons Ratio (y) = -0.38694 -0.00465
# Poissons Ratio (z) = 0.11821 -0.00116
#
# Static dielectric constant tensor:
#      x y z
#    x 1.718200 0.000000 0.036120 
#    y 0.000000 1.578150 0.000000 
#    z 0.036120 0.000000 1.627730 
# 
# From -- ./inp_files/155498.got.cif
#   From: 2010.05.17/outbox.cif.g08.bks.cpg/sg12_78_cif.got.tgz:155498.got - 2010.06.03 13:09:07.
