data_PCOD9169394
_publ_section_title
;
Structure prediction by ZEFSAII (Michael W. Deem and Ramdas Pophale) SiO2 
 PCOD9169394
Probable space group: C 2/M
;
_chemical_formula_sum "Si O2"
_cell_formula_units_Z 48
_cell_length_a 29.321400
_cell_length_b 8.972844
_cell_length_c 7.783464
_cell_angle_alpha 90.000000
_cell_angle_beta 102.142507
_cell_angle_gamma 90.000000
_cell_volume 2001.986433
_symmetry_space_group_name_H-M "C 2/M"
_symmetry_group_IT_number 12
_symmetry_cell_setting 'monoclinic'
loop_
_space_group_symop_operation_xyz
x,y,z
-x,y,-z
-x,-y,-z
x,-y,z
1/2+x,1/2+y,z
1/2-x,1/2+y,-z
1/2-x,1/2-y,-z
1/2+x,1/2-y,z
loop_
_atom_site_type_symbol
_atom_site_label
_atom_site_fract_x
_atom_site_fract_y
_atom_site_fract_z
Si Si1 0.849276 0.670972 0.986176
Si Si2 0.511714 0.820351 0.757578
Si Si3 0.932636 0.177700 0.877474
Si Si4 0.597516 0.828921 0.603463
Si Si5 0.182319 0.830572 0.542867
Si Si6 0.765661 0.170030 0.783985
O O1 0.850164 0.500000 0.928050
O O2 0.881072 0.769588 0.884924
O O3 0.796806 0.731507 0.935857
O O4 0.873870 0.675692 0.191520
O O5 0.459389 0.760171 0.743001
O O6 0.544691 0.791957 0.619432
O O7 0.512113 0.000000 0.783179
O O8 0.539160 0.735577 0.931904
O O9 0.935408 0.000000 0.860977
O O10 0.629325 0.725458 0.510649
O O11 0.598149 0.000000 0.542303
O O12 0.205146 0.825974 0.372701
O O13 0.215645 0.731283 0.688431
O O14 0.183898 0.000000 0.606202
O O15 0.762618 0.000000 0.840728
#
# Coordination Sequence:
#
# PCOD9169394 Si02
#       6
#     8   8   8   8   8   8
#     4  10  20  34  52  76 104 134 168 207 252 297
#     4   9  16  28  45  68 100 135 169 204 244 293
#     4  10  17  26  44  71 101 133 167 204 248 294
#     4   9  19  33  51  76 104 133 167 207 249 294
#     4  10  21  36  55  76  99 131 168 205 250 302
#     4  10  21  37  55  75  99 130 169 208 248 300
#
# _framework density 23.976186999999999
#
# number of rings (size 3 to 8) (size 9 to 14) (size 15 to 20)
#    0.000    2.333    0.000    5.500    0.000    6.667 
#    0.000    0.000    0.000    1.000    0.000    7.000 
#    0.000    0.000    0.000    0.000    0.000    0.000 
#
# Total GULP energy -134256.227310 kJ/mol
# GULP energy per Si atom -5594.009471 kJ/mol
# Density = 2.392162 g / cm^3
# Si number density = 23.976187 Si / 1000 Ang^3
#
#
#
# Elastic Constant Matrix: (Units=GPa)
#
#
# Indices 1 2 3 4 5 6 
#
# 1 164.7958 40.9362 4.1903 0.0000 -2.5584 0.0000
# 2 40.9362 120.5675 24.4721 0.0000 -19.0692 0.0000
# 3 4.1903 24.4721 60.0139 0.0000 -11.3941 0.0000
# 4 0.0000 0.0000 0.0000 10.6461 0.0000 -34.6322
# 5 -2.5584 -19.0692 -11.3941 0.0000 49.0009 0.0000
# 6 0.0000 0.0000 0.0000 -34.6322 0.0000 -118.2169
#
#
#
# Elastic Compliance Matrix: (Units=1/GPa)
#
#
# Indices 1 2 3 4 5 6 
#
# 1 0.006652 -0.002424 0.000430 0.000000 -0.000496 0.000000
# 2 -0.002424 0.010304 -0.003447 0.000000 0.003082 0.000000
# 3 0.000430 -0.003447 0.018610 0.000000 0.003008 0.000000
# 4 0.000000 0.000000 0.000000 0.048096 0.000000 -0.014090
# 5 -0.000496 0.003082 0.003008 0.000000 0.022281 0.000000
# 6 0.000000 0.000000 0.000000 -0.014090 0.000000 -0.004331
#
#
# Mechanical properties :
#
#
# Convention : Reuss Voigt Hill
#
# Bulk Modulus (GPa) = 40.51502 53.84160 47.17831
# Shear Modulus (GPa) = 41.41746 6.67125 24.04435
#
# Velocity S-wave (km/s) = 4.16076 1.66988 3.17021
# Velocity P-wave (km/s) = 6.32592 5.12084 5.75501
#
# Compressibility (1/GPa) = 0.02468220
#
# Stress axis : x y z
#
# Youngs Moduli (GPa) = 150.33848 97.04630 53.73541
#
# Poissons Ratio (x) = 0.23526 -0.02310
# Poissons Ratio (y) = 0.36444 0.18525
# Poissons Ratio (z) = -0.06463 0.33457
#
# Static dielectric constant tensor:
#      x y z
#    x 1.921870 0.000000 -0.000400 
#    y 0.000000 1.800650 0.000000 
#    z -0.000400 0.000000 1.996500 
# 
# From -- ./inp_files/108733.got.cif
#   From: 2010.05.17/outbox.cif.g08.bks.cpg/sg12_55_cif.got.tgz:108733.got - 2010.06.03 13:09:07.
