data_PCOD9169073
_publ_section_title
;
Structure prediction by ZEFSAII (Michael W. Deem and Ramdas Pophale) SiO2 
 PCOD9169073
Probable space group: C 2/M
;
_chemical_formula_sum "Si O2"
_cell_formula_units_Z 48
_cell_length_a 18.851545
_cell_length_b 17.349867
_cell_length_c 8.856277
_cell_angle_alpha 90.000000
_cell_angle_beta 61.318592
_cell_angle_gamma 90.000000
_cell_volume 2541.226546
_symmetry_space_group_name_H-M "C 2/M"
_symmetry_group_IT_number 12
_symmetry_cell_setting 'monoclinic'
loop_
_space_group_symop_operation_xyz
x,y,z
-x,y,-z
-x,-y,-z
x,-y,z
1/2+x,1/2+y,z
1/2-x,1/2+y,-z
1/2-x,1/2-y,-z
1/2+x,1/2-y,z
loop_
_atom_site_type_symbol
_atom_site_label
_atom_site_fract_x
_atom_site_fract_y
_atom_site_fract_z
Si Si1 0.203079 0.829756 0.506557
Si Si2 0.581400 0.116641 0.836069
Si Si3 0.665020 0.088545 0.445144
Si Si4 0.246505 0.826805 0.898697
Si Si5 0.087379 0.199073 0.860898
Si Si6 0.251379 0.583911 0.810403
O O1 0.250000 0.750000 0.500000
O O2 0.255333 0.896646 0.533368
O O3 0.115314 0.827629 0.667452
O O4 0.205858 0.848697 0.328737
O O5 0.594365 0.101206 0.643245
O O6 0.584198 0.208527 0.855549
O O7 0.659008 0.085517 0.846368
O O8 0.500000 0.088777 0.000000
O O9 0.681145 0.150234 0.293406
O O10 0.661036 0.000000 0.396207
O O11 0.162737 0.821959 0.891508
O O12 0.250000 0.750000 0.000000
O O13 0.244975 0.896177 0.018864
O O14 0.000000 0.170102 0.000000
O O15 0.286387 0.500000 0.742476
#
# Coordination Sequence:
#
# PCOD9169073 Si02
#       6
#     8   8   8   8   8   8
#     4  10  16  33  57  80 109 146 192 229 267 327
#     4  10  19  34  56  85 116 150 188 223 272 337
#     4  10  20  33  54  82 114 150 186 226 274 330
#     4  11  21  37  59  81 111 148 188 235 273 327
#     4  10  20  35  59  84 108 140 189 238 278 323
#     4  11  21  34  57  85 113 149 186 231 285 332
#
# _framework density 18.888515999999999
#
# number of rings (size 3 to 8) (size 9 to 14) (size 15 to 20)
#    0.000    1.667    5.000    3.500    0.000    1.333 
#    0.000    1.667    0.000   21.000    0.000    0.000 
#    0.000    0.000    0.000    0.000    0.000    0.000 
#
# Total GULP energy -133624.000941 kJ/mol
# GULP energy per Si atom -5567.666706 kJ/mol
# Density = 1.884553 g / cm^3
# Si number density = 18.888516 Si / 1000 Ang^3
#
#
#
# Elastic Constant Matrix: (Units=GPa)
#
#
# Indices 1 2 3 4 5 6 
#
# 1 36.5515 14.5771 46.1967 0.0000 -8.2611 0.0000
# 2 14.5771 81.1024 46.3733 0.0000 -1.0138 0.0000
# 3 46.1967 46.3733 175.2119 0.0000 -16.5914 0.0000
# 4 0.0000 0.0000 0.0000 20.6230 0.0000 3.6357
# 5 -8.2611 -1.0138 -16.5914 0.0000 36.5509 0.0000
# 6 0.0000 0.0000 0.0000 3.6357 0.0000 10.5357
#
#
#
# Elastic Compliance Matrix: (Units=1/GPa)
#
#
# Indices 1 2 3 4 5 6 
#
# 1 0.041962 -0.001670 -0.010165 0.000000 0.004824 0.000000
# 2 -0.001670 0.014664 -0.003593 0.000000 -0.001601 0.000000
# 3 -0.010165 -0.003593 0.009521 0.000000 0.001925 0.000000
# 4 0.000000 0.000000 0.000000 0.051631 0.000000 -0.017817
# 5 0.004824 -0.001601 0.001925 0.000000 0.029278 0.000000
# 6 0.000000 0.000000 0.000000 -0.017817 0.000000 0.101064
#
#
# Mechanical properties :
#
#
# Convention : Reuss Voigt Hill
#
# Bulk Modulus (GPa) = 28.33466 56.35113 42.34289
# Shear Modulus (GPa) = 17.19754 25.92316 21.56035
#
# Velocity S-wave (km/s) = 3.02068 3.70865 3.38220
# Velocity P-wave (km/s) = 5.21532 6.94529 6.14153
#
# Compressibility (1/GPa) = 0.03529247
#
# Stress axis : x y z
#
# Youngs Moduli (GPa) = 23.83095 68.19235 105.03470
#
# Poissons Ratio (x) = 0.11385 1.06770
# Poissons Ratio (y) = 0.03979 0.37736
# Poissons Ratio (z) = 0.24225 0.24499
#
# Static dielectric constant tensor:
#      x y z
#    x 1.623870 0.000000 -0.000080 
#    y 0.000000 1.699240 0.000000 
#    z -0.000080 0.000000 1.768970 
# 
# From -- ./inp_files/75126.got.cif
#   From: 2010.05.17/outbox.cif.g08.bks.cpg/sg12_38_cif.got.tgz:75126.got - 2010.06.03 13:09:07.
