data_PCOD9169545
_publ_section_title
;
Structure prediction by ZEFSAII (Michael W. Deem and Ramdas Pophale) SiO2 
 PCOD9169545
Probable space group: C 2/M
;
_chemical_formula_sum "Si O2"
_cell_formula_units_Z 40
_cell_length_a 14.901855
_cell_length_b 14.597052
_cell_length_c 21.515170
_cell_angle_alpha 90.000000
_cell_angle_beta 20.160764
_cell_angle_gamma 90.000000
_cell_volume 1613.003868
_symmetry_space_group_name_H-M "C 2/M"
_symmetry_group_IT_number 12
_symmetry_cell_setting 'monoclinic'
loop_
_space_group_symop_operation_xyz
x,y,z
-x,y,-z
-x,-y,-z
x,-y,z
1/2+x,1/2+y,z
1/2-x,1/2+y,-z
1/2-x,1/2-y,-z
1/2+x,1/2-y,z
loop_
_atom_site_type_symbol
_atom_site_label
_atom_site_fract_x
_atom_site_fract_y
_atom_site_fract_z
Si Si1 0.708340 0.145869 0.550391
Si Si2 0.704881 0.848474 0.813278
Si Si3 0.695441 0.595935 0.686063
Si Si4 0.982080 0.295088 0.197940
Si Si5 0.294546 0.372767 0.183686
O O1 0.750000 0.250000 0.500000
O O2 0.554740 0.145979 0.716083
O O3 0.503934 0.100064 0.635987
O O4 0.005262 0.112102 0.364778
O O5 0.622838 0.851970 0.793616
O O6 0.714916 0.737834 0.813616
O O7 0.500000 0.880046 0.000000
O O8 0.599243 0.500000 0.719129
O O9 0.655670 0.699623 0.690046
O O10 0.593613 0.599439 0.822896
O O11 0.000000 0.589708 0.500000
O O12 0.250000 0.250000 0.000000
O O13 0.500000 0.403444 0.000000
#
# Coordination Sequence:
#
# PCOD9169545 Si02
#       5
#     8   8   8   8   8
#     4  10  17  27  45  67  97 130 163 213 259 301
#     4   9  17  28  42  66  96 125 162 207 256 302
#     4  10  20  33  49  72 106 141 170 207 260 321
#     4  11  19  30  49  72 101 136 178 222 262 308
#     4   9  17  30  45  67  97 128 167 205 251 307
#
# _framework density 24.798452000000001
#
# number of rings (size 3 to 8) (size 9 to 14) (size 15 to 20)
#    0.000    2.200    0.000    9.000    0.000    0.400 
#    0.000    0.000    0.000    0.000    0.000    1.400 
#    0.000   56.000    0.000    0.800    0.000    2.400 
#
# Total GULP energy -111428.316118 kJ/mol
# GULP energy per Si atom -5571.415806 kJ/mol
# Density = 2.474201 g / cm^3
# Si number density = 24.798452 Si / 1000 Ang^3
#
#
#
# Elastic Constant Matrix: (Units=GPa)
#
#
# Indices 1 2 3 4 5 6 
#
# 1 127.8629 -0.2135 35.1856 -0.0786 18.8631 0.0402
# 2 -0.2135 59.9975 -14.1456 -0.1379 1.6160 0.0116
# 3 35.1856 -14.1456 120.2035 -0.3484 9.6263 0.0890
# 4 -0.0786 -0.1379 -0.3484 -32.4288 0.0776 7.8208
# 5 18.8631 1.6160 9.6263 0.0776 48.8184 -0.0661
# 6 0.0402 0.0116 0.0890 7.8208 -0.0661 -10.2462
#
#
#
# Elastic Compliance Matrix: (Units=1/GPa)
#
#
# Indices 1 2 3 4 5 6 
#
# 1 0.008925 -0.000462 -0.002430 0.000009 -0.002954 0.000039
# 2 -0.000462 0.017213 0.002227 -0.000108 -0.000830 -0.000040
# 3 -0.002430 0.002227 0.009371 -0.000107 -0.000982 -0.000001
# 4 0.000009 -0.000108 -0.000107 -0.037792 0.000042 -0.028848
# 5 -0.002954 -0.000830 -0.000982 0.000042 0.021846 -0.000130
# 6 0.000039 -0.000040 -0.000001 -0.028848 -0.000130 -0.119616
#
#
# Mechanical properties :
#
#
# Convention : Reuss Voigt Hill
#
# Bulk Modulus (GPa) = 29.25782 38.85744 34.05763
# Shear Modulus (GPa) = -57.25363 20.37784 -18.43789
#
# Velocity S-wave (km/s) = -4.81017 2.86971 -2.72970
# Velocity P-wave (km/s) = 4.36193 5.16562 1.95668
#
# Compressibility (1/GPa) = 0.03417890
#
# Stress axis : x y z
#
# Youngs Moduli (GPa) = 112.04974 58.09600 106.71216
#
# Poissons Ratio (x) = 0.02682 0.25933
# Poissons Ratio (y) = 0.05172 -0.23764
# Poissons Ratio (z) = 0.27230 -0.12938
#
# Static dielectric constant tensor:
#      x y z
#    x 2.039950 -0.000180 0.000630 
#    y -0.000180 2.273180 0.000280 
#    z 0.000630 0.000280 2.043690 
# 
# From -- ./inp_files/60837.got.cif
#   From: 2010.05.17/outbox.cif.g08.bks.cpg/sg12_31_cif.got.tgz:60837.got - 2010.06.03 13:09:07.
