data_PCOD9169853
_publ_section_title
;
Structure prediction by ZEFSAII (Michael W. Deem and Ramdas Pophale) SiO2 
 PCOD9169853
Probable space group: C 2/M
;
_chemical_formula_sum "Si O2"
_cell_formula_units_Z 48
_cell_length_a 19.432540
_cell_length_b 15.693083
_cell_length_c 24.678284
_cell_angle_alpha 90.000000
_cell_angle_beta 163.575231
_cell_angle_gamma 90.000000
_cell_volume 2127.966800
_symmetry_space_group_name_H-M "C 2/M"
_symmetry_group_IT_number 12
_symmetry_cell_setting 'monoclinic'
loop_
_space_group_symop_operation_xyz
x,y,z
-x,y,-z
-x,-y,-z
x,-y,z
1/2+x,1/2+y,z
1/2-x,1/2+y,-z
1/2-x,1/2-y,-z
1/2+x,1/2-y,z
loop_
_atom_site_type_symbol
_atom_site_label
_atom_site_fract_x
_atom_site_fract_y
_atom_site_fract_z
Si Si1 0.045985 0.234942 0.227913
Si Si2 0.945322 0.142476 0.253421
Si Si3 0.655890 0.825274 0.776780
Si Si4 0.844642 0.409091 0.630238
Si Si5 0.296389 0.717651 0.771923
Si Si6 0.414776 0.906672 0.873272
O O1 0.072040 0.160720 0.292119
O O2 0.139198 0.326955 0.319095
O O3 0.184151 0.207398 0.277724
O O4 0.750000 0.250000 0.000000
O O5 0.088901 0.088469 0.405589
O O6 0.953247 0.235516 0.286719
O O7 0.671415 0.110758 0.036886
O O8 0.534457 0.894210 0.723990
O O9 0.637392 0.829404 0.697714
O O10 0.934578 0.810878 0.005253
O O11 0.889827 0.500000 0.691772
O O12 0.261970 0.820155 0.752308
O O13 0.312464 0.000000 0.782167
O O14 0.500000 0.908193 0.000000
#
# Coordination Sequence:
#
# PCOD9169853 Si02
#       6
#     8   8   8   8   8   8
#     4  11  19  35  61  85 112 143 194 240 281 331
#     4  10  19  36  56  79 109 156 188 221 278 353
#     4   9  17  34  59  77 109 150 189 225 273 339
#     4  11  23  38  56  84 118 152 189 236 289 335
#     4  10  17  33  55  85 108 141 192 233 277 337
#     4  10  17  28  52  82 109 138 179 232 278 326
#
# _framework density 22.556742
#
# number of rings (size 3 to 8) (size 9 to 14) (size 15 to 20)
#    0.000    1.833    8.333    2.500    0.000    0.667 
#    0.000    5.000    0.000    2.000    0.000    0.000 
#    0.000    0.000    0.000    0.000    0.000    0.000 
#
# Total GULP energy -133820.705587 kJ/mol
# GULP energy per Si atom -5575.862733 kJ/mol
# Density = 2.250540 g / cm^3
# Si number density = 22.556742 Si / 1000 Ang^3
#
#
#
# Elastic Constant Matrix: (Units=GPa)
#
#
# Indices 1 2 3 4 5 6 
#
# 1 166.2164 -10.1482 -8.3914 0.0716 -7.4295 -0.0091
# 2 -10.1482 42.3060 -5.5965 0.2078 -6.6186 -0.0058
# 3 -8.3914 -5.5965 41.8545 0.3822 -6.2926 -0.0240
# 4 0.0716 0.2078 0.3822 5.4885 0.0208 -2.8069
# 5 -7.4295 -6.6186 -6.2926 0.0208 28.0051 -0.0180
# 6 -0.0091 -0.0058 -0.0240 -2.8069 -0.0180 8.2827
#
#
#
# Elastic Compliance Matrix: (Units=1/GPa)
#
#
# Indices 1 2 3 4 5 6 
#
# 1 0.006369 0.002206 0.001974 -0.000368 0.002655 -0.000104
# 2 0.002206 0.026091 0.005135 -0.001666 0.007906 -0.000512
# 3 0.001974 0.005135 0.026141 -0.002442 0.007612 -0.000730
# 4 -0.000368 -0.001666 -0.002442 0.220682 -0.001155 0.074774
# 5 0.002655 0.007906 0.007612 -0.001155 0.039992 -0.000274
# 6 -0.000104 -0.000512 -0.000730 0.074774 -0.000274 0.146070
#
#
# Mechanical properties :
#
#
# Convention : Reuss Voigt Hill
#
# Bulk Modulus (GPa) = 12.94801 22.45606 17.70204
# Shear Modulus (GPa) = 10.58294 26.65613 18.61953
#
# Velocity S-wave (km/s) = 2.16838 3.44137 2.87619
# Velocity P-wave (km/s) = 3.46725 5.07619 4.34681
#
# Compressibility (1/GPa) = 0.07723192
#
# Stress axis : x y z
#
# Youngs Moduli (GPa) = 156.99909 38.32776 38.25397
#
# Poissons Ratio (x) = -0.08456 -0.07553
# Poissons Ratio (y) = -0.34638 -0.19642
# Poissons Ratio (z) = -0.30999 -0.19680
#
# Static dielectric constant tensor:
#      x y z
#    x 1.911250 0.000000 0.019540 
#    y 0.000000 1.853810 -0.000280 
#    z 0.019540 -0.000280 1.885510 
# 
# From -- ./inp_files/325711.got.cif
#   From: 2010.05.17/outbox.cif.g08.bks.cpg/sg12_163_cif.got.tgz:325711.got - 2010.06.03 13:09:07.
