data_PCOD9169889
_publ_section_title
;
Structure prediction by ZEFSAII (Michael W. Deem and Ramdas Pophale) SiO2 
 PCOD9169889
Probable space group: C 2/M
;
_chemical_formula_sum "Si O2"
_cell_formula_units_Z 64
_cell_length_a 31.184577
_cell_length_b 7.884271
_cell_length_c 31.991059
_cell_angle_alpha 90.000000
_cell_angle_beta 151.347761
_cell_angle_gamma 90.000000
_cell_volume 3771.477510
_symmetry_space_group_name_H-M "C 2/M"
_symmetry_group_IT_number 12
_symmetry_cell_setting 'monoclinic'
loop_
_space_group_symop_operation_xyz
x,y,z
-x,y,-z
-x,-y,-z
x,-y,z
1/2+x,1/2+y,z
1/2-x,1/2+y,-z
1/2-x,1/2-y,-z
1/2+x,1/2-y,z
loop_
_atom_site_type_symbol
_atom_site_label
_atom_site_fract_x
_atom_site_fract_y
_atom_site_fract_z
Si Si1 0.664713 0.708143 0.704695
Si Si2 0.351581 0.307203 0.735030
Si Si3 0.834486 0.803007 0.389798
Si Si4 0.870459 0.204904 0.569487
Si Si5 0.977004 0.704632 0.913762
Si Si6 0.830092 0.299261 0.625027
Si Si7 0.359636 0.206747 0.893819
Si Si8 0.475464 0.707930 0.579033
O O1 0.666400 0.500000 0.705650
O O2 0.662875 0.767759 0.654850
O O3 0.757475 0.763890 0.805187
O O4 0.574889 0.760290 0.651469
O O5 0.325359 0.500000 0.719835
O O6 0.265542 0.203331 0.677375
O O7 0.437529 0.266855 0.836548
O O8 0.366355 0.278041 0.698687
O O9 0.904452 0.731842 0.483277
O O10 0.860073 0.000000 0.407023
O O11 0.883202 0.262951 0.627892
O O12 0.771548 0.263929 0.470205
O O13 0.941196 0.261692 0.595321
O O14 0.868671 0.000000 0.568274
O O15 0.977309 0.500000 0.912940
O O16 0.908318 0.755243 0.892042
O O17 0.074936 0.762121 0.012799
O O18 0.825127 0.500000 0.627190
O O19 0.359490 0.000000 0.894368
O O20 0.473434 0.500000 0.577384
#
# Coordination Sequence:
#
# PCOD9169889 Si02
#       8
#     8   8   8   8   8   8   8   8
#     4   9  15  24  45  72  94 120 159 196 219 255
#     4  12  22  30  44  68  94 123 155 190 234 276
#     4  10  17  29  45  65  94 128 162 190 216 258
#     4   9  17  30  46  68  94 118 148 188 230 270
#     4   9  16  29  47  66  90 120 153 191 231 271
#     4  10  19  32  49  66  88 119 154 188 229 277
#     4   8  14  25  45  70  91 116 154 194 227 262
#     4   9  16  26  43  70  97 122 154 191 226 259
#
# _framework density 16.969477999999999
#
# number of rings (size 3 to 8) (size 9 to 14) (size 15 to 20)
#    0.000    2.500    2.500    2.625    0.000    2.000 
#    0.000    1.250    0.000    2.250    0.000    0.875 
#    0.000    0.000    0.000    0.000    0.000    0.000 
#
# Total GULP energy -178415.724193 kJ/mol
# GULP energy per Si atom -5575.491381 kJ/mol
# Density = 1.693085 g / cm^3
# Si number density = 16.969478 Si / 1000 Ang^3
#
#
#
# Elastic Constant Matrix: (Units=GPa)
#
#
# Indices 1 2 3 4 5 6 
#
# 1 116.2865 0.5901 77.7252 0.0000 -7.4152 -0.0001
# 2 0.5901 15.6685 1.1060 -0.0001 -1.3074 0.0001
# 3 77.7252 1.1060 121.2821 0.0000 -10.7399 0.0000
# 4 0.0000 -0.0001 0.0000 1.7096 0.0000 -4.2493
# 5 -7.4152 -1.3074 -10.7399 0.0000 25.2215 0.0000
# 6 -0.0001 0.0001 0.0000 -4.2493 0.0000 9.2742
#
#
#
# Elastic Compliance Matrix: (Units=1/GPa)
#
#
# Indices 1 2 3 4 5 6 
#
# 1 0.015046 0.000140 -0.009614 -0.000006 0.000337 -0.000003
# 2 0.000140 0.064111 -0.000391 -0.000011 0.003198 -0.000006
# 3 -0.009614 -0.000391 0.014713 0.000005 0.003418 0.000002
# 4 -0.000006 -0.000011 0.000005 -4.212725 -0.000007 -1.930198
# 5 0.000337 0.003198 0.003418 -0.000007 0.041369 -0.000003
# 6 -0.000003 -0.000006 0.000002 -1.930198 -0.000003 -0.776557
#
#
# Mechanical properties :
#
#
# Convention : Reuss Voigt Hill
#
# Bulk Modulus (GPa) = 13.48799 45.78664 29.63731
# Shear Modulus (GPa) = -1.03959 18.82876 8.89459
#
# Velocity S-wave (km/s) = -0.78355 3.33463 2.29192
# Velocity P-wave (km/s) = 2.67339 6.47045 4.95044
#
# Compressibility (1/GPa) = 0.07414002
#
# Stress axis : x y z
#
# Youngs Moduli (GPa) = 66.46219 15.59787 67.96834
#
# Poissons Ratio (x) = -0.00219 0.65344
# Poissons Ratio (y) = -0.00931 0.02659
# Poissons Ratio (z) = 0.63896 0.00610
#
# Static dielectric constant tensor:
#      x y z
#    x 1.555550 0.000000 -0.008840 
#    y 0.000000 1.627250 0.000000 
#    z -0.008840 0.000000 1.575690 
# 
# From -- ./inp_files/384556.got.cif
#   From: 2010.05.17/outbox.cif.g08.bks.cpg/sg12_193_cif.got.tgz:384556.got - 2010.06.03 13:09:07.
