data_PCOD9169767
_publ_section_title
;
Structure prediction by ZEFSAII (Michael W. Deem and Ramdas Pophale) SiO2 
 PCOD9169767
Probable space group: C 2/M
;
_chemical_formula_sum "Si O2"
_cell_formula_units_Z 56
_cell_length_a 11.593059
_cell_length_b 27.012293
_cell_length_c 13.506165
_cell_angle_alpha 90.000000
_cell_angle_beta 32.534005
_cell_angle_gamma 90.000000
_cell_volume 2274.638575
_symmetry_space_group_name_H-M "C 2/M"
_symmetry_group_IT_number 12
_symmetry_cell_setting 'monoclinic'
loop_
_space_group_symop_operation_xyz
x,y,z
-x,y,-z
-x,-y,-z
x,-y,z
1/2+x,1/2+y,z
1/2-x,1/2+y,-z
1/2-x,1/2-y,-z
1/2+x,1/2-y,z
loop_
_atom_site_type_symbol
_atom_site_label
_atom_site_fract_x
_atom_site_fract_y
_atom_site_fract_z
Si Si1 0.026946 0.055668 0.818361
Si Si2 0.848025 0.260980 0.278393
Si Si3 0.231102 0.134463 0.323857
Si Si4 0.363167 0.055233 0.391051
Si Si5 0.089215 0.272098 0.287305
Si Si6 0.832998 0.618441 0.712492
Si Si7 0.754381 0.445959 0.149401
O O1 0.191556 0.056191 0.605299
O O2 0.109283 0.100297 0.826755
O O3 0.801149 0.060868 0.925399
O O4 0.042240 0.000000 0.850666
O O5 0.882011 0.319757 0.236440
O O6 0.634171 0.240737 0.492162
O O7 0.788522 0.244587 0.210575
O O8 0.040578 0.247949 0.215174
O O9 0.282231 0.092435 0.366481
O O10 0.201302 0.104389 0.244240
O O11 0.000000 0.159732 0.500000
O O12 0.581443 0.073533 0.283054
O O13 0.380535 0.000000 0.338818
O O14 0.134617 0.330959 0.251529
O O15 0.000000 0.623752 0.500000
O O16 0.655266 0.500000 0.250426
O O17 0.000000 0.450562 0.000000
#
# Coordination Sequence:
#
# PCOD9169767 Si02
#       7
#     8   8   8   8   8   8   8
#     4   9  18  30  48  74 108 146 184 224 270 340
#     4  10  20  30  46  74 114 143 183 223 284 333
#     4  12  20  32  54  81 110 142 181 235 279 331
#     4  10  19  29  46  77 113 140 173 222 278 330
#     4  10  18  30  45  72 116 147 174 229 282 335
#     4  10  17  28  47  73 110 149 176 216 284 336
#     4  10  22  38  55  78 112 153 190 226 278 342
#
# _framework density 24.619298000000001
#
# number of rings (size 3 to 8) (size 9 to 14) (size 15 to 20)
#    0.000    1.857    5.714    0.857    0.000    3.429 
#    0.000    0.000    0.000    0.857    0.000    8.000 
#    0.000    0.000    0.000    0.000    0.000    0.000 
#
# Total GULP energy -156092.337315 kJ/mol
# GULP energy per Si atom -5574.726333 kJ/mol
# Density = 2.456326 g / cm^3
# Si number density = 24.619298 Si / 1000 Ang^3
#
#
#
# Elastic Constant Matrix: (Units=GPa)
#
#
# Indices 1 2 3 4 5 6 
#
# 1 200.6136 27.3955 21.1515 0.0000 -20.1001 0.0000
# 2 27.3955 89.7003 5.6991 0.0000 -6.1692 0.0000
# 3 21.1515 5.6991 40.8849 0.0000 2.1915 0.0000
# 4 0.0000 0.0000 0.0000 2.5526 0.0000 -2.0771
# 5 -20.1001 -6.1692 2.1915 0.0000 20.5341 0.0000
# 6 0.0000 0.0000 0.0000 -2.0771 0.0000 46.1446
#
#
#
# Elastic Compliance Matrix: (Units=1/GPa)
#
#
# Indices 1 2 3 4 5 6 
#
# 1 0.006099 -0.001244 -0.003300 0.000000 0.005948 0.000000
# 2 -0.001244 0.011767 -0.001128 0.000000 0.002438 0.000000
# 3 -0.003300 -0.001128 0.026667 0.000000 -0.006416 0.000000
# 4 0.000000 0.000000 0.000000 0.406650 0.000000 0.018304
# 5 0.005948 0.002438 -0.006416 0.000000 0.055939 0.000000
# 6 0.000000 0.000000 0.000000 0.018304 0.000000 0.022495
#
#
# Mechanical properties :
#
#
# Convention : Reuss Voigt Hill
#
# Bulk Modulus (GPa) = 30.12974 48.85454 39.49214
# Shear Modulus (GPa) = 9.05756 32.30975 20.68366
#
# Velocity S-wave (km/s) = 1.92017 3.62660 2.90166
# Velocity P-wave (km/s) = 4.14498 6.11747 5.22515
#
# Compressibility (1/GPa) = 0.03318980
#
# Stress axis : x y z
#
# Youngs Moduli (GPa) = 163.97464 84.98035 37.49888
#
# Poissons Ratio (x) = 0.10570 0.12376
# Poissons Ratio (y) = 0.20395 0.04228
# Poissons Ratio (z) = 0.54119 0.09582
#
# Static dielectric constant tensor:
#      x y z
#    x 1.999770 0.000000 -0.021150 
#    y 0.000000 1.951060 0.000000 
#    z -0.021150 0.000000 2.128690 
# 
# From -- ./inp_files/136315.got.cif
#   From: 2010.05.17/outbox.cif.g08.bks.cpg/sg12_69_cif.got.tgz:136315.got - 2010.06.03 13:09:07.
