data_PCOD9169727
_publ_section_title
;
Structure prediction by ZEFSAII (Michael W. Deem and Ramdas Pophale) SiO2 
 PCOD9169727
Probable space group: C 2/M
;
_chemical_formula_sum "Si O2"
_cell_formula_units_Z 48
_cell_length_a 24.948190
_cell_length_b 8.671477
_cell_length_c 21.991368
_cell_angle_alpha 90.000000
_cell_angle_beta 38.336166
_cell_angle_gamma 90.000000
_cell_volume 2950.992684
_symmetry_space_group_name_H-M "C 2/M"
_symmetry_group_IT_number 12
_symmetry_cell_setting 'monoclinic'
loop_
_space_group_symop_operation_xyz
x,y,z
-x,y,-z
-x,-y,-z
x,-y,z
1/2+x,1/2+y,z
1/2-x,1/2+y,-z
1/2-x,1/2-y,-z
1/2+x,1/2-y,z
loop_
_atom_site_type_symbol
_atom_site_label
_atom_site_fract_x
_atom_site_fract_y
_atom_site_fract_z
Si Si1 0.050196 0.815751 0.656656
Si Si2 0.640060 0.314853 0.149868
Si Si3 0.884485 0.683399 0.272585
Si Si4 0.669416 0.183436 0.989982
Si Si5 0.782729 0.316205 0.535834
Si Si6 0.987929 0.183382 0.940200
O O1 0.073947 0.758542 0.703655
O O2 0.118297 0.738677 0.550231
O O3 0.949473 0.777757 0.737121
O O4 0.061520 0.000000 0.644547
O O5 0.640629 0.500000 0.138011
O O6 0.728922 0.276998 0.105326
O O7 0.643038 0.231575 0.082004
O O8 0.883278 0.500000 0.281472
O O9 0.786489 0.746582 0.355868
O O10 0.942574 0.731643 0.164120
O O11 0.658974 0.000000 0.992447
O O12 0.606333 0.268766 0.000032
O O13 0.777541 0.500000 0.540150
O O14 0.750000 0.250000 0.500000
O O15 0.999272 0.000000 0.922600
O O16 0.000000 0.222915 0.000000
#
# Coordination Sequence:
#
# PCOD9169727 Si02
#       6
#     8   8   8   8   8   8
#     4  10  17  28  46  69  99 130 159 190 235 288
#     4   9  18  30  47  70 100 132 158 192 240 289
#     4  11  20  31  47  68  94 124 161 201 242 285
#     4  10  19  31  48  71  96 126 164 201 238 284
#     4  10  18  28  43  65  95 127 159 193 236 286
#     4  11  23  37  51  68  94 130 167 203 245 289
#
# _framework density 16.265713000000002
#
# number of rings (size 3 to 8) (size 9 to 14) (size 15 to 20)
#    0.000    1.833    1.667    6.500    0.000    2.667 
#    0.000    0.000    0.000    0.000    0.000    1.167 
#    0.000    9.333    0.000    0.000    0.000    0.000 
#
# Total GULP energy -133866.040287 kJ/mol
# GULP energy per Si atom -5577.751679 kJ/mol
# Density = 1.622869 g / cm^3
# Si number density = 16.265713 Si / 1000 Ang^3
#
#
#
# Elastic Constant Matrix: (Units=GPa)
#
#
# Indices 1 2 3 4 5 6 
#
# 1 64.8210 23.7706 43.3871 -0.0005 -13.6091 0.0004
# 2 23.7706 68.4472 33.1333 -0.0007 -8.5716 0.0004
# 3 43.3871 33.1333 102.1580 -0.0013 -33.5285 0.0012
# 4 -0.0005 -0.0007 -0.0013 25.7581 0.0008 -4.6000
# 5 -13.6091 -8.5716 -33.5285 0.0008 25.9858 -0.0006
# 6 0.0004 0.0004 0.0012 -4.6000 -0.0006 18.0067
#
#
#
# Elastic Compliance Matrix: (Units=1/GPa)
#
#
# Indices 1 2 3 4 5 6 
#
# 1 0.022341 -0.003741 -0.008395 0.000000 -0.000365 0.000000
# 2 -0.003741 0.018064 -0.005130 0.000000 -0.002619 0.000000
# 3 -0.008395 -0.005130 0.022583 0.000000 0.023049 0.000000
# 4 0.000000 0.000000 0.000000 0.040679 -0.000001 0.010392
# 5 -0.000365 -0.002619 0.023049 -0.000001 0.067166 0.000001
# 6 0.000000 0.000000 0.000000 0.010392 0.000001 0.058190
#
#
# Mechanical properties :
#
#
# Convention : Reuss Voigt Hill
#
# Bulk Modulus (GPa) = 35.14094 48.44535 41.79314
# Shear Modulus (GPa) = 18.31243 22.95915 20.63579
#
# Velocity S-wave (km/s) = 3.35898 3.76108 3.56570
# Velocity P-wave (km/s) = 6.05763 6.97921 6.53468
#
# Compressibility (1/GPa) = 0.02845684
#
# Stress axis : x y z
#
# Youngs Moduli (GPa) = 44.76010 55.35868 44.28195
#
# Poissons Ratio (x) = 0.20708 0.37175
# Poissons Ratio (y) = 0.16743 0.22715
# Poissons Ratio (z) = 0.37577 0.28397
#
# Static dielectric constant tensor:
#      x y z
#    x 1.530970 0.000000 -0.049450 
#    y 0.000000 1.544940 0.000000 
#    z -0.049450 0.000000 1.579590 
# 
# From -- ./inp_files/323497.got.cif
#   From: 2010.05.17/outbox.cif.g08.bks.cpg/sg12_162_cif.got.tgz:323497.got - 2010.06.03 13:09:07.
