data_PCOD9169334
_publ_section_title
;
Structure prediction by ZEFSAII (Michael W. Deem and Ramdas Pophale) SiO2 
 PCOD9169334
Probable space group: C 2/M
;
_chemical_formula_sum "Si O2"
_cell_formula_units_Z 64
_cell_length_a 19.920068
_cell_length_b 7.320962
_cell_length_c 24.396388
_cell_angle_alpha 90.000000
_cell_angle_beta 61.732213
_cell_angle_gamma 90.000000
_cell_volume 3133.531571
_symmetry_space_group_name_H-M "C 2/M"
_symmetry_group_IT_number 12
_symmetry_cell_setting 'monoclinic'
loop_
_space_group_symop_operation_xyz
x,y,z
-x,y,-z
-x,-y,-z
x,-y,z
1/2+x,1/2+y,z
1/2-x,1/2+y,-z
1/2-x,1/2-y,-z
1/2+x,1/2-y,z
loop_
_atom_site_type_symbol
_atom_site_label
_atom_site_fract_x
_atom_site_fract_y
_atom_site_fract_z
Si Si1 0.172819 0.221775 0.225353
Si Si2 0.989115 0.217949 0.677494
Si Si3 0.549236 0.723036 0.429406
Si Si4 0.565026 0.216999 0.021778
Si Si5 0.182603 0.722765 0.892325
Si Si6 0.786001 0.778186 0.666093
Si Si7 0.056076 0.722913 0.850343
Si Si8 0.881378 0.283352 0.288890
O O1 0.232730 0.284042 0.156424
O O2 0.204829 0.270605 0.273336
O O3 0.085109 0.284269 0.259830
O O4 0.172672 0.000000 0.222740
O O5 0.066939 0.256212 0.678286
O O6 0.983628 0.282184 0.616932
O O7 0.980974 0.000000 0.677839
O O8 0.500000 0.784819 0.500000
O O9 0.548120 0.500000 0.430558
O O10 0.637821 0.780133 0.394902
O O11 0.523732 0.286944 0.092375
O O12 0.575675 0.000000 0.025263
O O13 0.500000 0.238983 0.000000
O O14 0.642523 0.286786 0.964006
O O15 0.182966 0.500000 0.893742
O O16 0.125174 0.772136 0.864766
O O17 0.704951 0.713246 0.675277
O O18 0.786819 0.000000 0.664324
O O19 0.053717 0.500000 0.851422
O O20 0.075495 0.786682 0.782028
O O21 0.874416 0.500000 0.283176
#
# Coordination Sequence:
#
# PCOD9169334 Si02
#       8
#     8   8   8   8   8   8   8   8
#     4   8  12  21  37  56  76 101 135 173 205 230
#     4   9  18  29  42  62  86 107 132 167 202 238
#     4   8  14  27  47  66  82 104 136 171 201 229
#     4   7  10  14  23  45  77 102 120 157 210 245
#     4   8  10  15  30  52  75  97 128 171 209 233
#     4   8  13  22  39  62  81 102 137 171 195 229
#     4   8  12  18  30  52  79 104 128 159 203 243
#     4  10  17  26  42  62  86 112 134 161 199 244
#
# _framework density 20.424239
#
# number of rings (size 3 to 8) (size 9 to 14) (size 15 to 20)
#    0.000    3.750    1.250    3.000    0.000    0.000 
#    0.000    0.625    0.000    4.125    0.000    0.000 
#    0.000    4.500    0.000    0.000    0.000    0.000 
#
# Total GULP energy -178268.709664 kJ/mol
# GULP energy per Si atom -5570.897177 kJ/mol
# Density = 2.037775 g / cm^3
# Si number density = 20.424239 Si / 1000 Ang^3
#
#
#
# Elastic Constant Matrix: (Units=GPa)
#
#
# Indices 1 2 3 4 5 6 
#
# 1 115.5050 0.0892 70.6948 -0.0023 -20.4764 -0.0025
# 2 0.0892 76.9328 10.2377 -0.0059 -3.4203 -0.0048
# 3 70.6948 10.2377 174.0345 -0.0007 -33.6273 -0.0006
# 4 -0.0023 -0.0059 -0.0007 -19.6570 -0.0002 1.8225
# 5 -20.4764 -3.4203 -33.6273 -0.0002 23.4003 -0.0009
# 6 -0.0025 -0.0048 -0.0006 1.8225 -0.0009 -5.1674
#
#
#
# Elastic Compliance Matrix: (Units=1/GPa)
#
#
# Indices 1 2 3 4 5 6 
#
# 1 0.011940 0.000729 -0.003950 -0.000002 0.004877 -0.000008
# 2 0.000729 0.013167 -0.000797 -0.000005 0.001417 -0.000015
# 3 -0.003950 -0.000797 0.009285 0.000000 0.009770 0.000000
# 4 -0.000002 -0.000005 0.000000 -0.052592 -0.000004 -0.018549
# 5 0.004877 0.001417 0.009770 -0.000004 0.061250 -0.000017
# 6 -0.000008 -0.000015 0.000000 -0.018549 -0.000017 -0.200063
#
#
# Mechanical properties :
#
#
# Convention : Reuss Voigt Hill
#
# Bulk Modulus (GPa) = 37.94405 58.72396 48.33401
# Shear Modulus (GPa) = -35.66537 18.74521 -8.46008
#
# Velocity S-wave (km/s) = -4.18332 3.03280 -2.03744
# Velocity P-wave (km/s) = 2.17147 6.40924 4.26398
#
# Compressibility (1/GPa) = 0.02635459
#
# Stress axis : x y z
#
# Youngs Moduli (GPa) = 83.75503 75.95007 107.69582
#
# Poissons Ratio (x) = -0.05534 0.42545
# Poissons Ratio (y) = -0.06103 0.08580
# Poissons Ratio (z) = 0.33087 0.06051
#
# Static dielectric constant tensor:
#      x y z
#    x 1.704980 0.000000 -0.035260 
#    y 0.000000 1.802900 0.000000 
#    z -0.035260 0.000000 1.739790 
# 
# From -- ./inp_files/342877.got.cif
#   From: 2010.05.17/outbox.cif.g08.bks.cpg/sg12_172_cif.got.tgz:342877.got - 2010.06.03 13:09:07.
