data_PCOD9169117
_publ_section_title
;
Structure prediction by ZEFSAII (Michael W. Deem and Ramdas Pophale) SiO2 
 PCOD9169117
Probable space group: C 2/M
;
_chemical_formula_sum "Si O2"
_cell_formula_units_Z 52
_cell_length_a 17.786882
_cell_length_b 25.595199
_cell_length_c 12.334956
_cell_angle_alpha 90.000000
_cell_angle_beta 151.795131
_cell_angle_gamma 90.000000
_cell_volume 2654.075253
_symmetry_space_group_name_H-M "C 2/M"
_symmetry_group_IT_number 12
_symmetry_cell_setting 'monoclinic'
loop_
_space_group_symop_operation_xyz
x,y,z
-x,y,-z
-x,-y,-z
x,-y,z
1/2+x,1/2+y,z
1/2-x,1/2+y,-z
1/2-x,1/2-y,-z
1/2+x,1/2-y,z
loop_
_atom_site_type_symbol
_atom_site_label
_atom_site_fract_x
_atom_site_fract_y
_atom_site_fract_z
Si Si1 0.021498 0.682985 0.401716
Si Si2 0.500000 0.200442 0.000000
Si Si3 0.143052 0.907066 0.606458
Si Si4 0.868194 0.836793 0.745353
Si Si5 0.141224 0.208479 0.506250
Si Si6 0.047470 0.383280 0.873249
Si Si7 0.284538 0.441221 0.541094
O O1 0.196348 0.667763 0.581655
O O2 0.018675 0.745465 0.378984
O O3 0.000000 0.672186 0.500000
O O4 0.912052 0.646718 0.186859
O O5 0.323001 0.225162 0.769938
O O6 0.495606 0.162939 0.889497
O O7 0.114970 0.846191 0.535234
O O8 0.171854 0.936566 0.530514
O O9 0.000000 0.925258 0.500000
O O10 0.301918 0.909205 0.879715
O O11 0.870510 0.803504 0.637019
O O12 0.885938 0.897035 0.730866
O O13 0.000000 0.822740 0.000000
O O14 0.899059 0.422605 0.678269
O O15 0.306981 0.500000 0.607888
#
# Coordination Sequence:
#
# PCOD9169117 Si02
#       7
#     8   4   8   8   8   8   8
#     4  11  23  36  54  86 119 154 194 235 284 335
#     4  10  16  36  61  80 110 146 197 244 268 322
#     4  10  20  35  56  85 121 145 177 242 302 334
#     4  10  22  38  59  81 114 156 196 232 282 344
#     4  10  20  36  57  84 112 157 198 229 279 334
#     4  10  19  38  58  81 112 154 192 235 279 343
#     4  10  20  38  61  84 108 144 197 238 287 350
#
# _framework density 19.592511999999999
#
# number of rings (size 3 to 8) (size 9 to 14) (size 15 to 20)
#    0.000    1.846    6.154    0.923    1.077    5.538 
#    0.000    4.615    0.000    7.385    0.000    0.000 
#    0.000    0.000    0.000    0.000    0.000    0.000 
#
# Total GULP energy -145099.126107 kJ/mol
# GULP energy per Si atom -5580.735620 kJ/mol
# Density = 1.954792 g / cm^3
# Si number density = 19.592512 Si / 1000 Ang^3
#
#
#
# Elastic Constant Matrix: (Units=GPa)
#
#
# Indices 1 2 3 4 5 6 
#
# 1 83.6076 7.0838 -4.0003 0.0000 -27.4281 0.0000
# 2 7.0838 76.2025 -6.1137 0.0000 -12.9103 0.0000
# 3 -4.0003 -6.1137 51.7494 0.0000 -17.5654 0.0000
# 4 0.0000 0.0000 0.0000 4.6923 0.0000 -6.9223
# 5 -27.4281 -12.9103 -17.5654 0.0000 30.8502 0.0000
# 6 0.0000 0.0000 0.0000 -6.9223 0.0000 -0.3926
#
#
#
# Elastic Compliance Matrix: (Units=1/GPa)
#
#
# Indices 1 2 3 4 5 6 
#
# 1 0.020715 0.003342 0.010812 0.000000 0.025972 0.000000
# 2 0.003342 0.015586 0.006597 0.000000 0.013250 0.000000
# 3 0.010812 0.006597 0.031161 0.000000 0.030116 0.000000
# 4 0.000000 0.000000 0.000000 0.007890 0.000000 -0.139113
# 5 0.025972 0.013250 0.030116 0.000000 0.078198 0.000000
# 6 0.000000 0.000000 0.000000 -0.139113 0.000000 -0.094299
#
#
# Mechanical properties :
#
#
# Convention : Reuss Voigt Hill
#
# Bulk Modulus (GPa) = 9.17732 22.83325 16.00529
# Shear Modulus (GPa) = 92.46947 21.33595 56.90271
#
# Velocity S-wave (km/s) = 6.87741 3.30356 5.39501
# Velocity P-wave (km/s) = 8.23161 5.12159 6.85529
#
# Compressibility (1/GPa) = 0.10896423
#
# Stress axis : x y z
#
# Youngs Moduli (GPa) = 48.27433 64.15842 32.09112
#
# Poissons Ratio (x) = -0.21441 -0.34696
# Poissons Ratio (y) = -0.16133 -0.21171
# Poissons Ratio (z) = -0.52193 -0.42327
#
# Static dielectric constant tensor:
#      x y z
#    x 1.690520 0.000000 -0.017030 
#    y 0.000000 1.742900 0.000000 
#    z -0.017030 0.000000 1.710930 
# 
# From -- ./inp_files/160834.got.cif
#   From: 2010.05.17/outbox.cif.g08.bks.cpg/sg12_81_cif.got.tgz:160834.got - 2010.06.03 13:09:07.
