data_PCOD9169109
_publ_section_title
;
Structure prediction by ZEFSAII (Michael W. Deem and Ramdas Pophale) SiO2 
 PCOD9169109
Probable space group: C 2/M
;
_chemical_formula_sum "Si O2"
_cell_formula_units_Z 52
_cell_length_a 20.464666
_cell_length_b 23.989639
_cell_length_c 12.137318
_cell_angle_alpha 90.000000
_cell_angle_beta 149.466055
_cell_angle_gamma 90.000000
_cell_volume 3027.307171
_symmetry_space_group_name_H-M "C 2/M"
_symmetry_group_IT_number 12
_symmetry_cell_setting 'monoclinic'
loop_
_space_group_symop_operation_xyz
x,y,z
-x,y,-z
-x,-y,-z
x,-y,z
1/2+x,1/2+y,z
1/2-x,1/2+y,-z
1/2-x,1/2-y,-z
1/2+x,1/2-y,z
loop_
_atom_site_type_symbol
_atom_site_label
_atom_site_fract_x
_atom_site_fract_y
_atom_site_fract_z
Si Si1 0.845030 0.644512 0.073553
Si Si2 0.507430 0.295232 0.883282
Si Si3 0.061360 0.668741 0.209942
Si Si4 0.146253 0.933545 0.677528
Si Si5 0.729060 0.739061 0.770932
Si Si6 0.309294 0.356420 0.462854
Si Si7 0.500000 0.186172 0.500000
O O1 0.912460 0.651209 0.288962
O O2 0.962671 0.644787 0.156193
O O3 0.749656 0.593576 0.911196
O O4 0.759196 0.699396 0.919368
O O5 0.433589 0.235517 0.763059
O O6 0.443178 0.340565 0.712812
O O7 0.500000 0.311066 0.000000
O O8 0.653576 0.281484 0.066857
O O9 0.201021 0.641159 0.400663
O O10 0.000000 0.660854 0.000000
O O11 0.178215 0.907009 0.604305
O O12 0.000000 0.917953 0.500000
O O13 0.155735 0.000000 0.689379
O O14 0.730985 0.696298 0.671873
O O15 0.597297 0.772374 0.579142
#
# Coordination Sequence:
#
# PCOD9169109 Si02
#       7
#     8   8   8   8   8   8   4
#     4  10  22  36  55  79 115 146 184 229 280 324
#     4  10  19  29  48  81 116 151 176 204 267 339
#     4  10  16  35  51  81 111 145 176 217 263 324
#     4  10  23  42  61  79 100 139 196 245 283 322
#     4  10  20  32  49  78 114 153 183 213 258 331
#     4  11  20  33  57  76 111 144 186 230 272 320
#     4  12  24  32  49  84 121 154 178 216 276 352
#
# _framework density 17.176981999999999
#
# number of rings (size 3 to 8) (size 9 to 14) (size 15 to 20)
#    0.000    1.692    6.154    2.769    8.615    0.000 
#    0.000    1.923    0.000    0.462    0.000    0.000 
#    0.000    0.000    0.000    0.000    0.000    0.000 
#
# Total GULP energy -145028.088519 kJ/mol
# GULP energy per Si atom -5578.003405 kJ/mol
# Density = 1.713789 g / cm^3
# Si number density = 17.176982 Si / 1000 Ang^3
#
#
#
# Elastic Constant Matrix: (Units=GPa)
#
#
# Indices 1 2 3 4 5 6 
#
# 1 50.3146 25.4445 18.5815 0.0000 10.1536 0.0000
# 2 25.4445 48.8364 41.4404 0.0000 10.9453 0.0000
# 3 18.5815 41.4404 94.6406 0.0000 -5.2307 0.0000
# 4 0.0000 0.0000 0.0000 -26.9340 0.0000 -51.3759
# 5 10.1536 10.9453 -5.2307 0.0000 25.6716 0.0000
# 6 0.0000 0.0000 0.0000 -51.3759 0.0000 -54.5275
#
#
#
# Elastic Compliance Matrix: (Units=1/GPa)
#
#
# Indices 1 2 3 4 5 6 
#
# 1 0.027622 -0.013327 0.000124 0.000000 -0.005217 0.000000
# 2 -0.013327 0.048466 -0.019678 0.000000 -0.019402 0.000000
# 3 0.000124 -0.019678 0.019843 0.000000 0.012384 0.000000
# 4 0.000000 0.000000 0.000000 0.046571 0.000000 -0.043879
# 5 -0.005217 -0.019402 0.012384 0.000000 0.051813 0.000000
# 6 0.000000 0.000000 0.000000 -0.043879 0.000000 0.023004
#
#
# Mechanical properties :
#
#
# Convention : Reuss Voigt Hill
#
# Bulk Modulus (GPa) = 33.14671 40.52492 36.83581
# Shear Modulus (GPa) = 17.05690 -3.93630 6.56030
#
# Velocity S-wave (km/s) = 3.15462 -1.51545 1.95641
# Velocity P-wave (km/s) = 5.71034 4.53670 5.15701
#
# Compressibility (1/GPa) = 0.03016890
#
# Stress axis : x y z
#
# Youngs Moduli (GPa) = 36.20335 20.63290 50.39649
#
# Poissons Ratio (x) = 0.27498 -0.00625
# Poissons Ratio (y) = 0.48249 0.99169
# Poissons Ratio (z) = -0.00449 0.40601
#
# Static dielectric constant tensor:
#      x y z
#    x 1.622940 0.000000 0.008270 
#    y 0.000000 1.546650 0.000000 
#    z 0.008270 0.000000 1.617020 
# 
# From -- ./inp_files/170337.got.cif
#   From: 2010.05.17/outbox.cif.g08.bks.cpg/sg12_86_cif.got.tgz:170337.got - 2010.06.03 13:09:07.
