data_PCOD9169399
_publ_section_title
;
Structure prediction by ZEFSAII (Michael W. Deem and Ramdas Pophale) SiO2 
 PCOD9169399
Probable space group: C 2/M
;
_chemical_formula_sum "Si O2"
_cell_formula_units_Z 56
_cell_length_a 14.208951
_cell_length_b 8.804748
_cell_length_c 20.537161
_cell_angle_alpha 90.000000
_cell_angle_beta 112.950595
_cell_angle_gamma 90.000000
_cell_volume 2365.942610
_symmetry_space_group_name_H-M "C 2/M"
_symmetry_group_IT_number 12
_symmetry_cell_setting 'monoclinic'
loop_
_space_group_symop_operation_xyz
x,y,z
-x,y,-z
-x,-y,-z
x,-y,z
1/2+x,1/2+y,z
1/2-x,1/2+y,-z
1/2-x,1/2-y,-z
1/2+x,1/2-y,z
loop_
_atom_site_type_symbol
_atom_site_label
_atom_site_fract_x
_atom_site_fract_y
_atom_site_fract_z
Si Si1 0.100429 0.179609 0.950148
Si Si2 0.076610 0.669989 0.812124
Si Si3 0.165696 0.329406 0.236969
Si Si4 0.596757 0.824464 0.474742
Si Si5 0.533305 0.323986 0.664160
Si Si6 0.125802 0.316712 0.088265
Si Si7 0.792079 0.319440 0.373920
O O1 0.123706 0.231464 0.882881
O O2 0.981445 0.229072 0.928858
O O3 0.112271 0.000000 0.960143
O O4 0.157188 0.265941 0.024407
O O5 0.120446 0.500000 0.823529
O O6 0.956126 0.658183 0.797117
O O7 0.068239 0.738914 0.738406
O O8 0.206804 0.500000 0.259397
O O9 0.193876 0.280177 0.170713
O O10 0.194458 0.220115 0.304012
O O11 0.500000 0.816713 0.500000
O O12 0.566189 0.731992 0.402545
O O13 0.692845 0.780988 0.546088
O O14 0.606600 0.000000 0.457693
O O15 0.522965 0.500000 0.675234
O O16 0.623948 0.282899 0.639334
O O17 0.110838 0.500000 0.084523
O O18 0.814048 0.500000 0.374319
#
# Coordination Sequence:
#
# PCOD9169399 Si02
#       7
#     8   8   8   8   8   8   8
#     4  10  17  26  44  71  98 126 166 210 245 286
#     4  10  20  35  52  72 103 137 166 203 254 302
#     4   9  19  33  51  75 102 132 167 208 248 292
#     4   8  16  32  51  72  97 128 166 204 245 293
#     4  11  21  33  53  78 101 128 167 210 247 292
#     4   9  16  28  45  67  97 133 167 201 247 294
#     4  10  20  34  54  76 101 133 166 203 248 299
#
# _framework density 23.669215000000001
#
# number of rings (size 3 to 8) (size 9 to 14) (size 15 to 20)
#    0.000    2.429    0.000    6.429    0.000    6.571 
#    0.000    0.714    0.000    0.857    0.000    0.000 
#    0.000    0.000    0.000    0.000    0.000    0.000 
#
# Total GULP energy -156330.780034 kJ/mol
# GULP energy per Si atom -5583.242144 kJ/mol
# Density = 2.361534 g / cm^3
# Si number density = 23.669215 Si / 1000 Ang^3
#
#
#
# Elastic Constant Matrix: (Units=GPa)
#
#
# Indices 1 2 3 4 5 6 
#
# 1 28.2045 -6.0284 25.3504 0.0000 6.7944 0.0000
# 2 -6.0284 114.7053 66.8650 0.0000 -3.2674 0.0000
# 3 25.3504 66.8650 173.3835 0.0000 -4.0905 0.0000
# 4 0.0000 0.0000 0.0000 42.5569 0.0000 -0.0922
# 5 6.7944 -3.2674 -4.0905 0.0000 40.5903 0.0000
# 6 0.0000 0.0000 0.0000 -0.0922 0.0000 9.2569
#
#
#
# Elastic Compliance Matrix: (Units=1/GPa)
#
#
# Indices 1 2 3 4 5 6 
#
# 1 0.048910 0.008531 -0.010643 0.000000 -0.008573 0.000000
# 2 0.008531 0.012743 -0.006186 0.000000 -0.001026 0.000000
# 3 -0.010643 -0.006186 0.009763 0.000000 0.002267 0.000000
# 4 0.000000 0.000000 0.000000 0.023498 0.000000 0.000234
# 5 -0.008573 -0.001026 0.002267 0.000000 0.026217 0.000000
# 6 0.000000 0.000000 0.000000 0.000234 0.000000 0.108030
#
#
# Mechanical properties :
#
#
# Convention : Reuss Voigt Hill
#
# Bulk Modulus (GPa) = 18.24187 54.29637 36.26912
# Shear Modulus (GPa) = 18.93711 33.82122 26.37917
#
# Velocity S-wave (km/s) = 2.83163 3.78420 3.34202
# Velocity P-wave (km/s) = 4.29122 6.48714 5.49989
#
# Compressibility (1/GPa) = 0.05481895
#
# Stress axis : x y z
#
# Youngs Moduli (GPa) = 20.44568 78.47476 102.43053
#
# Poissons Ratio (x) = -0.66943 1.09019
# Poissons Ratio (y) = -0.17441 0.63361
# Poissons Ratio (z) = 0.21761 0.48542
#
# Static dielectric constant tensor:
#      x y z
#    x 2.070510 0.000000 0.012010 
#    y 0.000000 1.805060 0.000000 
#    z 0.012010 0.000000 1.983740 
# 
# From -- ./inp_files/319313.got.cif
#   From: 2010.05.17/outbox.cif.g08.bks.cpg/sg12_160_cif.got.tgz:319313.got - 2010.06.03 13:09:07.
