data_PCOD9169962
_publ_section_title
;
Structure prediction by ZEFSAII (Michael W. Deem and Ramdas Pophale) SiO2 
 PCOD9169962
Probable space group: C 2/M
;
_chemical_formula_sum "Si O2"
_cell_formula_units_Z 56
_cell_length_a 26.827813
_cell_length_b 7.491800
_cell_length_c 20.164574
_cell_angle_alpha 90.000000
_cell_angle_beta 133.042936
_cell_angle_gamma 90.000000
_cell_volume 2961.994491
_symmetry_space_group_name_H-M "C 2/M"
_symmetry_group_IT_number 12
_symmetry_cell_setting 'monoclinic'
loop_
_space_group_symop_operation_xyz
x,y,z
-x,y,-z
-x,-y,-z
x,-y,z
1/2+x,1/2+y,z
1/2-x,1/2+y,-z
1/2-x,1/2-y,-z
1/2+x,1/2-y,z
loop_
_atom_site_type_symbol
_atom_site_label
_atom_site_fract_x
_atom_site_fract_y
_atom_site_fract_z
Si Si1 0.890462 0.717788 0.899448
Si Si2 0.002647 0.718071 0.109333
Si Si3 0.259055 0.290310 0.202263
Si Si4 0.810221 0.212383 0.106691
Si Si5 0.465650 0.791623 0.219736
Si Si6 0.507438 0.218278 0.400117
Si Si7 0.391174 0.785068 0.398329
O O1 0.889505 0.500000 0.896928
O O2 0.814004 0.782903 0.841938
O O3 0.929032 0.774023 0.867319
O O4 0.939105 0.769295 0.004868
O O5 0.002317 0.500000 0.110374
O O6 0.991711 0.784146 0.173838
O O7 0.247910 0.500000 0.179295
O O8 0.288585 0.216354 0.159700
O O9 0.316049 0.272997 0.310415
O O10 0.883569 0.283023 0.150336
O O11 0.818801 0.000000 0.119243
O O12 0.750000 0.250000 0.000000
O O13 0.496843 0.716094 0.316027
O O14 0.484676 0.000000 0.236384
O O15 0.574924 0.273301 0.501684
O O16 0.443076 0.272744 0.387089
O O17 0.506597 0.000000 0.398355
O O18 0.391582 0.000000 0.398799
#
# Coordination Sequence:
#
# PCOD9169962 Si02
#       7
#     8   8   8   8   8   8   8
#     4   8  14  26  42  64  91 115 145 186 223 259
#     4   8  14  25  45  67  86 114 150 185 222 260
#     4  10  19  30  45  67  93 118 148 187 225 263
#     4  11  22  32  43  65  95 124 149 177 220 271
#     4  10  17  29  49  70  89 114 149 189 227 264
#     4   8  15  27  45  66  89 116 149 185 220 264
#     4   9  16  29  46  64  88 120 151 182 221 268
#
# _framework density 18.906179999999999
#
# number of rings (size 3 to 8) (size 9 to 14) (size 15 to 20)
#    0.000    2.857    1.429    3.000    0.000    2.857 
#    0.000    2.143    0.000    1.714    0.000    3.000 
#    0.000    0.000    0.000    0.000    0.000    0.000 
#
# Total GULP energy -156167.580859 kJ/mol
# GULP energy per Si atom -5577.413602 kJ/mol
# Density = 1.886315 g / cm^3
# Si number density = 18.906180 Si / 1000 Ang^3
#
#
#
# Elastic Constant Matrix: (Units=GPa)
#
#
# Indices 1 2 3 4 5 6 
#
# 1 128.0511 4.7838 71.5597 0.0000 -21.6427 0.0000
# 2 4.7838 49.7294 -6.1258 0.0000 -3.0596 0.0001
# 3 71.5597 -6.1258 114.6612 0.0000 -20.8348 0.0000
# 4 0.0000 0.0000 0.0000 12.6428 0.0000 7.2119
# 5 -21.6427 -3.0596 -20.8348 0.0000 30.8181 0.0000
# 6 0.0000 0.0001 0.0000 7.2119 0.0000 4.1772
#
#
#
# Elastic Compliance Matrix: (Units=1/GPa)
#
#
# Indices 1 2 3 4 5 6 
#
# 1 0.012572 -0.001875 -0.007269 0.000000 0.003728 0.000000
# 2 -0.001875 0.020789 0.002755 0.000011 0.002610 -0.000020
# 3 -0.007269 0.002755 0.014281 0.000002 0.004824 -0.000003
# 4 0.000000 0.000011 0.000002 5.220045 0.000003 -9.012300
# 5 0.003728 0.002610 0.004824 0.000003 0.038587 -0.000005
# 6 0.000000 -0.000020 -0.000003 -9.012300 -0.000005 15.798944
#
#
# Mechanical properties :
#
#
# Convention : Reuss Voigt Hill
#
# Bulk Modulus (GPa) = 28.68217 48.09746 38.38981
# Shear Modulus (GPa) = 0.23663 24.34257 12.28960
#
# Velocity S-wave (km/s) = 0.35417 3.59213 2.55234
# Velocity P-wave (km/s) = 3.92058 6.53451 5.38845
#
# Compressibility (1/GPa) = 0.03486486
#
# Stress axis : x y z
#
# Youngs Moduli (GPa) = 79.54467 48.10197 70.02117
#
# Poissons Ratio (x) = 0.09021 0.50895
# Poissons Ratio (y) = 0.14917 -0.19292
# Poissons Ratio (z) = 0.57817 -0.13253
#
# Static dielectric constant tensor:
#      x y z
#    x 1.652020 0.000000 -0.016240 
#    y 0.000000 1.732300 0.000000 
#    z -0.016240 0.000000 1.649040 
# 
# From -- ./inp_files/291845.got.cif
#   From: 2010.05.17/outbox.cif.g08.bks.cpg/sg12_146_cif.got.tgz:291845.got - 2010.06.03 13:09:07.
