data_PCOD9169030
_publ_section_title
;
Structure prediction by ZEFSAII (Michael W. Deem and Ramdas Pophale) SiO2 
 PCOD9169030
Probable space group: C 2/M
;
_chemical_formula_sum "Si O2"
_cell_formula_units_Z 48
_cell_length_a 14.192336
_cell_length_b 16.660568
_cell_length_c 8.821648
_cell_angle_alpha 90.000000
_cell_angle_beta 108.695203
_cell_angle_gamma 90.000000
_cell_volume 1975.841577
_symmetry_space_group_name_H-M "C 2/M"
_symmetry_group_IT_number 12
_symmetry_cell_setting 'monoclinic'
loop_
_space_group_symop_operation_xyz
x,y,z
-x,y,-z
-x,-y,-z
x,-y,z
1/2+x,1/2+y,z
1/2-x,1/2+y,-z
1/2-x,1/2-y,-z
1/2+x,1/2-y,z
loop_
_atom_site_type_symbol
_atom_site_label
_atom_site_fract_x
_atom_site_fract_y
_atom_site_fract_z
Si Si1 0.218842 0.089480 0.301126
Si Si2 0.758268 0.177597 0.390596
Si Si3 0.560124 0.090383 0.728199
Si Si4 0.170167 0.822983 0.986184
Si Si5 0.166081 0.589502 0.095794
Si Si6 0.549533 0.730201 0.675757
O O1 0.210517 0.108201 0.475344
O O2 0.335724 0.090832 0.312266
O O3 0.181217 0.000000 0.250876
O O4 0.167442 0.153046 0.161571
O O5 0.750000 0.250000 0.500000
O O6 0.667921 0.148144 0.239551
O O7 0.837715 0.213616 0.316421
O O8 0.514941 0.177180 0.665105
O O9 0.516297 0.000000 0.682459
O O10 0.587680 0.098105 0.920247
O O11 0.227955 0.897056 0.934580
O O12 0.064207 0.803853 0.853184
O O13 0.250000 0.750000 0.000000
O O14 0.158940 0.500000 0.151539
O O15 0.500000 0.692408 0.500000
#
# Coordination Sequence:
#
# PCOD9169030 Si02
#       6
#     8   8   8   8   8   8
#     4  10  18  31  56  82 104 133 179 227 266 303
#     4  11  20  32  53  81 109 136 174 224 263 302
#     4   9  17  32  53  79 106 140 175 207 258 322
#     4  10  16  32  55  76 104 139 181 218 251 308
#     4   9  17  29  51  78 104 133 174 218 256 303
#     4  11  22  35  53  79 111 143 174 215 266 314
#
# _framework density 24.293445999999999
#
# number of rings (size 3 to 8) (size 9 to 14) (size 15 to 20)
#    0.000    2.000    5.000    3.000    0.000    0.333 
#    0.000    0.833    0.000   19.000    0.000    2.333 
#    0.000    0.000    0.000    0.000    0.000    0.000 
#
# Total GULP energy -133667.535094 kJ/mol
# GULP energy per Si atom -5569.480629 kJ/mol
# Density = 2.423815 g / cm^3
# Si number density = 24.293446 Si / 1000 Ang^3
#
#
#
# Elastic Constant Matrix: (Units=GPa)
#
#
# Indices 1 2 3 4 5 6 
#
# 1 47.8495 4.5463 6.0008 0.0000 -15.3755 0.0000
# 2 4.5463 84.7047 30.6974 0.0000 -9.6061 0.0000
# 3 6.0008 30.6974 177.8397 0.0000 4.2725 0.0000
# 4 0.0000 0.0000 0.0000 43.1586 0.0000 -14.8473
# 5 -15.3755 -9.6061 4.2725 0.0000 24.4548 0.0000
# 6 0.0000 0.0000 0.0000 -14.8473 0.0000 -6.0541
#
#
#
# Elastic Compliance Matrix: (Units=1/GPa)
#
#
# Indices 1 2 3 4 5 6 
#
# 1 0.026575 0.001092 -0.001503 0.000000 0.017400 0.000000
# 2 0.001092 0.013376 -0.002499 0.000000 0.006377 0.000000
# 3 -0.001503 -0.002499 0.006177 0.000000 -0.003006 0.000000
# 4 0.000000 0.000000 0.000000 0.012567 0.000000 -0.030821
# 5 0.017400 0.006377 -0.003006 0.000000 0.054862 0.000000
# 6 0.000000 0.000000 0.000000 -0.030821 0.000000 -0.089591
#
#
# Mechanical properties :
#
#
# Convention : Reuss Voigt Hill
#
# Bulk Modulus (GPa) = 24.80944 43.65365 34.23154
# Shear Modulus (GPa) = 115.68018 30.25516 72.96767
#
# Velocity S-wave (km/s) = 6.90806 3.53286 5.48645
# Velocity P-wave (km/s) = 8.59435 5.88640 7.36589
#
# Compressibility (1/GPa) = 0.04030724
#
# Stress axis : x y z
#
# Youngs Moduli (GPa) = 37.62972 74.76099 161.88243
#
# Poissons Ratio (x) = -0.08162 0.24334
# Poissons Ratio (y) = -0.04108 0.40453
# Poissons Ratio (z) = 0.05656 0.18682
#
# Static dielectric constant tensor:
#      x y z
#    x 2.113640 0.000000 -0.381950 
#    y 0.000000 2.056340 0.000000 
#    z -0.381950 0.000000 3.738620 
# 
# From -- ./inp_files/87451.got.cif
#   From: 2010.05.17/outbox.cif.g08.bks.cpg/sg12_44_cif.got.tgz:87451.got - 2010.06.03 13:09:07.
