data_PCOD9169285
_publ_section_title
;
Structure prediction by ZEFSAII (Michael W. Deem and Ramdas Pophale) SiO2 
 PCOD9169285
Probable space group: C 2/M
;
_chemical_formula_sum "Si O2"
_cell_formula_units_Z 48
_cell_length_a 13.654467
_cell_length_b 7.551048
_cell_length_c 27.052945
_cell_angle_alpha 90.000000
_cell_angle_beta 139.957008
_cell_angle_gamma 90.000000
_cell_volume 1794.535669
_symmetry_space_group_name_H-M "C 2/M"
_symmetry_group_IT_number 12
_symmetry_cell_setting 'monoclinic'
loop_
_space_group_symop_operation_xyz
x,y,z
-x,y,-z
-x,-y,-z
x,-y,z
1/2+x,1/2+y,z
1/2-x,1/2+y,-z
1/2-x,1/2-y,-z
1/2+x,1/2-y,z
loop_
_atom_site_type_symbol
_atom_site_label
_atom_site_fract_x
_atom_site_fract_y
_atom_site_fract_z
Si Si1 0.003190 0.698360 0.447373
Si Si2 0.830700 0.291195 0.691952
Si Si3 0.304610 0.702451 0.818688
Si Si4 0.000268 0.717610 0.656787
Si Si5 0.137964 0.205207 0.853391
Si Si6 0.085125 0.786440 0.981508
O O1 0.066996 0.500000 0.478622
O O2 0.825752 0.689460 0.363978
O O3 0.000000 0.786872 0.500000
O O4 0.067202 0.779921 0.421577
O O5 0.798435 0.500000 0.677807
O O6 0.902157 0.236346 0.666697
O O7 0.961710 0.259310 0.783202
O O8 0.329987 0.500000 0.811783
O O9 0.220047 0.693452 0.839953
O O10 0.468407 0.783413 0.895025
O O11 0.171983 0.784697 0.734191
O O12 0.004539 0.500000 0.657268
O O13 0.143379 0.000000 0.842510
O O14 0.241758 0.228087 0.942153
O O15 0.085748 0.000000 0.978239
O O16 0.000000 0.736581 0.000000
#
# Coordination Sequence:
#
# PCOD9169285 Si02
#       6
#     8   8   8   8   8   8
#     4  10  21  37  57  82 109 134 165 212 268 317
#     4  10  20  36  56  76 103 141 180 213 251 309
#     4   8  14  26  44  66  97 139 179 210 247 302
#     4   8  16  33  55  77 105 142 176 208 256 312
#     4  10  17  25  42  70 102 134 170 215 262 302
#     4   8  13  22  38  63  96 134 175 213 249 296
#
# _framework density 26.747868
#
# number of rings (size 3 to 8) (size 9 to 14) (size 15 to 20)
#    0.000    3.000    0.000    4.000    0.000    4.000 
#    0.000    4.167    0.000    1.000    0.000    0.000 
#    0.000    0.000    0.000    0.000    0.000    0.000 
#
# Total GULP energy -134123.056503 kJ/mol
# GULP energy per Si atom -5588.460688 kJ/mol
# Density = 2.668699 g / cm^3
# Si number density = 26.747868 Si / 1000 Ang^3
#
#
#
# Elastic Constant Matrix: (Units=GPa)
#
#
# Indices 1 2 3 4 5 6 
#
# 1 68.7143 1.1910 30.3636 0.0000 -4.6174 0.0000
# 2 1.1910 101.4798 0.1465 0.0001 -0.0547 0.0000
# 3 30.3636 0.1465 127.8758 0.0000 -26.2418 0.0000
# 4 0.0000 0.0001 0.0000 7.1730 0.0000 11.3053
# 5 -4.6174 -0.0547 -26.2418 0.0000 64.7978 0.0000
# 6 0.0000 0.0000 0.0000 11.3053 0.0000 6.3027
#
#
#
# Elastic Compliance Matrix: (Units=1/GPa)
#
#
# Indices 1 2 3 4 5 6 
#
# 1 0.016274 -0.000186 -0.003955 0.000000 -0.000442 0.000000
# 2 -0.000186 0.009856 0.000035 0.000000 0.000009 0.000000
# 3 -0.003955 0.000035 0.009490 0.000000 0.003561 0.000000
# 4 0.000000 0.000000 0.000000 -0.076305 0.000000 0.136869
# 5 -0.000442 0.000009 0.003561 0.000000 0.016843 0.000000
# 6 0.000000 0.000000 0.000000 0.136869 0.000000 -0.086842
#
#
# Mechanical properties :
#
#
# Convention : Reuss Voigt Hill
#
# Bulk Modulus (GPa) = 36.48428 40.16357 38.32392
# Shear Modulus (GPa) = -53.57011 33.41263 -10.07874
#
# Velocity S-wave (km/s) = -4.48010 3.53819 -1.94325
# Velocity P-wave (km/s) = 3.61829 5.63382 3.05352
#
# Compressibility (1/GPa) = 0.02740907
#
# Stress axis : x y z
#
# Youngs Moduli (GPa) = 61.44754 101.45784 105.37474
#
# Poissons Ratio (x) = 0.01882 0.41673
# Poissons Ratio (y) = 0.01140 -0.00365
# Poissons Ratio (z) = 0.24301 -0.00351
#
# Static dielectric constant tensor:
#      x y z
#    x 2.187530 0.000000 -0.048890 
#    y 0.000000 1.967090 0.000000 
#    z -0.048890 0.000000 2.114920 
# 
# From -- ./inp_files/360326.got.cif
#   From: 2010.05.17/outbox.cif.g08.bks.cpg/sg12_181_cif.got.tgz:360326.got - 2010.06.03 13:09:07.
