data_PCOD9169072
_publ_section_title
;
Structure prediction by ZEFSAII (Michael W. Deem and Ramdas Pophale) SiO2 
 PCOD9169072
Probable space group: C 2/M
;
_chemical_formula_sum "Si O2"
_cell_formula_units_Z 40
_cell_length_a 11.477791
_cell_length_b 20.743068
_cell_length_c 6.483387
_cell_angle_alpha 90.000000
_cell_angle_beta 72.858780
_cell_angle_gamma 90.000000
_cell_volume 1475.030018
_symmetry_space_group_name_H-M "C 2/M"
_symmetry_group_IT_number 12
_symmetry_cell_setting 'monoclinic'
loop_
_space_group_symop_operation_xyz
x,y,z
-x,y,-z
-x,-y,-z
x,-y,z
1/2+x,1/2+y,z
1/2-x,1/2+y,-z
1/2-x,1/2-y,-z
1/2+x,1/2-y,z
loop_
_atom_site_type_symbol
_atom_site_label
_atom_site_fract_x
_atom_site_fract_y
_atom_site_fract_z
Si Si1 0.281776 0.639199 0.370920
Si Si2 0.000000 0.114666 0.500000
Si Si3 0.500000 0.316937 0.000000
Si Si4 0.743033 0.000000 0.249660
Si Si5 0.426654 0.500000 0.808820
Si Si6 0.864888 0.720428 0.817635
Si Si7 0.342173 0.000000 0.156345
Si Si8 0.000000 0.388016 0.000000
O O1 0.368761 0.647150 0.524902
O O2 0.231585 0.566753 0.375547
O O3 0.180296 0.693845 0.380084
O O4 0.376436 0.647624 0.128409
O O5 0.013814 0.065641 0.300768
O O6 0.530910 0.272794 0.184223
O O7 0.876016 0.000000 0.066731
O O8 0.654808 0.000000 0.098614
O O9 0.301016 0.500000 0.736027
O O10 0.914853 0.656874 0.906232
O O11 0.750000 0.750000 0.000000
O O12 0.412161 0.935114 0.174853
#
# Coordination Sequence:
#
# PCOD9169072 Si02
#       8
#     8   4   4   4   4   8   4   4
#     4  11  20  34  52  84 106 141 179 225 275 329
#     4  11  22  32  52  74 120 152 176 215 284 328
#     4   9  20  34  58  76 104 137 184 232 272 311
#     4  10  18  32  56  78 110 132 178 234 268 310
#     4   9  19  35  46  83 113 148 178 218 271 330
#     4   9  18  33  54  81 107 135 182 230 267 319
#     4   9  19  30  55  84 110 133 176 231 275 323
#     4  10  16  33  56  87 108 136 172 234 288 304
#
# _framework density 27.118091
#
# number of rings (size 3 to 8) (size 9 to 14) (size 15 to 20)
#    0.600    1.600    2.000    2.400    0.000    1.200 
#    0.000    1.000    0.000    2.400    0.000    0.000 
#    0.000    0.000    0.000    0.000    0.000    0.000 
#
# Total GULP energy -111776.365841 kJ/mol
# GULP energy per Si atom -5588.818292 kJ/mol
# Density = 2.705637 g / cm^3
# Si number density = 27.118091 Si / 1000 Ang^3
#
#
#
# Elastic Constant Matrix: (Units=GPa)
#
#
# Indices 1 2 3 4 5 6 
#
# 1 111.1643 52.8947 19.7284 0.0000 34.7112 0.0000
# 2 52.8947 126.6876 23.3760 0.0000 22.4205 0.0000
# 3 19.7284 23.3760 93.5082 0.0000 23.8602 0.0000
# 4 0.0000 0.0000 0.0000 13.3004 0.0000 27.5634
# 5 34.7112 22.4205 23.8602 0.0000 61.8221 0.0000
# 6 0.0000 0.0000 0.0000 27.5634 0.0000 55.4661
#
#
#
# Elastic Compliance Matrix: (Units=1/GPa)
#
#
# Indices 1 2 3 4 5 6 
#
# 1 0.012829 -0.004336 -0.000206 0.000000 -0.005551 0.000000
# 2 -0.004336 0.010087 -0.001436 0.000000 -0.000670 0.000000
# 3 -0.000206 -0.001436 0.012129 0.000000 -0.004044 0.000000
# 4 0.000000 0.000000 0.000000 -2.518646 0.000000 1.251620
# 5 -0.005551 -0.000670 -0.004044 0.000000 0.021096 0.000000
# 6 0.000000 0.000000 0.000000 1.251620 0.000000 -0.603953
#
#
# Mechanical properties :
#
#
# Convention : Reuss Voigt Hill
#
# Bulk Modulus (GPa) = 43.31202 58.15093 50.73148
# Shear Modulus (GPa) = -1.64106 41.80844 20.08369
#
# Velocity S-wave (km/s) = -0.77876 3.93073 2.72435
# Velocity P-wave (km/s) = 3.89842 6.48776 5.35204
#
# Compressibility (1/GPa) = 0.02308828
#
# Stress axis : x y z
#
# Youngs Moduli (GPa) = 77.95060 99.13561 82.44852
#
# Poissons Ratio (x) = 0.42983 0.01701
# Poissons Ratio (y) = 0.33798 0.11840
# Poissons Ratio (z) = 0.01608 0.14237
#
# Static dielectric constant tensor:
#      x y z
#    x 2.149360 0.000000 0.054620 
#    y 0.000000 2.106770 0.000000 
#    z 0.054620 0.000000 2.145450 
# 
# From -- ./inp_files/48777.got.cif
#   From: 2010.05.17/outbox.cif.g08.bks.cpg/sg12_25_cif.got.tgz:48777.got - 2010.06.03 13:09:07.
