data_PCOD9169747
_publ_section_title
;
Structure prediction by ZEFSAII (Michael W. Deem and Ramdas Pophale) SiO2 
 PCOD9169747
Probable space group: C 2/M
;
_chemical_formula_sum "Si O2"
_cell_formula_units_Z 64
_cell_length_a 30.864728
_cell_length_b 8.696816
_cell_length_c 14.505983
_cell_angle_alpha 90.000000
_cell_angle_beta 89.782991
_cell_angle_gamma 90.000000
_cell_volume 3893.738532
_symmetry_space_group_name_H-M "C 2/M"
_symmetry_group_IT_number 12
_symmetry_cell_setting 'monoclinic'
loop_
_space_group_symop_operation_xyz
x,y,z
-x,y,-z
-x,-y,-z
x,-y,z
1/2+x,1/2+y,z
1/2-x,1/2+y,-z
1/2-x,1/2-y,-z
1/2+x,1/2-y,z
loop_
_atom_site_type_symbol
_atom_site_label
_atom_site_fract_x
_atom_site_fract_y
_atom_site_fract_z
Si Si1 0.646828 0.675896 0.827343
Si Si2 0.050355 0.312782 0.487318
Si Si3 0.297399 0.815924 0.016339
Si Si4 0.011849 0.185314 0.804167
Si Si5 0.410800 0.184408 0.321010
Si Si6 0.125953 0.316340 0.115977
Si Si7 0.574848 0.186525 0.283193
Si Si8 0.565189 0.676013 0.969924
O O1 0.682796 0.765091 0.885582
O O2 0.630754 0.748784 0.731825
O O3 0.604347 0.675314 0.894169
O O4 0.839836 0.000000 0.186323
O O5 0.049102 0.500000 0.487453
O O6 0.079559 0.266271 0.574225
O O7 0.070253 0.263664 0.389320
O O8 0.000000 0.262409 0.500000
O O9 0.296120 0.000000 0.012575
O O10 0.250000 0.750000 0.000000
O O11 0.331418 0.757796 0.937587
O O12 0.047688 0.257787 0.736714
O O13 0.024630 0.229288 0.908837
O O14 0.966530 0.246862 0.769417
O O15 0.014130 0.000000 0.799519
O O16 0.409072 0.000000 0.317385
O O17 0.129382 0.500000 0.116854
O O18 0.115941 0.265516 0.220474
O O19 0.084695 0.272021 0.053142
O O20 0.572739 0.000000 0.282387
O O21 0.557972 0.500000 0.000937
#
# Coordination Sequence:
#
# PCOD9169747 Si02
#       8
#     8   8   8   8   8   8   8   8
#     4   9  17  30  47  71  99 125 153 190 235 280
#     4   9  16  28  46  67  88 121 166 205 240 276
#     4  10  19  33  53  78 101 124 152 183 229 284
#     4  10  19  29  41  62  88 121 161 200 238 274
#     4  10  17  28  47  67  91 125 163 203 239 276
#     4   9  19  32  47  67  91 118 152 191 228 274
#     4  10  19  32  46  62  88 122 160 199 235 274
#     4   8  16  29  43  58  86 123 155 186 226 272
#
# _framework density 16.436646
#
# number of rings (size 3 to 8) (size 9 to 14) (size 15 to 20)
#    0.000    2.625    1.250    2.250    0.000    5.000 
#    0.000    4.375    0.000    0.000    0.000    0.875 
#    0.000    0.000    0.000    0.000    0.000    0.000 
#
# Total GULP energy -178297.740743 kJ/mol
# GULP energy per Si atom -5571.804398 kJ/mol
# Density = 1.639924 g / cm^3
# Si number density = 16.436646 Si / 1000 Ang^3
#
#
#
# Elastic Constant Matrix: (Units=GPa)
#
#
# Indices 1 2 3 4 5 6 
#
# 1 83.9285 23.8039 64.8579 0.0000 12.8918 0.0000
# 2 23.8039 29.4714 27.2654 0.0000 3.6422 0.0000
# 3 64.8579 27.2654 139.8697 0.0000 4.7868 0.0000
# 4 0.0000 0.0000 0.0000 8.2063 0.0000 9.5229
# 5 12.8918 3.6422 4.7868 0.0000 18.4733 0.0000
# 6 0.0000 0.0000 0.0000 9.5229 0.0000 20.0177
#
#
#
# Elastic Compliance Matrix: (Units=1/GPa)
#
#
# Indices 1 2 3 4 5 6 
#
# 1 0.022848 -0.009216 -0.008389 0.000000 -0.011954 0.000000
# 2 -0.009216 0.045812 -0.004609 0.000000 -0.001407 0.000000
# 3 -0.008389 -0.004609 0.011811 0.000000 0.003703 0.000000
# 4 0.000000 0.000000 0.000000 0.272038 0.000000 -0.129416
# 5 -0.011954 -0.001407 0.003703 0.000000 0.061792 0.000000
# 6 0.000000 0.000000 0.000000 -0.129416 0.000000 0.111522
#
#
# Mechanical properties :
#
#
# Convention : Reuss Voigt Hill
#
# Bulk Modulus (GPa) = 27.74368 53.90266 40.82317
# Shear Modulus (GPa) = 8.58715 18.49560 13.54137
#
# Velocity S-wave (km/s) = 2.28817 3.35814 2.87340
# Velocity P-wave (km/s) = 4.88843 6.92109 5.99159
#
# Compressibility (1/GPa) = 0.03604425
#
# Stress axis : x y z
#
# Youngs Moduli (GPa) = 43.76835 21.82811 84.66522
#
# Poissons Ratio (x) = 0.20116 0.71025
# Poissons Ratio (y) = 0.40335 0.39022
# Poissons Ratio (z) = 0.36717 0.10061
#
# Static dielectric constant tensor:
#      x y z
#    x 1.551080 0.000000 -0.019810 
#    y 0.000000 1.554400 0.000000 
#    z -0.019810 0.000000 1.586860 
# 
# From -- ./inp_files/248385.got.cif
#   From: 2010.05.17/outbox.cif.g08.bks.cpg/sg12_125_cif.got.tgz:248385.got - 2010.06.03 13:09:07.
