data_PCOD9169832
_publ_section_title
;
Structure prediction by ZEFSAII (Michael W. Deem and Ramdas Pophale) SiO2 
 PCOD9169832
Probable space group: C 2/M
;
_chemical_formula_sum "Si O2"
_cell_formula_units_Z 64
_cell_length_a 22.373189
_cell_length_b 7.546030
_cell_length_c 20.067412
_cell_angle_alpha 90.000000
_cell_angle_beta 60.429479
_cell_angle_gamma 90.000000
_cell_volume 2946.671341
_symmetry_space_group_name_H-M "C 2/M"
_symmetry_group_IT_number 12
_symmetry_cell_setting 'monoclinic'
loop_
_space_group_symop_operation_xyz
x,y,z
-x,y,-z
-x,-y,-z
x,-y,z
1/2+x,1/2+y,z
1/2-x,1/2+y,-z
1/2-x,1/2-y,-z
1/2+x,1/2-y,z
loop_
_atom_site_type_symbol
_atom_site_label
_atom_site_fract_x
_atom_site_fract_y
_atom_site_fract_z
Si Si1 0.852897 0.786598 0.623736
Si Si2 0.471204 0.783369 0.909977
Si Si3 0.497992 0.213233 0.749928
Si Si4 0.602751 0.791381 0.920686
Si Si5 0.509367 0.294541 0.392299
Si Si6 0.148534 0.783042 0.520442
Si Si7 0.219576 0.792472 0.761803
Si Si8 0.660029 0.291021 0.657813
O O1 0.929582 0.718867 0.596513
O O2 0.824919 0.726544 0.566712
O O3 0.800421 0.736929 0.710721
O O4 0.856406 0.000000 0.619635
O O5 0.464371 0.724989 0.837580
O O6 0.544975 0.725201 0.900126
O O7 0.471113 0.000000 0.907072
O O8 0.415391 0.723762 0.995502
O O9 0.467966 0.283096 0.697262
O O10 0.577672 0.271354 0.707700
O O11 0.496193 0.000000 0.747947
O O12 0.677768 0.769798 0.848769
O O13 0.589751 0.000000 0.931701
O O14 0.502112 0.500000 0.415569
O O15 0.431824 0.224021 0.437046
O O16 0.179324 0.717913 0.573727
O O17 0.150008 0.000000 0.522359
O O18 0.189676 0.710665 0.709433
O O19 0.205784 0.000000 0.767201
O O20 0.676346 0.500000 0.647939
#
# Coordination Sequence:
#
# PCOD9169832 Si02
#       8
#     8   8   8   8   8   8   8   8
#     4  10  20  34  53  71  90 130 177 204 234 288
#     4   8  15  27  49  77 100 123 158 200 237 278
#     4  10  17  28  50  78 102 125 156 197 244 292
#     4   9  16  31  51  71  98 131 163 195 231 286
#     4   9  18  33  52  74  98 124 160 208 251 285
#     4   8  15  31  54  74  91 119 165 211 242 281
#     4  11  22  33  46  70 106 136 159 198 247 290
#     4   9  18  32  48  69 100 133 160 195 245 290
#
# _framework density 21.719424
#
# number of rings (size 3 to 8) (size 9 to 14) (size 15 to 20)
#    0.000    2.750    1.250    2.625    0.000    3.000 
#    0.000    5.000    0.000    4.500    0.000    0.000 
#    0.000    0.000    0.000    0.000    0.000    0.000 
#
# Total GULP energy -178477.652476 kJ/mol
# GULP energy per Si atom -5577.426640 kJ/mol
# Density = 2.166999 g / cm^3
# Si number density = 21.719424 Si / 1000 Ang^3
#
#
#
# Elastic Constant Matrix: (Units=GPa)
#
#
# Indices 1 2 3 4 5 6 
#
# 1 32.0551 -3.4618 2.6896 -0.0001 2.0717 0.0000
# 2 -3.4618 55.2768 -0.9935 -0.0008 3.4081 0.0010
# 3 2.6896 -0.9935 140.0652 -0.0001 0.9844 0.0001
# 4 -0.0001 -0.0008 -0.0001 12.2803 0.0001 0.8646
# 5 2.0717 3.4081 0.9844 0.0001 29.8928 -0.0001
# 6 0.0000 0.0010 0.0001 0.8646 -0.0001 6.4499
#
#
#
# Elastic Compliance Matrix: (Units=1/GPa)
#
#
# Indices 1 2 3 4 5 6 
#
# 1 0.031629 0.002119 -0.000575 0.000000 -0.002415 0.000000
# 2 0.002119 0.018364 0.000105 0.000001 -0.002244 -0.000003
# 3 -0.000575 0.000105 0.007153 0.000000 -0.000208 0.000000
# 4 0.000000 0.000001 0.000000 0.082207 0.000000 -0.011019
# 5 -0.002415 -0.002244 -0.000208 0.000000 0.033883 0.000001
# 6 0.000000 -0.000003 0.000000 -0.011019 0.000001 0.156518
#
#
# Mechanical properties :
#
#
# Convention : Reuss Voigt Hill
#
# Bulk Modulus (GPa) = 16.54405 24.87397 20.70901
# Shear Modulus (GPa) = 14.42571 25.00212 19.71391
#
# Velocity S-wave (km/s) = 2.57997 3.39653 3.01601
# Velocity P-wave (km/s) = 4.06309 5.18258 4.65660
#
# Compressibility (1/GPa) = 0.06044469
#
# Stress axis : x y z
#
# Youngs Moduli (GPa) = 31.61609 54.45510 139.80561
#
# Poissons Ratio (x) = -0.11541 0.08044
# Poissons Ratio (y) = -0.06701 -0.01473
# Poissons Ratio (z) = 0.01819 -0.00574
#
# Static dielectric constant tensor:
#      x y z
#    x 1.787660 0.000000 0.009360 
#    y 0.000000 1.811970 0.000000 
#    z 0.009360 0.000000 1.853020 
# 
# From -- ./inp_files/323661.got.cif
#   From: 2010.05.17/outbox.cif.g08.bks.cpg/sg12_162_cif.got.tgz:323661.got - 2010.06.03 13:09:07.
