data_PCOD9169538
_publ_section_title
;
Structure prediction by ZEFSAII (Michael W. Deem and Ramdas Pophale) SiO2 
 PCOD9169538
Probable space group: C 2/M
;
_chemical_formula_sum "Si O2"
_cell_formula_units_Z 64
_cell_length_a 32.197609
_cell_length_b 7.799369
_cell_length_c 12.497923
_cell_angle_alpha 90.000000
_cell_angle_beta 100.220459
_cell_angle_gamma 90.000000
_cell_volume 3088.690740
_symmetry_space_group_name_H-M "C 2/M"
_symmetry_group_IT_number 12
_symmetry_cell_setting 'monoclinic'
loop_
_space_group_symop_operation_xyz
x,y,z
-x,y,-z
-x,-y,-z
x,-y,z
1/2+x,1/2+y,z
1/2-x,1/2+y,-z
1/2-x,1/2-y,-z
1/2+x,1/2-y,z
loop_
_atom_site_type_symbol
_atom_site_label
_atom_site_fract_x
_atom_site_fract_y
_atom_site_fract_z
Si Si1 0.172514 0.292377 0.366380
Si Si2 0.369624 0.797469 0.871654
Si Si3 0.345042 0.792004 0.405160
Si Si4 0.463719 0.210212 0.900889
Si Si5 0.018914 0.290951 0.335782
Si Si6 0.563075 0.209080 0.574169
Si Si7 0.746591 0.299619 0.709955
Si Si8 0.712595 0.688190 0.058578
O O1 0.168105 0.500000 0.365485
O O2 0.147913 0.228024 0.250162
O O3 0.156122 0.231618 0.472239
O O4 0.222181 0.255292 0.373505
O O5 0.416752 0.732943 0.915084
O O6 0.332566 0.776587 0.941968
O O7 0.374269 0.000000 0.858129
O O8 0.389613 0.736357 0.377041
O O9 0.302220 0.729759 0.332102
O O10 0.343762 0.000000 0.403133
O O11 0.471117 0.264603 0.780472
O O12 0.464952 0.000000 0.901722
O O13 0.500000 0.266861 0.000000
O O14 0.019971 0.500000 0.334088
O O15 0.050282 0.239267 0.446954
O O16 0.972934 0.237226 0.358983
O O17 0.562345 0.000000 0.573428
O O18 0.754109 0.500000 0.738968
O O19 0.764743 0.193787 0.816322
O O20 0.701415 0.500000 0.016688
O O21 0.750000 0.750000 0.000000
#
# Coordination Sequence:
#
# PCOD9169538 Si02
#       8
#     8   8   8   8   8   8   8   8
#     4   8  15  27  46  67  95 134 173 213 255 301
#     4   9  17  32  52  77 105 137 177 217 261 311
#     4  10  17  27  44  72 102 132 173 215 260 307
#     4   9  16  26  43  69 101 136 172 216 266 311
#     4   8  13  24  40  61  93 129 169 214 263 308
#     4   8  14  23  39  63  92 128 167 216 264 304
#     4  10  20  34  49  71 103 136 167 206 257 312
#     4  11  22  39  60  79 100 132 172 215 259 309
#
# _framework density 20.720753999999999
#
# number of rings (size 3 to 8) (size 9 to 14) (size 15 to 20)
#    0.000    2.875    0.000    4.125    0.000    3.000 
#    2.250    2.500    0.000    0.375    0.000    2.625 
#    0.000    0.000    0.000    0.000    0.000    0.000 
#
# Total GULP energy -178310.779480 kJ/mol
# GULP energy per Si atom -5572.211859 kJ/mol
# Density = 2.067359 g / cm^3
# Si number density = 20.720754 Si / 1000 Ang^3
#
#
#
# Elastic Constant Matrix: (Units=GPa)
#
#
# Indices 1 2 3 4 5 6 
#
# 1 184.7603 6.0130 48.7294 0.0000 5.8234 0.0000
# 2 6.0130 22.6924 2.2963 0.0000 -0.0786 0.0000
# 3 48.7294 2.2963 55.7941 0.0000 -10.5325 0.0000
# 4 0.0000 0.0000 0.0000 2.7020 0.0000 0.8711
# 5 5.8234 -0.0786 -10.5325 0.0000 26.3162 0.0000
# 6 0.0000 0.0000 0.0000 0.8711 0.0000 15.1070
#
#
#
# Elastic Compliance Matrix: (Units=1/GPa)
#
#
# Indices 1 2 3 4 5 6 
#
# 1 0.007559 -0.001268 -0.007428 0.000000 -0.004649 0.000000
# 2 -0.001268 0.044475 -0.000698 0.000000 0.000134 0.000000
# 3 -0.007428 -0.000698 0.026771 0.000000 0.012356 0.000000
# 4 0.000000 0.000000 0.000000 0.377113 0.000000 -0.021746
# 5 -0.004649 0.000134 0.012356 0.000000 0.043974 0.000000
# 6 0.000000 0.000000 0.000000 -0.021746 0.000000 0.067448
#
#
# Mechanical properties :
#
#
# Convention : Reuss Voigt Hill
#
# Bulk Modulus (GPa) = 16.66144 41.92491 29.29318
# Shear Modulus (GPa) = 8.24902 22.57225 15.41063
#
# Velocity S-wave (km/s) = 1.99742 3.30412 2.73010
# Velocity P-wave (km/s) = 3.65759 5.90199 4.90976
#
# Compressibility (1/GPa) = 0.06001881
#
# Stress axis : x y z
#
# Youngs Moduli (GPa) = 132.28966 22.48475 37.35337
#
# Poissons Ratio (x) = 0.02850 0.27744
# Poissons Ratio (y) = 0.16768 0.02608
# Poissons Ratio (z) = 0.98258 0.01570
#
# Static dielectric constant tensor:
#      x y z
#    x 1.704880 0.000000 -0.009410 
#    y 0.000000 1.781630 0.000000 
#    z -0.009410 0.000000 1.725010 
# 
# From -- ./inp_files/187487.got.cif
#   From: 2010.05.17/outbox.cif.g08.bks.cpg/sg12_94_cif.got.tgz:187487.got - 2010.06.03 13:09:07.
