data_PCOD9169712
_publ_section_title
;
Structure prediction by ZEFSAII (Michael W. Deem and Ramdas Pophale) SiO2 
 PCOD9169712
Probable space group: C 2/M
;
_chemical_formula_sum "Si O2"
_cell_formula_units_Z 40
_cell_length_a 13.737059
_cell_length_b 29.915268
_cell_length_c 6.184299
_cell_angle_alpha 90.000000
_cell_angle_beta 71.361687
_cell_angle_gamma 90.000000
_cell_volume 2408.138873
_symmetry_space_group_name_H-M "C 2/M"
_symmetry_group_IT_number 12
_symmetry_cell_setting 'monoclinic'
loop_
_space_group_symop_operation_xyz
x,y,z
-x,y,-z
-x,-y,-z
x,-y,z
1/2+x,1/2+y,z
1/2-x,1/2+y,-z
1/2-x,1/2-y,-z
1/2+x,1/2-y,z
loop_
_atom_site_type_symbol
_atom_site_label
_atom_site_fract_x
_atom_site_fract_y
_atom_site_fract_z
Si Si1 0.387636 0.050358 0.693689
Si Si2 0.841722 0.631679 0.454957
Si Si3 0.000000 0.593502 0.000000
Si Si4 0.254265 0.713289 0.689937
Si Si5 0.922241 0.757193 0.894806
Si Si6 0.000000 0.693938 0.500000
O O1 0.500000 0.050088 0.500000
O O2 0.321609 0.086230 0.602710
O O3 0.346400 0.000000 0.718342
O O4 0.418853 0.065418 0.913200
O O5 0.929521 0.621183 0.214432
O O6 0.759662 0.663788 0.399710
O O7 0.899617 0.663748 0.582772
O O8 0.250000 0.750000 0.500000
O O9 0.357237 0.716738 0.760181
O O10 0.161767 0.728048 0.915127
O O11 0.997476 0.724384 0.711002
O O12 0.000000 0.782797 0.000000
#
# Coordination Sequence:
#
# PCOD9169712 Si02
#       6
#     8   8   4   8   8   4
#     4   9  18  28  41  62  87 117 154 193 230 273
#     4  11  19  29  46  64  90 121 162 190 227 276
#     4  10  17  28  46  62  88 124 154 192 229 270
#     4  11  22  32  47  70  92 124 164 199 234 278
#     4  11  21  32  49  64  96 125 163 200 236 271
#     4  12  18  32  47  68  92 130 161 198 232 274
#
# _framework density 16.610336
#
# number of rings (size 3 to 8) (size 9 to 14) (size 15 to 20)
#    0.000    1.400    7.000    1.500    0.000    0.800 
#    0.000    0.000    0.000    0.000    0.000    0.000 
#    0.000    0.800    0.000    9.500    0.000    9.200 
#
# Total GULP energy -111354.056607 kJ/mol
# GULP energy per Si atom -5567.702830 kJ/mol
# Density = 1.657253 g / cm^3
# Si number density = 16.610336 Si / 1000 Ang^3
#
#
#
# Elastic Constant Matrix: (Units=GPa)
#
#
# Indices 1 2 3 4 5 6 
#
# 1 92.6843 48.3482 12.0155 0.0000 38.8639 0.0000
# 2 48.3482 115.3802 29.1582 0.0000 27.3243 0.0000
# 3 12.0155 29.1582 60.3393 0.0000 16.7862 0.0000
# 4 0.0000 0.0000 0.0000 11.4440 0.0000 8.8287
# 5 38.8639 27.3243 16.7862 0.0000 32.1310 0.0000
# 6 0.0000 0.0000 0.0000 8.8287 0.0000 18.9780
#
#
#
# Elastic Compliance Matrix: (Units=1/GPa)
#
#
# Indices 1 2 3 4 5 6 
#
# 1 0.024520 -0.004938 0.005366 0.000000 -0.028263 0.000000
# 2 -0.004938 0.012378 -0.004366 0.000000 -0.002273 0.000000
# 3 0.005366 -0.004366 0.021514 0.000000 -0.014017 0.000000
# 4 0.000000 0.000000 0.000000 0.136298 0.000000 -0.063407
# 5 -0.028263 -0.002273 -0.014017 0.000000 0.074563 0.000000
# 6 0.000000 0.000000 0.000000 -0.063407 0.000000 0.082190
#
#
# Mechanical properties :
#
#
# Convention : Reuss Voigt Hill
#
# Bulk Modulus (GPa) = 19.78776 49.71641 34.75208
# Shear Modulus (GPa) = 13.29138 24.43607 18.86373
#
# Velocity S-wave (km/s) = 2.83183 3.83970 3.37361
# Velocity P-wave (km/s) = 4.75722 7.04654 6.01186
#
# Compressibility (1/GPa) = 0.05053630
#
# Stress axis : x y z
#
# Youngs Moduli (GPa) = 40.78238 80.79111 46.48224
#
# Poissons Ratio (x) = 0.39892 -0.24942
# Poissons Ratio (y) = 0.20137 0.20293
# Poissons Ratio (z) = -0.21883 0.35272
#
# Static dielectric constant tensor:
#      x y z
#    x 1.606830 0.000000 0.048280 
#    y 0.000000 1.590980 0.000000 
#    z 0.048280 0.000000 1.609950 
# 
# From -- ./inp_files/12634.got.cif
#   From: 2010.05.17/outbox.cif.g08.bks.cpg/sg12_7_cif.got.tgz:12634.got - 2010.06.03 13:09:07.
