data_PCOD9169568
_publ_section_title
;
Structure prediction by ZEFSAII (Michael W. Deem and Ramdas Pophale) SiO2 
 PCOD9169568
Probable space group: C 2/M
;
_chemical_formula_sum "Si O2"
_cell_formula_units_Z 48
_cell_length_a 9.145096
_cell_length_b 22.089225
_cell_length_c 16.902764
_cell_angle_alpha 90.000000
_cell_angle_beta 130.855787
_cell_angle_gamma 90.000000
_cell_volume 2582.582225
_symmetry_space_group_name_H-M "C 2/M"
_symmetry_group_IT_number 12
_symmetry_cell_setting 'monoclinic'
loop_
_space_group_symop_operation_xyz
x,y,z
-x,y,-z
-x,-y,-z
x,-y,z
1/2+x,1/2+y,z
1/2-x,1/2+y,-z
1/2-x,1/2-y,-z
1/2+x,1/2-y,z
loop_
_atom_site_type_symbol
_atom_site_label
_atom_site_fract_x
_atom_site_fract_y
_atom_site_fract_z
Si Si1 0.212490 0.192853 0.871099
Si Si2 0.975685 0.661205 0.710889
Si Si3 0.383966 0.333779 0.625828
Si Si4 0.300179 0.569726 0.478691
Si Si5 0.390624 0.177724 0.087042
Si Si6 0.639246 0.755175 0.635930
O O1 0.407623 0.189608 0.888018
O O2 0.179839 0.260327 0.894752
O O3 0.039114 0.171481 0.752414
O O4 0.247335 0.157393 0.966133
O O5 0.861132 0.611435 0.620266
O O6 0.817659 0.708594 0.689890
O O7 0.076104 0.635347 0.825243
O O8 0.114140 0.701623 0.703840
O O9 0.348238 0.399719 0.579720
O O10 0.462568 0.291418 0.582114
O O11 0.189673 0.302387 0.585813
O O12 0.500000 0.572774 0.500000
O O13 0.241109 0.500000 0.463365
#
# Coordination Sequence:
#
# PCOD9169568 Si02
#       6
#     8   8   8   8   8   8
#     4  10  17  27  45  73 108 135 159 200 256 311
#     4  11  19  36  50  80 107 136 169 211 251 318
#     4  11  19  36  50  80 107 136 169 211 251 318
#     4  11  24  38  56  73  98 141 178 214 249 296
#     4  10  17  27  45  73 108 135 159 200 256 311
#     4  10  20  31  55  80 106 134 163 209 276 294
#
# _framework density 18.58605
#
# number of rings (size 3 to 8) (size 9 to 14) (size 15 to 20)
#    0.000    1.500    6.667    0.000    0.000    4.667 
#    0.000    1.667    0.000    1.000    0.000    4.667 
#    0.000    2.667    0.000    0.000    0.000    0.000 
#
# Total GULP energy -133656.545543 kJ/mol
# GULP energy per Si atom -5569.022731 kJ/mol
# Density = 1.854375 g / cm^3
# Si number density = 18.586050 Si / 1000 Ang^3
#
#
#
# Elastic Constant Matrix: (Units=GPa)
#
#
# Indices 1 2 3 4 5 6 
#
# 1 88.1937 23.9962 11.9765 0.0000 -7.7735 0.0000
# 2 23.9962 87.2404 51.6235 0.0000 -15.5329 0.0000
# 3 11.9765 51.6235 127.7805 0.0000 -9.6673 0.0000
# 4 0.0000 0.0000 0.0000 8.9102 0.0000 0.5604
# 5 -7.7735 -15.5329 -9.6673 0.0000 22.3464 0.0000
# 6 0.0000 0.0000 0.0000 0.5604 0.0000 13.9803
#
#
#
# Elastic Compliance Matrix: (Units=1/GPa)
#
#
# Indices 1 2 3 4 5 6 
#
# 1 0.012359 -0.003178 0.000293 0.000000 0.002217 0.000000
# 2 -0.003178 0.017448 -0.006117 0.000000 0.008376 0.000000
# 3 0.000293 -0.006117 0.010293 0.000000 0.000303 0.000000
# 4 0.000000 0.000000 0.000000 0.112514 0.000000 -0.004510
# 5 0.002217 0.008376 0.000303 0.000000 0.051474 0.000000
# 6 0.000000 0.000000 0.000000 -0.004510 0.000000 0.071710
#
#
# Mechanical properties :
#
#
# Convention : Reuss Voigt Hill
#
# Bulk Modulus (GPa) = 45.25898 53.15633 49.20766
# Shear Modulus (GPa) = 16.60200 23.42193 20.01197
#
# Velocity S-wave (km/s) = 2.99197 3.55377 3.28490
# Velocity P-wave (km/s) = 6.02825 6.74546 6.39691
#
# Compressibility (1/GPa) = 0.02209506
#
# Stress axis : x y z
#
# Youngs Moduli (GPa) = 80.91256 57.31293 97.15544
#
# Poissons Ratio (x) = 0.18216 -0.02851
# Poissons Ratio (y) = 0.25717 0.59434
# Poissons Ratio (z) = -0.02374 0.35061
#
# Static dielectric constant tensor:
#      x y z
#    x 1.665000 0.000000 -0.005550 
#    y 0.000000 1.609310 0.000000 
#    z -0.005550 0.000000 1.847250 
# 
# From -- ./inp_files/258275.got.cif
#   From: 2010.05.17/outbox.cif.g08.bks.cpg/sg12_130_cif.got.tgz:258275.got - 2010.06.03 13:09:07.
