data_PCOD9169057
_publ_section_title
;
Structure prediction by ZEFSAII (Michael W. Deem and Ramdas Pophale) SiO2 
 PCOD9169057
Probable space group: C 2/M
;
_chemical_formula_sum "Si O2"
_cell_formula_units_Z 46
_cell_length_a 14.700036
_cell_length_b 14.738193
_cell_length_c 9.704906
_cell_angle_alpha 90.000000
_cell_angle_beta 114.257996
_cell_angle_gamma 90.000000
_cell_volume 1916.938467
_symmetry_space_group_name_H-M "C 2/M"
_symmetry_group_IT_number 12
_symmetry_cell_setting 'monoclinic'
loop_
_space_group_symop_operation_xyz
x,y,z
-x,y,-z
-x,-y,-z
x,-y,z
1/2+x,1/2+y,z
1/2-x,1/2+y,-z
1/2-x,1/2-y,-z
1/2+x,1/2-y,z
loop_
_atom_site_type_symbol
_atom_site_label
_atom_site_fract_x
_atom_site_fract_y
_atom_site_fract_z
Si Si1 0.891998 0.395542 0.958007
Si Si2 0.276794 0.142115 0.363528
Si Si3 0.444591 0.347364 0.284977
Si Si4 0.704922 0.394004 0.017824
Si Si5 0.000000 0.000000 0.500000
Si Si6 0.241568 0.139842 0.640952
Si Si7 0.500000 0.818808 0.500000
O O1 0.908204 0.500000 0.015771
O O2 0.839828 0.394437 0.777175
O O3 0.806516 0.356369 0.007224
O O4 0.000000 0.352333 0.000000
O O5 0.223666 0.111542 0.191735
O O6 0.237271 0.106778 0.483381
O O7 0.261052 0.250887 0.358419
O O8 0.396608 0.127470 0.438282
O O9 0.518788 0.421325 0.390201
O O10 0.348576 0.383302 0.314098
O O11 0.485473 0.250436 0.361223
O O12 0.396244 0.348810 0.103748
O O13 0.696962 0.500000 0.974510
#
# Coordination Sequence:
#
# PCOD9169057 Si02
#       7
#     8   8   8   8   2   8   4
#     4   9  19  34  53  80 110 144 190 230 270 331
#     4  10  21  37  54  81 116 144 190 231 283 339
#     4   9  18  35  59  82 107 142 191 230 277 333
#     4  10  20  36  57  84 112 147 184 234 289 332
#     4  10  16  32  64  86 104 140 190 238 258 340
#     4   9  20  36  54  77 110 156 183 224 286 336
#     4   9  20  33  55  84 103 144 192 234 269 328
#
# _framework density 23.996596
#
# number of rings (size 3 to 8) (size 9 to 14) (size 15 to 20)
#    0.000    2.609    0.870    0.000    3.652    6.957 
#    0.000    0.435    0.000    1.043    0.000    0.000 
#    0.000    0.000    0.000    0.000    0.000    0.000 
#
# Total GULP energy -128073.854255 kJ/mol
# GULP energy per Si atom -5568.428446 kJ/mol
# Density = 2.394198 g / cm^3
# Si number density = 23.996596 Si / 1000 Ang^3
#
#
#
# Elastic Constant Matrix: (Units=GPa)
#
#
# Indices 1 2 3 4 5 6 
#
# 1 33.6469 7.7097 25.5594 0.0000 18.4498 0.0000
# 2 7.7097 38.1193 -1.2945 0.0000 0.5091 0.0000
# 3 25.5594 -1.2945 173.3835 0.0000 5.1312 0.0000
# 4 0.0000 0.0000 0.0000 28.3589 0.0000 -5.5667
# 5 18.4498 0.5091 5.1312 0.0000 40.9466 0.0000
# 6 0.0000 0.0000 0.0000 -5.5667 0.0000 8.9118
#
#
#
# Elastic Compliance Matrix: (Units=1/GPa)
#
#
# Indices 1 2 3 4 5 6 
#
# 1 0.048393 -0.009733 -0.006589 0.000000 -0.020859 0.000000
# 2 -0.009733 0.028203 0.001532 0.000000 0.003843 0.000000
# 3 -0.006589 0.001532 0.006688 0.000000 0.002112 0.000000
# 4 0.000000 0.000000 0.000000 0.040190 0.000000 0.025105
# 5 -0.020859 0.003843 0.002112 0.000000 0.033508 0.000000
# 6 0.000000 0.000000 0.000000 0.025105 0.000000 0.127892
#
#
# Mechanical properties :
#
#
# Convention : Reuss Voigt Hill
#
# Bulk Modulus (GPa) = 18.62097 34.34430 26.48263
# Shear Modulus (GPa) = 15.04408 29.85513 22.44961
#
# Velocity S-wave (km/s) = 2.50656 3.53106 3.06197
# Velocity P-wave (km/s) = 4.01918 5.56487 4.85395
#
# Compressibility (1/GPa) = 0.05370291
#
# Stress axis : x y z
#
# Youngs Moduli (GPa) = 20.66393 35.45774 149.52471
#
# Poissons Ratio (x) = 0.34510 0.98526
# Poissons Ratio (y) = 0.20112 -0.22901
# Poissons Ratio (z) = 0.13616 -0.05431
#
# Static dielectric constant tensor:
#      x y z
#    x 2.096220 0.000000 0.077270 
#    y 0.000000 1.927100 0.000000 
#    z 0.077270 0.000000 1.997660 
# 
# From -- ./inp_files/75477.got.cif
#   From: 2010.05.17/outbox.cif.g08.bks.cpg/sg12_38_cif.got.tgz:75477.got - 2010.06.03 13:09:07.
