data_PCOD9169403
_publ_section_title
;
Structure prediction by ZEFSAII (Michael W. Deem and Ramdas Pophale) SiO2 
 PCOD9169403
Probable space group: C 2/M
;
_chemical_formula_sum "Si O2"
_cell_formula_units_Z 64
_cell_length_a 7.754862
_cell_length_b 20.708332
_cell_length_c 19.178755
_cell_angle_alpha 90.000000
_cell_angle_beta 116.790731
_cell_angle_gamma 90.000000
_cell_volume 2749.318594
_symmetry_space_group_name_H-M "C 2/M"
_symmetry_group_IT_number 12
_symmetry_cell_setting 'monoclinic'
loop_
_space_group_symop_operation_xyz
x,y,z
-x,y,-z
-x,-y,-z
x,-y,z
1/2+x,1/2+y,z
1/2-x,1/2+y,-z
1/2-x,1/2-y,-z
1/2+x,1/2-y,z
loop_
_atom_site_type_symbol
_atom_site_label
_atom_site_fract_x
_atom_site_fract_y
_atom_site_fract_z
Si Si1 0.365726 0.199166 0.570054
Si Si2 0.383017 0.075286 0.658487
Si Si3 0.003868 0.120298 0.895403
Si Si4 0.248360 0.272174 0.811446
Si Si5 0.145988 0.071798 0.277811
Si Si6 0.395519 0.143914 0.806608
Si Si7 0.692064 0.925487 0.950897
Si Si8 0.207502 0.806061 0.342214
O O1 0.250000 0.250000 0.500000
O O2 0.300011 0.128967 0.587935
O O3 0.582860 0.187724 0.584894
O O4 0.389021 0.244509 0.642280
O O5 0.620253 0.075722 0.694097
O O6 0.341910 0.101671 0.729118
O O7 0.324869 0.000000 0.638394
O O8 0.931730 0.194374 0.882037
O O9 0.968803 0.088510 0.813593
O O10 0.849141 0.083497 0.917134
O O11 0.212300 0.111886 0.967231
O O12 0.242972 0.194962 0.809618
O O13 0.065835 0.307702 0.811449
O O14 0.268981 0.294258 0.735236
O O15 0.104902 0.125403 0.328809
O O16 0.100355 0.000000 0.292237
O O17 0.493062 0.100647 0.883468
O O18 0.676658 0.000000 0.966501
#
# Coordination Sequence:
#
# PCOD9169403 Si02
#       8
#     8   8   8   8   8   8   8   8
#     4  11  21  35  56  81 104 136 167 209 258 315
#     4  10  18  32  54  79 101 131 173 216 254 300
#     4   9  16  25  43  71 107 136 170 222 266 303
#     4  10  18  32  50  77 105 138 173 213 261 307
#     4   9  15  27  49  76 104 135 170 217 264 301
#     4  11  19  32  52  78 105 136 175 220 260 311
#     4  10  17  26  44  74 104 137 179 226 266 299
#     4  10  18  34  52  79 103 134 173 206 251 310
#
# _framework density 23.278496000000001
#
# number of rings (size 3 to 8) (size 9 to 14) (size 15 to 20)
#    0.000    2.000    6.250    2.250    0.000    0.500 
#    0.000    0.625    0.000    5.250    0.000   12.250 
#    0.000    0.000    0.000    0.000    0.000    0.000 
#
# Total GULP energy -178629.771804 kJ/mol
# GULP energy per Si atom -5582.180369 kJ/mol
# Density = 2.322551 g / cm^3
# Si number density = 23.278496 Si / 1000 Ang^3
#
#
#
# Elastic Constant Matrix: (Units=GPa)
#
#
# Indices 1 2 3 4 5 6 
#
# 1 45.3746 22.6292 13.9629 0.0000 -0.0998 0.0000
# 2 22.6292 193.5091 56.1995 0.0000 9.0803 0.0000
# 3 13.9629 56.1995 107.8106 0.0000 16.9459 0.0000
# 4 0.0000 0.0000 0.0000 38.2440 0.0000 2.8489
# 5 -0.0998 9.0803 16.9459 0.0000 17.9137 0.0000
# 6 0.0000 0.0000 0.0000 2.8489 0.0000 23.7343
#
#
#
# Elastic Compliance Matrix: (Units=1/GPa)
#
#
# Indices 1 2 3 4 5 6 
#
# 1 0.023935 -0.002243 -0.002503 0.000000 0.003638 0.000000
# 2 -0.002243 0.006300 -0.002924 0.000000 -0.000439 0.000000
# 3 -0.002503 -0.002924 0.012796 0.000000 -0.010636 0.000000
# 4 0.000000 0.000000 0.000000 0.026384 0.000000 -0.003167
# 5 0.003638 -0.000439 -0.010636 0.000000 0.066128 0.000000
# 6 0.000000 0.000000 0.000000 -0.003167 0.000000 0.042513
#
#
# Mechanical properties :
#
#
# Convention : Reuss Voigt Hill
#
# Bulk Modulus (GPa) = 36.11223 59.14194 47.62709
# Shear Modulus (GPa) = 24.67595 32.90525 28.79060
#
# Velocity S-wave (km/s) = 3.25935 3.76380 3.52062
# Velocity P-wave (km/s) = 5.45080 6.65955 6.08526
#
# Compressibility (1/GPa) = 0.02769145
#
# Stress axis : x y z
#
# Youngs Moduli (GPa) = 41.77902 158.73092 78.14981
#
# Poissons Ratio (x) = 0.35603 0.19557
# Poissons Ratio (y) = 0.09371 0.22855
# Poissons Ratio (z) = 0.10455 0.46421
#
# Static dielectric constant tensor:
#      x y z
#    x 1.986210 0.000000 0.020700 
#    y 0.000000 1.934780 0.000000 
#    z 0.020700 0.000000 1.920700 
# 
# From -- ./inp_files/306632.got.cif
#   From: 2010.05.17/outbox.cif.g08.bks.cpg/sg12_154_cif.got.tgz:306632.got - 2010.06.03 13:09:07.
