data_PCOD9169678
_publ_section_title
;
Structure prediction by ZEFSAII (Michael W. Deem and Ramdas Pophale) SiO2 
 PCOD9169678
Probable space group: C 2/M
;
_chemical_formula_sum "Si O2"
_cell_formula_units_Z 56
_cell_length_a 35.914160
_cell_length_b 8.691994
_cell_length_c 15.126741
_cell_angle_alpha 90.000000
_cell_angle_beta 48.626115
_cell_angle_gamma 90.000000
_cell_volume 3543.484286
_symmetry_space_group_name_H-M "C 2/M"
_symmetry_group_IT_number 12
_symmetry_cell_setting 'monoclinic'
loop_
_space_group_symop_operation_xyz
x,y,z
-x,y,-z
-x,-y,-z
x,-y,z
1/2+x,1/2+y,z
1/2-x,1/2+y,-z
1/2-x,1/2-y,-z
1/2+x,1/2-y,z
loop_
_atom_site_type_symbol
_atom_site_label
_atom_site_fract_x
_atom_site_fract_y
_atom_site_fract_z
Si Si1 0.109847 0.313900 0.841746
Si Si2 0.433096 0.815159 0.914055
Si Si3 0.695461 0.183804 0.573019
Si Si4 0.954909 0.312709 0.687633
Si Si5 0.931550 0.685671 0.529465
Si Si6 0.125691 0.180291 0.538880
Si Si7 0.536086 0.680928 0.818703
O O1 0.107546 0.500000 0.841446
O O2 0.158286 0.264675 0.710588
O O3 0.062271 0.247860 0.864630
O O4 0.106186 0.264747 0.949745
O O5 0.430674 0.757306 0.816958
O O6 0.486795 0.767997 0.867129
O O7 0.430516 0.000000 0.913966
O O8 0.750000 0.250000 0.500000
O O9 0.669975 0.237641 0.521819
O O10 0.697370 0.000000 0.571655
O O11 0.954428 0.500000 0.688472
O O12 0.929670 0.265388 0.635126
O O13 0.013166 0.268753 0.591147
O O14 0.929322 0.500000 0.529212
O O15 0.889937 0.753307 0.531117
O O16 0.077274 0.200385 0.677329
O O17 0.136499 0.000000 0.515634
O O18 0.525859 0.500000 0.845707
#
# Coordination Sequence:
#
# PCOD9169678 Si02
#       7
#     8   8   8   8   8   8   8
#     4   9  19  31  45  64  86 115 150 182 218 267
#     4  10  17  28  44  62  87 122 156 183 213 256
#     4  10  20  35  52  70  90 113 144 186 231 276
#     4   8  15  25  42  64  89 121 158 191 218 252
#     4   9  15  27  44  64  88 121 159 191 220 254
#     4  10  19  30  45  67  93 122 153 186 225 267
#     4  10  19  28  39  60  91 123 153 184 217 254
#
# _framework density 15.803654999999999
#
# number of rings (size 3 to 8) (size 9 to 14) (size 15 to 20)
#    0.000    2.571    1.429    2.571    0.000    4.000 
#    0.000    2.143    0.000    0.000    0.000    1.000 
#    0.000    0.000    0.000    0.000    0.000    0.000 
#
# Total GULP energy -156028.315913 kJ/mol
# GULP energy per Si atom -5572.439854 kJ/mol
# Density = 1.576768 g / cm^3
# Si number density = 15.803655 Si / 1000 Ang^3
#
#
#
# Elastic Constant Matrix: (Units=GPa)
#
#
# Indices 1 2 3 4 5 6 
#
# 1 110.8046 24.8024 66.7301 0.0000 18.5969 0.0000
# 2 24.8024 11.9004 17.2246 0.0000 3.8246 0.0001
# 3 66.7301 17.2246 89.9141 0.0000 28.7903 0.0000
# 4 0.0000 0.0000 0.0000 11.3222 0.0000 -2.9607
# 5 18.5969 3.8246 28.7903 0.0000 27.8926 0.0000
# 6 0.0000 0.0001 0.0000 -2.9607 0.0000 21.5041
#
#
#
# Elastic Compliance Matrix: (Units=1/GPa)
#
#
# Indices 1 2 3 4 5 6 
#
# 1 0.022484 -0.031323 -0.010846 0.000000 0.000499 0.000000
# 2 -0.031323 0.162011 -0.010999 0.000000 0.010022 -0.000001
# 3 -0.010846 -0.010999 0.027603 0.000000 -0.019751 0.000000
# 4 0.000000 0.000000 0.000000 0.091621 0.000000 0.012615
# 5 0.000499 0.010022 -0.019751 0.000000 0.054532 0.000000
# 6 0.000000 -0.000001 0.000000 0.012615 0.000000 0.048240
#
#
# Mechanical properties :
#
#
# Convention : Reuss Voigt Hill
#
# Bulk Modulus (GPa) = 9.45512 47.79258 28.62385
# Shear Modulus (GPa) = 9.12275 19.06791 14.09533
#
# Velocity S-wave (km/s) = 2.40522 3.47731 2.98972
# Velocity P-wave (km/s) = 3.70261 6.81391 5.48355
#
# Compressibility (1/GPa) = 0.10576279
#
# Stress axis : x y z
#
# Youngs Moduli (GPa) = 44.47533 6.17241 36.22837
#
# Poissons Ratio (x) = 0.19334 0.39294
# Poissons Ratio (y) = 1.39309 0.39847
# Poissons Ratio (z) = 0.48239 0.06789
#
# Static dielectric constant tensor:
#      x y z
#    x 1.502000 0.000000 0.031790 
#    y 0.000000 1.526850 0.000000 
#    z 0.031790 0.000000 1.566800 
# 
# From -- ./inp_files/242993.got.cif
#   From: 2010.05.17/outbox.cif.g08.bks.cpg/sg12_122_cif.got.tgz:242993.got - 2010.06.03 13:09:07.
