data_PCOD9169815
_publ_section_title
;
Structure prediction by ZEFSAII (Michael W. Deem and Ramdas Pophale) SiO2 
 PCOD9169815
Probable space group: C 2/M
;
_chemical_formula_sum "Si O2"
_cell_formula_units_Z 40
_cell_length_a 14.028657
_cell_length_b 15.147826
_cell_length_c 10.811175
_cell_angle_alpha 90.000000
_cell_angle_beta 80.534474
_cell_angle_gamma 90.000000
_cell_volume 2266.134290
_symmetry_space_group_name_H-M "C 2/M"
_symmetry_group_IT_number 12
_symmetry_cell_setting 'monoclinic'
loop_
_space_group_symop_operation_xyz
x,y,z
-x,y,-z
-x,-y,-z
x,-y,z
1/2+x,1/2+y,z
1/2-x,1/2+y,-z
1/2-x,1/2-y,-z
1/2+x,1/2-y,z
loop_
_atom_site_type_symbol
_atom_site_label
_atom_site_fract_x
_atom_site_fract_y
_atom_site_fract_z
Si Si1 0.102164 0.818376 0.312422
Si Si2 0.232551 0.343943 0.243368
Si Si3 0.385019 0.906681 0.509834
Si Si4 0.345975 0.500000 0.104125
Si Si5 0.945561 0.000000 0.815625
Si Si6 0.116896 0.778106 0.590640
O O1 0.175157 0.748547 0.230568
O O2 0.127391 0.824263 0.453852
O O3 0.994119 0.778297 0.343073
O O4 0.088482 0.912570 0.250533
O O5 0.157929 0.397615 0.344449
O O6 0.280169 0.412006 0.136748
O O7 0.318940 0.319792 0.317957
O O8 0.500000 0.903048 0.500000
O O9 0.352836 0.822500 0.439991
O O10 0.355761 0.000000 0.460261
O O11 0.437783 0.500000 0.181437
O O12 0.394102 0.500000 0.959614
#
# Coordination Sequence:
#
# PCOD9169815 Si02
#       6
#     8   8   8   4   4   8
#     4  10  20  36  58  82 120 145 185 233 290 343
#     4  11  20  37  57  85 117 151 184 234 291 344
#     4  10  17  28  49  78 114 145 176 214 275 350
#     4  11  24  39  63  80 107 153 213 240 277 326
#     4  11  24  42  57  83 108 156 207 246 272 323
#     4  10  19  34  53  89 118 147 180 228 295 353
#
# _framework density 17.651205999999998
#
# number of rings (size 3 to 8) (size 9 to 14) (size 15 to 20)
#    0.000    1.600    7.000    2.400    0.000    3.200 
#    5.400    0.000    0.000    0.000    0.000    1.400 
#    0.000    0.000    0.000    0.000    0.000    0.000 
#
# Total GULP energy -111371.886842 kJ/mol
# GULP energy per Si atom -5568.594342 kJ/mol
# Density = 1.761103 g / cm^3
# Si number density = 17.651206 Si / 1000 Ang^3
#
#
#
# Elastic Constant Matrix: (Units=GPa)
#
#
# Indices 1 2 3 4 5 6 
#
# 1 84.2405 26.5895 22.0767 0.0000 -13.8736 0.0000
# 2 26.5895 142.0564 49.4490 0.0000 2.7045 0.0000
# 3 22.0767 49.4490 48.5840 0.0000 -12.8615 0.0000
# 4 0.0000 0.0000 0.0000 17.6105 0.0000 -23.8137
# 5 -13.8736 2.7045 -12.8615 0.0000 24.9655 0.0000
# 6 0.0000 0.0000 0.0000 -23.8137 0.0000 -15.2055
#
#
#
# Elastic Compliance Matrix: (Units=1/GPa)
#
#
# Indices 1 2 3 4 5 6 
#
# 1 0.014292 -0.001783 -0.002924 0.000000 0.006629 0.000000
# 2 -0.001783 0.012698 -0.014752 0.000000 -0.009967 0.000000
# 3 -0.002924 -0.014752 0.042750 0.000000 0.021996 0.000000
# 4 0.000000 0.000000 0.000000 0.018213 0.000000 -0.028524
# 5 0.006629 -0.009967 0.021996 0.000000 0.056151 0.000000
# 6 0.000000 0.000000 0.000000 -0.028524 0.000000 -0.021094
#
#
# Mechanical properties :
#
#
# Convention : Reuss Voigt Hill
#
# Bulk Modulus (GPa) = 32.44679 52.34571 42.39625
# Shear Modulus (GPa) = 29.03553 17.25847 23.14700
#
# Velocity S-wave (km/s) = 4.06021 3.13029 3.62519
# Velocity P-wave (km/s) = 6.35630 6.54102 6.44932
#
# Compressibility (1/GPa) = 0.03081969
#
# Stress axis : x y z
#
# Youngs Moduli (GPa) = 69.97052 78.75132 23.39195
#
# Poissons Ratio (x) = 0.14044 0.06841
# Poissons Ratio (y) = 0.12478 0.34509
# Poissons Ratio (z) = 0.20462 1.16177
#
# Static dielectric constant tensor:
#      x y z
#    x 1.629440 0.000000 -0.026820 
#    y 0.000000 1.659140 0.000000 
#    z -0.026820 0.000000 1.575790 
# 
# From -- ./inp_files/141920.got.cif
#   From: 2010.05.17/outbox.cif.g08.bks.cpg/sg12_71_cif.got.tgz:141920.got - 2010.06.03 13:09:07.
