data_PCOD9169620
_publ_section_title
;
Structure prediction by ZEFSAII (Michael W. Deem and Ramdas Pophale) SiO2 
 PCOD9169620
Probable space group: C 2/M
;
_chemical_formula_sum "Si O2"
_cell_formula_units_Z 48
_cell_length_a 28.908222
_cell_length_b 7.673618
_cell_length_c 12.310835
_cell_angle_alpha 90.000000
_cell_angle_beta 69.786063
_cell_angle_gamma 90.000000
_cell_volume 2562.720441
_symmetry_space_group_name_H-M "C 2/M"
_symmetry_group_IT_number 12
_symmetry_cell_setting 'monoclinic'
loop_
_space_group_symop_operation_xyz
x,y,z
-x,y,-z
-x,-y,-z
x,-y,z
1/2+x,1/2+y,z
1/2-x,1/2+y,-z
1/2-x,1/2-y,-z
1/2+x,1/2-y,z
loop_
_atom_site_type_symbol
_atom_site_label
_atom_site_fract_x
_atom_site_fract_y
_atom_site_fract_z
Si Si1 0.306920 0.709290 0.969556
Si Si2 0.538060 0.288189 0.123815
Si Si3 0.391412 0.289507 0.739807
Si Si4 0.374307 0.287973 0.107166
Si Si5 0.449557 0.202313 0.487389
Si Si6 0.430801 0.293109 0.256595
O O1 0.312013 0.500000 0.966072
O O2 0.341819 0.770422 0.841596
O O3 0.250000 0.750000 0.000000
O O4 0.329988 0.774293 0.065346
O O5 0.536267 0.500000 0.122215
O O6 0.564096 0.238837 0.215486
O O7 0.482629 0.221728 0.168169
O O8 0.575859 0.240173 0.998815
O O9 0.390204 0.500000 0.735156
O O10 0.405971 0.222838 0.610144
O O11 0.369864 0.500000 0.111273
O O12 0.384767 0.227848 0.221806
O O13 0.500000 0.280089 0.500000
O O14 0.433174 0.272006 0.383801
O O15 0.459883 0.000000 0.460293
O O16 0.431916 0.500000 0.236107
#
# Coordination Sequence:
#
# PCOD9169620 Si02
#       6
#     8   8   8   8   8   8
#     4   9  18  33  54  78 100 121 153 201 250 292
#     4   8  13  23  43  70  95 119 153 196 234 271
#     4   9  17  31  50  72  95 124 167 205 229 272
#     4   8  15  27  45  73  99 119 154 201 241 280
#     4  11  22  32  43  65 102 139 166 195 233 280
#     4  10  17  27  48  70  93 129 165 195 230 278
#
# _framework density 18.730097000000001
#
# number of rings (size 3 to 8) (size 9 to 14) (size 15 to 20)
#    0.000    2.833    1.667    3.000    0.000    3.333 
#    0.000    0.833    0.000    4.000    0.000    0.000 
#    0.000    0.000    0.000    0.000    0.000    0.000 
#
# Total GULP energy -133674.426004 kJ/mol
# GULP energy per Si atom -5569.767750 kJ/mol
# Density = 1.868747 g / cm^3
# Si number density = 18.730097 Si / 1000 Ang^3
#
#
#
# Elastic Constant Matrix: (Units=GPa)
#
#
# Indices 1 2 3 4 5 6 
#
# 1 146.8552 3.9152 81.2159 0.0000 17.7057 0.0000
# 2 3.9152 26.7079 -6.2162 0.0000 0.7487 0.0000
# 3 81.2159 -6.2162 88.5523 0.0000 26.8468 0.0000
# 4 0.0000 0.0000 0.0000 -25.6420 0.0000 -9.2262
# 5 17.7057 0.7487 26.8468 0.0000 26.2607 0.0000
# 6 0.0000 0.0000 0.0000 -9.2262 0.0000 12.0842
#
#
#
# Elastic Compliance Matrix: (Units=1/GPa)
#
#
# Indices 1 2 3 4 5 6 
#
# 1 0.015298 -0.006276 -0.016517 0.000000 0.006751 0.000000
# 2 -0.006276 0.041202 0.011190 0.000000 -0.008383 0.000000
# 3 -0.016517 0.011190 0.034704 0.000000 -0.024661 0.000000
# 4 0.000000 0.000000 0.000000 -0.030594 0.000000 -0.023358
# 5 0.006751 -0.008383 -0.024661 0.000000 0.058978 0.000000
# 6 0.000000 0.000000 0.000000 -0.023358 0.000000 0.064919
#
#
# Mechanical properties :
#
#
# Convention : Reuss Voigt Hill
#
# Bulk Modulus (GPa) = 14.70685 46.66058 30.68372
# Shear Modulus (GPa) = 21.70341 14.75395 18.22868
#
# Velocity S-wave (km/s) = 3.40773 2.80967 3.12305
# Velocity P-wave (km/s) = 4.83244 5.95750 5.42422
#
# Compressibility (1/GPa) = 0.06799550
#
# Stress axis : x y z
#
# Youngs Moduli (GPa) = 65.37006 24.27090 28.81526
#
# Poissons Ratio (x) = 0.15233 0.47595
# Poissons Ratio (y) = 0.41027 -0.32244
# Poissons Ratio (z) = 1.07975 -0.27159
#
# Static dielectric constant tensor:
#      x y z
#    x 1.664050 0.000000 0.031860 
#    y 0.000000 1.715600 0.000000 
#    z 0.031860 0.000000 1.668580 
# 
# From -- ./inp_files/185747.got.cif
#   From: 2010.05.17/outbox.cif.g08.bks.cpg/sg12_93_cif.got.tgz:185747.got - 2010.06.03 13:09:07.
