data_PCOD9169521
_publ_section_title
;
Structure prediction by ZEFSAII (Michael W. Deem and Ramdas Pophale) SiO2 
 PCOD9169521
Probable space group: C 2/M
;
_chemical_formula_sum "Si O2"
_cell_formula_units_Z 56
_cell_length_a 27.739821
_cell_length_b 8.745305
_cell_length_c 14.995968
_cell_angle_alpha 90.000000
_cell_angle_beta 76.347167
_cell_angle_gamma 90.000000
_cell_volume 3535.125861
_symmetry_space_group_name_H-M "C 2/M"
_symmetry_group_IT_number 12
_symmetry_cell_setting 'monoclinic'
loop_
_space_group_symop_operation_xyz
x,y,z
-x,y,-z
-x,-y,-z
x,-y,z
1/2+x,1/2+y,z
1/2-x,1/2+y,-z
1/2-x,1/2-y,-z
1/2+x,1/2-y,z
loop_
_atom_site_type_symbol
_atom_site_label
_atom_site_fract_x
_atom_site_fract_y
_atom_site_fract_z
Si Si1 0.954089 0.184009 0.401156
Si Si2 0.536429 0.819381 0.106280
Si Si3 0.374177 0.820586 0.792550
Si Si4 0.068386 0.315225 0.774563
Si Si5 0.615137 0.814550 0.932229
Si Si6 0.304737 0.317990 0.968271
Si Si7 0.932599 0.184443 0.610233
O O1 0.927591 0.251053 0.326319
O O2 0.931021 0.228394 0.506749
O O3 0.012342 0.230989 0.379095
O O4 0.953467 0.000000 0.397031
O O5 0.577076 0.802850 0.166250
O O6 0.484265 0.756572 0.162485
O O7 0.527712 0.000000 0.094759
O O8 0.564665 0.763260 0.005699
O O9 0.330839 0.735794 0.864982
O O10 0.390329 0.755130 0.690360
O O11 0.362706 0.000000 0.792328
O O12 0.066478 0.500000 0.769997
O O13 0.109369 0.275366 0.830921
O O14 0.617749 0.000000 0.939379
O O15 0.660679 0.744824 0.966609
O O16 0.303319 0.500000 0.972262
O O17 0.250000 0.250000 0.000000
O O18 0.930354 0.000000 0.616611
#
# Coordination Sequence:
#
# PCOD9169521 Si02
#       7
#     8   8   8   8   8   8   8
#     4   9  18  29  42  62  96 135 170 206 240 276
#     4   8  14  25  41  63  92 126 159 191 228 272
#     4  10  18  30  50  73  97 125 161 202 242 285
#     4  10  17  27  44  67  95 131 167 199 235 276
#     4   9  18  31  47  68  96 126 160 197 238 286
#     4  11  22  37  55  74  97 122 154 196 243 292
#     4   9  17  30  44  63  94 134 170 203 243 280
#
# _framework density 15.841018999999999
#
# number of rings (size 3 to 8) (size 9 to 14) (size 15 to 20)
#    0.000    2.571    1.429    3.857    0.000    2.857 
#    0.000    1.429    0.000    2.571    0.000    1.000 
#    0.000    0.000    0.000    0.000    0.000    0.000 
#
# Total GULP energy -156020.432891 kJ/mol
# GULP energy per Si atom -5572.158318 kJ/mol
# Density = 1.580496 g / cm^3
# Si number density = 15.841019 Si / 1000 Ang^3
#
#
#
# Elastic Constant Matrix: (Units=GPa)
#
#
# Indices 1 2 3 4 5 6 
#
# 1 62.7257 33.9214 59.0024 0.0000 -3.4387 0.0000
# 2 33.9214 45.9437 47.1560 0.0000 -2.3683 0.0000
# 3 59.0024 47.1560 145.2867 0.0000 12.2415 0.0000
# 4 0.0000 0.0000 0.0000 26.7330 0.0000 0.5568
# 5 -3.4387 -2.3683 12.2415 0.0000 20.1044 0.0000
# 6 0.0000 0.0000 0.0000 0.5568 0.0000 17.7770
#
#
#
# Elastic Compliance Matrix: (Units=1/GPa)
#
#
# Indices 1 2 3 4 5 6 
#
# 1 0.033300 -0.013977 -0.009833 0.000000 0.010036 0.000000
# 2 -0.013977 0.040918 -0.008232 0.000000 0.007442 0.000000
# 3 -0.009833 -0.008232 0.014516 0.000000 -0.011490 0.000000
# 4 0.000000 0.000000 0.000000 0.037431 0.000000 -0.001172
# 5 0.010036 0.007442 -0.011490 0.000000 0.059330 0.000000
# 6 0.000000 0.000000 0.000000 -0.001172 0.000000 0.056289
#
#
# Mechanical properties :
#
#
# Convention : Reuss Voigt Hill
#
# Bulk Modulus (GPa) = 40.56547 59.34620 49.95584
# Shear Modulus (GPa) = 15.91931 20.51462 18.21696
#
# Velocity S-wave (km/s) = 3.17352 3.60256 3.39482
# Velocity P-wave (km/s) = 6.25234 7.40605 6.85351
#
# Compressibility (1/GPa) = 0.02465151
#
# Stress axis : x y z
#
# Youngs Moduli (GPa) = 30.02990 24.43938 68.88964
#
# Poissons Ratio (x) = 0.34158 0.67737
# Poissons Ratio (y) = 0.41972 0.56707
# Poissons Ratio (z) = 0.29527 0.20118
#
# Static dielectric constant tensor:
#      x y z
#    x 1.513160 0.000000 0.011000 
#    y 0.000000 1.538260 0.000000 
#    z 0.011000 0.000000 1.549860 
# 
# From -- ./inp_files/247733.got.cif
#   From: 2010.05.17/outbox.cif.g08.bks.cpg/sg12_124_cif.got.tgz:247733.got - 2010.06.03 13:09:07.
