data_PCOD9169064
_publ_section_title
;
Structure prediction by ZEFSAII (Michael W. Deem and Ramdas Pophale) SiO2 
 PCOD9169064
Probable space group: C 2/M
;
_chemical_formula_sum "Si O2"
_cell_formula_units_Z 56
_cell_length_a 23.270219
_cell_length_b 19.239686
_cell_length_c 9.235293
_cell_angle_alpha 90.000000
_cell_angle_beta 48.621238
_cell_angle_gamma 90.000000
_cell_volume 3102.534178
_symmetry_space_group_name_H-M "C 2/M"
_symmetry_group_IT_number 12
_symmetry_cell_setting 'monoclinic'
loop_
_space_group_symop_operation_xyz
x,y,z
-x,y,-z
-x,-y,-z
x,-y,z
1/2+x,1/2+y,z
1/2-x,1/2+y,-z
1/2-x,1/2-y,-z
1/2+x,1/2-y,z
loop_
_atom_site_type_symbol
_atom_site_label
_atom_site_fract_x
_atom_site_fract_y
_atom_site_fract_z
Si Si1 0.261040 0.081523 0.498443
Si Si2 0.167931 0.074721 0.945502
Si Si3 0.995289 0.890912 0.846888
Si Si4 0.112394 0.695215 0.691696
Si Si5 0.447186 0.768717 0.897558
Si Si6 0.348096 0.340225 0.519041
Si Si7 0.171430 0.790284 0.123700
O O1 0.331914 0.130323 0.427706
O O2 0.224206 0.116042 0.416674
O O3 0.280464 0.000000 0.446973
O O4 0.196518 0.084870 0.732775
O O5 0.075966 0.073803 0.110627
O O6 0.189641 0.141873 0.998452
O O7 0.198996 0.000000 0.942868
O O8 0.077274 0.887422 0.636223
O O9 0.970118 0.810173 0.900104
O O10 0.000000 0.919632 0.000000
O O11 0.096644 0.700721 0.890444
O O12 0.148287 0.768699 0.580365
O O13 0.028989 0.692138 0.751872
O O14 0.393486 0.756761 0.847508
O O15 0.350717 0.316043 0.680061
O O16 0.250000 0.750000 0.000000
#
# Coordination Sequence:
#
# PCOD9169064 Si02
#       7
#     8   8   8   8   8   8   8
#     4  11  22  35  54  82 110 147 193 230 271 328
#     4  10  22  37  53  74 112 150 180 223 280 334
#     4  10  16  33  54  80 105 135 174 223 271 328
#     4  10  18  35  59  79 107 145 184 233 273 322
#     4   9  18  34  55  81 108 139 177 228 281 322
#     4  11  20  33  58  84 109 146 181 228 278 331
#     4  11  22  36  56  85 114 143 183 230 279 335
#
# _framework density 18.049759999999999
#
# number of rings (size 3 to 8) (size 9 to 14) (size 15 to 20)
#    0.000    1.714    4.286    3.000    0.000    6.571 
#    0.000    2.143    0.000    0.857    0.000    3.000 
#    0.000    0.000    0.000    0.000    0.000    0.000 
#
# Total GULP energy -156057.502836 kJ/mol
# GULP energy per Si atom -5573.482244 kJ/mol
# Density = 1.800868 g / cm^3
# Si number density = 18.049760 Si / 1000 Ang^3
#
#
#
# Elastic Constant Matrix: (Units=GPa)
#
#
# Indices 1 2 3 4 5 6 
#
# 1 125.6717 58.8091 39.2128 0.0000 -2.6817 0.0000
# 2 58.8091 82.2052 15.8806 0.0000 -10.9957 0.0000
# 3 39.2128 15.8806 56.0662 0.0000 3.9436 0.0000
# 4 0.0000 0.0000 0.0000 5.5727 0.0000 2.2808
# 5 -2.6817 -10.9957 3.9436 0.0000 21.8424 0.0000
# 6 0.0000 0.0000 0.0000 2.2808 0.0000 7.1007
#
#
#
# Elastic Compliance Matrix: (Units=1/GPa)
#
#
# Indices 1 2 3 4 5 6 
#
# 1 0.014543 -0.009158 -0.007474 0.000000 -0.001475 0.000000
# 2 -0.009158 0.019870 0.000154 0.000000 0.008851 0.000000
# 3 -0.007474 0.000154 0.023376 0.000000 -0.005060 0.000000
# 4 0.000000 0.000000 0.000000 0.206608 0.000000 -0.066362
# 5 -0.001475 0.008851 -0.005060 0.000000 0.050970 0.000000
# 6 0.000000 0.000000 0.000000 -0.066362 0.000000 0.162146
#
#
# Mechanical properties :
#
#
# Convention : Reuss Voigt Hill
#
# Bulk Modulus (GPa) = 40.26717 54.63870 47.45294
# Shear Modulus (GPa) = 9.63863 16.90587 13.27225
#
# Velocity S-wave (km/s) = 2.31336 3.06375 2.71461
# Velocity P-wave (km/s) = 5.43074 6.54617 6.01437
#
# Compressibility (1/GPa) = 0.02483412
#
# Stress axis : x y z
#
# Youngs Moduli (GPa) = 68.76074 50.32710 42.77965
#
# Poissons Ratio (x) = 0.46087 0.31973
# Poissons Ratio (y) = 0.62968 -0.00659
# Poissons Ratio (z) = 0.51391 -0.00776
#
# Static dielectric constant tensor:
#      x y z
#    x 1.652110 0.000000 -0.005440 
#    y 0.000000 1.630280 0.000000 
#    z -0.005440 0.000000 1.632440 
# 
# From -- ./inp_files/98033.got.cif
#   From: 2010.05.17/outbox.cif.g08.bks.cpg/sg12_50_cif.got.tgz:98033.got - 2010.06.03 13:09:07.
