data_PCOD9169005
_publ_section_title
;
Structure prediction by ZEFSAII (Michael W. Deem and Ramdas Pophale) SiO2 
 PCOD9169005
Probable space group: C 2/M
;
_chemical_formula_sum "Si O2"
_cell_formula_units_Z 64
_cell_length_a 23.946325
_cell_length_b 19.420599
_cell_length_c 15.548020
_cell_angle_alpha 90.000000
_cell_angle_beta 149.821417
_cell_angle_gamma 90.000000
_cell_volume 3634.818637
_symmetry_space_group_name_H-M "C 2/M"
_symmetry_group_IT_number 12
_symmetry_cell_setting 'monoclinic'
loop_
_space_group_symop_operation_xyz
x,y,z
-x,y,-z
-x,-y,-z
x,-y,z
1/2+x,1/2+y,z
1/2-x,1/2+y,-z
1/2-x,1/2-y,-z
1/2+x,1/2-y,z
loop_
_atom_site_type_symbol
_atom_site_label
_atom_site_fract_x
_atom_site_fract_y
_atom_site_fract_z
Si Si1 0.520894 0.146094 0.722652
Si Si2 0.395421 0.794341 0.406080
Si Si3 0.257921 0.826139 0.053821
Si Si4 0.332998 0.921254 0.573876
Si Si5 0.366477 0.076724 0.821076
Si Si6 0.545579 0.290045 0.845647
Si Si7 0.316075 0.776107 0.813464
Si Si8 0.329130 0.698691 0.658736
O O1 0.450822 0.147770 0.540465
O O2 0.652334 0.132317 0.884101
O O3 0.454766 0.099932 0.701864
O O4 0.512512 0.225641 0.741937
O O5 0.500000 0.757196 0.500000
O O6 0.321615 0.822770 0.229643
O O7 0.311810 0.746614 0.347288
O O8 0.250000 0.750000 0.000000
O O9 0.129379 0.840657 0.905932
O O10 0.330482 0.914221 0.673771
O O11 0.244077 0.868040 0.417358
O O12 0.309972 0.000000 0.520503
O O13 0.325385 0.142042 0.819396
O O14 0.332002 0.000000 0.804046
O O15 0.500000 0.078835 0.000000
O O16 0.435670 0.319851 0.743068
O O17 0.616515 0.254118 0.016441
O O18 0.361598 0.740517 0.787374
O O19 0.250000 0.750000 0.500000
#
# Coordination Sequence:
#
# PCOD9169005 Si02
#       8
#     8   8   8   8   8   8   8   8
#     4  10  16  32  49  71 103 128 164 206 251 300
#     4   9  17  28  48  74 100 126 159 209 251 286
#     4   8  17  29  47  74 102 127 158 207 255 294
#     4  11  22  33  49  75 105 138 169 207 258 304
#     4  10  20  32  46  71 105 133 159 200 256 311
#     4  10  19  29  49  79 101 126 166 211 254 294
#     4  11  18  30  50  75  99 130 168 205 253 303
#     4  12  19  31  50  74 101 132 169 212 252 300
#
# _framework density 17.607482000000001
#
# number of rings (size 3 to 8) (size 9 to 14) (size 15 to 20)
#    0.000    1.875    3.750    1.875    0.000    0.000 
#    0.000    0.000    0.000    6.000    0.000    0.000 
#    0.000    0.000    0.000    0.000    0.000    0.000 
#
# Total GULP energy -178209.045503 kJ/mol
# GULP energy per Si atom -5569.032672 kJ/mol
# Density = 1.756741 g / cm^3
# Si number density = 17.607482 Si / 1000 Ang^3
#
#
#
# Elastic Constant Matrix: (Units=GPa)
#
#
# Indices 1 2 3 4 5 6 
#
# 1 64.3298 5.2912 7.0544 0.0000 36.1698 0.0000
# 2 5.2912 61.8933 4.8823 0.0000 18.0961 0.0000
# 3 7.0544 4.8823 49.3092 0.0000 10.1168 0.0000
# 4 0.0000 0.0000 0.0000 10.5473 0.0000 2.7799
# 5 36.1698 18.0961 10.1168 0.0000 48.3677 0.0000
# 6 0.0000 0.0000 0.0000 2.7799 0.0000 8.1645
#
#
#
# Elastic Compliance Matrix: (Units=1/GPa)
#
#
# Indices 1 2 3 4 5 6 
#
# 1 0.027742 0.004143 0.000204 0.000000 -0.022338 0.000000
# 2 0.004143 0.018769 -0.000392 0.000000 -0.010039 0.000000
# 3 0.000204 -0.000392 0.021201 0.000000 -0.004441 0.000000
# 4 0.000000 0.000000 0.000000 0.104158 0.000000 -0.035465
# 5 -0.022338 -0.010039 -0.004441 0.000000 0.042064 0.000000
# 6 0.000000 0.000000 0.000000 -0.035465 0.000000 0.134557
#
#
# Mechanical properties :
#
#
# Convention : Reuss Voigt Hill
#
# Bulk Modulus (GPa) = 13.22349 23.33202 18.27775
# Shear Modulus (GPa) = 13.66918 23.96951 18.81935
#
# Velocity S-wave (km/s) = 2.78929 3.69362 3.27284
# Velocity P-wave (km/s) = 4.23084 5.60985 4.96842
#
# Compressibility (1/GPa) = 0.07562302
#
# Stress axis : x y z
#
# Youngs Moduli (GPa) = 36.04695 53.28060 47.16799
#
# Poissons Ratio (x) = -0.22077 -0.00963
# Poissons Ratio (y) = -0.14936 0.01847
# Poissons Ratio (z) = -0.00736 0.02086
#
# Static dielectric constant tensor:
#      x y z
#    x 1.686200 0.000000 0.005880 
#    y 0.000000 1.566160 0.000000 
#    z 0.005880 0.000000 1.646230 
# 
# From -- ./inp_files/293727.got.cif
#   From: 2010.05.17/outbox.cif.g08.bks.cpg/sg12_147_cif.got.tgz:293727.got - 2010.06.03 13:09:07.
