data_PCOD9169549
_publ_section_title
;
Structure prediction by ZEFSAII (Michael W. Deem and Ramdas Pophale) SiO2 
 PCOD9169549
Probable space group: C 2/M
;
_chemical_formula_sum "Si O2"
_cell_formula_units_Z 56
_cell_length_a 18.336222
_cell_length_b 25.376755
_cell_length_c 11.114997
_cell_angle_alpha 90.000000
_cell_angle_beta 36.924945
_cell_angle_gamma 90.000000
_cell_volume 3107.150752
_symmetry_space_group_name_H-M "C 2/M"
_symmetry_group_IT_number 12
_symmetry_cell_setting 'monoclinic'
loop_
_space_group_symop_operation_xyz
x,y,z
-x,y,-z
-x,-y,-z
x,-y,z
1/2+x,1/2+y,z
1/2-x,1/2+y,-z
1/2-x,1/2-y,-z
1/2+x,1/2-y,z
loop_
_atom_site_type_symbol
_atom_site_label
_atom_site_fract_x
_atom_site_fract_y
_atom_site_fract_z
Si Si1 0.808440 0.943714 0.844136
Si Si2 0.737446 0.673339 0.024082
Si Si3 0.544456 0.693072 0.636954
Si Si4 0.307551 0.239833 0.725047
Si Si5 0.632416 0.557793 0.761371
Si Si6 0.638293 0.675438 0.773488
Si Si7 0.087934 0.075646 0.538775
O O1 0.752608 0.888768 0.963364
O O2 0.820472 0.943805 0.683523
O O3 0.949871 0.942367 0.698338
O O4 0.755350 0.000000 0.954645
O O5 0.600023 0.685963 0.156844
O O6 0.746012 0.709554 0.131829
O O7 0.824737 0.696176 0.806195
O O8 0.579937 0.739748 0.501648
O O9 0.620718 0.694315 0.659418
O O10 0.584245 0.638263 0.524795
O O11 0.214865 0.215173 0.751730
O O12 0.687789 0.500000 0.717775
O O13 0.688032 0.615110 0.720120
O O14 0.618159 0.561483 0.635613
O O15 0.500000 0.557492 0.000000
O O16 0.500000 0.673011 0.000000
#
# Coordination Sequence:
#
# PCOD9169549 Si02
#       7
#     8   8   8   8   8   8   8
#     4  10  17  27  45  68  96 128 155 192 240 294
#     4  10  21  33  49  73 101 131 166 200 242 294
#     4  10  18  33  51  68  99 135 165 198 242 283
#     4  11  20  33  49  68  98 139 164 203 242 280
#     4   9  17  27  41  63  94 131 160 189 234 293
#     4  10  19  32  47  70 100 132 167 201 238 288
#     4   9  16  27  43  67  92 125 164 184 226 292
#
# _framework density 18.022942
#
# number of rings (size 3 to 8) (size 9 to 14) (size 15 to 20)
#    0.000    2.143    2.857    2.571    2.000    0.000 
#    0.000    0.000    0.000    0.000    0.000    0.000 
#    0.000   22.286    0.000    1.714    0.000    0.000 
#
# Total GULP energy -155891.830667 kJ/mol
# GULP energy per Si atom -5567.565381 kJ/mol
# Density = 1.798192 g / cm^3
# Si number density = 18.022942 Si / 1000 Ang^3
#
#
#
# Elastic Constant Matrix: (Units=GPa)
#
#
# Indices 1 2 3 4 5 6 
#
# 1 58.5404 38.7835 3.1344 -0.0001 12.1546 0.0001
# 2 38.7835 155.9051 37.2646 0.0000 12.5054 0.0000
# 3 3.1344 37.2646 49.3791 0.0000 16.9631 0.0000
# 4 -0.0001 0.0000 0.0000 -3.7976 0.0000 4.6339
# 5 12.1546 12.5054 16.9631 0.0000 16.5050 0.0000
# 6 0.0001 0.0000 0.0000 4.6339 0.0000 -5.8277
#
#
#
# Elastic Compliance Matrix: (Units=1/GPa)
#
#
# Indices 1 2 3 4 5 6 
#
# 1 0.027554 -0.007920 0.014123 -0.000019 -0.028806 -0.000015
# 2 -0.007920 0.010103 -0.010040 0.000007 0.008496 0.000005
# 3 0.014123 -0.010040 0.043113 -0.000028 -0.047103 -0.000022
# 4 -0.000019 0.000007 -0.000028 -8.852796 0.000053 -7.039300
# 5 -0.028806 0.008496 -0.047103 0.000053 0.123774 0.000042
# 6 -0.000015 0.000005 -0.000022 -7.039300 0.000042 -5.768895
#
#
# Mechanical properties :
#
#
# Convention : Reuss Voigt Hill
#
# Bulk Modulus (GPa) = 13.68057 46.90998 30.29528
# Shear Modulus (GPa) = -0.34758 13.68543 6.66892
#
# Velocity S-wave (km/s) = -0.43963 2.75859 1.92569
# Velocity P-wave (km/s) = 2.71098 6.01921 4.66799
#
# Compressibility (1/GPa) = 0.07309635
#
# Stress axis : x y z
#
# Youngs Moduli (GPa) = 36.29287 98.98507 23.19479
#
# Poissons Ratio (x) = 0.78392 -0.32758
# Poissons Ratio (y) = 0.28742 0.23288
# Poissons Ratio (z) = -0.51257 0.99382
#
# Static dielectric constant tensor:
#      x y z
#    x 1.648620 0.000000 0.042770 
#    y 0.000000 1.685820 0.000000 
#    z 0.042770 0.000000 1.623580 
# 
# From -- ./inp_files/170006.got.cif
#   From: 2010.05.17/outbox.cif.g08.bks.cpg/sg12_86_cif.got.tgz:170006.got - 2010.06.03 13:09:07.
