data_PCOD9169718
_publ_section_title
;
Structure prediction by ZEFSAII (Michael W. Deem and Ramdas Pophale) SiO2 
 PCOD9169718
Probable space group: C 2/M
;
_chemical_formula_sum "Si O2"
_cell_formula_units_Z 60
_cell_length_a 28.503095
_cell_length_b 7.999976
_cell_length_c 17.816761
_cell_angle_alpha 90.000000
_cell_angle_beta 51.799467
_cell_angle_gamma 90.000000
_cell_volume 3192.638499
_symmetry_space_group_name_H-M "C 2/M"
_symmetry_group_IT_number 12
_symmetry_cell_setting 'monoclinic'
loop_
_space_group_symop_operation_xyz
x,y,z
-x,y,-z
-x,-y,-z
x,-y,z
1/2+x,1/2+y,z
1/2-x,1/2+y,-z
1/2-x,1/2-y,-z
1/2+x,1/2-y,z
loop_
_atom_site_type_symbol
_atom_site_label
_atom_site_fract_x
_atom_site_fract_y
_atom_site_fract_z
Si Si1 0.414941 0.308015 0.358034
Si Si2 0.344921 0.300714 0.874722
Si Si3 0.969231 0.309298 0.685854
Si Si4 0.245147 0.203170 0.728349
Si Si5 0.000000 0.752901 0.500000
Si Si6 0.776470 0.202664 0.087254
Si Si7 0.126250 0.689514 0.445265
Si Si8 0.700268 0.702370 0.610663
O O1 0.427584 0.500000 0.326246
O O2 0.477609 0.215637 0.307278
O O3 0.384196 0.298120 0.470629
O O4 0.365058 0.238471 0.351131
O O5 0.353757 0.500000 0.867256
O O6 0.404934 0.219368 0.784518
O O7 0.288115 0.259420 0.878946
O O8 0.325138 0.242867 0.977662
O O9 0.973921 0.500000 0.651507
O O10 0.982514 0.188147 0.601821
O O11 0.216002 0.261474 0.834765
O O12 0.315705 0.244878 0.657609
O O13 0.218164 0.261436 0.676059
O O14 0.240990 0.000000 0.732742
O O15 0.934157 0.685129 0.542913
O O16 0.776394 0.000000 0.086598
O O17 0.137974 0.500000 0.460659
O O18 0.698254 0.500000 0.613672
O O19 0.750000 0.750000 0.500000
#
# Coordination Sequence:
#
# PCOD9169718 Si02
#       8
#     8   8   8   8   4   8   8   8
#     4  10  20  32  46  70 102 130 162 206 254 298
#     4  10  20  34  53  78 107 133 164 210 258 299
#     4  11  21  35  54  71  95 135 174 205 243 304
#     4   9  17  30  51  74  97 133 176 211 242 293
#     4  10  19  30  47  72  95 126 171 206 233 284
#     4   9  18  34  55  77 102 135 173 208 246 298
#     4  10  17  28  46  67  96 131 168 202 235 291
#     4  10  19  32  51  73 101 134 170 211 254 300
#
# _framework density 18.793234000000002
#
# number of rings (size 3 to 8) (size 9 to 14) (size 15 to 20)
#    0.000    2.133    1.333    4.000    0.000    2.133 
#    0.000   12.333    0.000    0.800    0.000    5.600 
#    0.000    0.000    0.000    0.000    0.000    0.000 
#
# Total GULP energy -167093.455460 kJ/mol
# GULP energy per Si atom -5569.781849 kJ/mol
# Density = 1.875046 g / cm^3
# Si number density = 18.793234 Si / 1000 Ang^3
#
#
#
# Elastic Constant Matrix: (Units=GPa)
#
#
# Indices 1 2 3 4 5 6 
#
# 1 124.0837 12.0591 71.4711 -0.0002 7.3962 0.0001
# 2 12.0591 32.1369 9.2919 -0.0004 -2.7088 0.0000
# 3 71.4711 9.2919 122.9976 -0.0004 3.0562 0.0000
# 4 -0.0002 -0.0004 -0.0004 18.9197 0.0000 -3.4770
# 5 7.3962 -2.7088 3.0562 0.0000 33.0427 0.0000
# 6 0.0001 0.0000 0.0000 -3.4770 0.0000 15.1742
#
#
#
# Elastic Compliance Matrix: (Units=1/GPa)
#
#
# Indices 1 2 3 4 5 6 
#
# 1 0.012508 -0.002873 -0.006992 0.000000 -0.002389 0.000000
# 2 -0.002873 0.032739 -0.000888 0.000001 0.003409 0.000000
# 3 -0.006992 -0.000888 0.012251 0.000000 0.000359 0.000000
# 4 0.000000 0.000001 0.000000 0.055179 0.000000 0.012644
# 5 -0.002389 0.003409 0.000359 0.000000 0.031045 0.000000
# 6 0.000000 0.000000 0.000000 0.012644 0.000000 0.068799
#
#
# Mechanical properties :
#
#
# Convention : Reuss Voigt Hill
#
# Bulk Modulus (GPa) = 27.78422 51.65138 39.71780
# Shear Modulus (GPa) = 20.32320 25.85370 23.08845
#
# Velocity S-wave (km/s) = 3.29205 3.71306 3.50887
# Velocity P-wave (km/s) = 5.40984 6.77688 6.13158
#
# Compressibility (1/GPa) = 0.03599165
#
# Stress axis : x y z
#
# Youngs Moduli (GPa) = 79.95023 30.54429 81.62542
#
# Poissons Ratio (x) = 0.08776 0.57069
# Poissons Ratio (y) = 0.22972 0.07252
# Poissons Ratio (z) = 0.55898 0.02714
#
# Static dielectric constant tensor:
#      x y z
#    x 1.657310 0.000000 0.016890 
#    y 0.000000 1.688540 0.000000 
#    z 0.016890 0.000000 1.642840 
# 
# From -- ./inp_files/292203.got.cif
#   From: 2010.05.17/outbox.cif.g08.bks.cpg/sg12_147_cif.got.tgz:292203.got - 2010.06.03 13:09:07.
