data_PCOD9169121
_publ_section_title
;
Structure prediction by ZEFSAII (Michael W. Deem and Ramdas Pophale) SiO2 
 PCOD9169121
Probable space group: C 2/M
;
_chemical_formula_sum "Si O2"
_cell_formula_units_Z 32
_cell_length_a 11.813512
_cell_length_b 14.921248
_cell_length_c 9.999129
_cell_angle_alpha 90.000000
_cell_angle_beta 62.072565
_cell_angle_gamma 90.000000
_cell_volume 1557.303590
_symmetry_space_group_name_H-M "C 2/M"
_symmetry_group_IT_number 12
_symmetry_cell_setting 'monoclinic'
loop_
_space_group_symop_operation_xyz
x,y,z
-x,y,-z
-x,-y,-z
x,-y,z
1/2+x,1/2+y,z
1/2-x,1/2+y,-z
1/2-x,1/2-y,-z
1/2+x,1/2-y,z
loop_
_atom_site_type_symbol
_atom_site_label
_atom_site_fract_x
_atom_site_fract_y
_atom_site_fract_z
Si Si1 0.510093 0.666899 0.774710
Si Si2 0.000000 0.260234 0.500000
Si Si3 0.289029 0.900805 0.664340
Si Si4 0.759788 0.641260 0.989470
Si Si5 0.500000 0.821928 0.000000
O O1 0.483234 0.701507 0.641118
O O2 0.641326 0.613068 0.708149
O O3 0.384617 0.613846 0.894725
O O4 0.529488 0.753845 0.860781
O O5 0.122567 0.324694 0.448080
O O6 0.332356 0.000000 0.602434
O O7 0.295722 0.889175 0.821423
O O8 0.875306 0.621776 0.027106
O O9 0.750000 0.750000 0.000000
#
# Coordination Sequence:
#
# PCOD9169121 Si02
#       5
#     8   4   8   8   4
#     4  11  20  38  67  92 119 164 217 252 299 372
#     4  12  23  40  63  94 126 168 208 248 307 382
#     4  12  24  39  62  97 130 160 202 263 319 359
#     4  10  18  36  62  88 120 160 208 254 289 372
#     4  10  16  36  64  86 118 150 214 250 284 362
#
# _framework density 20.548338999999999
#
# number of rings (size 3 to 8) (size 9 to 14) (size 15 to 20)
#    0.000    1.000   10.000    1.125    0.000    2.000 
#    0.000    1.250    0.000    0.000    0.000    0.000 
#    0.000    0.000    0.000    0.000    0.000    0.000 
#
# Total GULP energy -89375.961646 kJ/mol
# GULP energy per Si atom -5585.997603 kJ/mol
# Density = 2.050157 g / cm^3
# Si number density = 20.548339 Si / 1000 Ang^3
#
#
#
# Elastic Constant Matrix: (Units=GPa)
#
#
# Indices 1 2 3 4 5 6 
#
# 1 109.1084 -6.5209 -23.4959 0.0000 -24.0289 0.0000
# 2 -6.5209 33.9638 -11.0613 0.0000 4.1609 0.0000
# 3 -23.4959 -11.0613 42.9015 0.0000 -1.9453 0.0000
# 4 0.0000 0.0000 0.0000 -0.7189 0.0000 4.8499
# 5 -24.0289 4.1609 -1.9453 0.0000 39.1510 0.0000
# 6 0.0000 0.0000 0.0000 4.8499 0.0000 0.0598
#
#
#
# Elastic Compliance Matrix: (Units=1/GPa)
#
#
# Indices 1 2 3 4 5 6 
#
# 1 0.013034 0.004333 0.008617 0.000000 0.007968 0.000000
# 2 0.004333 0.033940 0.011106 0.000000 -0.000396 0.000000
# 3 0.008617 0.011106 0.031148 0.000000 0.005656 0.000000
# 4 0.000000 0.000000 0.000000 -0.002537 0.000000 0.205812
# 5 0.007968 -0.000396 0.005656 0.000000 0.030755 0.000000
# 6 0.000000 0.000000 0.000000 0.205812 0.000000 0.030507
#
#
# Mechanical properties :
#
#
# Convention : Reuss Voigt Hill
#
# Bulk Modulus (GPa) = 7.92174 11.53526 9.72850
# Shear Modulus (GPa) = 38.22180 22.83516 30.52848
#
# Velocity S-wave (km/s) = 4.31756 3.33722 3.85865
# Velocity P-wave (km/s) = 5.35897 4.52496 4.95953
#
# Compressibility (1/GPa) = 0.12623483
#
# Stress axis : x y z
#
# Youngs Moduli (GPa) = 76.71964 29.46333 32.10437
#
# Poissons Ratio (x) = -0.12766 -0.27664
# Poissons Ratio (y) = -0.33241 -0.35655
# Poissons Ratio (z) = -0.66109 -0.32722
#
# Static dielectric constant tensor:
#      x y z
#    x 1.781340 0.000000 -0.032740 
#    y 0.000000 1.740340 0.000000 
#    z -0.032740 0.000000 1.705670 
# 
# From -- ./inp_files/45450.got.cif
#   From: 2010.05.17/outbox.cif.g08.bks.cpg/sg12_23_cif.got.tgz:45450.got - 2010.06.03 13:09:07.
