data_PCOD9169255
_publ_section_title
;
Structure prediction by ZEFSAII (Michael W. Deem and Ramdas Pophale) SiO2 
 PCOD9169255
Probable space group: C 2/M
;
_chemical_formula_sum "Si O2"
_cell_formula_units_Z 64
_cell_length_a 19.678111
_cell_length_b 7.419162
_cell_length_c 21.894357
_cell_angle_alpha 90.000000
_cell_angle_beta 89.869189
_cell_angle_gamma 90.000000
_cell_volume 3196.460364
_symmetry_space_group_name_H-M "C 2/M"
_symmetry_group_IT_number 12
_symmetry_cell_setting 'monoclinic'
loop_
_space_group_symop_operation_xyz
x,y,z
-x,y,-z
-x,-y,-z
x,-y,z
1/2+x,1/2+y,z
1/2-x,1/2+y,-z
1/2-x,1/2-y,-z
1/2+x,1/2-y,z
loop_
_atom_site_type_symbol
_atom_site_label
_atom_site_fract_x
_atom_site_fract_y
_atom_site_fract_z
Si Si1 0.531670 0.719330 0.639050
Si Si2 0.168378 0.221217 0.873838
Si Si3 0.202901 0.287252 0.059247
Si Si4 0.424983 0.290435 0.013913
Si Si5 0.387847 0.288651 0.596631
Si Si6 0.143429 0.219116 0.538149
Si Si7 0.364533 0.719889 0.262040
Si Si8 0.745010 0.283134 0.638484
O O1 0.530964 0.500000 0.641730
O O2 0.456286 0.785886 0.625887
O O3 0.580214 0.765991 0.581989
O O4 0.568504 0.778448 0.701114
O O5 0.246383 0.278413 0.887588
O O6 0.117441 0.283718 0.927896
O O7 0.143536 0.278384 0.807402
O O8 0.169127 0.000000 0.876015
O O9 0.194419 0.500000 0.066713
O O10 0.250000 0.250000 0.000000
O O11 0.128137 0.216580 0.042666
O O12 0.436181 0.500000 0.028894
O O13 0.500000 0.213564 0.000000
O O14 0.401441 0.500000 0.586108
O O15 0.368026 0.212862 0.530104
O O16 0.322654 0.272000 0.639442
O O17 0.209793 0.280776 0.575330
O O18 0.146956 0.000000 0.535967
O O19 0.364622 0.500000 0.261172
O O20 0.301297 0.775890 0.304875
O O21 0.742467 0.500000 0.637917
#
# Coordination Sequence:
#
# PCOD9169255 Si02
#       8
#     8   8   8   8   8   8   8   8
#     4   8  14  24  40  61  81 104 139 177 207 241
#     4   8  14  26  45  64  82 111 148 178 204 244
#     4   9  16  27  45  68  91 115 145 178 212 251
#     4   9  17  29  45  68  96 119 140 173 219 261
#     4  10  17  25  41  64  86 104 128 172 222 254
#     4   8  14  25  41  60  80 105 138 171 204 248
#     4   8  14  27  45  61  78 108 150 181 199 237
#     4   9  17  28  42  59  80 108 140 172 206 248
#
# _framework density 20.022147
#
# number of rings (size 3 to 8) (size 9 to 14) (size 15 to 20)
#    0.000    3.375    0.000    3.375    0.000    1.750 
#    0.000    1.250    0.000    9.750    0.000    0.000 
#    0.000    0.000    0.000    0.000    0.000    0.000 
#
# Total GULP energy -178299.524480 kJ/mol
# GULP energy per Si atom -5571.860140 kJ/mol
# Density = 1.997658 g / cm^3
# Si number density = 20.022147 Si / 1000 Ang^3
#
#
#
# Elastic Constant Matrix: (Units=GPa)
#
#
# Indices 1 2 3 4 5 6 
#
# 1 173.8922 -3.6004 61.7630 0.0000 6.9737 0.0000
# 2 -3.6004 58.8934 2.4726 0.0000 2.2214 0.0000
# 3 61.7630 2.4726 107.9883 0.0000 17.0905 0.0000
# 4 0.0000 0.0000 0.0000 -3.1122 0.0000 -4.3588
# 5 6.9737 2.2214 17.0905 0.0000 11.0698 0.0000
# 6 0.0000 0.0000 0.0000 -4.3588 0.0000 11.6364
#
#
#
# Elastic Compliance Matrix: (Units=1/GPa)
#
#
# Indices 1 2 3 4 5 6 
#
# 1 0.007283 0.000549 -0.004545 0.000000 0.002319 0.000000
# 2 0.000549 0.017154 -0.000142 0.000000 -0.003569 0.000000
# 3 -0.004545 -0.000142 0.015093 0.000000 -0.020411 0.000000
# 4 0.000000 0.000000 0.000000 -0.210751 0.000000 -0.078943
# 5 0.002319 -0.003569 -0.020411 0.000000 0.121103 0.000000
# 6 0.000000 0.000000 0.000000 -0.078943 0.000000 0.056367
#
#
# Mechanical properties :
#
#
# Convention : Reuss Voigt Hill
#
# Bulk Modulus (GPa) = 31.99581 51.33828 41.66705
# Shear Modulus (GPa) = 200.44854 22.59470 111.52162
#
# Velocity S-wave (km/s) = 10.01652 3.36294 7.47128
# Velocity P-wave (km/s) = 12.23884 6.38557 9.76127
#
# Compressibility (1/GPa) = 0.03125410
#
# Stress axis : x y z
#
# Youngs Moduli (GPa) = 137.29784 58.29563 66.25432
#
# Poissons Ratio (x) = -0.03198 0.30114
# Poissons Ratio (y) = -0.07533 0.00939
# Poissons Ratio (z) = 0.62405 0.00826
#
# Static dielectric constant tensor:
#      x y z
#    x 1.717010 0.000000 0.025160 
#    y 0.000000 1.763670 0.000000 
#    z 0.025160 0.000000 1.685430 
# 
# From -- ./inp_files/319110.got.cif
#   From: 2010.05.17/outbox.cif.g08.bks.cpg/sg12_160_cif.got.tgz:319110.got - 2010.06.03 13:09:07.
