data_PCOD9169094
_publ_section_title
;
Structure prediction by ZEFSAII (Michael W. Deem and Ramdas Pophale) SiO2 
 PCOD9169094
Probable space group: C 2/M
;
_chemical_formula_sum "Si O2"
_cell_formula_units_Z 52
_cell_length_a 13.580241
_cell_length_b 30.305786
_cell_length_c 5.662186
_cell_angle_alpha 90.000000
_cell_angle_beta 112.679389
_cell_angle_gamma 90.000000
_cell_volume 2150.140235
_symmetry_space_group_name_H-M "C 2/M"
_symmetry_group_IT_number 12
_symmetry_cell_setting 'monoclinic'
loop_
_space_group_symop_operation_xyz
x,y,z
-x,y,-z
-x,-y,-z
x,-y,z
1/2+x,1/2+y,z
1/2-x,1/2+y,-z
1/2-x,1/2-y,-z
1/2+x,1/2-y,z
loop_
_atom_site_type_symbol
_atom_site_label
_atom_site_fract_x
_atom_site_fract_y
_atom_site_fract_z
Si Si1 0.114033 0.365996 0.591839
Si Si2 0.560693 0.370126 0.304497
Si Si3 0.639567 0.727980 0.483475
Si Si4 0.598443 0.047578 0.907816
Si Si5 0.746387 0.095852 0.323738
Si Si6 0.269944 0.183681 0.961531
Si Si7 0.000000 0.718496 0.000000
O O1 0.101612 0.409043 0.748100
O O2 0.145218 0.385656 0.372419
O O3 0.199841 0.329185 0.744849
O O4 0.000000 0.343823 0.500000
O O5 0.500000 0.376227 0.500000
O O6 0.608959 0.320788 0.363446
O O7 0.656986 0.405365 0.405801
O O8 0.500000 0.374228 0.000000
O O9 0.750000 0.750000 0.500000
O O10 0.678322 0.717660 0.793510
O O11 0.542890 0.755115 0.272744
O O12 0.595056 0.000000 0.780607
O O13 0.500000 0.048796 0.000000
O O14 0.707648 0.052796 0.157059
O O15 0.770158 0.136012 0.167967
O O16 0.388526 0.194030 0.966278
#
# Coordination Sequence:
#
# PCOD9169094 Si02
#       7
#     8   8   8   8   8   8   4
#     4  11  20  34  60  93 123 167 204 255 319 402
#     4  11  25  44  69  94 126 174 234 285 332 388
#     4   9  19  38  60  85 119 160 206 269 335 392
#     4  10  21  37  59  94 136 168 199 251 323 404
#     4  10  22  39  62  87 126 164 217 259 322 387
#     4   9  20  33  56  80 118 156 204 256 314 378
#     4  10  16  34  58  80 119 156 203 256 320 390
#
# _framework density 24.184470999999998
#
# number of rings (size 3 to 8) (size 9 to 14) (size 15 to 20)
#    0.000    2.000    2.308    0.923    8.615    0.923 
#    0.000    6.154    0.000    0.923    0.000    0.000 
#    0.000    0.000    0.000    0.000    0.000    0.000 
#
# Total GULP energy -144935.003311 kJ/mol
# GULP energy per Si atom -5574.423204 kJ/mol
# Density = 2.412943 g / cm^3
# Si number density = 24.184471 Si / 1000 Ang^3
#
#
#
# Elastic Constant Matrix: (Units=GPa)
#
#
# Indices 1 2 3 4 5 6 
#
# 1 84.8220 22.0794 31.2462 0.0000 22.9242 0.0000
# 2 22.0794 96.3386 51.5987 0.0000 15.0251 0.0000
# 3 31.2462 51.5987 140.6139 0.0000 45.8651 0.0000
# 4 0.0000 0.0000 0.0000 2.7911 0.0000 -15.5309
# 5 22.9242 15.0251 45.8651 0.0000 51.9370 0.0000
# 6 0.0000 0.0000 0.0000 -15.5309 0.0000 0.8488
#
#
#
# Elastic Compliance Matrix: (Units=1/GPa)
#
#
# Indices 1 2 3 4 5 6 
#
# 1 0.013916 -0.002022 -0.000755 0.000000 -0.004890 0.000000
# 2 -0.002022 0.013228 -0.004842 0.000000 0.001342 0.000000
# 3 -0.000755 -0.004842 0.011926 0.000000 -0.008798 0.000000
# 4 0.000000 0.000000 0.000000 -0.003554 0.000000 -0.065026
# 5 -0.004890 0.001342 -0.008798 0.000000 0.028793 0.000000
# 6 0.000000 0.000000 0.000000 -0.065026 0.000000 -0.011686
#
#
# Mechanical properties :
#
#
# Convention : Reuss Voigt Hill
#
# Bulk Modulus (GPa) = 41.96369 59.06923 50.51646
# Shear Modulus (GPa) = 65.95857 25.57207 45.76532
#
# Velocity S-wave (km/s) = 5.22803 3.25526 4.35483
# Velocity P-wave (km/s) = 7.33705 6.21341 6.79848
#
# Compressibility (1/GPa) = 0.02383012
#
# Stress axis : x y z
#
# Youngs Moduli (GPa) = 71.86187 75.59861 83.85075
#
# Poissons Ratio (x) = 0.15287 0.06331
# Poissons Ratio (y) = 0.14531 0.40604
# Poissons Ratio (z) = 0.05426 0.36608
#
# Static dielectric constant tensor:
#      x y z
#    x 1.979810 0.000000 -0.001190 
#    y 0.000000 1.872300 0.000000 
#    z -0.001190 0.000000 2.119770 
# 
# From -- ./inp_files/13194.got.cif
#   From: 2010.05.17/outbox.cif.g08.bks.cpg/sg12_7_cif.got.tgz:13194.got - 2010.06.03 13:09:07.
