data_PCOD9169306
_publ_section_title
;
Structure prediction by ZEFSAII (Michael W. Deem and Ramdas Pophale) SiO2 
 PCOD9169306
Probable space group: C 2/M
;
_chemical_formula_sum "Si O2"
_cell_formula_units_Z 64
_cell_length_a 28.884208
_cell_length_b 9.138862
_cell_length_c 31.489563
_cell_angle_alpha 90.000000
_cell_angle_beta 32.031424
_cell_angle_gamma 90.000000
_cell_volume 4408.693181
_symmetry_space_group_name_H-M "C 2/M"
_symmetry_group_IT_number 12
_symmetry_cell_setting 'monoclinic'
loop_
_space_group_symop_operation_xyz
x,y,z
-x,y,-z
-x,-y,-z
x,-y,z
1/2+x,1/2+y,z
1/2-x,1/2+y,-z
1/2-x,1/2-y,-z
1/2+x,1/2-y,z
loop_
_atom_site_type_symbol
_atom_site_label
_atom_site_fract_x
_atom_site_fract_y
_atom_site_fract_z
Si Si1 0.831461 0.675446 0.305664
Si Si2 0.281876 0.167797 0.540543
Si Si3 0.885438 0.832320 0.393136
Si Si4 0.158694 0.676423 0.059281
Si Si5 0.507637 0.323099 0.769828
Si Si6 0.615389 0.825633 0.828182
Si Si7 0.105850 0.830429 0.921229
Si Si8 0.589550 0.174013 0.019252
O O1 0.840655 0.500000 0.303529
O O2 0.748774 0.734492 0.396101
O O3 0.830943 0.709456 0.255997
O O4 0.916033 0.754423 0.260258
O O5 0.198856 0.170552 0.572775
O O6 0.361758 0.231523 0.451218
O O7 0.295679 0.000000 0.542321
O O8 0.964576 0.790725 0.300491
O O9 0.896319 0.000000 0.398719
O O10 0.160177 0.500000 0.063472
O O11 0.082212 0.749056 0.146651
O O12 0.250000 0.750000 0.000000
O O13 0.134902 0.707707 0.028546
O O14 0.506175 0.500000 0.775812
O O15 0.641469 0.745857 0.851161
O O16 0.618954 0.000000 0.832268
O O17 0.513648 0.788341 0.897556
O O18 0.128523 0.754066 0.947980
O O19 0.129037 0.000000 0.904033
O O20 0.000000 0.818397 0.000000
O O21 0.594455 0.000000 0.008440
#
# Coordination Sequence:
#
# PCOD9169306 Si02
#       8
#     8   8   8   8   8   8   8   8
#     4  10  17  26  40  58  82 112 142 171 205 247
#     4   9  16  24  35  55  78 104 136 170 205 239
#     4   8  15  26  38  53  74 102 135 168 204 246
#     4  11  22  35  48  64  83 108 142 179 220 256
#     4  10  19  30  44  60  78 104 138 177 216 251
#     4   9  16  27  41  58  80 110 141 168 203 249
#     4   9  17  26  39  61  81 101 132 170 209 244
#     4   9  17  31  45  57  77 106 138 170 208 254
#
# _framework density 14.516774
#
# number of rings (size 3 to 8) (size 9 to 14) (size 15 to 20)
#    0.000    2.625    1.250    2.625    0.000    7.000 
#    0.000    0.000    0.000    0.000    0.000    0.000 
#    0.000    0.000    0.000    1.125    0.000   21.750 
#
# Total GULP energy -178217.242846 kJ/mol
# GULP energy per Si atom -5569.288839 kJ/mol
# Density = 1.448373 g / cm^3
# Si number density = 14.516774 Si / 1000 Ang^3
#
#
#
# Elastic Constant Matrix: (Units=GPa)
#
#
# Indices 1 2 3 4 5 6 
#
# 1 49.4528 39.8673 50.4895 0.0009 16.5464 -0.0010
# 2 39.8673 72.5320 63.8518 -0.0039 21.1835 0.0028
# 3 50.4895 63.8518 111.6457 0.0003 30.3087 0.0010
# 4 0.0009 -0.0039 0.0003 25.0859 -0.0009 6.1163
# 5 16.5464 21.1835 30.3087 -0.0009 22.2214 0.0009
# 6 -0.0010 0.0028 0.0010 6.1163 0.0009 15.8877
#
#
#
# Elastic Compliance Matrix: (Units=1/GPa)
#
#
# Indices 1 2 3 4 5 6 
#
# 1 0.043363 -0.012666 -0.010923 -0.000006 -0.005316 0.000008
# 2 -0.012666 0.032308 -0.011034 0.000007 -0.006317 -0.000008
# 3 -0.010923 -0.011034 0.024048 -0.000003 -0.014148 0.000001
# 4 -0.000006 0.000007 -0.000003 0.043992 0.000003 -0.016936
# 5 -0.005316 -0.006317 -0.014148 0.000003 0.074279 -0.000004
# 6 0.000008 -0.000008 0.000001 -0.016936 -0.000004 0.069461
#
#
# Mechanical properties :
#
#
# Convention : Reuss Voigt Hill
#
# Bulk Modulus (GPa) = 32.81727 60.22753 46.52240
# Shear Modulus (GPa) = 13.62936 17.93381 15.78158
#
# Velocity S-wave (km/s) = 3.06742 3.51862 3.30074
# Velocity P-wave (km/s) = 5.93304 7.62141 6.82960
#
# Compressibility (1/GPa) = 0.03047176
#
# Stress axis : x y z
#
# Youngs Moduli (GPa) = 23.06118 30.95230 41.58343
#
# Poissons Ratio (x) = 0.39205 0.45421
# Poissons Ratio (y) = 0.29210 0.45885
# Poissons Ratio (z) = 0.25190 0.34154
#
# Static dielectric constant tensor:
#      x y z
#    x 1.450920 0.000000 0.021770 
#    y 0.000000 1.485190 0.000000 
#    z 0.021770 0.000000 1.490790 
# 
# From -- ./inp_files/384557.got.cif
#   From: 2010.05.17/outbox.cif.g08.bks.cpg/sg12_193_cif.got.tgz:384557.got - 2010.06.03 13:09:07.
