data_PCOD9169564
_publ_section_title
;
Structure prediction by ZEFSAII (Michael W. Deem and Ramdas Pophale) SiO2 
 PCOD9169564
Probable space group: C 2/M
;
_chemical_formula_sum "Si O2"
_cell_formula_units_Z 48
_cell_length_a 16.905416
_cell_length_b 14.796583
_cell_length_c 9.582802
_cell_angle_alpha 90.000000
_cell_angle_beta 78.250392
_cell_angle_gamma 90.000000
_cell_volume 2346.838980
_symmetry_space_group_name_H-M "C 2/M"
_symmetry_group_IT_number 12
_symmetry_cell_setting 'monoclinic'
loop_
_space_group_symop_operation_xyz
x,y,z
-x,y,-z
-x,-y,-z
x,-y,z
1/2+x,1/2+y,z
1/2-x,1/2+y,-z
1/2-x,1/2-y,-z
1/2+x,1/2-y,z
loop_
_atom_site_type_symbol
_atom_site_label
_atom_site_fract_x
_atom_site_fract_y
_atom_site_fract_z
Si Si1 0.792912 0.895475 0.050654
Si Si2 0.575049 0.899117 0.367893
Si Si3 0.155985 0.241521 0.494631
Si Si4 0.398605 0.104238 0.947279
Si Si5 0.640062 0.772286 0.801847
Si Si6 0.199388 0.106218 0.267789
O O1 0.695949 0.885107 0.065577
O O2 0.826541 0.819990 0.141726
O O3 0.808006 0.000000 0.086165
O O4 0.828919 0.880291 0.881901
O O5 0.500000 0.897419 0.500000
O O6 0.634997 0.824123 0.401912
O O7 0.553474 0.883599 0.214202
O O8 0.611270 0.000000 0.360810
O O9 0.250000 0.250000 0.500000
O O10 0.109028 0.249822 0.657925
O O11 0.145232 0.151939 0.406246
O O12 0.407901 0.000000 0.992037
O O13 0.412872 0.175234 0.064778
O O14 0.714585 0.842730 0.755923
O O15 0.210139 0.000000 0.285673
#
# Coordination Sequence:
#
# PCOD9169564 Si02
#       6
#     8   8   8   8   8   8
#     4   9  16  26  44  70 101 134 169 209 254 309
#     4  10  21  37  55  75 105 145 181 211 252 314
#     4  10  20  31  49  77 104 133 168 218 268 303
#     4   9  16  28  47  68  94 133 173 207 247 306
#     4  10  17  27  45  72 103 131 166 213 265 306
#     4   9  17  29  45  69 101 136 170 208 257 310
#
# _framework density 20.453044999999999
#
# number of rings (size 3 to 8) (size 9 to 14) (size 15 to 20)
#    0.000    2.500    0.000    6.500    0.000    4.000 
#    0.000    0.833    0.000    3.500    0.000    0.000 
#    0.000    5.333    0.000    0.000    0.000    0.000 
#
# Total GULP energy -133887.666116 kJ/mol
# GULP energy per Si atom -5578.652755 kJ/mol
# Density = 2.040649 g / cm^3
# Si number density = 20.453045 Si / 1000 Ang^3
#
#
#
# Elastic Constant Matrix: (Units=GPa)
#
#
# Indices 1 2 3 4 5 6 
#
# 1 21.1935 22.8429 13.6836 0.0000 0.0480 0.0000
# 2 22.8429 142.9190 88.3234 0.0000 7.6457 0.0000
# 3 13.6836 88.3234 157.9099 0.0000 -17.8524 0.0000
# 4 0.0000 0.0000 0.0000 13.4697 0.0000 -21.6814
# 5 0.0480 7.6457 -17.8524 0.0000 23.4320 0.0000
# 6 0.0000 0.0000 0.0000 -21.6814 0.0000 -8.2958
#
#
#
# Elastic Compliance Matrix: (Units=1/GPa)
#
#
# Indices 1 2 3 4 5 6 
#
# 1 0.057301 -0.010065 0.001118 0.000000 0.004019 0.000000
# 2 -0.010065 0.014426 -0.008455 0.000000 -0.011128 0.000000
# 3 0.001118 -0.008455 0.012339 0.000000 0.012157 0.000000
# 4 0.000000 0.000000 0.000000 0.014258 0.000000 -0.037264
# 5 0.004019 -0.011128 0.012157 0.000000 0.055562 0.000000
# 6 0.000000 0.000000 0.000000 -0.037264 0.000000 -0.023151
#
#
# Mechanical properties :
#
#
# Convention : Reuss Voigt Hill
#
# Bulk Modulus (GPa) = 20.29876 63.52470 41.91173
# Shear Modulus (GPa) = 27.47875 18.86602 23.17239
#
# Velocity S-wave (km/s) = 3.66936 3.04041 3.36959
# Velocity P-wave (km/s) = 5.28189 6.59179 5.97286
#
# Compressibility (1/GPa) = 0.04926409
#
# Stress axis : x y z
#
# Youngs Moduli (GPa) = 17.45174 69.31973 81.04230
#
# Poissons Ratio (x) = 0.69767 -0.09063
# Poissons Ratio (y) = 0.17564 0.68519
# Poissons Ratio (z) = -0.01952 0.58608
#
# Static dielectric constant tensor:
#      x y z
#    x 1.719990 0.000000 -0.069190 
#    y 0.000000 1.712300 0.000000 
#    z -0.069190 0.000000 1.805120 
# 
# From -- ./inp_files/73617.got.cif
#   From: 2010.05.17/outbox.cif.g08.bks.cpg/sg12_37_cif.got.tgz:73617.got - 2010.06.03 13:09:07.
