data_PCOD9169295
_publ_section_title
;
Structure prediction by ZEFSAII (Michael W. Deem and Ramdas Pophale) SiO2 
 PCOD9169295
Probable space group: C 2/M
;
_chemical_formula_sum "Si O2"
_cell_formula_units_Z 64
_cell_length_a 19.660644
_cell_length_b 8.768988
_cell_length_c 21.140445
_cell_angle_alpha 90.000000
_cell_angle_beta 94.765915
_cell_angle_gamma 90.000000
_cell_volume 3632.094576
_symmetry_space_group_name_H-M "C 2/M"
_symmetry_group_IT_number 12
_symmetry_cell_setting 'monoclinic'
loop_
_space_group_symop_operation_xyz
x,y,z
-x,y,-z
-x,-y,-z
x,-y,z
1/2+x,1/2+y,z
1/2-x,1/2+y,-z
1/2-x,1/2-y,-z
1/2+x,1/2-y,z
loop_
_atom_site_type_symbol
_atom_site_label
_atom_site_fract_x
_atom_site_fract_y
_atom_site_fract_z
Si Si1 0.915323 0.317459 0.677443
Si Si2 0.981700 0.316748 0.427179
Si Si3 0.369572 0.681081 0.331536
Si Si4 0.759769 0.183973 0.848820
Si Si5 0.960272 0.317529 0.226207
Si Si6 0.882459 0.182728 0.109425
Si Si7 0.225721 0.181791 0.295885
Si Si8 0.179044 0.183489 0.020915
O O1 0.905084 0.500000 0.678855
O O2 0.843801 0.234439 0.677212
O O3 0.956901 0.281632 0.616698
O O4 0.966241 0.275042 0.739091
O O5 0.971017 0.500000 0.423803
O O6 0.915143 0.236173 0.393876
O O7 0.000000 0.274024 0.500000
O O8 0.371431 0.500000 0.325902
O O9 0.404845 0.753757 0.271919
O O10 0.292615 0.740023 0.329517
O O11 0.688971 0.261320 0.864922
O O12 0.777285 0.225896 0.778711
O O13 0.818207 0.225118 0.904844
O O14 0.749897 0.000000 0.850449
O O15 0.954985 0.500000 0.225849
O O16 0.942149 0.253718 0.156115
O O17 0.886199 0.000000 0.113568
O O18 0.877675 0.230051 0.034963
O O19 0.233367 0.000000 0.300120
O O20 0.181781 0.000000 0.018049
O O21 0.250000 0.250000 0.000000
#
# Coordination Sequence:
#
# PCOD9169295 Si02
#       8
#     8   8   8   8   8   8   8   8
#     4   9  20  36  54  77 105 135 169 212 258 304
#     4   9  19  39  64  85 108 139 172 207 252 305
#     4  11  21  33  54  82 110 137 172 215 254 299
#     4   9  17  29  45  65  97 137 171 210 261 315
#     4  10  19  33  51  72 101 137 176 217 265 314
#     4  10  17  25  44  72  98 126 168 221 267 312
#     4  11  21  33  52  77 107 141 176 213 257 310
#     4   8  15  26  39  62  94 127 166 212 263 312
#
# _framework density 17.620687
#
# number of rings (size 3 to 8) (size 9 to 14) (size 15 to 20)
#    0.000    2.375    1.250    3.000    0.000    3.750 
#    0.000    0.625    0.000    0.750    0.000    5.250 
#    0.000    0.000    0.000    0.000    0.000    0.000 
#
# Total GULP energy -178403.852366 kJ/mol
# GULP energy per Si atom -5575.120386 kJ/mol
# Density = 1.758058 g / cm^3
# Si number density = 17.620687 Si / 1000 Ang^3
#
#
#
# Elastic Constant Matrix: (Units=GPa)
#
#
# Indices 1 2 3 4 5 6 
#
# 1 86.9260 34.9078 42.1532 0.0000 17.0284 0.0000
# 2 34.9078 41.7344 35.8881 0.0000 10.2492 0.0000
# 3 42.1532 35.8881 118.3783 0.0000 26.6997 0.0000
# 4 0.0000 0.0000 0.0000 21.8355 0.0000 5.9570
# 5 17.0284 10.2492 26.6997 0.0000 18.4978 0.0000
# 6 0.0000 0.0000 0.0000 5.9570 0.0000 25.9172
#
#
#
# Elastic Compliance Matrix: (Units=1/GPa)
#
#
# Indices 1 2 3 4 5 6 
#
# 1 0.018815 -0.012857 -0.000745 0.000000 -0.009122 0.000000
# 2 -0.012857 0.041592 -0.008159 0.000000 0.000567 0.000000
# 3 -0.000745 -0.008159 0.014845 0.000000 -0.016221 0.000000
# 4 0.000000 0.000000 0.000000 0.048861 0.000000 -0.011231
# 5 -0.009122 0.000567 -0.016221 0.000000 0.085556 0.000000
# 6 0.000000 0.000000 0.000000 -0.011231 0.000000 0.041166
#
#
# Mechanical properties :
#
#
# Convention : Reuss Voigt Hill
#
# Bulk Modulus (GPa) = 31.51554 52.54857 42.03206
# Shear Modulus (GPa) = 16.39710 22.18942 19.29326
#
# Velocity S-wave (km/s) = 3.05382 3.55249 3.31255
# Velocity P-wave (km/s) = 5.50988 6.83474 6.20776
#
# Compressibility (1/GPa) = 0.03173038
#
# Stress axis : x y z
#
# Youngs Moduli (GPa) = 53.14836 24.04332 67.36460
#
# Poissons Ratio (x) = 0.30913 0.05016
# Poissons Ratio (y) = 0.68333 0.54962
# Poissons Ratio (z) = 0.03958 0.19617
#
# Static dielectric constant tensor:
#      x y z
#    x 1.566720 0.000000 0.024660 
#    y 0.000000 1.588650 0.000000 
#    z 0.024660 0.000000 1.633970 
# 
# From -- ./inp_files/319243.got.cif
#   From: 2010.05.17/outbox.cif.g08.bks.cpg/sg12_160_cif.got.tgz:319243.got - 2010.06.03 13:09:07.
