data_PCOD9169174
_publ_section_title
;
Structure prediction by ZEFSAII (Michael W. Deem and Ramdas Pophale) SiO2 
 PCOD9169174
Probable space group: C 2/M
;
_chemical_formula_sum "Si O2"
_cell_formula_units_Z 48
_cell_length_a 21.004521
_cell_length_b 8.209550
_cell_length_c 17.400045
_cell_angle_alpha 90.000000
_cell_angle_beta 115.563457
_cell_angle_gamma 90.000000
_cell_volume 2706.705492
_symmetry_space_group_name_H-M "C 2/M"
_symmetry_group_IT_number 12
_symmetry_cell_setting 'monoclinic'
loop_
_space_group_symop_operation_xyz
x,y,z
-x,y,-z
-x,-y,-z
x,-y,z
1/2+x,1/2+y,z
1/2-x,1/2+y,-z
1/2-x,1/2-y,-z
1/2+x,1/2-y,z
loop_
_atom_site_type_symbol
_atom_site_label
_atom_site_fract_x
_atom_site_fract_y
_atom_site_fract_z
Si Si1 0.597579 0.811523 0.588215
Si Si2 0.208230 0.695425 0.054241
Si Si3 0.044423 0.189279 0.410639
Si Si4 0.952081 0.803921 0.044605
Si Si5 0.468725 0.301025 0.225421
Si Si6 0.676959 0.696599 0.765848
O O1 0.596936 0.776464 0.497121
O O2 0.533280 0.707030 0.590729
O O3 0.664870 0.766500 0.674502
O O4 0.579846 0.000000 0.590940
O O5 0.205758 0.500000 0.053471
O O6 0.253807 0.749251 0.151977
O O7 0.250000 0.750000 0.000000
O O8 0.129491 0.762649 0.011193
O O9 0.029140 0.253159 0.316821
O O10 0.063560 0.000000 0.417236
O O11 0.974670 0.744347 0.141094
O O12 0.958652 0.000000 0.049827
O O13 0.000000 0.740936 0.000000
O O14 0.469989 0.500000 0.226991
O O15 0.391970 0.254080 0.219589
O O16 0.676679 0.500000 0.761229
#
# Coordination Sequence:
#
# PCOD9169174 Si02
#       6
#     8   8   8   8   8   8
#     4  10  17  24  37  63  94 118 153 199 244 289
#     4  11  21  34  53  75 101 132 171 211 252 303
#     4   9  15  25  40  57  88 128 161 190 235 295
#     4  10  20  35  53  74 103 136 171 210 251 295
#     4   8  14  27  45  66  91 125 166 198 234 292
#     4   9  17  30  46  64  93 129 162 196 241 300
#
# _framework density 17.733734999999999
#
# number of rings (size 3 to 8) (size 9 to 14) (size 15 to 20)
#    0.000    2.500    1.667    4.500    0.000    1.667 
#    0.000    0.833    0.000    0.000    0.000    1.167 
#    0.000    0.000    0.000    0.000    0.000    0.000 
#
# Total GULP energy -133700.884561 kJ/mol
# GULP energy per Si atom -5570.870190 kJ/mol
# Density = 1.769337 g / cm^3
# Si number density = 17.733735 Si / 1000 Ang^3
#
#
#
# Elastic Constant Matrix: (Units=GPa)
#
#
# Indices 1 2 3 4 5 6 
#
# 1 61.1389 -0.3922 49.8126 0.0000 -8.2687 0.0000
# 2 -0.3922 14.8674 12.0493 0.0000 -3.9241 0.0000
# 3 49.8126 12.0493 210.4801 0.0000 -7.9745 0.0000
# 4 0.0000 0.0000 0.0000 19.4006 0.0000 5.2076
# 5 -8.2687 -3.9241 -7.9745 0.0000 12.3863 0.0000
# 6 0.0000 0.0000 0.0000 5.2076 0.0000 7.5819
#
#
#
# Elastic Compliance Matrix: (Units=1/GPa)
#
#
# Indices 1 2 3 4 5 6 
#
# 1 0.022714 0.008744 -0.005326 0.000000 0.014504 0.000000
# 2 0.008744 0.079224 -0.005568 0.000000 0.027351 0.000000
# 3 -0.005326 -0.005568 0.006282 0.000000 -0.001275 0.000000
# 4 0.000000 0.000000 0.000000 0.063196 0.000000 -0.043406
# 5 0.014504 0.027351 -0.001275 0.000000 0.098261 0.000000
# 6 0.000000 0.000000 0.000000 -0.043406 0.000000 0.161707
#
#
# Mechanical properties :
#
#
# Convention : Reuss Voigt Hill
#
# Bulk Modulus (GPa) = 9.62300 45.49177 27.55738
# Shear Modulus (GPa) = 10.63098 22.87486 16.75292
#
# Velocity S-wave (km/s) = 2.45108 3.59542 3.07692
# Velocity P-wave (km/s) = 3.66723 6.55320 5.31004
#
# Compressibility (1/GPa) = 0.10391768
#
# Stress axis : x y z
#
# Youngs Moduli (GPa) = 44.02658 12.62249 159.18311
#
# Poissons Ratio (x) = -0.11037 0.84789
# Poissons Ratio (y) = -0.38497 0.88640
# Poissons Ratio (z) = 0.23451 0.07029
#
# Static dielectric constant tensor:
#      x y z
#    x 1.573600 0.000000 -0.008200 
#    y 0.000000 1.609360 0.000000 
#    z -0.008200 0.000000 1.684400 
# 
# From -- ./inp_files/248797.got.cif
#   From: 2010.05.17/outbox.cif.g08.bks.cpg/sg12_125_cif.got.tgz:248797.got - 2010.06.03 13:09:07.
