data_PCOD9169954
_publ_section_title
;
Structure prediction by ZEFSAII (Michael W. Deem and Ramdas Pophale) SiO2 
 PCOD9169954
Probable space group: C 2/M
;
_chemical_formula_sum "Si O2"
_cell_formula_units_Z 56
_cell_length_a 27.205360
_cell_length_b 13.691018
_cell_length_c 10.290903
_cell_angle_alpha 90.000000
_cell_angle_beta 54.950177
_cell_angle_gamma 90.000000
_cell_volume 3137.932110
_symmetry_space_group_name_H-M "C 2/M"
_symmetry_group_IT_number 12
_symmetry_cell_setting 'monoclinic'
loop_
_space_group_symop_operation_xyz
x,y,z
-x,y,-z
-x,-y,-z
x,-y,z
1/2+x,1/2+y,z
1/2-x,1/2+y,-z
1/2-x,1/2-y,-z
1/2+x,1/2-y,z
loop_
_atom_site_type_symbol
_atom_site_label
_atom_site_fract_x
_atom_site_fract_y
_atom_site_fract_z
Si Si1 0.944096 0.500000 0.181216
Si Si2 0.747762 0.391118 0.396263
Si Si3 0.851499 0.110649 0.224764
Si Si4 0.831051 0.887389 0.743697
Si Si5 0.265126 0.386206 0.115293
Si Si6 0.636924 0.193455 0.387049
Si Si7 0.057913 0.500000 0.503897
Si Si8 0.869446 0.303635 0.292484
O O1 0.956943 0.500000 0.318112
O O2 0.907285 0.400790 0.209393
O O3 0.000000 0.500000 0.000000
O O4 0.774448 0.500000 0.360323
O O5 0.699160 0.387464 0.585138
O O6 0.712960 0.380699 0.314064
O O7 0.802718 0.319431 0.336038
O O8 0.817048 0.129347 0.142474
O O9 0.893311 0.202310 0.196276
O O10 0.876706 0.000000 0.184775
O O11 0.877975 0.798818 0.653379
O O12 0.853994 0.000000 0.712776
O O13 0.792674 0.870242 0.931849
O O14 0.247984 0.500000 0.152696
O O15 0.204856 0.328429 0.238176
O O16 0.636091 0.204445 0.543831
O O17 0.596339 0.098799 0.418414
O O18 0.000000 0.500000 0.500000
#
# Coordination Sequence:
#
# PCOD9169954 Si02
#       8
#     4   8   8   8   8   8   4   8
#     4  10  24  44  60  78 106 136 184 246 287 304
#     4  10  17  29  48  78 110 140 178 209 246 325
#     4  10  19  29  52  80 113 141 174 211 249 335
#     4  10  21  32  47  80 120 144 171 213 259 321
#     4  10  19  32  47  77 117 150 177 206 258 322
#     4  11  19  34  57  73 104 147 181 220 270 315
#     4  10  24  44  62  78  98 140 198 238 269 320
#     4  11  19  33  56  77 103 143 182 219 271 319
#
# _framework density 17.846147999999999
#
# number of rings (size 3 to 8) (size 9 to 14) (size 15 to 20)
#    0.000    1.714    4.286    1.714    0.000    0.000 
#    5.143    0.000    0.000    0.857    0.000    0.000 
#    0.000    0.000    0.000    0.000    0.000    0.000 
#
# Total GULP energy -156090.214223 kJ/mol
# GULP energy per Si atom -5574.650508 kJ/mol
# Density = 1.780553 g / cm^3
# Si number density = 17.846148 Si / 1000 Ang^3
#
#
#
# Elastic Constant Matrix: (Units=GPa)
#
#
# Indices 1 2 3 4 5 6 
#
# 1 42.1162 40.3480 18.5966 0.0000 12.2083 0.0000
# 2 40.3480 176.5564 35.0771 0.0000 -6.4355 0.0000
# 3 18.5966 35.0771 69.6869 0.0000 8.9118 0.0000
# 4 0.0000 0.0000 0.0000 25.0186 0.0000 6.6818
# 5 12.2083 -6.4355 8.9118 0.0000 18.7042 0.0000
# 6 0.0000 0.0000 0.0000 6.6818 0.0000 14.4972
#
#
#
# Elastic Compliance Matrix: (Units=1/GPa)
#
#
# Indices 1 2 3 4 5 6 
#
# 1 0.044241 -0.010790 -0.002350 0.000000 -0.031469 0.000000
# 2 -0.010790 0.009206 -0.003259 0.000000 0.011763 0.000000
# 3 -0.002350 -0.003259 0.017639 0.000000 -0.007992 0.000000
# 4 0.000000 0.000000 0.000000 0.045581 0.000000 -0.021008
# 5 -0.031469 0.011763 -0.007992 0.000000 0.081859 0.000000
# 6 0.000000 0.000000 0.000000 -0.021008 0.000000 0.078662
#
#
# Mechanical properties :
#
#
# Convention : Reuss Voigt Hill
#
# Bulk Modulus (GPa) = 26.11814 52.93365 39.52589
# Shear Modulus (GPa) = 15.49191 24.59986 20.04589
#
# Velocity S-wave (km/s) = 2.94952 3.71676 3.35514
# Velocity P-wave (km/s) = 5.12508 6.93863 6.09963
#
# Compressibility (1/GPa) = 0.03828757
#
# Stress axis : x y z
#
# Youngs Moduli (GPa) = 22.60346 108.62493 56.69143
#
# Poissons Ratio (x) = 1.17211 0.13324
# Poissons Ratio (y) = 0.24390 0.18474
# Poissons Ratio (z) = 0.05313 0.35397
#
# Static dielectric constant tensor:
#      x y z
#    x 1.574680 0.000000 0.019100 
#    y 0.000000 1.740020 0.000000 
#    z 0.019100 0.000000 1.581670 
# 
# From -- ./inp_files/104473.got.cif
#   From: 2010.05.17/outbox.cif.g08.bks.cpg/sg12_53_cif.got.tgz:104473.got - 2010.06.03 13:09:07.
