data_PCOD9169960
_publ_section_title
;
Structure prediction by ZEFSAII (Michael W. Deem and Ramdas Pophale) SiO2 
 PCOD9169960
Probable space group: C 2/M
;
_chemical_formula_sum "Si O2"
_cell_formula_units_Z 64
_cell_length_a 28.753253
_cell_length_b 19.967430
_cell_length_c 21.304628
_cell_angle_alpha 90.000000
_cell_angle_beta 166.432546
_cell_angle_gamma 90.000000
_cell_volume 2869.409599
_symmetry_space_group_name_H-M "C 2/M"
_symmetry_group_IT_number 12
_symmetry_cell_setting 'monoclinic'
loop_
_space_group_symop_operation_xyz
x,y,z
-x,y,-z
-x,-y,-z
x,-y,z
1/2+x,1/2+y,z
1/2-x,1/2+y,-z
1/2-x,1/2-y,-z
1/2+x,1/2-y,z
loop_
_atom_site_type_symbol
_atom_site_label
_atom_site_fract_x
_atom_site_fract_y
_atom_site_fract_z
Si Si1 0.244417 0.774579 0.820008
Si Si2 0.744224 0.680368 0.954870
Si Si3 0.212090 0.818597 0.644782
Si Si4 0.791108 0.878379 0.856243
Si Si5 0.258732 0.924858 0.076227
Si Si6 0.739714 0.336621 0.317938
Si Si7 0.263810 0.576616 0.568547
Si Si8 0.226689 0.923022 0.561140
O O1 0.317484 0.806851 0.980482
O O2 0.300692 0.814082 0.830777
O O3 0.328083 0.699527 0.923171
O O4 0.000000 0.767799 0.500000
O O5 0.515546 0.660611 0.644491
O O6 0.825329 0.626369 0.110044
O O7 0.750000 0.750000 0.000000
O O8 0.208179 0.741906 0.615054
O O9 0.294019 0.869490 0.700921
O O10 0.695743 0.872461 0.662217
O O11 0.686289 0.907721 0.780027
O O12 0.996238 0.918026 0.117201
O O13 0.015548 0.921204 0.758208
O O14 0.318912 0.000000 0.139676
O O15 0.799881 0.373124 0.460598
O O16 0.500000 0.338589 0.000000
O O17 0.206133 0.500000 0.506585
O O18 0.203457 0.592896 0.417963
O O19 0.282417 0.000000 0.648963
#
# Coordination Sequence:
#
# PCOD9169960 Si02
#       8
#     8   8   8   8   8   8   8   8
#     4   9  17  28  43  66  93 121 151 185 227 273
#     4  10  17  29  49  69  89 124 153 185 231 270
#     4   9  18  30  46  70  95 115 153 193 225 270
#     4   9  15  26  42  63  88 118 148 182 221 264
#     4   9  16  26  43  67  90 114 152 191 221 263
#     4   9  18  29  44  67  95 121 148 185 229 271
#     4   9  17  28  45  67  89 117 152 186 227 271
#     4   8  15  28  45  65  90 116 146 187 230 266
#
# _framework density 22.304238999999999
#
# number of rings (size 3 to 8) (size 9 to 14) (size 15 to 20)
#    0.000    3.000    1.250    1.125    0.000    3.250 
#    0.000    0.625    0.000    6.375    0.000    0.000 
#    0.000    0.000    0.000    0.000    0.000    0.000 
#
# Total GULP energy -178642.538041 kJ/mol
# GULP energy per Si atom -5582.579314 kJ/mol
# Density = 2.225347 g / cm^3
# Si number density = 22.304239 Si / 1000 Ang^3
#
#
#
# Elastic Constant Matrix: (Units=GPa)
#
#
# Indices 1 2 3 4 5 6 
#
# 1 182.8726 107.0460 25.6633 -0.0059 -46.8712 0.0008
# 2 107.0460 126.6838 21.7917 -0.0061 -50.8904 0.0023
# 3 25.6633 21.7917 59.5722 -0.0045 -11.4900 -0.0010
# 4 -0.0059 -0.0061 -0.0045 18.6511 -0.0076 -8.2202
# 5 -46.8712 -50.8904 -11.4900 -0.0076 46.1014 -0.0035
# 6 0.0008 0.0023 -0.0010 -8.2202 -0.0035 30.2072
#
#
#
# Elastic Compliance Matrix: (Units=1/GPa)
#
#
# Indices 1 2 3 4 5 6 
#
# 1 0.010990 -0.008445 -0.001353 0.000001 0.001513 0.000001
# 2 -0.008445 0.020974 -0.001286 0.000011 0.014245 0.000003
# 3 -0.001353 -0.001286 0.018174 0.000005 0.001734 0.000002
# 4 0.000001 0.000011 0.000005 0.060923 0.000026 0.016579
# 5 0.001513 0.014245 0.001734 0.000026 0.039387 0.000011
# 6 0.000001 0.000003 0.000002 0.016579 0.000011 0.037616
#
#
# Mechanical properties :
#
#
# Convention : Reuss Voigt Hill
#
# Bulk Modulus (GPa) = 35.75538 75.34782 55.55160
# Shear Modulus (GPa) = 22.77317 33.30045 28.03681
#
# Velocity S-wave (km/s) = 3.19881 3.86814 3.54929
# Velocity P-wave (km/s) = 5.45058 7.33520 6.46196
#
# Compressibility (1/GPa) = 0.02796782
#
# Stress axis : x y z
#
# Youngs Moduli (GPa) = 90.99503 47.67844 55.02290
#
# Poissons Ratio (x) = 0.40267 0.07445
# Poissons Ratio (y) = 0.76850 0.07078
# Poissons Ratio (z) = 0.12312 0.06133
#
# Static dielectric constant tensor:
#      x y z
#    x 1.832010 0.000000 0.028790 
#    y 0.000000 1.765060 0.000000 
#    z 0.028790 0.000000 1.881190 
# 
# From -- ./inp_files/317032.got.cif
#   From: 2010.05.17/outbox.cif.g08.bks.cpg/sg12_159_cif.got.tgz:317032.got - 2010.06.03 13:09:07.
