data_PCOD9169329
_publ_section_title
;
Structure prediction by ZEFSAII (Michael W. Deem and Ramdas Pophale) SiO2 
 PCOD9169329
Probable space group: C 2/M
;
_chemical_formula_sum "Si O2"
_cell_formula_units_Z 44
_cell_length_a 22.225320
_cell_length_b 23.260486
_cell_length_c 5.582834
_cell_angle_alpha 90.000000
_cell_angle_beta 104.548212
_cell_angle_gamma 90.000000
_cell_volume 2793.627131
_symmetry_space_group_name_H-M "C 2/M"
_symmetry_group_IT_number 12
_symmetry_cell_setting 'monoclinic'
loop_
_space_group_symop_operation_xyz
x,y,z
-x,y,-z
-x,-y,-z
x,-y,z
1/2+x,1/2+y,z
1/2-x,1/2+y,-z
1/2-x,1/2-y,-z
1/2+x,1/2-y,z
loop_
_atom_site_type_symbol
_atom_site_label
_atom_site_fract_x
_atom_site_fract_y
_atom_site_fract_z
Si Si1 0.391193 0.630816 0.141193
Si Si2 0.734398 0.500000 0.484398
Si Si3 0.753000 0.626776 0.503000
Si Si4 0.752511 0.818494 0.002512
Si Si5 0.037530 0.000000 0.287530
Si Si6 0.343584 0.500000 0.093584
Si Si7 0.600623 0.377717 0.350623
O O1 0.323658 0.659702 0.073658
O O2 0.380080 0.561064 0.130080
O O3 0.422257 0.647097 0.421460
O O4 0.422257 0.647097 0.923053
O O5 0.770932 0.559914 0.520932
O O6 0.696232 0.500000 0.699324
O O7 0.696232 0.500000 0.193141
O O8 0.773296 0.657128 0.770564
O O9 0.676295 0.625559 0.426295
O O10 0.773296 0.657128 0.276028
O O11 0.750000 0.750000 0.000000
O O12 0.078775 0.056708 0.328775
O O13 0.000000 0.000000 0.500000
O O14 0.000000 0.000000 0.000000
#
# Coordination Sequence:
#
# PCOD9169329 Si02
#       7
#     8   4   8   8   4   4   8
#     4  10  17  26  42  56  64  93 121 148 184 214
#     4  12  15  24  36  54  69  78 118 154 164 212
#     4  10  18  28  41  56  66  94 123 147 186 218
#     4  10  18  27  37  54  77  91 109 143 188 237
#     4  12  23  31  38  56  76  94 114 154 214 242
#     4  12  14  23  36  52  71  76 118 154 164 212
#     4  10  17  29  39  49  67  88 118 143 173 238
#
# _framework density 15.750133
#
# number of rings (size 3 to 8) (size 9 to 14) (size 15 to 20)
#    0.000    1.455    7.273    3.273    0.000    0.000 
#    0.000    0.000    0.000    0.000    0.000    0.000 
#    0.000    0.000    0.000    0.000    0.000    0.000 
#
# Total GULP energy -122518.859814 kJ/mol
# GULP energy per Si atom -5569.039082 kJ/mol
# Density = 1.571428 g / cm^3
# Si number density = 15.750133 Si / 1000 Ang^3
#
#
#
# Elastic Constant Matrix: (Units=GPa)
#
#
# Indices 1 2 3 4 5 6 
#
# 1 11.7737 0.4964 14.3852 0.0000 -7.3118 0.0000
# 2 0.4964 86.3210 40.3134 0.0000 -12.6188 0.0000
# 3 14.3852 40.3134 180.7428 0.0000 -46.2369 0.0000
# 4 0.0000 0.0000 0.0000 18.1409 0.0000 -5.0898
# 5 -7.3118 -12.6188 -46.2369 0.0000 22.5660 0.0000
# 6 0.0000 0.0000 0.0000 -5.0898 0.0000 2.0808
#
#
#
# Elastic Compliance Matrix: (Units=1/GPa)
#
#
# Indices 1 2 3 4 5 6 
#
# 1 0.108206 0.004918 -0.000076 0.000000 0.037655 0.000000
# 2 0.004918 0.013239 -0.002191 0.000000 0.004506 0.000000
# 3 -0.000076 -0.002191 0.011995 0.000000 0.023327 0.000000
# 4 0.000000 0.000000 0.000000 0.175717 0.000000 0.429814
# 5 0.037655 0.004506 0.023327 0.000000 0.106832 0.000000
# 6 0.000000 0.000000 0.000000 0.429814 0.000000 1.531937
#
#
# Mechanical properties :
#
#
# Convention : Reuss Voigt Hill
#
# Bulk Modulus (GPa) = 7.20771 43.24749 25.22760
# Shear Modulus (GPa) = 2.51399 23.46703 12.99051
#
# Velocity S-wave (km/s) = 1.26477 3.86418 2.87503
# Velocity P-wave (km/s) = 2.59212 6.88675 5.20319
#
# Compressibility (1/GPa) = 0.13874023
#
# Stress axis : x y z
#
# Youngs Moduli (GPa) = 9.24162 75.53687 83.36754
#
# Poissons Ratio (x) = -0.37148 0.00636
# Poissons Ratio (y) = -0.04545 0.18269
# Poissons Ratio (z) = 0.00070 0.16553
#
# Static dielectric constant tensor:
#      x y z
#    x 1.528110 0.000000 -0.038970 
#    y 0.000000 1.513330 0.000000 
#    z -0.038970 0.000000 1.651080 
# 
# From -- ./inp_files/28402.got.cif
#   From: 2010.05.17/outbox.cif.g08.bks.cpg/sg12_15_cif.got.tgz:28402.got - 2010.06.03 13:09:07.
