data_PCOD9169488
_publ_section_title
;
Structure prediction by ZEFSAII (Michael W. Deem and Ramdas Pophale) SiO2 
 PCOD9169488
Probable space group: C 2/M
;
_chemical_formula_sum "Si O2"
_cell_formula_units_Z 48
_cell_length_a 25.227547
_cell_length_b 9.070327
_cell_length_c 14.662528
_cell_angle_alpha 90.000000
_cell_angle_beta 111.094016
_cell_angle_gamma 90.000000
_cell_volume 3130.288291
_symmetry_space_group_name_H-M "C 2/M"
_symmetry_group_IT_number 12
_symmetry_cell_setting 'monoclinic'
loop_
_space_group_symop_operation_xyz
x,y,z
-x,y,-z
-x,-y,-z
x,-y,z
1/2+x,1/2+y,z
1/2-x,1/2+y,-z
1/2-x,1/2-y,-z
1/2+x,1/2-y,z
loop_
_atom_site_type_symbol
_atom_site_label
_atom_site_fract_x
_atom_site_fract_y
_atom_site_fract_z
Si Si1 0.669177 0.676673 0.502137
Si Si2 0.375400 0.675406 0.835789
Si Si3 0.459393 0.320614 0.555674
Si Si4 0.556046 0.830042 0.969920
Si Si5 0.787850 0.324564 0.657024
Si Si6 0.985382 0.823402 0.777345
O O1 0.668794 0.500000 0.482876
O O2 0.606695 0.719836 0.496793
O O3 0.720592 0.705035 0.603943
O O4 0.684194 0.759515 0.417869
O O5 0.369733 0.500000 0.839092
O O6 0.318928 0.748175 0.760569
O O7 0.426156 0.706329 0.794011
O O8 0.396306 0.743418 0.944002
O O9 0.500000 0.267469 0.500000
O O10 0.461292 0.500000 0.556342
O O11 0.479384 0.275022 0.669037
O O12 0.535466 0.754400 0.864203
O O13 0.571795 0.000000 0.966267
O O14 0.500000 0.825991 0.000000
O O15 0.796369 0.500000 0.665935
O O16 0.993647 0.000000 0.785315
#
# Coordination Sequence:
#
# PCOD9169488 Si02
#       6
#     8   8   8   8   8   8
#     4   9  17  30  43  62  88 117 151 183 218 260
#     4  10  17  27  43  63  89 117 146 178 217 266
#     4   9  16  28  47  67  87 116 154 188 214 250
#     4   9  17  27  40  61  88 115 144 176 217 268
#     4  10  18  26  42  64  90 119 146 179 221 265
#     4   9  16  27  42  61  86 116 147 180 216 256
#
# _framework density 15.33405
#
# number of rings (size 3 to 8) (size 9 to 14) (size 15 to 20)
#    0.000    2.667    1.667    1.500    0.000    3.333 
#    0.000    0.000    0.000    2.000    0.000    1.167 
#    0.000    0.000    0.000    0.000    0.000    0.000 
#
# Total GULP energy -133703.639992 kJ/mol
# GULP energy per Si atom -5570.985000 kJ/mol
# Density = 1.529915 g / cm^3
# Si number density = 15.334050 Si / 1000 Ang^3
#
#
#
# Elastic Constant Matrix: (Units=GPa)
#
#
# Indices 1 2 3 4 5 6 
#
# 1 81.6123 30.7440 65.8357 0.0000 12.9198 0.0000
# 2 30.7440 44.6627 54.2647 0.0000 16.7718 0.0000
# 3 65.8357 54.2647 136.3231 0.0000 30.2565 0.0000
# 4 0.0000 0.0000 0.0000 27.3185 0.0000 8.1708
# 5 12.9198 16.7718 30.2565 0.0000 25.3365 0.0000
# 6 0.0000 0.0000 0.0000 8.1708 0.0000 11.7111
#
#
#
# Elastic Compliance Matrix: (Units=1/GPa)
#
#
# Indices 1 2 3 4 5 6 
#
# 1 0.020604 -0.004681 -0.008766 0.000000 0.003061 0.000000
# 2 -0.004681 0.046806 -0.013639 0.000000 -0.012309 0.000000
# 3 -0.008766 -0.013639 0.019052 0.000000 -0.009253 0.000000
# 4 0.000000 0.000000 0.000000 0.046258 0.000000 -0.032274
# 5 0.003061 -0.012309 -0.009253 0.000000 0.057106 0.000000
# 6 0.000000 0.000000 0.000000 -0.032274 0.000000 0.107907
#
#
# Mechanical properties :
#
#
# Convention : Reuss Voigt Hill
#
# Bulk Modulus (GPa) = 30.97057 62.69853 46.83455
# Shear Modulus (GPa) = 13.78677 20.32346 17.05512
#
# Velocity S-wave (km/s) = 3.00174 3.64453 3.33864
# Velocity P-wave (km/s) = 5.67935 7.66076 6.74323
#
# Compressibility (1/GPa) = 0.03228872
#
# Stress axis : x y z
#
# Youngs Moduli (GPa) = 48.53531 21.36494 52.48883
#
# Poissons Ratio (x) = 0.10001 0.46013
# Poissons Ratio (y) = 0.22721 0.71588
# Poissons Ratio (z) = 0.42547 0.29139
#
# Static dielectric constant tensor:
#      x y z
#    x 1.495300 0.000000 0.020350 
#    y 0.000000 1.510040 0.000000 
#    z 0.020350 0.000000 1.509200 
# 
# From -- ./inp_files/230450.got.cif
#   From: 2010.05.17/outbox.cif.g08.bks.cpg/sg12_116_cif.got.tgz:230450.got - 2010.06.03 13:09:07.
