data_PCOD9169323
_publ_section_title
;
Structure prediction by ZEFSAII (Michael W. Deem and Ramdas Pophale) SiO2 
 PCOD9169323
Probable space group: C 2/M
;
_chemical_formula_sum "Si O2"
_cell_formula_units_Z 56
_cell_length_a 24.696289
_cell_length_b 9.299821
_cell_length_c 18.099911
_cell_angle_alpha 90.000000
_cell_angle_beta 115.838065
_cell_angle_gamma 90.000000
_cell_volume 3741.445597
_symmetry_space_group_name_H-M "C 2/M"
_symmetry_group_IT_number 12
_symmetry_cell_setting 'monoclinic'
loop_
_space_group_symop_operation_xyz
x,y,z
-x,y,-z
-x,-y,-z
x,-y,z
1/2+x,1/2+y,z
1/2-x,1/2+y,-z
1/2-x,1/2-y,-z
1/2+x,1/2-y,z
loop_
_atom_site_type_symbol
_atom_site_label
_atom_site_fract_x
_atom_site_fract_y
_atom_site_fract_z
Si Si1 0.191091 0.665525 0.056354
Si Si2 0.430093 0.671817 0.457945
Si Si3 0.166292 0.834916 0.900861
Si Si4 0.221788 0.827982 0.217429
Si Si5 0.651508 0.327852 0.730270
Si Si6 0.659933 0.829416 0.486796
Si Si7 0.795029 0.829924 0.625528
O O1 0.174515 0.500000 0.058073
O O2 0.262404 0.668774 0.077530
O O3 0.186311 0.757285 0.128218
O O4 0.157790 0.734980 0.966512
O O5 0.500000 0.712204 0.500000
O O6 0.425769 0.500000 0.468676
O O7 0.399517 0.700339 0.360261
O O8 0.391619 0.754084 0.496426
O O9 0.134861 0.792418 0.805203
O O10 0.151380 0.000000 0.910249
O O11 0.288585 0.759502 0.254717
O O12 0.195065 0.797340 0.282486
O O13 0.225873 0.000000 0.210717
O O14 0.665270 0.500000 0.737452
O O15 0.724483 0.802758 0.565141
O O16 0.666887 0.761750 0.409700
O O17 0.650977 0.000000 0.478021
O O18 0.805505 0.000000 0.619410
#
# Coordination Sequence:
#
# PCOD9169323 Si02
#       7
#     8   8   8   8   8   8   8
#     4   9  16  24  35  55  81 110 141 171 208 253
#     4  10  20  33  48  65  88 118 150 186 226 263
#     4   8  14  24  36  52  76 108 142 175 209 247
#     4  10  17  26  41  61  86 113 143 176 213 257
#     4   9  17  28  42  59  81 111 148 182 214 256
#     4  10  19  31  46  65  86 113 148 185 223 259
#     4   9  18  30  44  64  88 115 146 180 219 264
#
# _framework density 14.967477000000001
#
# number of rings (size 3 to 8) (size 9 to 14) (size 15 to 20)
#    0.000    2.714    1.429    2.143    0.000    5.429 
#    0.000    0.000    0.000    0.000    0.000    0.000 
#    0.000    1.143    0.000   13.143    0.000    4.000 
#
# Total GULP energy -155957.390640 kJ/mol
# GULP energy per Si atom -5569.906809 kJ/mol
# Density = 1.493341 g / cm^3
# Si number density = 14.967477 Si / 1000 Ang^3
#
#
#
# Elastic Constant Matrix: (Units=GPa)
#
#
# Indices 1 2 3 4 5 6 
#
# 1 59.0221 40.8947 51.9918 0.0000 -7.8246 0.0000
# 2 40.8947 68.9960 75.2369 0.0000 -14.3879 0.0000
# 3 51.9918 75.2369 145.7728 0.0000 -24.0137 0.0000
# 4 0.0000 0.0000 0.0000 24.7296 0.0000 -6.4099
# 5 -7.8246 -14.3879 -24.0137 0.0000 13.3843 0.0000
# 6 0.0000 0.0000 0.0000 -6.4099 0.0000 16.3635
#
#
#
# Elastic Compliance Matrix: (Units=1/GPa)
#
#
# Indices 1 2 3 4 5 6 
#
# 1 0.029740 -0.014216 -0.004150 0.000000 -0.005341 0.000000
# 2 -0.014216 0.040417 -0.014198 0.000000 0.009663 0.000000
# 3 -0.004150 -0.014198 0.018105 0.000000 0.014795 0.000000
# 4 0.000000 0.000000 0.000000 0.045007 0.000000 0.017630
# 5 -0.005341 0.009663 0.014795 0.000000 0.108525 0.000000
# 6 0.000000 0.000000 0.000000 0.017630 0.000000 0.068018
#
#
# Mechanical properties :
#
#
# Convention : Reuss Voigt Hill
#
# Bulk Modulus (GPa) = 43.22494 67.78197 55.50346
# Shear Modulus (GPa) = 13.06676 17.93999 15.50337
#
# Velocity S-wave (km/s) = 2.95788 3.46583 3.22188
# Velocity P-wave (km/s) = 6.37239 7.83585 7.14170
#
# Compressibility (1/GPa) = 0.02313479
#
# Stress axis : x y z
#
# Youngs Moduli (GPa) = 33.62474 24.74229 55.23234
#
# Poissons Ratio (x) = 0.35173 0.22921
# Poissons Ratio (y) = 0.47800 0.78419
# Poissons Ratio (z) = 0.13954 0.35129
#
# Static dielectric constant tensor:
#      x y z
#    x 1.450950 0.000000 -0.002910 
#    y 0.000000 1.498250 0.000000 
#    z -0.002910 0.000000 1.522640 
# 
# From -- ./inp_files/287072.got.cif
#   From: 2010.05.17/outbox.cif.g08.bks.cpg/sg12_144_cif.got.tgz:287072.got - 2010.06.03 13:09:07.
