data_PCOD9169134
_publ_section_title
;
Structure prediction by ZEFSAII (Michael W. Deem and Ramdas Pophale) SiO2 
 PCOD9169134
Probable space group: C 2/M
;
_chemical_formula_sum "Si O2"
_cell_formula_units_Z 64
_cell_length_a 20.659022
_cell_length_b 8.850446
_cell_length_c 25.103587
_cell_angle_alpha 90.000000
_cell_angle_beta 122.971060
_cell_angle_gamma 90.000000
_cell_volume 3850.742468
_symmetry_space_group_name_H-M "C 2/M"
_symmetry_group_IT_number 12
_symmetry_cell_setting 'monoclinic'
loop_
_space_group_symop_operation_xyz
x,y,z
-x,y,-z
-x,-y,-z
x,-y,z
1/2+x,1/2+y,z
1/2-x,1/2+y,-z
1/2-x,1/2-y,-z
1/2+x,1/2-y,z
loop_
_atom_site_type_symbol
_atom_site_label
_atom_site_fract_x
_atom_site_fract_y
_atom_site_fract_z
Si Si1 0.781887 0.819264 0.932904
Si Si2 0.633450 0.319068 0.927803
Si Si3 0.203559 0.180008 0.805521
Si Si4 0.035824 0.319422 0.339841
Si Si5 0.873178 0.318928 0.324448
Si Si6 0.666081 0.321039 0.468872
Si Si7 0.908699 0.680774 0.460386
Si Si8 0.944168 0.681008 0.198619
O O1 0.708373 0.753648 0.932529
O O2 0.774948 0.745199 0.871683
O O3 0.774011 0.000000 0.924928
O O4 0.854564 0.786674 0.004098
O O5 0.635586 0.500000 0.921718
O O6 0.561950 0.250345 0.863068
O O7 0.191131 0.236874 0.739888
O O8 0.128317 0.248675 0.801750
O O9 0.202673 0.000000 0.808085
O O10 0.046549 0.500000 0.349947
O O11 0.108231 0.236134 0.397041
O O12 0.958349 0.281080 0.339004
O O13 0.016378 0.285492 0.269355
O O14 0.864616 0.500000 0.314198
O O15 0.873496 0.281982 0.386903
O O16 0.671335 0.500000 0.469752
O O17 0.750000 0.250000 0.500000
O O18 0.630503 0.266263 0.508809
O O19 0.900837 0.500000 0.465299
O O20 0.000000 0.713579 0.500000
O O21 0.935022 0.500000 0.192235
#
# Coordination Sequence:
#
# PCOD9169134 Si02
#       8
#     8   8   8   8   8   8   8   8
#     4   9  15  22  31  44  69 106 145 182 226 276
#     4   9  15  21  31  48  70 100 142 189 226 267
#     4  10  17  23  34  54  81 110 146 191 229 270
#     4   9  17  32  49  67  91 122 158 194 240 291
#     4   9  17  30  49  68  91 122 152 190 240 290
#     4  12  25  38  54  75 101 131 164 204 248 296
#     4  10  19  36  58  77  99 128 161 200 247 298
#     4   9  16  25  38  54  77 110 145 184 231 282
#
# _framework density 16.620170999999999
#
# number of rings (size 3 to 8) (size 9 to 14) (size 15 to 20)
#    0.000    2.375    1.250    5.625    0.000    4.750 
#    0.000    0.000    0.000    0.000    0.000    0.000 
#    0.000    0.000    0.000    1.125    0.000   21.500 
#
# Total GULP energy -178230.361202 kJ/mol
# GULP energy per Si atom -5569.698788 kJ/mol
# Density = 1.658234 g / cm^3
# Si number density = 16.620171 Si / 1000 Ang^3
#
#
#
# Elastic Constant Matrix: (Units=GPa)
#
#
# Indices 1 2 3 4 5 6 
#
# 1 29.5736 28.1852 41.0736 0.0000 3.5978 0.0000
# 2 28.1852 86.1612 83.8297 0.0000 -4.4801 0.0000
# 3 41.0736 83.8297 196.6773 0.0000 -15.0638 0.0000
# 4 0.0000 0.0000 0.0000 32.6716 0.0000 -3.3343
# 5 3.5978 -4.4801 -15.0638 0.0000 8.4955 0.0000
# 6 0.0000 0.0000 0.0000 -3.3343 0.0000 13.0723
#
#
#
# Elastic Compliance Matrix: (Units=1/GPa)
#
#
# Indices 1 2 3 4 5 6 
#
# 1 0.075665 -0.013484 -0.015104 0.000000 -0.065937 0.000000
# 2 -0.013484 0.022436 -0.006252 0.000000 0.006456 0.000000
# 3 -0.015104 -0.006252 0.012892 0.000000 0.025959 0.000000
# 4 0.000000 0.000000 0.000000 0.031426 0.000000 0.008016
# 5 -0.065937 0.006456 0.025959 0.000000 0.195068 0.000000
# 6 0.000000 0.000000 0.000000 0.008016 0.000000 0.078542
#
#
# Mechanical properties :
#
#
# Convention : Reuss Voigt Hill
#
# Bulk Modulus (GPa) = 24.20699 68.73213 46.46956
# Shear Modulus (GPa) = 10.01038 21.46945 15.73992
#
# Velocity S-wave (km/s) = 2.45685 3.59802 3.08074
# Velocity P-wave (km/s) = 4.75863 7.66195 6.37770
#
# Compressibility (1/GPa) = 0.04131038
#
# Stress axis : x y z
#
# Youngs Moduli (GPa) = 13.21620 44.57098 77.56728
#
# Poissons Ratio (x) = 0.60102 1.17161
# Poissons Ratio (y) = 0.17821 0.48498
# Poissons Ratio (z) = 0.19962 0.27868
#
# Static dielectric constant tensor:
#      x y z
#    x 1.516770 0.000000 -0.020670 
#    y 0.000000 1.551420 0.000000 
#    z -0.020670 0.000000 1.643530 
# 
# From -- ./inp_files/365223.got.cif
#   From: 2010.05.17/outbox.cif.g08.bks.cpg/sg12_183_cif.got.tgz:365223.got - 2010.06.03 13:09:07.
