data_PCOD9169043
_publ_section_title
;
Structure prediction by ZEFSAII (Michael W. Deem and Ramdas Pophale) SiO2 
 PCOD9169043
Probable space group: C 2/M
;
_chemical_formula_sum "Si O2"
_cell_formula_units_Z 40
_cell_length_a 11.171705
_cell_length_b 18.212184
_cell_length_c 15.642870
_cell_angle_alpha 90.000000
_cell_angle_beta 144.361126
_cell_angle_gamma 90.000000
_cell_volume 1854.487639
_symmetry_space_group_name_H-M "C 2/M"
_symmetry_group_IT_number 12
_symmetry_cell_setting 'monoclinic'
loop_
_space_group_symop_operation_xyz
x,y,z
-x,y,-z
-x,-y,-z
x,-y,z
1/2+x,1/2+y,z
1/2-x,1/2+y,-z
1/2-x,1/2-y,-z
1/2+x,1/2-y,z
loop_
_atom_site_type_symbol
_atom_site_label
_atom_site_fract_x
_atom_site_fract_y
_atom_site_fract_z
Si Si1 0.761747 0.000000 0.342539
Si Si2 0.397425 0.845553 0.760262
Si Si3 0.390355 0.500000 0.846591
Si Si4 0.500000 0.129456 0.000000
Si Si5 0.500000 0.748761 0.500000
Si Si6 0.051668 0.375405 0.662777
Si Si7 0.821324 0.000000 0.148787
Si Si8 0.759626 0.500000 0.478683
O O1 0.684209 0.074215 0.258421
O O2 0.000000 0.000000 0.500000
O O3 0.334359 0.000000 0.619445
O O4 0.535792 0.857843 0.755790
O O5 0.202013 0.801332 0.611475
O O6 0.475423 0.820715 0.899239
O O7 0.245489 0.428046 0.757366
O O8 0.563582 0.500000 0.874888
O O9 0.500000 0.500000 0.000000
O O10 0.314781 0.073049 0.918320
O O11 0.540426 0.799911 0.605132
O O12 0.861920 0.423524 0.511599
O O13 0.017054 0.000000 0.326189
#
# Coordination Sequence:
#
# PCOD9169043 Si02
#       8
#     4   8   4   4   4   8   4   4
#     4  10  16  32  59  90 114 156 219 264 314 373
#     4  11  23  41  65  93 133 177 221 278 330 386
#     4  11  22  43  73  99 132 173 215 280 342 385
#     4  11  24  40  60 100 138 167 222 272 330 409
#     4  12  24  42  66  94 138 184 218 274 332 394
#     4  10  23  43  67 103 130 168 231 275 322 406
#     4  11  21  36  67 100 132 165 213 285 344 382
#     4   9  19  35  68  92 122 158 217 282 324 371
#
# _framework density 21.569299000000001
#
# number of rings (size 3 to 8) (size 9 to 14) (size 15 to 20)
#    0.000    1.400    1.000    6.000    2.800    1.600 
#    5.400    1.000    0.000    0.000    0.000    0.000 
#    0.000    0.000    0.000    0.000    0.000    0.000 
#
# Total GULP energy -111471.074303 kJ/mol
# GULP energy per Si atom -5573.553715 kJ/mol
# Density = 2.152021 g / cm^3
# Si number density = 21.569299 Si / 1000 Ang^3
#
#
#
# Elastic Constant Matrix: (Units=GPa)
#
#
# Indices 1 2 3 4 5 6 
#
# 1 172.2846 23.8531 45.0994 -0.0004 -19.9457 -0.0002
# 2 23.8531 61.0919 9.7338 -0.0001 1.3354 -0.0001
# 3 45.0994 9.7338 93.6900 -0.0029 -10.8828 -0.0020
# 4 -0.0004 -0.0001 -0.0029 36.4010 -0.0010 13.5722
# 5 -19.9457 1.3354 -10.8828 -0.0010 45.1874 -0.0007
# 6 -0.0002 -0.0001 -0.0020 13.5722 -0.0007 11.4855
#
#
#
# Elastic Compliance Matrix: (Units=1/GPa)
#
#
# Indices 1 2 3 4 5 6 
#
# 1 0.007195 -0.002400 -0.002919 0.000000 0.002544 0.000000
# 2 -0.002400 0.017483 -0.000869 0.000000 -0.001785 0.000000
# 3 -0.002919 -0.000869 0.012368 0.000000 0.001716 0.000002
# 4 0.000000 0.000000 0.000000 0.049109 0.000000 -0.058031
# 5 0.002544 -0.001785 0.001716 0.000000 0.023719 0.000002
# 6 0.000000 0.000000 0.000002 -0.058031 0.000002 0.155640
#
#
# Mechanical properties :
#
#
# Convention : Reuss Voigt Hill
#
# Bulk Modulus (GPa) = 40.53148 53.82657 47.17902
# Shear Modulus (GPa) = 17.47563 35.17346 26.32455
#
# Velocity S-wave (km/s) = 2.84950 4.04260 3.49730
# Velocity P-wave (km/s) = 5.44594 6.84101 6.18295
#
# Compressibility (1/GPa) = 0.02467218
#
# Stress axis : x y z
#
# Youngs Moduli (GPa) = 138.98209 57.19774 80.85360
#
# Poissons Ratio (x) = 0.13727 0.23599
# Poissons Ratio (y) = 0.33354 0.07022
# Poissons Ratio (z) = 0.40565 0.04968
#
# Static dielectric constant tensor:
#      x y z
#    x 2.072400 -0.000020 -0.165120 
#    y -0.000020 2.423080 0.000010 
#    z -0.165120 0.000010 1.860900 
# 
# From -- ./inp_files/265211.got.cif
#   From: 2010.05.17/outbox.cif.g08.bks.cpg/sg12_133_cif.got.tgz:265211.got - 2010.06.03 13:09:07.
