data_PCOD9169737
_publ_section_title
;
Structure prediction by ZEFSAII (Michael W. Deem and Ramdas Pophale) SiO2 
 PCOD9169737
Probable space group: C 2/M
;
_chemical_formula_sum "Si O2"
_cell_formula_units_Z 64
_cell_length_a 27.696404
_cell_length_b 22.134548
_cell_length_c 18.763206
_cell_angle_alpha 90.000000
_cell_angle_beta 163.866311
_cell_angle_gamma 90.000000
_cell_volume 3196.374393
_symmetry_space_group_name_H-M "C 2/M"
_symmetry_group_IT_number 12
_symmetry_cell_setting 'monoclinic'
loop_
_space_group_symop_operation_xyz
x,y,z
-x,y,-z
-x,-y,-z
x,-y,z
1/2+x,1/2+y,z
1/2-x,1/2+y,-z
1/2-x,1/2-y,-z
1/2+x,1/2-y,z
loop_
_atom_site_type_symbol
_atom_site_label
_atom_site_fract_x
_atom_site_fract_y
_atom_site_fract_z
Si Si1 0.790130 0.134791 0.488895
Si Si2 0.264802 0.783593 0.237751
Si Si3 0.096734 0.675076 0.427432
Si Si4 0.617457 0.298184 0.888575
Si Si5 0.907227 0.246383 0.798208
Si Si6 0.475196 0.337426 0.548808
Si Si7 0.215150 0.428524 0.238231
Si Si8 0.085137 0.570626 0.304275
O O1 0.976450 0.155456 0.722795
O O2 0.696068 0.196917 0.379259
O O3 0.699833 0.103708 0.292646
O O4 0.763888 0.089896 0.517769
O O5 0.360115 0.828543 0.427328
O O6 0.338972 0.717884 0.364241
O O7 0.276062 0.795979 0.169263
O O8 0.059830 0.779790 0.966185
O O9 0.964756 0.730818 0.227968
O O10 0.275328 0.698067 0.643934
O O11 0.047699 0.613976 0.317920
O O12 0.628861 0.319436 0.822255
O O13 0.000000 0.272370 0.000000
O O14 0.500000 0.340326 0.500000
O O15 0.387702 0.399343 0.449281
O O16 0.226205 0.500000 0.265231
O O17 0.062563 0.417269 0.964935
O O18 0.084380 0.500000 0.320842
#
# Coordination Sequence:
#
# PCOD9169737 Si02
#       8
#     8   8   8   8   8   8   8   8
#     4  10  17  28  46  73 101 121 154 192 226 271
#     4  10  18  31  49  68  95 125 155 189 233 285
#     4   9  18  29  45  71  98 124 157 190 223 272
#     4   9  18  31  51  72  93 124 152 188 240 286
#     4   9  15  25  46  69  92 124 151 184 227 271
#     4  10  21  34  49  72  96 117 152 202 245 282
#     4  10  20  32  47  67  94 129 160 190 233 280
#     4  11  20  29  45  69  99 133 162 189 222 264
#
# _framework density 20.022686
#
# number of rings (size 3 to 8) (size 9 to 14) (size 15 to 20)
#    0.000    2.250    0.000    6.750    0.000    3.750 
#    0.000    0.000    0.000   12.375    0.000    0.000 
#    0.000   10.000    0.000    0.000    0.000    0.000 
#
# Total GULP energy -178581.067138 kJ/mol
# GULP energy per Si atom -5580.658348 kJ/mol
# Density = 1.997711 g / cm^3
# Si number density = 20.022686 Si / 1000 Ang^3
#
#
#
# Elastic Constant Matrix: (Units=GPa)
#
#
# Indices 1 2 3 4 5 6 
#
# 1 108.2331 30.1798 25.3023 0.0000 -36.1492 0.0000
# 2 30.1798 94.9386 23.9698 0.0000 -20.1011 0.0000
# 3 25.3023 23.9698 51.5445 0.0000 -27.5850 0.0000
# 4 0.0000 0.0000 0.0000 19.6714 0.0000 -11.9250
# 5 -36.1492 -20.1011 -27.5850 0.0000 40.5470 0.0000
# 6 0.0000 0.0000 0.0000 -11.9250 0.0000 22.2041
#
#
#
# Elastic Compliance Matrix: (Units=1/GPa)
#
#
# Indices 1 2 3 4 5 6 
#
# 1 0.013474 -0.001984 0.000332 0.000000 0.011255 0.000000
# 2 -0.001984 0.012526 -0.003891 0.000000 0.001794 0.000000
# 3 0.000332 -0.003891 0.031723 0.000000 0.019949 0.000000
# 4 0.000000 0.000000 0.000000 0.075375 0.000000 0.040481
# 5 0.011255 0.001794 0.019949 0.000000 0.049157 0.000000
# 6 0.000000 0.000000 0.000000 0.040481 0.000000 0.066778
#
#
# Mechanical properties :
#
#
# Convention : Reuss Voigt Hill
#
# Bulk Modulus (GPa) = 21.44254 45.95779 33.70016
# Shear Modulus (GPa) = 18.13788 28.16878 23.15333
#
# Velocity S-wave (km/s) = 3.01303 3.75486 3.40421
# Velocity P-wave (km/s) = 4.77879 6.46539 5.68499
#
# Compressibility (1/GPa) = 0.04663626
#
# Stress axis : x y z
#
# Youngs Moduli (GPa) = 74.21695 79.83380 31.52249
#
# Poissons Ratio (x) = 0.15839 -0.01045
# Poissons Ratio (y) = 0.14725 0.12266
# Poissons Ratio (z) = -0.02461 0.31064
#
# Static dielectric constant tensor:
#      x y z
#    x 1.802860 0.000000 0.000740 
#    y 0.000000 1.665260 0.000000 
#    z 0.000740 0.000000 1.794810 
# 
# From -- ./inp_files/294187.got.cif
#   From: 2010.05.17/outbox.cif.g08.bks.cpg/sg12_148_cif.got.tgz:294187.got - 2010.06.03 13:09:07.
