data_PCOD9169611
_publ_section_title
;
Structure prediction by ZEFSAII (Michael W. Deem and Ramdas Pophale) SiO2 
 PCOD9169611
Probable space group: C 2/M
;
_chemical_formula_sum "Si O2"
_cell_formula_units_Z 40
_cell_length_a 20.878540
_cell_length_b 13.035050
_cell_length_c 11.345685
_cell_angle_alpha 90.000000
_cell_angle_beta 126.386025
_cell_angle_gamma 90.000000
_cell_volume 2485.765792
_symmetry_space_group_name_H-M "C 2/M"
_symmetry_group_IT_number 12
_symmetry_cell_setting 'monoclinic'
loop_
_space_group_symop_operation_xyz
x,y,z
-x,y,-z
-x,-y,-z
x,-y,z
1/2+x,1/2+y,z
1/2-x,1/2+y,-z
1/2-x,1/2-y,-z
1/2+x,1/2-y,z
loop_
_atom_site_type_symbol
_atom_site_label
_atom_site_fract_x
_atom_site_fract_y
_atom_site_fract_z
Si Si1 0.988835 0.500000 0.291731
Si Si2 0.365867 0.000000 0.363884
Si Si3 0.774473 0.386447 0.631348
Si Si4 0.041890 0.332694 0.173281
Si Si5 0.253074 0.335889 0.673951
Si Si6 0.928091 0.112265 0.829156
O O1 0.067009 0.500000 0.460580
O O2 0.994433 0.400885 0.214163
O O3 0.912628 0.500000 0.292467
O O4 0.309841 0.901230 0.321810
O O5 0.747992 0.500000 0.639187
O O6 0.870068 0.379309 0.744197
O O7 0.755021 0.369889 0.471998
O O8 0.741852 0.286773 0.663811
O O9 0.054967 0.214528 0.227487
O O10 0.000000 0.333642 0.000000
O O11 0.344325 0.364646 0.802671
O O12 0.922165 0.000000 0.764383
O O13 0.000000 0.107338 0.000000
#
# Coordination Sequence:
#
# PCOD9169611 Si02
#       6
#     4   4   8   8   8   8
#     4  11  21  32  50  72 101 134 162 197 241 293
#     4  11  20  34  49  70 104 131 166 194 235 304
#     4  10  17  27  47  75  99 121 154 206 252 281
#     4  10  18  30  49  76 101 123 165 208 245 282
#     4  10  17  29  47  71 103 123 158 199 242 293
#     4   9  17  28  48  76  99 124 156 207 254 283
#
# _framework density 16.091621
#
# number of rings (size 3 to 8) (size 9 to 14) (size 15 to 20)
#    0.000    2.000    5.000    0.300    0.000    0.000 
#    0.000    0.000    0.000   12.000    0.000    2.800 
#    0.000    0.000    0.000    0.000    0.000    0.000 
#
# Total GULP energy -111374.505981 kJ/mol
# GULP energy per Si atom -5568.725299 kJ/mol
# Density = 1.605500 g / cm^3
# Si number density = 16.091621 Si / 1000 Ang^3
#
#
#
# Elastic Constant Matrix: (Units=GPa)
#
#
# Indices 1 2 3 4 5 6 
#
# 1 101.7914 67.2150 26.6924 0.0000 3.3868 0.0000
# 2 67.2150 200.6831 12.1951 0.0000 -6.0530 0.0000
# 3 26.6924 12.1951 54.5576 0.0000 14.9459 0.0000
# 4 0.0000 0.0000 0.0000 17.9493 0.0000 4.6472
# 5 3.3868 -6.0530 14.9459 0.0000 22.6660 0.0000
# 6 0.0000 0.0000 0.0000 4.6472 0.0000 19.0831
#
#
#
# Elastic Compliance Matrix: (Units=1/GPa)
#
#
# Indices 1 2 3 4 5 6 
#
# 1 0.014342 -0.004399 -0.006255 0.000000 0.000806 0.000000
# 2 -0.004399 0.006525 0.000044 0.000000 0.002371 0.000000
# 3 -0.006255 0.000044 0.025776 0.000000 -0.016051 0.000000
# 4 0.000000 0.000000 0.000000 0.059462 0.000000 -0.014480
# 5 0.000806 0.002371 -0.016051 0.000000 0.055215 0.000000
# 6 0.000000 0.000000 0.000000 -0.014480 0.000000 0.055929
#
#
# Mechanical properties :
#
#
# Convention : Reuss Voigt Hill
#
# Bulk Modulus (GPa) = 39.33142 63.24857 51.29000
# Shear Modulus (GPa) = 20.24758 28.66832 24.45795
#
# Velocity S-wave (km/s) = 3.55106 4.22544 3.90284
# Velocity P-wave (km/s) = 6.42717 7.94962 7.22859
#
# Compressibility (1/GPa) = 0.02542497
#
# Stress axis : x y z
#
# Youngs Moduli (GPa) = 69.72435 153.25124 38.79522
#
# Poissons Ratio (x) = 0.67419 0.24264
# Poissons Ratio (y) = 0.30673 -0.00172
# Poissons Ratio (z) = 0.43609 -0.00679
#
# Static dielectric constant tensor:
#      x y z
#    x 1.492070 0.000000 0.031770 
#    y 0.000000 1.613890 0.000000 
#    z 0.031770 0.000000 1.560370 
# 
# From -- ./inp_files/166385.got.cif
#   From: 2010.05.17/outbox.cif.g08.bks.cpg/sg12_84_cif.got.tgz:166385.got - 2010.06.03 13:09:07.
