data_PCOD9169068
_publ_section_title
;
Structure prediction by ZEFSAII (Michael W. Deem and Ramdas Pophale) SiO2 
 PCOD9169068
Probable space group: C 2/M
;
_chemical_formula_sum "Si O2"
_cell_formula_units_Z 48
_cell_length_a 23.494812
_cell_length_b 14.175338
_cell_length_c 8.322485
_cell_angle_alpha 90.000000
_cell_angle_beta 124.758165
_cell_angle_gamma 90.000000
_cell_volume 2277.197606
_symmetry_space_group_name_H-M "C 2/M"
_symmetry_group_IT_number 12
_symmetry_cell_setting 'monoclinic'
loop_
_space_group_symop_operation_xyz
x,y,z
-x,y,-z
-x,-y,-z
x,-y,z
1/2+x,1/2+y,z
1/2-x,1/2+y,-z
1/2-x,1/2-y,-z
1/2+x,1/2-y,z
loop_
_atom_site_type_symbol
_atom_site_label
_atom_site_fract_x
_atom_site_fract_y
_atom_site_fract_z
Si Si1 0.197844 0.151278 0.597585
Si Si2 0.445263 0.202997 0.036581
Si Si3 0.044900 0.209401 0.430881
Si Si4 0.246480 0.136875 0.013352
Si Si5 0.405007 0.105330 0.303047
Si Si6 0.192891 0.179469 0.244412
O O1 0.117405 0.163469 0.508547
O O2 0.228513 0.102381 0.805607
O O3 0.200827 0.117901 0.418022
O O4 0.240404 0.250447 0.655183
O O5 0.494459 0.280790 0.199306
O O6 0.422062 0.136252 0.146960
O O7 0.500000 0.157004 0.000000
O O8 0.375795 0.253461 0.857526
O O9 0.065337 0.314221 0.531535
O O10 0.000000 0.163446 0.500000
O O11 0.250000 0.250000 0.000000
O O12 0.322352 0.105568 0.184321
O O13 0.194131 0.123508 0.077555
O O14 0.428529 0.000000 0.376794
#
# Coordination Sequence:
#
# PCOD9169068 Si02
#       6
#     8   8   8   8   8   8
#     4  10  17  30  54  73  95 132 173 221 271 297
#     4  11  20  32  50  74 110 138 176 211 255 308
#     4  10  19  31  50  72 102 143 173 206 253 314
#     4  10  16  33  56  72  92 133 177 222 266 296
#     4  11  22  36  50  71 105 149 185 212 250 310
#     4  10  18  30  53  77  95 130 175 224 268 295
#
# _framework density 21.07854
#
# number of rings (size 3 to 8) (size 9 to 14) (size 15 to 20)
#    0.000    1.667    8.333    1.000    0.000    3.333 
#    0.000    0.000    0.000    0.000    0.000    0.000 
#    0.000    6.667    0.000    0.167    0.000    0.000 
#
# Total GULP energy -133647.442206 kJ/mol
# GULP energy per Si atom -5568.643425 kJ/mol
# Density = 2.103056 g / cm^3
# Si number density = 21.078540 Si / 1000 Ang^3
#
#
#
# Elastic Constant Matrix: (Units=GPa)
#
#
# Indices 1 2 3 4 5 6 
#
# 1 132.7288 8.7633 31.9581 0.0000 0.1892 0.0000
# 2 8.7633 38.9822 1.4134 0.0000 -3.6804 0.0000
# 3 31.9581 1.4134 100.0917 0.0000 -14.6074 0.0000
# 4 0.0000 0.0000 0.0000 -12.1685 0.0000 -0.0586
# 5 0.1892 -3.6804 -14.6074 0.0000 59.3631 0.0000
# 6 0.0000 0.0000 0.0000 -0.0586 0.0000 -9.4180
#
#
#
# Elastic Compliance Matrix: (Units=1/GPa)
#
#
# Indices 1 2 3 4 5 6 
#
# 1 0.008319 -0.001848 -0.002749 0.000000 -0.000818 0.000000
# 2 -0.001848 0.026216 0.000475 0.000000 0.001748 0.000000
# 3 -0.002749 0.000475 0.011272 0.000000 0.002812 0.000000
# 4 0.000000 0.000000 0.000000 -0.082182 0.000000 0.000512
# 5 -0.000818 0.001748 0.002812 0.000000 0.017648 0.000000
# 6 0.000000 0.000000 0.000000 0.000512 0.000000 -0.106182
#
#
# Mechanical properties :
#
#
# Convention : Reuss Voigt Hill
#
# Bulk Modulus (GPa) = 26.62195 39.56358 33.09277
# Shear Modulus (GPa) = -48.01109 22.86650 -12.57229
#
# Velocity S-wave (km/s) = -4.77773 3.29724 -2.44488
# Velocity P-wave (km/s) = 4.21643 5.77114 2.78638
#
# Compressibility (1/GPa) = 0.03756298
#
# Stress axis : x y z
#
# Youngs Moduli (GPa) = 120.20187 38.14476 88.71230
#
# Poissons Ratio (x) = 0.07048 0.24391
# Poissons Ratio (y) = 0.22210 -0.04213
# Poissons Ratio (z) = 0.33049 -0.01811
#
# Static dielectric constant tensor:
#      x y z
#    x 1.823860 0.000000 -0.055650 
#    y 0.000000 1.768410 0.000000 
#    z -0.055650 0.000000 1.826600 
# 
# From -- ./inp_files/74480.got.cif
#   From: 2010.05.17/outbox.cif.g08.bks.cpg/sg12_38_cif.got.tgz:74480.got - 2010.06.03 13:09:07.
