data_PCOD9169190
_publ_section_title
;
Structure prediction by ZEFSAII (Michael W. Deem and Ramdas Pophale) SiO2 
 PCOD9169190
Probable space group: C 2/M
;
_chemical_formula_sum "Si O2"
_cell_formula_units_Z 52
_cell_length_a 13.391204
_cell_length_b 30.833420
_cell_length_c 6.892040
_cell_angle_alpha 90.000000
_cell_angle_beta 134.606486
_cell_angle_gamma 90.000000
_cell_volume 2025.986316
_symmetry_space_group_name_H-M "C 2/M"
_symmetry_group_IT_number 12
_symmetry_cell_setting 'monoclinic'
loop_
_space_group_symop_operation_xyz
x,y,z
-x,y,-z
-x,-y,-z
x,-y,z
1/2+x,1/2+y,z
1/2-x,1/2+y,-z
1/2-x,1/2-y,-z
1/2+x,1/2-y,z
loop_
_atom_site_type_symbol
_atom_site_label
_atom_site_fract_x
_atom_site_fract_y
_atom_site_fract_z
Si Si1 0.211033 0.875952 0.973311
Si Si2 0.500000 0.782256 0.000000
Si Si3 0.010294 0.953235 0.748775
Si Si4 0.800410 0.564550 0.572666
Si Si5 0.406331 0.951580 0.159028
Si Si6 0.763652 0.843868 0.431616
Si Si7 0.040636 0.204313 0.783477
O O1 0.094349 0.909041 0.896360
O O2 0.197698 0.866470 0.722584
O O3 0.174496 0.827414 0.995375
O O4 0.347011 0.906827 0.168121
O O5 0.366846 0.811690 0.766579
O O6 0.550091 0.750809 0.895251
O O7 0.000000 0.953707 0.500000
O O8 0.858521 0.951403 0.640496
O O9 0.072926 0.000000 0.886430
O O10 0.787635 0.615718 0.513956
O O11 0.925255 0.547334 0.610825
O O12 0.855189 0.554025 0.865034
O O13 0.357331 0.000000 0.147451
O O14 0.903074 0.819188 0.683734
O O15 0.000000 0.209033 0.500000
#
# Coordination Sequence:
#
# PCOD9169190 Si02
#       7
#     8   4   8   8   8   8   8
#     4  10  18  32  49  72 111 155 184 239 299 337
#     4  12  24  38  62  88 110 158 202 246 308 364
#     4  11  16  23  43  72 105 149 195 225 279 352
#     4  10  17  27  42  69 113 155 183 234 295 337
#     4  10  17  24  39  72 112 149 191 235 282 348
#     4  10  19  35  53  79 114 153 191 242 301 349
#     4  10  22  40  60  84 118 153 197 253 299 355
#
# _framework density 25.666512999999998
#
# number of rings (size 3 to 8) (size 9 to 14) (size 15 to 20)
#    0.000    1.692    4.615    5.077    0.000    2.462 
#    0.000    0.000    0.000    0.000    0.000    2.154 
#    0.000    1.231    0.000    0.000    0.000   12.000 
#
# Total GULP energy -145364.015541 kJ/mol
# GULP energy per Si atom -5590.923675 kJ/mol
# Density = 2.560809 g / cm^3
# Si number density = 25.666513 Si / 1000 Ang^3
#
#
#
# Elastic Constant Matrix: (Units=GPa)
#
#
# Indices 1 2 3 4 5 6 
#
# 1 117.7447 58.1457 50.9949 0.0000 31.0001 0.0000
# 2 58.1457 199.3890 43.0695 0.0000 21.8869 0.0000
# 3 50.9949 43.0695 60.2900 0.0000 9.4764 0.0000
# 4 0.0000 0.0000 0.0000 51.5830 0.0000 12.9964
# 5 31.0001 21.8869 9.4764 0.0000 67.4354 0.0000
# 6 0.0000 0.0000 0.0000 12.9964 0.0000 51.1140
#
#
#
# Elastic Compliance Matrix: (Units=1/GPa)
#
#
# Indices 1 2 3 4 5 6 
#
# 1 0.015393 -0.001533 -0.011137 0.000000 -0.005014 0.000000
# 2 -0.001533 0.006208 -0.002998 0.000000 -0.000889 0.000000
# 3 -0.011137 -0.002998 0.027805 0.000000 0.002185 0.000000
# 4 0.000000 0.000000 0.000000 0.020713 0.000000 -0.005267
# 5 -0.005014 -0.000889 0.002185 0.000000 0.017115 0.000000
# 6 0.000000 0.000000 0.000000 -0.005267 0.000000 0.020903
#
#
# Mechanical properties :
#
#
# Convention : Reuss Voigt Hill
#
# Bulk Modulus (GPa) = 55.34204 75.76044 65.55124
# Shear Modulus (GPa) = 34.36504 49.04071 41.70287
#
# Velocity S-wave (km/s) = 3.66308 4.37588 4.03525
# Velocity P-wave (km/s) = 6.28487 7.42378 6.87794
#
# Compressibility (1/GPa) = 0.01806945
#
# Stress axis : x y z
#
# Youngs Moduli (GPa) = 64.96284 161.09413 35.96505
#
# Poissons Ratio (x) = 0.24695 0.40054
# Poissons Ratio (y) = 0.09959 0.10783
# Poissons Ratio (z) = 0.72349 0.48299
#
# Static dielectric constant tensor:
#      x y z
#    x 2.084900 0.000000 -0.088720 
#    y 0.000000 1.939760 0.000000 
#    z -0.088720 0.000000 2.082390 
# 
# From -- ./inp_files/68678.got.cif
#   From: 2010.05.17/outbox.cif.g08.bks.cpg/sg12_35_cif.got.tgz:68678.got - 2010.06.03 13:09:07.
