data_PCOD9169977
_publ_section_title
;
Structure prediction by ZEFSAII (Michael W. Deem and Ramdas Pophale) SiO2 
 PCOD9169977
Probable space group: C 2/M
;
_chemical_formula_sum "Si O2"
_cell_formula_units_Z 48
_cell_length_a 14.260562
_cell_length_b 26.022366
_cell_length_c 14.275421
_cell_angle_alpha 90.000000
_cell_angle_beta 147.493783
_cell_angle_gamma 90.000000
_cell_volume 2846.838510
_symmetry_space_group_name_H-M "C 2/M"
_symmetry_group_IT_number 12
_symmetry_cell_setting 'monoclinic'
loop_
_space_group_symop_operation_xyz
x,y,z
-x,y,-z
-x,-y,-z
x,-y,z
1/2+x,1/2+y,z
1/2-x,1/2+y,-z
1/2-x,1/2-y,-z
1/2+x,1/2-y,z
loop_
_atom_site_type_symbol
_atom_site_label
_atom_site_fract_x
_atom_site_fract_y
_atom_site_fract_z
Si Si1 0.672457 0.558738 0.708004
Si Si2 0.879995 0.242203 0.258381
Si Si3 0.563344 0.314473 0.947012
Si Si4 0.750081 0.741695 0.636210
Si Si5 0.068717 0.357398 0.157753
Si Si6 0.312732 0.369672 0.111344
O O1 0.500000 0.559792 0.500000
O O2 0.731879 0.500000 0.768316
O O3 0.816102 0.594841 0.779426
O O4 0.630248 0.584974 0.771953
O O5 0.822995 0.243135 0.318896
O O6 0.853707 0.184984 0.196417
O O7 0.086481 0.254531 0.432208
O O8 0.744000 0.281699 0.097219
O O9 0.412344 0.280291 0.772008
O O10 0.598948 0.364617 0.915001
O O11 0.500000 0.323429 0.000000
O O12 0.821634 0.683649 0.691276
O O13 0.000000 0.332996 0.000000
O O14 0.896808 0.373149 0.068725
#
# Coordination Sequence:
#
# PCOD9169977 Si02
#       6
#     8   8   8   8   8   8
#     4  10  21  37  56  82 109 133 168 219 276 332
#     4  10  18  29  48  72 104 138 181 214 256 310
#     4  10  21  36  47  70 108 145 183 220 249 295
#     4  10  17  30  48  70 104 143 175 214 257 305
#     4  10  17  29  49  74 104 135 169 215 263 318
#     4  11  20  32  52  75 103 138 178 216 262 317
#
# _framework density 16.860809
#
# number of rings (size 3 to 8) (size 9 to 14) (size 15 to 20)
#    0.000    1.833    5.000    2.000    0.000    3.667 
#    3.000    0.000    0.000    0.500    0.000    0.000 
#    0.000    2.667    0.000    0.000    0.000    0.000 
#
# Total GULP energy -133882.242057 kJ/mol
# GULP energy per Si atom -5578.426752 kJ/mol
# Density = 1.682243 g / cm^3
# Si number density = 16.860809 Si / 1000 Ang^3
#
#
#
# Elastic Constant Matrix: (Units=GPa)
#
#
# Indices 1 2 3 4 5 6 
#
# 1 85.6417 42.9719 37.0829 0.0000 -2.5170 0.0000
# 2 42.9719 74.9796 33.3170 0.0000 5.7797 0.0000
# 3 37.0829 33.3170 102.7645 0.0000 18.2118 0.0000
# 4 0.0000 0.0000 0.0000 16.3163 0.0000 -0.2904
# 5 -2.5170 5.7797 18.2118 0.0000 18.2617 0.0000
# 6 0.0000 0.0000 0.0000 -0.2904 0.0000 15.4571
#
#
#
# Elastic Compliance Matrix: (Units=1/GPa)
#
#
# Indices 1 2 3 4 5 6 
#
# 1 0.019263 -0.009267 -0.005997 0.000000 0.011568 0.000000
# 2 -0.009267 0.020040 -0.002190 0.000000 -0.005436 0.000000
# 3 -0.005997 -0.002190 0.015340 0.000000 -0.015431 0.000000
# 4 0.000000 0.000000 0.000000 0.061309 0.000000 0.001152
# 5 0.011568 -0.005436 -0.015431 0.000000 0.073463 0.000000
# 6 0.000000 0.000000 0.000000 0.001152 0.000000 0.064717
#
#
# Mechanical properties :
#
#
# Convention : Reuss Voigt Hill
#
# Bulk Modulus (GPa) = 50.67001 54.45884 52.56443
# Shear Modulus (GPa) = 16.91375 20.00796 18.46086
#
# Velocity S-wave (km/s) = 3.17067 3.44852 3.31251
# Velocity P-wave (km/s) = 6.59708 6.94447 6.77300
#
# Compressibility (1/GPa) = 0.01973554
#
# Stress axis : x y z
#
# Youngs Moduli (GPa) = 51.91287 49.90009 65.19082
#
# Poissons Ratio (x) = 0.46242 0.39094
# Poissons Ratio (y) = 0.48108 0.14275
# Poissons Ratio (z) = 0.31131 0.10927
#
# Static dielectric constant tensor:
#      x y z
#    x 1.620120 0.000000 0.005520 
#    y 0.000000 1.534450 0.000000 
#    z 0.005520 0.000000 1.620180 
# 
# From -- ./inp_files/64885.got.cif
#   From: 2010.05.17/outbox.cif.g08.bks.cpg/sg12_33_cif.got.tgz:64885.got - 2010.06.03 13:09:07.
