data_PCOD9169162
_publ_section_title
;
Structure prediction by ZEFSAII (Michael W. Deem and Ramdas Pophale) SiO2 
 PCOD9169162
Probable space group: C 2/M
;
_chemical_formula_sum "Si O2"
_cell_formula_units_Z 64
_cell_length_a 28.465956
_cell_length_b 7.988229
_cell_length_c 19.358933
_cell_angle_alpha 90.000000
_cell_angle_beta 68.643280
_cell_angle_gamma 90.000000
_cell_volume 4099.792110
_symmetry_space_group_name_H-M "C 2/M"
_symmetry_group_IT_number 12
_symmetry_cell_setting 'monoclinic'
loop_
_space_group_symop_operation_xyz
x,y,z
-x,y,-z
-x,-y,-z
x,-y,z
1/2+x,1/2+y,z
1/2-x,1/2+y,-z
1/2-x,1/2-y,-z
1/2+x,1/2-y,z
loop_
_atom_site_type_symbol
_atom_site_label
_atom_site_fract_x
_atom_site_fract_y
_atom_site_fract_z
Si Si1 0.459477 0.808265 0.924874
Si Si2 0.186626 0.201724 0.464557
Si Si3 0.508060 0.701668 0.385216
Si Si4 0.113572 0.702536 0.762277
Si Si5 0.299275 0.202409 0.385827
Si Si6 0.565721 0.307793 0.919541
Si Si7 0.080976 0.795327 0.465889
Si Si8 0.004556 0.298888 0.764748
O O1 0.517671 0.800564 0.920533
O O2 0.465651 0.735850 0.844445
O O3 0.442776 0.000000 0.930393
O O4 0.427861 0.721225 0.002376
O O5 0.241463 0.262667 0.409783
O O6 0.182629 0.246958 0.547475
O O7 0.137496 0.263662 0.450282
O O8 0.187057 0.000000 0.459373
O O9 0.507999 0.500000 0.386176
O O10 0.456894 0.756025 0.452045
O O11 0.554559 0.757798 0.408647
O O12 0.509128 0.756967 0.305885
O O13 0.113800 0.500000 0.762191
O O14 0.161590 0.761639 0.692995
O O15 0.110129 0.762783 0.843176
O O16 0.061357 0.759478 0.753309
O O17 0.298620 0.000000 0.383761
O O18 0.551209 0.500000 0.916778
O O19 0.081587 0.000000 0.465451
O O20 0.005106 0.500000 0.771742
#
# Coordination Sequence:
#
# PCOD9169162 Si02
#       8
#     8   8   8   8   8   8   8   8
#     4   9  16  27  39  51  75 108 130 150 189 233
#     4   9  16  27  42  57  76 101 129 163 197 228
#     4   9  16  26  40  55  74 101 131 160 189 226
#     4   9  17  28  38  51  77 108 131 154 191 234
#     4   9  17  27  40  58  77 100 131 162 192 230
#     4  10  17  24  37  57  76  97 131 165 186 216
#     4   8  15  27  40  55  75 101 130 158 193 230
#     4   9  17  26  37  54  76 101 128 157 186 220
#
# _framework density 15.610548
#
# number of rings (size 3 to 8) (size 9 to 14) (size 15 to 20)
#    0.000    3.000    0.000    4.500    0.000    3.000 
#    0.000    1.875    0.000    0.000    0.000    0.000 
#    0.000    1.000    0.000    2.000    0.000    2.875 
#
# Total GULP energy -178144.448106 kJ/mol
# GULP energy per Si atom -5567.014003 kJ/mol
# Density = 1.557502 g / cm^3
# Si number density = 15.610548 Si / 1000 Ang^3
#
#
#
# Elastic Constant Matrix: (Units=GPa)
#
#
# Indices 1 2 3 4 5 6 
#
# 1 86.4484 7.1687 61.4509 0.0000 -0.9656 0.0000
# 2 7.1687 16.3881 9.0573 -0.0001 -1.6661 0.0000
# 3 61.4509 9.0573 164.2747 0.0000 -3.5328 0.0000
# 4 0.0000 -0.0001 0.0000 22.0920 0.0000 2.9213
# 5 -0.9656 -1.6661 -3.5328 0.0000 20.5949 0.0000
# 6 0.0000 0.0000 0.0000 2.9213 0.0000 9.9841
#
#
#
# Elastic Compliance Matrix: (Units=1/GPa)
#
#
# Indices 1 2 3 4 5 6 
#
# 1 0.015990 -0.003856 -0.005781 0.000000 -0.000554 0.000000
# 2 -0.003856 0.064288 -0.002001 0.000000 0.004677 0.000000
# 3 -0.005781 -0.002001 0.008382 0.000000 0.001005 0.000000
# 4 0.000000 0.000000 0.000000 0.047087 0.000000 -0.013778
# 5 -0.000554 0.004677 0.001005 0.000000 0.049080 0.000000
# 6 0.000000 0.000000 0.000000 -0.013778 0.000000 0.104191
#
#
# Mechanical properties :
#
#
# Convention : Reuss Voigt Hill
#
# Bulk Modulus (GPa) = 15.29440 46.94056 31.11748
# Shear Modulus (GPa) = 14.96601 23.16316 19.06458
#
# Velocity S-wave (km/s) = 3.09967 3.85621 3.49845
# Velocity P-wave (km/s) = 4.75703 7.06839 6.02460
#
# Compressibility (1/GPa) = 0.06538343
#
# Stress axis : x y z
#
# Youngs Moduli (GPa) = 62.53720 15.55495 119.30581
#
# Poissons Ratio (x) = 0.05998 0.68970
# Poissons Ratio (y) = 0.24115 0.23879
# Poissons Ratio (z) = 0.36152 0.03113
#
# Static dielectric constant tensor:
#      x y z
#    x 1.508100 0.000000 -0.009660 
#    y 0.000000 1.554880 0.000000 
#    z -0.009660 0.000000 1.555590 
# 
# From -- ./inp_files/294576.got.cif
#   From: 2010.05.17/outbox.cif.g08.bks.cpg/sg12_148_cif.got.tgz:294576.got - 2010.06.03 13:09:07.
