data_PCOD9169604
_publ_section_title
;
Structure prediction by ZEFSAII (Michael W. Deem and Ramdas Pophale) SiO2 
 PCOD9169604
Probable space group: C 2/M
;
_chemical_formula_sum "Si O2"
_cell_formula_units_Z 52
_cell_length_a 31.357368
_cell_length_b 14.800701
_cell_length_c 5.563591
_cell_angle_alpha 90.000000
_cell_angle_beta 117.802845
_cell_angle_gamma 90.000000
_cell_volume 2284.037911
_symmetry_space_group_name_H-M "C 2/M"
_symmetry_group_IT_number 12
_symmetry_cell_setting 'monoclinic'
loop_
_space_group_symop_operation_xyz
x,y,z
-x,y,-z
-x,-y,-z
x,-y,z
1/2+x,1/2+y,z
1/2-x,1/2+y,-z
1/2-x,1/2-y,-z
1/2+x,1/2-y,z
loop_
_atom_site_type_symbol
_atom_site_label
_atom_site_fract_x
_atom_site_fract_y
_atom_site_fract_z
Si Si1 0.840540 0.358249 0.518922
Si Si2 0.797947 0.659333 0.905375
Si Si3 0.567649 0.901491 0.519702
Si Si4 0.000000 0.315307 0.000000
Si Si5 0.316071 0.351510 0.453746
Si Si6 0.847973 0.141731 0.037451
Si Si7 0.052531 0.224746 0.761871
O O1 0.820880 0.386607 0.727943
O O2 0.892635 0.395263 0.585729
O O3 0.840667 0.248491 0.527711
O O4 0.809218 0.381937 0.197684
O O5 0.741036 0.663924 0.715386
O O6 0.820506 0.760180 0.972854
O O7 0.517366 0.878685 0.259431
O O8 0.574938 0.817319 0.712947
O O9 0.569023 0.000000 0.634783
O O10 0.959079 0.249036 0.993619
O O11 0.334239 0.397805 0.258660
O O12 0.328900 0.398011 0.738287
O O13 0.905575 0.153352 0.167969
O O14 0.000000 0.206546 0.500000
#
# Coordination Sequence:
#
# PCOD9169604 Si02
#       7
#     8   8   8   4   8   8   8
#     4  10  18  30  44  62  86 102 128 165 215 269
#     4  10  17  28  47  66  85 102 123 159 222 269
#     4  11  22  34  45  59  78 110 147 192 232 267
#     4  10  21  34  48  58  70 104 154 198 234 266
#     4  10  17  27  47  67  84 102 123 159 223 267
#     4  10  17  28  43  62  87 101 129 165 211 268
#     4  10  21  33  45  58  79 110 146 187 231 268
#
# _framework density 22.766696
#
# number of rings (size 3 to 8) (size 9 to 14) (size 15 to 20)
#    0.000    1.846    3.077    6.692    2.154    3.385 
#    0.000    0.000    0.000    0.000    0.000    0.000 
#    0.000    0.000    0.000    0.000    0.000    0.000 
#
# Total GULP energy -145139.762954 kJ/mol
# GULP energy per Si atom -5582.298575 kJ/mol
# Density = 2.271488 g / cm^3
# Si number density = 22.766696 Si / 1000 Ang^3
#
#
#
# Elastic Constant Matrix: (Units=GPa)
#
#
# Indices 1 2 3 4 5 6 
#
# 1 126.9200 12.1700 29.5500 0.0000 -5.8892 0.0000
# 2 12.1700 40.7384 7.1649 0.0000 4.4196 0.0000
# 3 29.5500 7.1649 117.3305 0.0000 -19.1548 0.0000
# 4 0.0000 0.0000 0.0000 41.3175 0.0000 -52.2168
# 5 -5.8892 4.4196 -19.1548 0.0000 60.5980 0.0000
# 6 0.0000 0.0000 0.0000 -52.2168 0.0000 45.9363
#
#
#
# Elastic Compliance Matrix: (Units=1/GPa)
#
#
# Indices 1 2 3 4 5 6 
#
# 1 0.008569 -0.002256 -0.001959 0.000000 0.000378 0.000000
# 2 -0.002256 0.025747 -0.001420 0.000000 -0.002546 0.000000
# 3 -0.001959 -0.001420 0.009583 0.000000 0.002942 0.000000
# 4 0.000000 0.000000 0.000000 -0.055437 0.000000 -0.063016
# 5 0.000378 -0.002546 0.002942 0.000000 0.017655 0.000000
# 6 0.000000 0.000000 0.000000 -0.063016 0.000000 -0.049863
#
#
# Mechanical properties :
#
#
# Convention : Reuss Voigt Hill
#
# Bulk Modulus (GPa) = 30.64680 42.52873 36.58776
# Shear Modulus (GPa) = -231.47562 45.31062 -93.08250
#
# Velocity S-wave (km/s) = -10.09424 4.46602 -6.40110
# Velocity P-wave (km/s) = 11.06199 6.73161 6.20698
#
# Compressibility (1/GPa) = 0.03262983
#
# Stress axis : x y z
#
# Youngs Moduli (GPa) = 116.70124 38.83985 104.34868
#
# Poissons Ratio (x) = 0.08764 0.20437
# Poissons Ratio (y) = 0.26332 0.14813
# Poissons Ratio (z) = 0.22857 0.05514
#
# Static dielectric constant tensor:
#      x y z
#    x 1.881020 0.000000 -0.026770 
#    y 0.000000 2.264990 0.000000 
#    z -0.026770 0.000000 1.924070 
# 
# From -- ./inp_files/29081.got.cif
#   From: 2010.05.17/outbox.cif.g08.bks.cpg/sg12_15_cif.got.tgz:29081.got - 2010.06.03 13:09:07.
