data_PCOD9169191
_publ_section_title
;
Structure prediction by ZEFSAII (Michael W. Deem and Ramdas Pophale) SiO2 
 PCOD9169191
Probable space group: C 2/M
;
_chemical_formula_sum "Si O2"
_cell_formula_units_Z 48
_cell_length_a 20.848763
_cell_length_b 8.810632
_cell_length_c 23.517253
_cell_angle_alpha 90.000000
_cell_angle_beta 41.095706
_cell_angle_gamma 90.000000
_cell_volume 2839.552999
_symmetry_space_group_name_H-M "C 2/M"
_symmetry_group_IT_number 12
_symmetry_cell_setting 'monoclinic'
loop_
_space_group_symop_operation_xyz
x,y,z
-x,y,-z
-x,-y,-z
x,-y,z
1/2+x,1/2+y,z
1/2-x,1/2+y,-z
1/2-x,1/2-y,-z
1/2+x,1/2-y,z
loop_
_atom_site_type_symbol
_atom_site_label
_atom_site_fract_x
_atom_site_fract_y
_atom_site_fract_z
Si Si1 0.984795 0.181067 0.944017
Si Si2 0.682246 0.181456 0.772477
Si Si3 0.164999 0.817849 0.228485
Si Si4 0.356876 0.318056 0.580617
Si Si5 0.989872 0.680920 0.593327
Si Si6 0.281630 0.181759 0.038706
O O1 0.887858 0.258661 0.985324
O O2 0.080798 0.233351 0.846191
O O3 0.974092 0.000000 0.948310
O O4 0.000000 0.224785 0.000000
O O5 0.751075 0.219997 0.780881
O O6 0.746299 0.216021 0.673492
O O7 0.665956 0.000000 0.785271
O O8 0.064941 0.737142 0.313626
O O9 0.151071 0.000000 0.240940
O O10 0.206364 0.775685 0.139378
O O11 0.368822 0.500000 0.572155
O O12 0.421089 0.249592 0.589376
O O13 0.403558 0.247459 0.492774
O O14 0.991350 0.500000 0.588949
O O15 0.283432 0.000000 0.034515
O O16 0.250000 0.250000 0.000000
#
# Coordination Sequence:
#
# PCOD9169191 Si02
#       6
#     8   8   8   8   8   8
#     4  11  22  34  52  79 107 137 174 217 263 310
#     4   9  17  30  49  72  98 134 175 210 254 306
#     4   9  18  32  49  69  97 136 172 207 256 311
#     4   9  16  27  41  62  96 133 167 203 251 309
#     4  10  17  24  40  66  96 129 165 208 254 300
#     4  11  23  39  57  76 104 139 178 220 263 312
#
# _framework density 16.904067999999999
#
# number of rings (size 3 to 8) (size 9 to 14) (size 15 to 20)
#    0.000    2.167    1.667    5.000    0.000    5.333 
#    0.000    0.000    0.000    0.000    0.000    1.167 
#    0.000    0.000    0.000    0.000    0.000    0.000 
#
# Total GULP energy -133804.028355 kJ/mol
# GULP energy per Si atom -5575.167848 kJ/mol
# Density = 1.686559 g / cm^3
# Si number density = 16.904068 Si / 1000 Ang^3
#
#
#
# Elastic Constant Matrix: (Units=GPa)
#
#
# Indices 1 2 3 4 5 6 
#
# 1 62.6183 31.7429 55.1893 0.0001 4.3940 -0.0001
# 2 31.7429 69.3136 73.3215 0.0002 0.3132 -0.0002
# 3 55.1893 73.3215 193.7215 0.0001 0.1893 -0.0001
# 4 0.0001 0.0002 0.0001 43.8343 0.0000 -12.7522
# 5 4.3940 0.3132 0.1893 0.0000 11.8599 0.0000
# 6 -0.0001 -0.0002 -0.0001 -12.7522 0.0000 27.1006
#
#
#
# Elastic Compliance Matrix: (Units=1/GPa)
#
#
# Indices 1 2 3 4 5 6 
#
# 1 0.023519 -0.006093 -0.004386 0.000000 -0.008483 0.000000
# 2 -0.006093 0.025642 -0.007971 0.000000 0.001707 0.000000
# 3 -0.004386 -0.007971 0.009427 0.000000 0.001685 0.000000
# 4 0.000000 0.000000 0.000000 0.026431 0.000000 0.012437
# 5 -0.008483 0.001707 0.001685 0.000000 0.087389 0.000000
# 6 0.000000 0.000000 0.000000 0.012437 0.000000 0.042752
#
#
# Mechanical properties :
#
#
# Convention : Reuss Voigt Hill
#
# Bulk Modulus (GPa) = 46.10841 71.79565 58.95203
# Shear Modulus (GPa) = 19.28347 27.58558 23.43453
#
# Velocity S-wave (km/s) = 3.38118 4.04405 3.72738
# Velocity P-wave (km/s) = 6.52525 8.02312 7.31264
#
# Compressibility (1/GPa) = 0.02168802
#
# Stress axis : x y z
#
# Youngs Moduli (GPa) = 42.51809 38.99907 106.08011
#
# Poissons Ratio (x) = 0.23762 0.46527
# Poissons Ratio (y) = 0.25906 0.84556
# Poissons Ratio (z) = 0.18649 0.31086
#
# Static dielectric constant tensor:
#      x y z
#    x 1.534510 0.000000 0.008900 
#    y 0.000000 1.560130 0.000000 
#    z 0.008900 0.000000 1.629780 
# 
# From -- ./inp_files/345392.got.cif
#   From: 2010.05.17/outbox.cif.g08.bks.cpg/sg12_173_cif.got.tgz:345392.got - 2010.06.03 13:09:07.
