data_PCOD9169380
_publ_section_title
;
Structure prediction by ZEFSAII (Michael W. Deem and Ramdas Pophale) SiO2 
 PCOD9169380
Probable space group: C 2/M
;
_chemical_formula_sum "Si O2"
_cell_formula_units_Z 40
_cell_length_a 12.553903
_cell_length_b 30.896699
_cell_length_c 5.524495
_cell_angle_alpha 90.000000
_cell_angle_beta 94.451270
_cell_angle_gamma 90.000000
_cell_volume 2136.345521
_symmetry_space_group_name_H-M "C 2/M"
_symmetry_group_IT_number 12
_symmetry_cell_setting 'monoclinic'
loop_
_space_group_symop_operation_xyz
x,y,z
-x,y,-z
-x,-y,-z
x,-y,z
1/2+x,1/2+y,z
1/2-x,1/2+y,-z
1/2-x,1/2-y,-z
1/2+x,1/2-y,z
loop_
_atom_site_type_symbol
_atom_site_label
_atom_site_fract_x
_atom_site_fract_y
_atom_site_fract_z
Si Si1 0.839384 0.633127 0.108237
Si Si2 0.500000 0.801622 0.000000
Si Si3 0.682202 0.700189 0.242715
Si Si4 0.380137 0.048157 0.862078
Si Si5 0.884193 0.765012 0.272556
Si Si6 0.500000 0.907045 0.500000
O O1 0.893004 0.669666 0.944887
O O2 0.742826 0.654360 0.234989
O O3 0.939184 0.622678 0.299672
O O4 0.817618 0.587981 0.970675
O O5 0.525275 0.770615 0.777074
O O6 0.775933 0.736270 0.262370
O O7 0.616965 0.707854 0.478719
O O8 0.623879 0.706615 0.974414
O O9 0.408827 0.062422 0.596147
O O10 0.335466 0.000000 0.875830
O O11 0.500000 0.047609 0.000000
#
# Coordination Sequence:
#
# PCOD9169380 Si02
#       6
#     8   4   8   8   8   4
#     4  10  19  29  45  64  86 122 156 195 215 275
#     4  10  18  32  45  66  86 118 165 184 224 256
#     4   9  19  32  44  63  89 115 151 184 241 256
#     4   9  17  29  40  62  89 115 151 191 229 258
#     4   9  19  31  45  63  87 117 146 199 220 269
#     4  10  17  26  44  64  80 124 156 192 218 258
#
# _framework density 18.723564
#
# number of rings (size 3 to 8) (size 9 to 14) (size 15 to 20)
#    0.000    2.600    3.000    0.300    2.800    6.400 
#    0.000    0.000    0.000    0.000    0.000    0.000 
#    0.000    0.000    0.000    5.400    0.000    0.000 
#
# Total GULP energy -111402.012257 kJ/mol
# GULP energy per Si atom -5570.100613 kJ/mol
# Density = 1.868095 g / cm^3
# Si number density = 18.723564 Si / 1000 Ang^3
#
#
#
# Elastic Constant Matrix: (Units=GPa)
#
#
# Indices 1 2 3 4 5 6 
#
# 1 45.2304 36.4043 26.7931 0.0000 -21.6115 0.0000
# 2 36.4043 134.7840 57.2007 0.0000 -23.3914 0.0000
# 3 26.7931 57.2007 114.0107 0.0000 -28.5297 0.0000
# 4 0.0000 0.0000 0.0000 17.6902 0.0000 -11.2891
# 5 -21.6115 -23.3914 -28.5297 0.0000 23.3351 0.0000
# 6 0.0000 0.0000 0.0000 -11.2891 0.0000 21.2716
#
#
#
# Elastic Compliance Matrix: (Units=1/GPa)
#
#
# Indices 1 2 3 4 5 6 
#
# 1 0.043288 -0.006261 0.002060 0.000000 0.036334 0.000000
# 2 -0.006261 0.010807 -0.003877 0.000000 0.000295 0.000000
# 3 0.002060 -0.003877 0.014029 0.000000 0.015174 0.000000
# 4 0.000000 0.000000 0.000000 0.085478 0.000000 0.045364
# 5 0.036334 0.000295 0.015174 0.000000 0.095351 0.000000
# 6 0.000000 0.000000 0.000000 0.045364 0.000000 0.071086
#
#
# Mechanical properties :
#
#
# Convention : Reuss Voigt Hill
#
# Bulk Modulus (GPa) = 19.24214 59.42460 39.33337
# Shear Modulus (GPa) = 14.14361 24.03450 19.08906
#
# Velocity S-wave (km/s) = 2.75142 3.58669 3.19646
# Velocity P-wave (km/s) = 4.51586 6.99709 5.88864
#
# Compressibility (1/GPa) = 0.05196926
#
# Stress axis : x y z
#
# Youngs Moduli (GPa) = 23.10107 92.53571 71.28047
#
# Poissons Ratio (x) = 0.57932 -0.14684
# Poissons Ratio (y) = 0.14462 0.27634
# Poissons Ratio (z) = -0.04759 0.35874
#
# Static dielectric constant tensor:
#      x y z
#    x 1.679630 0.000000 -0.012160 
#    y 0.000000 1.683110 0.000000 
#    z -0.012160 0.000000 1.777110 
# 
# From -- ./inp_files/17109.got.cif
#   From: 2010.05.17/outbox.cif.g08.bks.cpg/sg12_9_cif.got.tgz:17109.got - 2010.06.03 13:09:07.
