data_PCOD9169269
_publ_section_title
;
Structure prediction by ZEFSAII (Michael W. Deem and Ramdas Pophale) SiO2 
 PCOD9169269
Probable space group: C 2/M
;
_chemical_formula_sum "Si O2"
_cell_formula_units_Z 46
_cell_length_a 12.627008
_cell_length_b 29.296591
_cell_length_c 7.038487
_cell_angle_alpha 90.000000
_cell_angle_beta 43.493654
_cell_angle_gamma 90.000000
_cell_volume 1792.084014
_symmetry_space_group_name_H-M "C 2/M"
_symmetry_group_IT_number 12
_symmetry_cell_setting 'monoclinic'
loop_
_space_group_symop_operation_xyz
x,y,z
-x,y,-z
-x,-y,-z
x,-y,z
1/2+x,1/2+y,z
1/2-x,1/2+y,-z
1/2-x,1/2-y,-z
1/2+x,1/2-y,z
loop_
_atom_site_type_symbol
_atom_site_label
_atom_site_fract_x
_atom_site_fract_y
_atom_site_fract_z
Si Si1 0.500000 0.000000 0.500000
Si Si2 0.526580 0.294101 0.168547
Si Si3 0.821016 0.334112 0.699139
Si Si4 0.215706 0.933454 0.895329
Si Si5 0.763654 0.851820 0.632649
Si Si6 0.870436 0.050654 0.438496
Si Si7 0.500000 0.206944 0.000000
O O1 0.371550 0.960923 0.729345
O O2 0.419166 0.322855 0.443747
O O3 0.457693 0.243971 0.219216
O O4 0.500000 0.319710 0.000000
O O5 0.710290 0.294759 0.927819
O O6 0.752161 0.380567 0.877711
O O7 0.797129 0.343658 0.504633
O O8 0.000000 0.327922 0.500000
O O9 0.175676 0.944186 0.724869
O O10 0.056014 0.946132 0.207492
O O11 0.792267 0.904902 0.631787
O O12 0.630570 0.825402 0.913572
O O13 0.819963 0.000000 0.565827
#
# Coordination Sequence:
#
# PCOD9169269 Si02
#       7
#     2   8   8   8   8   8   4
#     4  12  16  22  40  72 104 136 148 184 254 304
#     4   8  17  31  53  69  92 124 160 207 246 287
#     4  10  18  29  47  77 105 125 153 200 258 300
#     4  10  17  25  41  69 106 126 154 196 244 299
#     4  10  19  33  53  71  98 131 165 210 243 289
#     4  10  17  29  44  69  98 132 161 196 243 289
#     4  10  20  34  55  72  89 128 190 202 230 298
#
# _framework density 25.668437999999998
#
# number of rings (size 3 to 8) (size 9 to 14) (size 15 to 20)
#    0.522    1.739    4.348    1.043    0.000    0.000 
#    0.000    1.304    0.000    0.000    0.000    0.000 
#    0.000    4.522    0.000    0.000    0.000    0.000 
#
# Total GULP energy -128235.578147 kJ/mol
# GULP energy per Si atom -5575.459919 kJ/mol
# Density = 2.561002 g / cm^3
# Si number density = 25.668438 Si / 1000 Ang^3
#
#
#
# Elastic Constant Matrix: (Units=GPa)
#
#
# Indices 1 2 3 4 5 6 
#
# 1 106.1527 22.8740 30.3047 0.0000 -15.9737 0.0000
# 2 22.8740 198.8825 51.6086 0.0000 -20.4213 0.0000
# 3 30.3047 51.6086 119.1325 0.0000 -37.8908 0.0000
# 4 0.0000 0.0000 0.0000 64.5059 0.0000 -13.3309
# 5 -15.9737 -20.4213 -37.8908 0.0000 34.1022 0.0000
# 6 0.0000 0.0000 0.0000 -13.3309 0.0000 14.4906
#
#
#
# Elastic Compliance Matrix: (Units=1/GPa)
#
#
# Indices 1 2 3 4 5 6 
#
# 1 0.010395 -0.000508 -0.001504 0.000000 0.002894 0.000000
# 2 -0.000508 0.005713 -0.002062 0.000000 0.000892 0.000000
# 3 -0.001504 -0.002062 0.014001 0.000000 0.013617 0.000000
# 4 0.000000 0.000000 0.000000 0.019142 0.000000 0.017610
# 5 0.002894 0.000892 0.013617 0.000000 0.046343 0.000000
# 6 0.000000 0.000000 0.000000 0.017610 0.000000 0.085211
#
#
# Mechanical properties :
#
#
# Convention : Reuss Voigt Hill
#
# Bulk Modulus (GPa) = 45.53498 70.41583 57.97541
# Shear Modulus (GPa) = 25.47480 43.91176 34.69328
#
# Velocity S-wave (km/s) = 3.15375 4.14058 3.68039
# Velocity P-wave (km/s) = 5.57133 7.09589 6.37931
#
# Compressibility (1/GPa) = 0.02196114
#
# Stress axis : x y z
#
# Youngs Moduli (GPa) = 96.20362 175.03283 71.42486
#
# Poissons Ratio (x) = 0.08895 0.10739
# Poissons Ratio (y) = 0.04889 0.14727
# Poissons Ratio (z) = 0.14465 0.36091
#
# Static dielectric constant tensor:
#      x y z
#    x 2.167410 0.000000 0.062700 
#    y 0.000000 1.956510 0.000000 
#    z 0.062700 0.000000 2.124110 
# 
# From -- ./inp_files/160705.got.cif
#   From: 2010.05.17/outbox.cif.g08.bks.cpg/sg12_81_cif.got.tgz:160705.got - 2010.06.03 13:09:07.
