data_PCOD9169843
_publ_section_title
;
Structure prediction by ZEFSAII (Michael W. Deem and Ramdas Pophale) SiO2 
 PCOD9169843
Probable space group: C 2/M
;
_chemical_formula_sum "Si O2"
_cell_formula_units_Z 52
_cell_length_a 21.419572
_cell_length_b 14.342871
_cell_length_c 19.184521
_cell_angle_alpha 90.000000
_cell_angle_beta 30.491754
_cell_angle_gamma 90.000000
_cell_volume 2990.615558
_symmetry_space_group_name_H-M "C 2/M"
_symmetry_group_IT_number 12
_symmetry_cell_setting 'monoclinic'
loop_
_space_group_symop_operation_xyz
x,y,z
-x,y,-z
-x,-y,-z
x,-y,z
1/2+x,1/2+y,z
1/2-x,1/2+y,-z
1/2-x,1/2-y,-z
1/2+x,1/2-y,z
loop_
_atom_site_type_symbol
_atom_site_label
_atom_site_fract_x
_atom_site_fract_y
_atom_site_fract_z
Si Si1 0.000000 0.765396 0.500000
Si Si2 0.644447 0.608960 0.472269
Si Si3 0.529802 0.727937 0.701469
Si Si4 0.669583 0.782657 0.221399
Si Si5 0.666762 0.392564 0.034897
Si Si6 0.689893 0.105489 0.956511
Si Si7 0.591804 0.893416 0.735881
O O1 0.927238 0.831785 0.516322
O O2 0.902080 0.705125 0.637814
O O3 0.609461 0.500000 0.503578
O O4 0.607805 0.653960 0.581993
O O5 0.792070 0.616013 0.324789
O O6 0.434123 0.771310 0.738271
O O7 0.448138 0.672993 0.836745
O O8 0.599799 0.812709 0.670529
O O9 0.742245 0.684176 0.152924
O O10 0.763092 0.858498 0.101376
O O11 0.630720 0.500000 0.065235
O O12 0.758081 0.383328 0.014297
O O13 0.720760 0.000000 0.904497
O O14 0.542951 0.116121 0.100097
O O15 0.597067 0.000000 0.702341
#
# Coordination Sequence:
#
# PCOD9169843 Si02
#       7
#     4   8   8   8   8   8   8
#     4  10  23  36  51  64  98 140 177 204 237 286
#     4  10  21  34  50  74 104 136 169 200 241 295
#     4  10  17  31  51  78 103 129 161 204 252 300
#     4  10  18  32  49  72  99 133 170 202 242 291
#     4  10  17  28  51  77 101 127 159 205 256 295
#     4   9  16  28  49  77 103 126 157 203 253 299
#     4  10  18  30  50  78 108 132 156 200 256 300
#
# _framework density 17.387723999999999
#
# number of rings (size 3 to 8) (size 9 to 14) (size 15 to 20)
#    0.000    2.154    3.077    2.077    0.000    4.308 
#    0.000    1.154    0.000    3.692    0.000    1.077 
#    0.000    0.000    0.000    0.000    0.000    0.000 
#
# Total GULP energy -144925.049144 kJ/mol
# GULP energy per Si atom -5574.040352 kJ/mol
# Density = 1.734815 g / cm^3
# Si number density = 17.387724 Si / 1000 Ang^3
#
#
#
# Elastic Constant Matrix: (Units=GPa)
#
#
# Indices 1 2 3 4 5 6 
#
# 1 38.5436 21.5164 27.9238 0.0000 -7.3700 0.0000
# 2 21.5164 57.3147 27.7968 0.0000 5.4514 0.0000
# 3 27.9238 27.7968 72.8402 0.0000 12.9892 0.0000
# 4 0.0000 0.0000 0.0000 21.5995 0.0000 -6.8881
# 5 -7.3700 5.4514 12.9892 0.0000 27.7831 0.0000
# 6 0.0000 0.0000 0.0000 -6.8881 0.0000 13.6384
#
#
#
# Elastic Compliance Matrix: (Units=1/GPa)
#
#
# Indices 1 2 3 4 5 6 
#
# 1 0.052051 -0.012373 -0.019777 0.000000 0.025481 0.000000
# 2 -0.012373 0.024355 -0.003397 0.000000 -0.006473 0.000000
# 3 -0.019777 -0.003397 0.025554 0.000000 -0.016526 0.000000
# 4 0.000000 0.000000 0.000000 0.055186 0.000000 0.027872
# 5 0.025481 -0.006473 -0.016526 0.000000 0.051749 0.000000
# 6 0.000000 0.000000 0.000000 0.027872 0.000000 0.087399
#
#
# Mechanical properties :
#
#
# Convention : Reuss Voigt Hill
#
# Bulk Modulus (GPa) = 32.39610 35.90804 34.15207
# Shear Modulus (GPa) = 13.23885 18.70164 15.97024
#
# Velocity S-wave (km/s) = 2.76232 3.28314 3.03393
# Velocity P-wave (km/s) = 5.37084 5.92184 5.65306
#
# Compressibility (1/GPa) = 0.03086791
#
# Stress axis : x y z
#
# Youngs Moduli (GPa) = 19.21176 41.05852 39.13345
#
# Poissons Ratio (x) = 0.50801 0.77393
# Poissons Ratio (y) = 0.23770 0.13294
# Poissons Ratio (z) = 0.37994 0.13947
#
# Static dielectric constant tensor:
#      x y z
#    x 1.571940 0.000000 -0.001280 
#    y 0.000000 1.587220 0.000000 
#    z -0.001280 0.000000 1.621440 
# 
# From -- ./inp_files/284269.got.cif
#   From: 2010.05.17/outbox.cif.g08.bks.cpg/sg12_143_cif.got.tgz:284269.got - 2010.06.03 13:09:07.
