data_PCOD9169481
_publ_section_title
;
Structure prediction by ZEFSAII (Michael W. Deem and Ramdas Pophale) SiO2 
 PCOD9169481
Probable space group: C 2/M
;
_chemical_formula_sum "Si O2"
_cell_formula_units_Z 56
_cell_length_a 12.856454
_cell_length_b 25.944538
_cell_length_c 12.569306
_cell_angle_alpha 90.000000
_cell_angle_beta 32.987386
_cell_angle_gamma 90.000000
_cell_volume 2282.653227
_symmetry_space_group_name_H-M "C 2/M"
_symmetry_group_IT_number 12
_symmetry_cell_setting 'monoclinic'
loop_
_space_group_symop_operation_xyz
x,y,z
-x,y,-z
-x,-y,-z
x,-y,z
1/2+x,1/2+y,z
1/2-x,1/2+y,-z
1/2-x,1/2-y,-z
1/2+x,1/2-y,z
loop_
_atom_site_type_symbol
_atom_site_label
_atom_site_fract_x
_atom_site_fract_y
_atom_site_fract_z
Si Si1 0.806373 0.944265 0.402080
Si Si2 0.307117 0.668742 0.436965
Si Si3 0.077448 0.445324 0.143440
Si Si4 0.767913 0.266639 0.316254
Si Si5 0.286756 0.693710 0.137613
Si Si6 0.584711 0.834252 0.117839
Si Si7 0.730386 0.421398 0.798521
O O1 0.898414 0.886747 0.331100
O O2 0.645356 0.945226 0.631261
O O3 0.712182 0.943182 0.365182
O O4 0.911193 0.000000 0.318662
O O5 0.357841 0.692789 0.508375
O O6 0.309169 0.716125 0.353835
O O7 0.079345 0.658991 0.649685
O O8 0.119559 0.500000 0.053610
O O9 0.123986 0.391879 0.044415
O O10 0.187442 0.443226 0.162532
O O11 0.690557 0.243054 0.273748
O O12 0.972220 0.296553 0.136839
O O13 0.258667 0.689527 0.035182
O O14 0.220810 0.639034 0.241319
O O15 0.500000 0.696958 0.000000
O O16 0.500000 0.427400 0.000000
#
# Coordination Sequence:
#
# PCOD9169481 Si02
#       7
#     8   8   8   8   8   8   8
#     4  10  17  27  43  61  85 115 151 185 216 262
#     4   8  16  30  43  64  85 114 146 188 224 253
#     4   9  17  28  41  60  87 116 150 181 214 262
#     4   9  16  31  46  61  90 115 146 195 220 261
#     4  10  19  29  44  65  90 123 154 179 220 272
#     4   8  17  29  44  67  84 119 148 184 227 253
#     4  10  19  28  38  60  92 124 149 177 213 263
#
# _framework density 24.532854
#
# number of rings (size 3 to 8) (size 9 to 14) (size 15 to 20)
#    0.857    2.000    1.429    0.857    0.000    3.429 
#    0.000    0.000    0.000    0.000    0.000    0.000 
#    0.000    5.714    0.000    0.000    0.000    0.143 
#
# Total GULP energy -155989.241577 kJ/mol
# GULP energy per Si atom -5571.044342 kJ/mol
# Density = 2.447702 g / cm^3
# Si number density = 24.532854 Si / 1000 Ang^3
#
#
#
# Elastic Constant Matrix: (Units=GPa)
#
#
# Indices 1 2 3 4 5 6 
#
# 1 33.5359 49.6746 2.2386 0.0000 -1.1815 0.0001
# 2 49.6746 239.5799 3.8392 0.0000 5.9117 0.0000
# 3 2.2386 3.8392 33.0398 -0.0001 -6.6102 0.0001
# 4 0.0000 0.0000 -0.0001 6.7070 0.0000 1.7595
# 5 -1.1815 5.9117 -6.6102 0.0000 26.9415 0.0000
# 6 0.0001 0.0000 0.0001 1.7595 0.0000 9.5965
#
#
#
# Elastic Compliance Matrix: (Units=1/GPa)
#
#
# Indices 1 2 3 4 5 6 
#
# 1 0.043483 -0.009086 -0.001167 0.000000 0.003614 0.000000
# 2 -0.009086 0.006111 -0.000465 0.000000 -0.001854 0.000000
# 3 -0.001167 -0.000465 0.031980 0.000000 0.007897 0.000000
# 4 0.000000 0.000000 0.000000 0.156631 0.000000 -0.028718
# 5 0.003614 -0.001854 0.007897 0.000000 0.039620 0.000000
# 6 0.000000 0.000000 0.000000 -0.028718 0.000000 0.109470
#
#
# Mechanical properties :
#
#
# Convention : Reuss Voigt Hill
#
# Bulk Modulus (GPa) = 16.62896 46.40670 31.51783
# Shear Modulus (GPa) = 11.66104 25.34256 18.50180
#
# Velocity S-wave (km/s) = 2.18256 3.21753 2.74918
# Velocity P-wave (km/s) = 3.62552 5.72368 4.79087
#
# Compressibility (1/GPa) = 0.06013607
#
# Stress axis : x y z
#
# Youngs Moduli (GPa) = 22.99758 163.63631 31.26989
#
# Poissons Ratio (x) = 1.48684 0.03650
# Poissons Ratio (y) = 0.20896 0.01455
# Poissons Ratio (z) = 0.02684 0.07614
#
# Static dielectric constant tensor:
#      x y z
#    x 1.942940 0.000000 0.002770 
#    y 0.000000 2.037720 0.000000 
#    z 0.002770 0.000000 2.088130 
# 
# From -- ./inp_files/279315.got.cif
#   From: 2010.05.17/outbox.cif.g08.bks.cpg/sg12_140_cif.got.tgz:279315.got - 2010.06.03 13:09:07.
