data_PCOD9169992
_publ_section_title
;
Structure prediction by ZEFSAII (Michael W. Deem and Ramdas Pophale) SiO2 
 PCOD9169992
Probable space group: C 2/M
;
_chemical_formula_sum "Si O2"
_cell_formula_units_Z 48
_cell_length_a 18.362158
_cell_length_b 11.423643
_cell_length_c 9.501114
_cell_angle_alpha 90.000000
_cell_angle_beta 89.531377
_cell_angle_gamma 90.000000
_cell_volume 1992.913023
_symmetry_space_group_name_H-M "C 2/M"
_symmetry_group_IT_number 12
_symmetry_cell_setting 'monoclinic'
loop_
_space_group_symop_operation_xyz
x,y,z
-x,y,-z
-x,-y,-z
x,-y,z
1/2+x,1/2+y,z
1/2-x,1/2+y,-z
1/2-x,1/2-y,-z
1/2+x,1/2-y,z
loop_
_atom_site_type_symbol
_atom_site_label
_atom_site_fract_x
_atom_site_fract_y
_atom_site_fract_z
Si Si1 0.053970 0.636128 0.863730
Si Si2 0.572974 0.500000 0.319841
Si Si3 0.709280 0.699621 0.722227
Si Si4 0.663045 0.866453 0.500543
Si Si5 0.398337 0.500000 0.354716
Si Si6 0.070185 0.741382 0.284950
Si Si7 0.323421 0.137380 0.937489
O O1 0.059162 0.500000 0.821708
O O2 0.013115 0.711404 0.746699
O O3 0.130734 0.677708 0.926680
O O4 0.000000 0.641457 0.000000
O O5 0.485056 0.500000 0.332006
O O6 0.608834 0.500000 0.474700
O O7 0.590703 0.375501 0.248980
O O8 0.687731 0.822367 0.652301
O O9 0.768240 0.649247 0.605658
O O10 0.642303 0.610509 0.713065
O O11 0.753573 0.696263 0.867022
O O12 0.598467 0.785738 0.440247
O O13 0.639821 0.000000 0.501442
O O14 0.116788 0.654000 0.187440
O O15 0.307263 0.000000 0.957510
#
# Coordination Sequence:
#
# PCOD9169992 Si02
#       7
#     8   4   8   8   4   8   8
#     4   8  14  26  47  73 101 123 149 197 251 295
#     4  11  24  32  49  66  96 142 172 191 226 284
#     4  10  17  29  50  71  97 123 158 196 240 287
#     4  10  18  27  48  77  99 119 147 203 258 289
#     4  11  20  38  48  66  97 134 172 196 222 294
#     4  10  17  30  45  70 102 124 163 197 237 291
#     4   9  16  28  51  80 100 122 154 202 255 289
#
# _framework density 24.085348
#
# number of rings (size 3 to 8) (size 9 to 14) (size 15 to 20)
#    0.000    2.333    3.333    3.500    0.000    0.000 
#    0.000    3.750    0.000    5.000    0.000    0.000 
#    0.000    0.000    0.000    0.000    0.000    0.000 
#
# Total GULP energy -134101.408482 kJ/mol
# GULP energy per Si atom -5587.558687 kJ/mol
# Density = 2.403053 g / cm^3
# Si number density = 24.085348 Si / 1000 Ang^3
#
#
#
# Elastic Constant Matrix: (Units=GPa)
#
#
# Indices 1 2 3 4 5 6 
#
# 1 98.9797 25.1098 49.0346 0.0000 42.2619 0.0000
# 2 25.1098 103.1269 22.8137 0.0000 35.6238 0.0000
# 3 49.0346 22.8137 107.8143 0.0000 37.9863 0.0000
# 4 0.0000 0.0000 0.0000 14.9527 0.0000 29.9695
# 5 42.2619 35.6238 37.9863 0.0000 56.7104 0.0000
# 6 0.0000 0.0000 0.0000 29.9695 0.0000 22.8693
#
#
#
# Elastic Compliance Matrix: (Units=1/GPa)
#
#
# Indices 1 2 3 4 5 6 
#
# 1 0.016064 0.000234 -0.004039 0.000000 -0.009412 0.000000
# 2 0.000234 0.012389 0.000099 0.000000 -0.008023 0.000000
# 3 -0.004039 0.000099 0.013158 0.000000 -0.005866 0.000000
# 4 0.000000 0.000000 0.000000 -0.041116 0.000000 0.053881
# 5 -0.009412 -0.008023 -0.005866 0.000000 0.033616 0.000000
# 6 0.000000 0.000000 0.000000 0.053881 0.000000 -0.026883
#
#
# Mechanical properties :
#
#
# Convention : Reuss Voigt Hill
#
# Bulk Modulus (GPa) = 29.24157 55.98189 42.61173
# Shear Modulus (GPa) = 192.00701 33.10400 112.55551
#
# Velocity S-wave (km/s) = 8.93826 3.71137 6.84349
# Velocity P-wave (km/s) = 10.89452 6.45440 8.95404
#
# Compressibility (1/GPa) = 0.03419789
#
# Stress axis : x y z
#
# Youngs Moduli (GPa) = 62.25279 80.71360 75.99984
#
# Poissons Ratio (x) = -0.01886 0.30696
# Poissons Ratio (y) = -0.01454 -0.00751
# Poissons Ratio (z) = 0.25144 -0.00798
#
# Static dielectric constant tensor:
#      x y z
#    x 1.975560 0.000000 -0.012800 
#    y 0.000000 1.876410 0.000000 
#    z -0.012800 0.000000 1.937400 
# 
# From -- ./inp_files/173512.got.cif
#   From: 2010.05.17/outbox.cif.g08.bks.cpg/sg12_87_cif.got.tgz:173512.got - 2010.06.03 13:09:07.
