data_PCOD9169107
_publ_section_title
;
Structure prediction by ZEFSAII (Michael W. Deem and Ramdas Pophale) SiO2 
 PCOD9169107
Probable space group: C 2/M
;
_chemical_formula_sum "Si O2"
_cell_formula_units_Z 32
_cell_length_a 11.899156
_cell_length_b 18.132775
_cell_length_c 15.368074
_cell_angle_alpha 90.000000
_cell_angle_beta 29.354143
_cell_angle_gamma 90.000000
_cell_volume 1625.469318
_symmetry_space_group_name_H-M "C 2/M"
_symmetry_group_IT_number 12
_symmetry_cell_setting 'monoclinic'
loop_
_space_group_symop_operation_xyz
x,y,z
-x,y,-z
-x,-y,-z
x,-y,z
1/2+x,1/2+y,z
1/2-x,1/2+y,-z
1/2-x,1/2-y,-z
1/2+x,1/2-y,z
loop_
_atom_site_type_symbol
_atom_site_label
_atom_site_fract_x
_atom_site_fract_y
_atom_site_fract_z
Si Si1 0.252007 0.654840 0.193636
Si Si2 0.000000 0.759086 0.500000
Si Si3 0.160346 0.377175 0.649077
Si Si4 0.243270 0.000000 0.712540
Si Si5 0.928089 0.000000 0.358941
Si Si6 0.245131 0.500000 0.718002
O O1 0.283303 0.573321 0.213033
O O2 0.138793 0.707227 0.341308
O O3 0.076958 0.648455 0.231566
O O4 0.500000 0.683563 0.000000
O O5 0.827651 0.811274 0.562670
O O6 0.288343 0.429256 0.491028
O O7 0.128693 0.428139 0.756091
O O8 0.500000 0.000000 0.500000
O O9 0.077930 0.000000 0.740466
O O10 0.180717 0.000000 0.231971
O O11 0.500000 0.500000 0.500000
#
# Coordination Sequence:
#
# PCOD9169107 Si02
#       6
#     8   4   8   4   4   4
#     4  12  26  40  61  93 125 158 202 254 304 360
#     4  12  22  40  64  90 120 172 200 238 310 358
#     4  10  18  37  64  90 122 158 204 249 296 360
#     4  12  20  39  64  90 115 160 207 247 307 361
#     4  10  16  34  65  97 111 150 216 247 292 363
#     4   8  15  31  61  95 109 153 210 246 297 347
#
# _framework density 19.686623000000001
#
# number of rings (size 3 to 8) (size 9 to 14) (size 15 to 20)
#    0.000    1.500    7.500    1.875    0.000    1.000 
#    0.000    0.000    0.000    1.500    0.000    0.875 
#    0.000    0.000    0.000    0.000    0.000    0.000 
#
# Total GULP energy -89394.692195 kJ/mol
# GULP energy per Si atom -5587.168262 kJ/mol
# Density = 1.964181 g / cm^3
# Si number density = 19.686623 Si / 1000 Ang^3
#
#
#
# Elastic Constant Matrix: (Units=GPa)
#
#
# Indices 1 2 3 4 5 6 
#
# 1 178.5550 58.7261 59.7133 -0.0072 -25.7996 -0.0043
# 2 58.7261 116.1193 41.9156 0.0677 -13.4092 0.0327
# 3 59.7133 41.9156 87.3707 -0.1535 -19.2878 -0.1349
# 4 -0.0072 0.0677 -0.1535 -2.4213 0.1089 -9.2881
# 5 -25.7996 -13.4092 -19.2878 0.1089 16.1446 0.0874
# 6 -0.0043 0.0327 -0.1349 -9.2881 0.0874 -0.7931
#
#
#
# Elastic Compliance Matrix: (Units=1/GPa)
#
#
# Indices 1 2 3 4 5 6 
#
# 1 0.008519 -0.002313 -0.002895 0.000099 0.008233 0.000095
# 2 -0.002313 0.011203 -0.003471 0.000093 0.001461 0.000134
# 3 -0.002895 -0.003471 0.018243 -0.000131 0.014287 -0.000123
# 4 0.000099 0.000093 -0.000131 0.009409 0.000613 -0.110107
# 5 0.008233 0.001461 0.014287 0.000613 0.093371 0.000703
# 6 0.000095 0.000134 -0.000123 -0.110107 0.000703 0.028714
#
#
# Mechanical properties :
#
#
# Convention : Reuss Voigt Hill
#
# Bulk Modulus (GPa) = 48.52667 78.08391 63.30529
# Shear Modulus (GPa) = 25.81502 17.36537 21.59019
#
# Velocity S-wave (km/s) = 3.62511 2.97322 3.31523
# Velocity P-wave (km/s) = 6.49808 7.17888 6.84694
#
# Compressibility (1/GPa) = 0.02060722
#
# Stress axis : x y z
#
# Youngs Moduli (GPa) = 117.38645 89.26142 54.81620
#
# Poissons Ratio (x) = 0.20644 0.15869
# Poissons Ratio (y) = 0.27148 0.19027
# Poissons Ratio (z) = 0.33982 0.30984
#
# Static dielectric constant tensor:
#      x y z
#    x 1.735020 0.000000 0.004780 
#    y 0.000000 1.676460 0.000010 
#    z 0.004780 0.000010 1.687170 
# 
# From -- ./inp_files/131524.got.cif
#   From: 2010.05.17/outbox.cif.g08.bks.cpg/sg12_66_cif.got.tgz:131524.got - 2010.06.03 13:09:07.
