data_PCOD9169943
_publ_section_title
;
Structure prediction by ZEFSAII (Michael W. Deem and Ramdas Pophale) SiO2 
 PCOD9169943
Probable space group: C 2/M
;
_chemical_formula_sum "Si O2"
_cell_formula_units_Z 64
_cell_length_a 16.248043
_cell_length_b 26.838803
_cell_length_c 17.646690
_cell_angle_alpha 90.000000
_cell_angle_beta 155.231128
_cell_angle_gamma 90.000000
_cell_volume 3224.028074
_symmetry_space_group_name_H-M "C 2/M"
_symmetry_group_IT_number 12
_symmetry_cell_setting 'monoclinic'
loop_
_space_group_symop_operation_xyz
x,y,z
-x,y,-z
-x,-y,-z
x,-y,z
1/2+x,1/2+y,z
1/2-x,1/2+y,-z
1/2-x,1/2-y,-z
1/2+x,1/2-y,z
loop_
_atom_site_type_symbol
_atom_site_label
_atom_site_fract_x
_atom_site_fract_y
_atom_site_fract_z
Si Si1 0.214442 0.851564 0.199278
Si Si2 0.836027 0.288650 0.754078
Si Si3 0.942203 0.122419 0.531906
Si Si4 0.772325 0.200457 0.167171
Si Si5 0.061472 0.442376 0.640350
Si Si6 0.862096 0.697424 0.184015
Si Si7 0.087440 0.815777 0.246291
Si Si8 0.810350 0.378987 0.549137
O O1 0.245689 0.907692 0.197028
O O2 0.363847 0.820885 0.273184
O O3 0.213719 0.845220 0.287638
O O4 0.000000 0.831755 0.000000
O O5 0.687455 0.329852 0.601379
O O6 0.767224 0.275934 0.782338
O O7 0.840717 0.240704 0.704352
O O8 0.059972 0.306455 0.951757
O O9 0.802694 0.095178 0.475593
O O10 0.000000 0.097628 0.500000
O O11 0.125515 0.148145 0.728188
O O12 0.880583 0.242752 0.206596
O O13 0.092071 0.500000 0.684266
O O14 0.910572 0.417301 0.573985
O O15 0.000000 0.439082 0.500000
O O16 0.026035 0.661399 0.286375
O O17 0.646291 0.684860 0.968805
O O18 0.148860 0.844443 0.372458
#
# Coordination Sequence:
#
# PCOD9169943 Si02
#       8
#     8   8   8   8   8   8   8   8
#     4   9  16  29  48  75 105 139 166 192 229 296
#     4   9  17  29  48  69 100 135 174 214 243 280
#     4  10  22  36  48  67  93 133 180 216 251 287
#     4   9  16  30  47  69  97 136 174 211 248 281
#     4  10  20  35  55  79 103 127 155 196 257 319
#     4   9  18  28  47  73 102 134 172 200 238 293
#     4  10  17  29  48  73 103 138 169 199 238 290
#     4  11  22  34  51  71  99 131 164 211 257 296
#
# _framework density 19.850943000000001
#
# number of rings (size 3 to 8) (size 9 to 14) (size 15 to 20)
#    0.000    2.375    2.500    0.750    0.000    3.250 
#    0.000    2.500    0.000    0.375    0.000    0.000 
#    0.000    0.000    0.000   13.250    0.000    0.000 
#
# Total GULP energy -178352.742869 kJ/mol
# GULP energy per Si atom -5573.523215 kJ/mol
# Density = 1.980576 g / cm^3
# Si number density = 19.850943 Si / 1000 Ang^3
#
#
#
# Elastic Constant Matrix: (Units=GPa)
#
#
# Indices 1 2 3 4 5 6 
#
# 1 121.1783 8.2179 5.3544 -0.0001 11.3336 0.0001
# 2 8.2179 40.1721 3.7701 -0.0001 -0.3099 0.0000
# 3 5.3544 3.7701 42.8966 -0.0003 -1.1659 0.0002
# 4 -0.0001 -0.0001 -0.0003 12.7072 -0.0002 1.3028
# 5 11.3336 -0.3099 -1.1659 -0.0002 20.7814 0.0001
# 6 0.0001 0.0000 0.0002 1.3028 0.0001 16.6475
#
#
#
# Elastic Compliance Matrix: (Units=1/GPa)
#
#
# Indices 1 2 3 4 5 6 
#
# 1 0.008880 -0.001753 -0.001088 0.000000 -0.004930 0.000000
# 2 -0.001753 0.025447 -0.001984 0.000000 0.001224 0.000000
# 3 -0.001088 -0.001984 0.023674 0.000001 0.001892 0.000000
# 4 0.000000 0.000000 0.000001 0.079332 0.000001 -0.006208
# 5 -0.004930 0.001224 0.001892 0.000001 0.050933 0.000000
# 6 0.000000 0.000000 0.000000 -0.006208 0.000000 0.060555
#
#
# Mechanical properties :
#
#
# Convention : Reuss Voigt Hill
#
# Bulk Modulus (GPa) = 20.68244 26.54797 23.61520
# Shear Modulus (GPa) = 18.20906 22.48755 20.34830
#
# Velocity S-wave (km/s) = 3.03196 3.36939 3.20512
# Velocity P-wave (km/s) = 4.76430 5.34226 5.06154
#
# Compressibility (1/GPa) = 0.04835020
#
# Stress axis : x y z
#
# Youngs Moduli (GPa) = 112.60798 39.29719 42.24124
#
# Poissons Ratio (x) = 0.06887 0.04598
# Poissons Ratio (y) = 0.19735 0.08383
# Poissons Ratio (z) = 0.12257 0.07798
#
# Static dielectric constant tensor:
#      x y z
#    x 1.858910 0.000000 0.004340 
#    y 0.000000 1.652140 0.000000 
#    z 0.004340 0.000000 1.717670 
# 
# From -- ./inp_files/273213.got.cif
#   From: 2010.05.17/outbox.cif.g08.bks.cpg/sg12_137_cif.got.tgz:273213.got - 2010.06.03 13:09:07.
