data_PCOD9169650
_publ_section_title
;
Structure prediction by ZEFSAII (Michael W. Deem and Ramdas Pophale) SiO2 
 PCOD9169650
Probable space group: C 2/M
;
_chemical_formula_sum "Si O2"
_cell_formula_units_Z 64
_cell_length_a 20.642300
_cell_length_b 14.757121
_cell_length_c 18.873004
_cell_angle_alpha 90.000000
_cell_angle_beta 29.577702
_cell_angle_gamma 90.000000
_cell_volume 2837.781398
_symmetry_space_group_name_H-M "C 2/M"
_symmetry_group_IT_number 12
_symmetry_cell_setting 'monoclinic'
loop_
_space_group_symop_operation_xyz
x,y,z
-x,y,-z
-x,-y,-z
x,-y,z
1/2+x,1/2+y,z
1/2-x,1/2+y,-z
1/2-x,1/2-y,-z
1/2+x,1/2-y,z
loop_
_atom_site_type_symbol
_atom_site_label
_atom_site_fract_x
_atom_site_fract_y
_atom_site_fract_z
Si Si1 0.845130 0.102161 0.595589
Si Si2 0.947407 0.889978 0.973625
Si Si3 0.365432 0.110216 0.090653
Si Si4 0.333265 0.108260 0.814186
Si Si5 0.920308 0.269076 0.458293
Si Si6 0.779432 0.651502 0.430245
Si Si7 0.206547 0.102143 0.655944
Si Si8 0.572704 0.891645 0.124765
O O1 0.757366 0.135623 0.744290
O O2 0.949232 0.178428 0.474236
O O3 0.753343 0.100139 0.612714
O O4 0.890610 0.000000 0.562842
O O5 0.059298 0.865016 0.810456
O O6 0.940625 0.000000 0.980276
O O7 0.801577 0.860894 0.093098
O O8 0.000000 0.860646 0.000000
O O9 0.364581 0.000000 0.092349
O O10 0.500000 0.139780 0.000000
O O11 0.369290 0.138453 0.005359
O O12 0.455438 0.169627 0.674711
O O13 0.328063 0.118565 0.904280
O O14 0.356750 0.000000 0.777817
O O15 0.830031 0.231778 0.477818
O O16 0.810253 0.334160 0.597196
O O17 0.741407 0.601779 0.539270
O O18 0.936705 0.657840 0.273243
O O19 0.218341 0.000000 0.672010
O O20 0.542449 0.000000 0.149142
#
# Coordination Sequence:
#
# PCOD9169650 Si02
#       8
#     8   8   8   8   8   8   8   8
#     4   9  18  30  49  83 131 178 224 269 308 367
#     4   9  21  43  68  92 124 168 216 267 338 413
#     4   9  14  24  43  77 124 175 219 262 314 374
#     4  10  20  37  62  97 135 168 209 276 336 392
#     4  10  21  32  57  92 129 173 219 266 322 383
#     4  10  19  30  51  86 128 170 219 261 306 377
#     4  11  20  35  60  92 126 168 217 266 331 401
#     4  10  17  27  52  88 131 173 216 267 326 384
#
# _framework density 22.552831000000001
#
# number of rings (size 3 to 8) (size 9 to 14) (size 15 to 20)
#    0.750    1.500    2.500    1.875    0.000    0.000 
#    0.000    3.125    0.000    3.000    6.500    1.750 
#    0.000    8.500    0.000    0.000    0.000    0.000 
#
# Total GULP energy -178412.891975 kJ/mol
# GULP energy per Si atom -5575.402874 kJ/mol
# Density = 2.250150 g / cm^3
# Si number density = 22.552831 Si / 1000 Ang^3
#
#
#
# Elastic Constant Matrix: (Units=GPa)
#
#
# Indices 1 2 3 4 5 6 
#
# 1 121.0413 22.0818 64.0657 0.0000 -14.2507 0.0001
# 2 22.0818 96.7494 51.3243 -0.0002 -1.1241 0.0004
# 3 64.0657 51.3243 122.4232 -0.0003 6.4611 0.0006
# 4 0.0000 -0.0002 -0.0003 8.8499 0.0002 10.0712
# 5 -14.2507 -1.1241 6.4611 0.0002 30.6423 -0.0003
# 6 0.0001 0.0004 0.0006 10.0712 -0.0003 -64.2545
#
#
#
# Elastic Compliance Matrix: (Units=1/GPa)
#
#
# Indices 1 2 3 4 5 6 
#
# 1 0.013055 0.001224 -0.007754 0.000000 0.007751 0.000000
# 2 0.001224 0.013493 -0.006425 0.000000 0.002419 0.000000
# 3 -0.007754 -0.006425 0.015293 0.000000 -0.007066 0.000000
# 4 0.000000 0.000000 0.000000 0.095891 -0.000001 0.015030
# 5 0.007751 0.002419 -0.007066 -0.000001 0.037818 0.000000
# 6 0.000000 0.000000 0.000000 0.015030 0.000000 -0.013207
#
#
# Mechanical properties :
#
#
# Convention : Reuss Voigt Hill
#
# Bulk Modulus (GPa) = 62.77230 68.35085 65.56158
# Shear Modulus (GPa) = 25.83131 8.56370 17.19750
#
# Velocity S-wave (km/s) = 3.38800 1.95075 2.76441
# Velocity P-wave (km/s) = 6.57256 5.95371 6.27078
#
# Compressibility (1/GPa) = 0.01593059
#
# Stress axis : x y z
#
# Youngs Moduli (GPa) = 76.59827 74.11197 65.39062
#
# Poissons Ratio (x) = -0.09070 0.50705
# Poissons Ratio (y) = -0.09374 0.42013
# Poissons Ratio (z) = 0.59395 0.47616
#
# Static dielectric constant tensor:
#      x y z
#    x 1.871160 0.000000 0.031060 
#    y 0.000000 1.984160 0.000000 
#    z 0.031060 0.000000 1.800110 
# 
# From -- ./inp_files/285186.got.cif
#   From: 2010.05.17/outbox.cif.g08.bks.cpg/sg12_143_cif.got.tgz:285186.got - 2010.06.03 13:09:07.
