data_PCOD9169083
_publ_section_title
;
Structure prediction by ZEFSAII (Michael W. Deem and Ramdas Pophale) SiO2 
 PCOD9169083
Probable space group: C 2/M
;
_chemical_formula_sum "Si O2"
_cell_formula_units_Z 38
_cell_length_a 8.388355
_cell_length_b 23.108192
_cell_length_c 14.493720
_cell_angle_alpha 90.000000
_cell_angle_beta 140.915391
_cell_angle_gamma 90.000000
_cell_volume 1771.271833
_symmetry_space_group_name_H-M "C 2/M"
_symmetry_group_IT_number 12
_symmetry_cell_setting 'monoclinic'
loop_
_space_group_symop_operation_xyz
x,y,z
-x,y,-z
-x,-y,-z
x,-y,z
1/2+x,1/2+y,z
1/2-x,1/2+y,-z
1/2-x,1/2-y,-z
1/2+x,1/2-y,z
loop_
_atom_site_type_symbol
_atom_site_label
_atom_site_fract_x
_atom_site_fract_y
_atom_site_fract_z
Si Si1 0.500000 0.199311 0.500000
Si Si2 0.170173 0.671626 0.932585
Si Si3 0.324466 0.270762 0.811128
Si Si4 0.195537 0.098389 0.452835
Si Si5 0.637020 0.930928 0.266068
Si Si6 0.000000 0.500000 0.500000
O O1 0.360297 0.233722 0.357615
O O2 0.293354 0.159030 0.458291
O O3 0.194404 0.702704 0.842883
O O4 0.951355 0.708611 0.882143
O O5 0.088805 0.606054 0.879894
O O6 0.439828 0.684928 0.100079
O O7 0.338505 0.083036 0.613622
O O8 0.286999 0.050419 0.422321
O O9 0.899998 0.091584 0.340818
O O10 0.615310 0.000000 0.245625
#
# Coordination Sequence:
#
# PCOD9169083 Si02
#       6
#     4   8   8   8   8   2
#     4  11  22  37  64  96 121 158 215 266 296 380
#     4  10  23  43  65  89 128 168 203 257 322 373
#     4  10  23  43  63  92 124 166 208 259 319 367
#     4  10  20  33  59  91 129 163 206 251 314 363
#     4  11  20  39  62  91 125 169 205 257 308 383
#     4  10  16  34  52  88 132 172 200 242 314 366
#
# _framework density 21.453510999999999
#
# number of rings (size 3 to 8) (size 9 to 14) (size 15 to 20)
#    0.000    1.684    4.211    0.632    2.947    2.526 
#    0.000    2.105    9.263    1.263    0.000    0.000 
#    0.000    0.000    0.000    0.000    0.000    0.000 
#
# Total GULP energy -105905.794821 kJ/mol
# GULP energy per Si atom -5573.989201 kJ/mol
# Density = 2.140468 g / cm^3
# Si number density = 21.453511 Si / 1000 Ang^3
#
#
#
# Elastic Constant Matrix: (Units=GPa)
#
#
# Indices 1 2 3 4 5 6 
#
# 1 68.5289 27.5434 11.8794 0.0000 -5.0721 0.0000
# 2 27.5434 69.5517 15.4846 0.0000 2.0669 0.0000
# 3 11.8794 15.4846 100.4651 0.0000 -9.9875 0.0000
# 4 0.0000 0.0000 0.0000 13.1582 0.0000 -2.4298
# 5 -5.0721 2.0669 -9.9875 0.0000 5.9373 0.0000
# 6 0.0000 0.0000 0.0000 -2.4298 0.0000 31.1701
#
#
#
# Elastic Compliance Matrix: (Units=1/GPa)
#
#
# Indices 1 2 3 4 5 6 
#
# 1 0.019443 -0.008602 0.001172 0.000000 0.021575 0.000000
# 2 -0.008602 0.019301 -0.004030 0.000000 -0.020847 0.000000
# 3 0.001172 -0.004030 0.012819 0.000000 0.023967 0.000000
# 4 0.000000 0.000000 0.000000 0.077108 0.000000 0.006011
# 5 0.021575 -0.020847 0.023967 0.000000 0.234432 0.000000
# 6 0.000000 0.000000 0.000000 0.006011 0.000000 0.032551
#
#
# Mechanical properties :
#
#
# Convention : Reuss Voigt Hill
#
# Bulk Modulus (GPa) = 34.91304 38.70672 36.80988
# Shear Modulus (GPa) = 11.67889 22.29567 16.98728
#
# Velocity S-wave (km/s) = 2.33573 3.22725 2.81698
# Velocity P-wave (km/s) = 4.85627 5.65404 5.27027
#
# Compressibility (1/GPa) = 0.02864260
#
# Stress axis : x y z
#
# Youngs Moduli (GPa) = 51.43121 51.81087 78.00922
#
# Poissons Ratio (x) = 0.44567 -0.09139
# Poissons Ratio (y) = 0.44240 0.31439
# Poissons Ratio (z) = -0.06026 0.20880
#
# Static dielectric constant tensor:
#      x y z
#    x 1.843670 0.000000 -0.011260 
#    y 0.000000 1.733680 0.000000 
#    z -0.011260 0.000000 1.795530 
# 
# From -- ./inp_files/198699.got.cif
#   From: 2010.05.17/outbox.cif.g08.bks.cpg/sg12_100_cif.got.tgz:198699.got - 2010.06.03 13:09:07.
