data_PCOD9169964
_publ_section_title
;
Structure prediction by ZEFSAII (Michael W. Deem and Ramdas Pophale) SiO2 
 PCOD9169964
Probable space group: C 2/M
;
_chemical_formula_sum "Si O2"
_cell_formula_units_Z 56
_cell_length_a 29.444496
_cell_length_b 14.048764
_cell_length_c 12.179003
_cell_angle_alpha 90.000000
_cell_angle_beta 142.801673
_cell_angle_gamma 90.000000
_cell_volume 3045.823823
_symmetry_space_group_name_H-M "C 2/M"
_symmetry_group_IT_number 12
_symmetry_cell_setting 'monoclinic'
loop_
_space_group_symop_operation_xyz
x,y,z
-x,y,-z
-x,-y,-z
x,-y,z
1/2+x,1/2+y,z
1/2-x,1/2+y,-z
1/2-x,1/2-y,-z
1/2+x,1/2-y,z
loop_
_atom_site_type_symbol
_atom_site_label
_atom_site_fract_x
_atom_site_fract_y
_atom_site_fract_z
Si Si1 0.267066 0.607455 0.815375
Si Si2 0.636634 0.609055 0.372844
Si Si3 0.207102 0.779485 0.806859
Si Si4 0.001484 0.887086 0.262260
Si Si5 0.399339 0.391432 0.257359
Si Si6 0.121609 0.790327 0.123957
Si Si7 0.294431 0.890122 0.791045
O O1 0.240500 0.500000 0.752123
O O2 0.204471 0.683633 0.729843
O O3 0.308847 0.646359 0.788357
O O4 0.332500 0.608259 0.035617
O O5 0.620898 0.500000 0.304087
O O6 0.586465 0.623644 0.385159
O O7 0.615244 0.684435 0.239002
O O8 0.723524 0.615646 0.572073
O O9 0.131247 0.826062 0.704772
O O10 0.259478 0.851758 0.838512
O O11 0.250000 0.750000 0.000000
O O12 0.972466 0.862467 0.328324
O O13 0.982897 0.000000 0.215250
O O14 0.950822 0.827542 0.080314
O O15 0.407420 0.500000 0.312895
O O16 0.142959 0.683105 0.131353
O O17 0.317846 0.000000 0.845286
#
# Coordination Sequence:
#
# PCOD9169964 Si02
#       7
#     8   8   8   8   8   8   8
#     4   8  14  23  38  64  89 107 142 195 235 266
#     4  10  19  31  48  72 102 130 155 194 248 292
#     4   9  16  27  44  63  88 122 158 192 234 285
#     4   9  17  29  48  74  97 121 160 202 237 281
#     4   8  13  23  39  59  85 113 143 184 229 273
#     4  10  17  29  49  70  95 128 165 196 230 279
#     4  10  21  33  46  71 103 129 157 196 243 291
#
# _framework density 18.385829999999999
#
# number of rings (size 3 to 8) (size 9 to 14) (size 15 to 20)
#    0.000    2.857    0.000    4.286    0.000    1.714 
#    0.000    0.714    0.000    5.143    0.000    0.000 
#    0.000    5.714    0.000    0.000    0.000    0.000 
#
# Total GULP energy -156116.990385 kJ/mol
# GULP energy per Si atom -5575.606799 kJ/mol
# Density = 1.834398 g / cm^3
# Si number density = 18.385830 Si / 1000 Ang^3
#
#
#
# Elastic Constant Matrix: (Units=GPa)
#
#
# Indices 1 2 3 4 5 6 
#
# 1 89.9605 45.0512 10.7129 0.0000 -3.5884 0.0000
# 2 45.0512 100.8007 13.2398 0.0000 -5.9854 0.0000
# 3 10.7129 13.2398 36.4173 0.0000 -2.0041 0.0000
# 4 0.0000 0.0000 0.0000 10.7848 0.0000 1.6132
# 5 -3.5884 -5.9854 -2.0041 0.0000 21.8295 0.0000
# 6 0.0000 0.0000 0.0000 1.6132 0.0000 28.0978
#
#
#
# Elastic Compliance Matrix: (Units=1/GPa)
#
#
# Indices 1 2 3 4 5 6 
#
# 1 0.014464 -0.006174 -0.001983 0.000000 0.000503 0.000000
# 2 -0.006174 0.013194 -0.002852 0.000000 0.002341 0.000000
# 3 -0.001983 -0.002852 0.029166 0.000000 0.001570 0.000000
# 4 0.000000 0.000000 0.000000 0.093526 0.000000 -0.005370
# 5 0.000503 0.002341 0.001570 0.000000 0.046678 0.000000
# 6 0.000000 0.000000 0.000000 -0.005370 0.000000 0.035898
#
#
# Mechanical properties :
#
#
# Convention : Reuss Voigt Hill
#
# Bulk Modulus (GPa) = 28.73004 40.57628 34.65316
# Shear Modulus (GPa) = 18.75856 22.68739 20.72298
#
# Velocity S-wave (km/s) = 3.19764 3.51659 3.36090
# Velocity P-wave (km/s) = 5.41233 6.21335 5.82662
#
# Compressibility (1/GPa) = 0.03480678
#
# Stress axis : x y z
#
# Youngs Moduli (GPa) = 69.13655 75.79447 34.28678
#
# Poissons Ratio (x) = 0.46797 0.06798
# Poissons Ratio (y) = 0.42687 0.09777
# Poissons Ratio (z) = 0.13707 0.21613
#
# Static dielectric constant tensor:
#      x y z
#    x 1.660470 0.000000 -0.006520 
#    y 0.000000 1.636520 0.000000 
#    z -0.006520 0.000000 1.653820 
# 
# From -- ./inp_files/189224.got.cif
#   From: 2010.05.17/outbox.cif.g08.bks.cpg/sg12_95_cif.got.tgz:189224.got - 2010.06.03 13:09:07.
