data_PCOD9169517
_publ_section_title
;
Structure prediction by ZEFSAII (Michael W. Deem and Ramdas Pophale) SiO2 
 PCOD9169517
Probable space group: C 2/M
;
_chemical_formula_sum "Si O2"
_cell_formula_units_Z 64
_cell_length_a 19.997792
_cell_length_b 8.711850
_cell_length_c 24.377311
_cell_angle_alpha 90.000000
_cell_angle_beta 60.048959
_cell_angle_gamma 90.000000
_cell_volume 3679.788948
_symmetry_space_group_name_H-M "C 2/M"
_symmetry_group_IT_number 12
_symmetry_cell_setting 'monoclinic'
loop_
_space_group_symop_operation_xyz
x,y,z
-x,y,-z
-x,-y,-z
x,-y,z
1/2+x,1/2+y,z
1/2-x,1/2+y,-z
1/2-x,1/2-y,-z
1/2+x,1/2-y,z
loop_
_atom_site_type_symbol
_atom_site_label
_atom_site_fract_x
_atom_site_fract_y
_atom_site_fract_z
Si Si1 0.552918 0.185798 0.427365
Si Si2 0.682135 0.816941 0.892707
Si Si3 0.181333 0.316084 0.225851
Si Si4 0.785514 0.815533 0.667820
Si Si5 0.065784 0.179301 0.020296
Si Si6 0.510389 0.813666 0.322774
Si Si7 0.445633 0.815240 0.146402
Si Si8 0.884668 0.312699 0.290027
O O1 0.500000 0.232411 0.500000
O O2 0.639068 0.252342 0.393457
O O3 0.517131 0.234901 0.383351
O O4 0.558101 0.000000 0.424952
O O5 0.764340 0.744713 0.844561
O O6 0.623579 0.771131 0.867006
O O7 0.687852 0.000000 0.890261
O O8 0.641053 0.760993 0.965044
O O9 0.185990 0.500000 0.226702
O O10 0.211061 0.246982 0.271345
O O11 0.091011 0.272263 0.260134
O O12 0.704673 0.766253 0.674055
O O13 0.787867 0.000000 0.668877
O O14 0.025306 0.249265 0.090304
O O15 0.080800 0.000000 0.021377
O O16 0.000000 0.197462 0.000000
O O17 0.436681 0.758314 0.319222
O O18 0.507442 0.000000 0.324549
O O19 0.423469 0.765748 0.216548
O O20 0.450214 0.000000 0.143376
O O21 0.885244 0.500000 0.290201
#
# Coordination Sequence:
#
# PCOD9169517 Si02
#       8
#     8   8   8   8   8   8   8   8
#     4   9  18  34  54  75 100 131 163 194 233 280
#     4  10  17  27  44  67  93 123 161 204 246 287
#     4  10  18  29  47  71  97 127 162 201 244 286
#     4  10  18  30  50  75  98 124 160 200 238 280
#     4   9  17  27  39  62  93 124 157 198 246 292
#     4   8  16  30  49  71  95 127 162 195 233 284
#     4   9  16  27  43  64  90 122 157 195 242 290
#     4   9  16  29  48  71  97 125 161 198 238 287
#
# _framework density 17.392301
#
# number of rings (size 3 to 8) (size 9 to 14) (size 15 to 20)
#    0.000    2.750    1.250    2.250    0.000    2.250 
#    0.000    0.625    0.000   12.000    0.000    0.000 
#    0.000    0.000    0.000    0.000    0.000    0.000 
#
# Total GULP energy -178331.084123 kJ/mol
# GULP energy per Si atom -5572.846379 kJ/mol
# Density = 1.735272 g / cm^3
# Si number density = 17.392301 Si / 1000 Ang^3
#
#
#
# Elastic Constant Matrix: (Units=GPa)
#
#
# Indices 1 2 3 4 5 6 
#
# 1 117.4325 19.6525 64.3616 0.0000 -13.7789 0.0002
# 2 19.6525 18.4809 27.6668 0.0000 -8.6813 0.0008
# 3 64.3616 27.6668 134.5048 0.0000 -27.6495 -0.0001
# 4 0.0000 0.0000 0.0000 24.8357 0.0000 -7.8275
# 5 -13.7789 -8.6813 -27.6495 0.0000 19.9477 0.0000
# 6 0.0002 0.0008 -0.0001 -7.8275 0.0000 15.0989
#
#
#
# Elastic Compliance Matrix: (Units=1/GPa)
#
#
# Indices 1 2 3 4 5 6 
#
# 1 0.011997 -0.006214 -0.004636 0.000000 -0.000843 0.000000
# 2 -0.006214 0.085444 -0.010965 -0.000002 0.017696 -0.000005
# 3 -0.004636 -0.010965 0.014361 0.000000 0.011932 0.000001
# 4 0.000000 -0.000002 0.000000 0.048128 0.000000 0.024951
# 5 -0.000843 0.017696 0.011932 0.000000 0.073789 -0.000001
# 6 0.000000 -0.000005 0.000001 0.024951 -0.000001 0.079165
#
#
# Mechanical properties :
#
#
# Convention : Reuss Voigt Hill
#
# Bulk Modulus (GPa) = 14.66821 54.86445 34.76633
# Shear Modulus (GPa) = 13.18434 22.55895 17.87164
#
# Velocity S-wave (km/s) = 2.75627 3.60539 3.20904
# Velocity P-wave (km/s) = 4.31061 6.99610 5.81063
#
# Compressibility (1/GPa) = 0.06817463
#
# Stress axis : x y z
#
# Youngs Moduli (GPa) = 83.35172 11.70352 69.63224
#
# Poissons Ratio (x) = 0.07272 0.32282
# Poissons Ratio (y) = 0.51791 0.76348
# Poissons Ratio (z) = 0.38642 0.12832
#
# Static dielectric constant tensor:
#      x y z
#    x 1.595200 0.000000 -0.005250 
#    y 0.000000 1.586270 0.000000 
#    z -0.005250 0.000000 1.585370 
# 
# From -- ./inp_files/345518.got.cif
#   From: 2010.05.17/outbox.cif.g08.bks.cpg/sg12_173_cif.got.tgz:345518.got - 2010.06.03 13:09:07.
