data_PCOD9169370
_publ_section_title
;
Structure prediction by ZEFSAII (Michael W. Deem and Ramdas Pophale) SiO2 
 PCOD9169370
Probable space group: C 2/M
;
_chemical_formula_sum "Si O2"
_cell_formula_units_Z 48
_cell_length_a 18.654730
_cell_length_b 8.230803
_cell_length_c 21.575306
_cell_angle_alpha 90.000000
_cell_angle_beta 49.182918
_cell_angle_gamma 90.000000
_cell_volume 2507.086882
_symmetry_space_group_name_H-M "C 2/M"
_symmetry_group_IT_number 12
_symmetry_cell_setting 'monoclinic'
loop_
_space_group_symop_operation_xyz
x,y,z
-x,y,-z
-x,-y,-z
x,-y,z
1/2+x,1/2+y,z
1/2-x,1/2+y,-z
1/2-x,1/2-y,-z
1/2+x,1/2-y,z
loop_
_atom_site_type_symbol
_atom_site_label
_atom_site_fract_x
_atom_site_fract_y
_atom_site_fract_z
Si Si1 0.472429 0.688908 0.418482
Si Si2 0.353191 0.696396 0.919774
Si Si3 0.482610 0.303454 0.080157
Si Si4 0.862315 0.311861 0.588026
Si Si5 0.777786 0.694169 0.240903
Si Si6 0.387938 0.698472 0.760131
O O1 0.448455 0.500000 0.425940
O O2 0.387394 0.776146 0.502563
O O3 0.563347 0.707812 0.413050
O O4 0.515931 0.751717 0.329282
O O5 0.354940 0.500000 0.917770
O O6 0.432803 0.752585 0.923043
O O7 0.375985 0.753348 0.837196
O O8 0.250000 0.750000 0.000000
O O9 0.483067 0.500000 0.079396
O O10 0.381852 0.247526 0.162918
O O11 0.500000 0.246992 0.000000
O O12 0.882321 0.500000 0.589199
O O13 0.760316 0.267343 0.672931
O O14 0.773410 0.500000 0.247425
O O15 0.702565 0.748086 0.230285
O O16 0.389645 0.500000 0.758528
#
# Coordination Sequence:
#
# PCOD9169370 Si02
#       6
#     8   8   8   8   8   8
#     4   9  15  26  44  68  98 130 167 205 241 285
#     4  10  20  35  53  73  99 129 163 201 243 292
#     4  10  21  35  51  74 103 131 159 199 251 298
#     4  10  17  26  43  70 102 131 161 200 248 293
#     4  10  19  32  51  73  98 130 169 207 242 287
#     4   8  16  30  49  72  97 129 166 204 243 282
#
# _framework density 19.145726
#
# number of rings (size 3 to 8) (size 9 to 14) (size 15 to 20)
#    0.000    2.500    0.000    5.500    0.000    1.000 
#    0.000    4.167    0.000    1.000    0.000    0.000 
#    0.000    0.000    0.000    0.000    0.000    0.000 
#
# Total GULP energy -133823.516994 kJ/mol
# GULP energy per Si atom -5575.979875 kJ/mol
# Density = 1.910215 g / cm^3
# Si number density = 19.145726 Si / 1000 Ang^3
#
#
#
# Elastic Constant Matrix: (Units=GPa)
#
#
# Indices 1 2 3 4 5 6 
#
# 1 84.4583 13.5387 82.2742 0.0000 0.6719 0.0000
# 2 13.5387 21.5804 18.9107 0.0001 -0.1684 0.0000
# 3 82.2742 18.9107 234.2300 0.0000 1.1920 0.0000
# 4 0.0000 0.0001 0.0000 28.1276 0.0000 -6.8528
# 5 0.6719 -0.1684 1.1920 0.0000 26.2662 0.0000
# 6 0.0000 0.0000 0.0000 -6.8528 0.0000 -1.3559
#
#
#
# Elastic Compliance Matrix: (Units=1/GPa)
#
#
# Indices 1 2 3 4 5 6 
#
# 1 0.018803 -0.006469 -0.006081 0.000000 -0.000247 0.000000
# 2 -0.006469 0.052099 -0.001937 0.000000 0.000587 0.000000
# 3 -0.006081 -0.001937 0.006562 0.000000 -0.000155 0.000000
# 4 0.000000 0.000000 0.000000 0.015933 0.000000 -0.080528
# 5 -0.000247 0.000587 -0.000155 0.000000 0.038089 0.000000
# 6 0.000000 0.000000 0.000000 -0.080528 0.000000 -0.330533
#
#
# Mechanical properties :
#
#
# Convention : Reuss Voigt Hill
#
# Bulk Modulus (GPa) = 20.62291 63.30177 41.96234
# Shear Modulus (GPa) = -32.48677 25.64393 -3.42142
#
# Velocity S-wave (km/s) = -4.12371 3.66376 -1.33825
# Velocity P-wave (km/s) = 3.44650 7.14370 4.42459
#
# Compressibility (1/GPa) = 0.04848976
#
# Stress axis : x y z
#
# Youngs Moduli (GPa) = 53.18313 19.19427 152.38197
#
# Poissons Ratio (x) = 0.12418 0.92664
# Poissons Ratio (y) = 0.34406 0.29514
# Poissons Ratio (z) = 0.32341 0.03718
#
# Static dielectric constant tensor:
#      x y z
#    x 1.647050 0.000000 0.020560 
#    y 0.000000 1.661360 0.000000 
#    z 0.020560 0.000000 1.704340 
# 
# From -- ./inp_files/313626.got.cif
#   From: 2010.05.17/outbox.cif.g08.bks.cpg/sg12_157_cif.got.tgz:313626.got - 2010.06.03 13:09:07.
