data_PCOD9169711
_publ_section_title
;
Structure prediction by ZEFSAII (Michael W. Deem and Ramdas Pophale) SiO2 
 PCOD9169711
Probable space group: C 2/M
;
_chemical_formula_sum "Si O2"
_cell_formula_units_Z 64
_cell_length_a 19.600226
_cell_length_b 18.540906
_cell_length_c 23.603533
_cell_angle_alpha 90.000000
_cell_angle_beta 25.121707
_cell_angle_gamma 90.000000
_cell_volume 3641.582823
_symmetry_space_group_name_H-M "C 2/M"
_symmetry_group_IT_number 12
_symmetry_cell_setting 'monoclinic'
loop_
_space_group_symop_operation_xyz
x,y,z
-x,y,-z
-x,-y,-z
x,-y,z
1/2+x,1/2+y,z
1/2-x,1/2+y,-z
1/2-x,1/2-y,-z
1/2+x,1/2-y,z
loop_
_atom_site_type_symbol
_atom_site_label
_atom_site_fract_x
_atom_site_fract_y
_atom_site_fract_z
Si Si1 0.161306 0.893953 0.848642
Si Si2 0.266201 0.082436 0.977461
Si Si3 0.886417 0.917964 0.247553
Si Si4 0.178970 0.221599 0.644279
Si Si5 0.521214 0.751234 0.644615
Si Si6 0.059710 0.580835 0.275678
Si Si7 0.393376 0.219110 0.930757
Si Si8 0.160006 0.736789 0.900245
O O1 0.155196 0.911133 0.787364
O O2 0.313597 0.922199 0.768215
O O3 0.160819 0.808272 0.860910
O O4 0.000000 0.921255 0.000000
O O5 0.346867 0.088486 0.854627
O O6 0.355975 0.134448 0.953671
O O7 0.278822 0.000000 0.986123
O O8 0.076429 0.098803 0.113191
O O9 0.792063 0.858146 0.353485
O O10 0.856908 0.000000 0.287910
O O11 0.345242 0.260025 0.503852
O O12 0.081589 0.218525 0.658443
O O13 0.064098 0.261544 0.775333
O O14 0.517746 0.839122 0.657640
O O15 0.348764 0.717510 0.758476
O O16 0.979079 0.500000 0.334711
O O17 0.250000 0.250000 0.000000
O O18 0.373390 0.250477 0.008255
O O19 0.000000 0.694013 0.000000
#
# Coordination Sequence:
#
# PCOD9169711 Si02
#       8
#     8   8   8   8   8   8   8   8
#     4  10  17  28  45  73 106 140 176 211 249 303
#     4  10  19  30  50  78 106 132 176 230 265 303
#     4  11  21  31  47  77 110 143 178 216 265 316
#     4  11  21  34  54  74 104 141 177 224 270 312
#     4  10  21  36  51  76 104 140 176 222 272 316
#     4  10  18  30  47  71 102 137 174 212 254 310
#     4  12  18  34  57  79 104 138 184 225 263 313
#     4  10  20  33  55  79 104 135 183 221 262 314
#
# _framework density 17.574776
#
# number of rings (size 3 to 8) (size 9 to 14) (size 15 to 20)
#    0.000    1.500    5.000    2.625    0.000    1.000 
#    0.000    5.625    0.000    4.125    0.000    0.000 
#    0.000    1.000    0.000    0.000    0.000    0.000 
#
# Total GULP energy -178254.883948 kJ/mol
# GULP energy per Si atom -5570.465123 kJ/mol
# Density = 1.753477 g / cm^3
# Si number density = 17.574776 Si / 1000 Ang^3
#
#
#
# Elastic Constant Matrix: (Units=GPa)
#
#
# Indices 1 2 3 4 5 6 
#
# 1 66.3567 17.2744 20.2560 -0.0007 -6.1505 0.0003
# 2 17.2744 47.7371 -6.4570 -0.0042 9.4239 0.0026
# 3 20.2560 -6.4570 84.7569 -0.0096 -3.7058 0.0063
# 4 -0.0007 -0.0042 -0.0096 12.8337 0.0048 -0.8637
# 5 -6.1505 9.4239 -3.7058 0.0048 17.4493 -0.0022
# 6 0.0003 0.0026 0.0063 -0.8637 -0.0022 15.4578
#
#
#
# Elastic Compliance Matrix: (Units=1/GPa)
#
#
# Indices 1 2 3 4 5 6 
#
# 1 0.020446 -0.010414 -0.005167 -0.000010 0.011734 0.000004
# 2 -0.010414 0.028883 0.003883 0.000018 -0.018445 -0.000008
# 3 -0.005167 0.003883 0.013281 0.000011 -0.001098 -0.000005
# 4 -0.000010 0.000018 0.000011 0.078214 -0.000032 0.004370
# 5 0.011734 -0.018445 -0.001098 -0.000032 0.071173 0.000011
# 6 0.000004 -0.000008 -0.000005 0.004370 0.000011 0.064936
#
#
# Mechanical properties :
#
#
# Convention : Reuss Voigt Hill
#
# Bulk Modulus (GPa) = 25.50099 28.99975 27.25037
# Shear Modulus (GPa) = 15.95405 20.33333 18.14369
#
# Velocity S-wave (km/s) = 3.01621 3.40510 3.21654
# Velocity P-wave (km/s) = 5.16445 5.65652 5.41608
#
# Compressibility (1/GPa) = 0.03921416
#
# Stress axis : x y z
#
# Youngs Moduli (GPa) = 48.90979 34.62254 75.29533
#
# Poissons Ratio (x) = 0.36055 0.38903
# Poissons Ratio (y) = 0.50934 -0.29235
# Poissons Ratio (z) = 0.25270 -0.13443
#
# Static dielectric constant tensor:
#      x y z
#    x 1.584460 0.000000 -0.026550 
#    y 0.000000 1.666080 0.000000 
#    z -0.026550 0.000000 1.634710 
# 
# From -- ./inp_files/317361.got.cif
#   From: 2010.05.17/outbox.cif.g08.bks.cpg/sg12_159_cif.got.tgz:317361.got - 2010.06.03 13:09:07.
