data_PCOD9169223
_publ_section_title
;
Structure prediction by ZEFSAII (Michael W. Deem and Ramdas Pophale) SiO2 
 PCOD9169223
Probable space group: C 2/M
;
_chemical_formula_sum "Si O2"
_cell_formula_units_Z 64
_cell_length_a 24.668405
_cell_length_b 9.253847
_cell_length_c 19.042050
_cell_angle_alpha 90.000000
_cell_angle_beta 80.114292
_cell_angle_gamma 90.000000
_cell_volume 4282.332742
_symmetry_space_group_name_H-M "C 2/M"
_symmetry_group_IT_number 12
_symmetry_cell_setting 'monoclinic'
loop_
_space_group_symop_operation_xyz
x,y,z
-x,y,-z
-x,-y,-z
x,-y,z
1/2+x,1/2+y,z
1/2-x,1/2+y,-z
1/2-x,1/2-y,-z
1/2+x,1/2-y,z
loop_
_atom_site_type_symbol
_atom_site_label
_atom_site_fract_x
_atom_site_fract_y
_atom_site_fract_z
Si Si1 0.862600 0.166458 0.879878
Si Si2 0.481939 0.671999 0.617819
Si Si3 0.207845 0.328842 0.299657
Si Si4 0.589143 0.171112 0.256019
Si Si5 0.202834 0.672767 0.466091
Si Si6 0.088142 0.172803 0.507587
Si Si7 0.698550 0.326182 0.972755
Si Si8 0.259362 0.832173 0.164333
O O1 0.900933 0.265645 0.823759
O O2 0.801387 0.174209 0.858686
O O3 0.880503 0.000000 0.870681
O O4 0.852691 0.203676 0.963852
O O5 0.479699 0.500000 0.630617
O O6 0.459735 0.755261 0.690020
O O7 0.543123 0.708147 0.577272
O O8 0.441773 0.702115 0.560382
O O9 0.217058 0.500000 0.286162
O O10 0.145789 0.297412 0.286453
O O11 0.211475 0.297729 0.381173
O O12 0.249513 0.238719 0.242209
O O13 0.582198 0.000000 0.255188
O O14 0.203782 0.500000 0.475723
O O15 0.250000 0.750000 0.500000
O O16 0.143772 0.737994 0.499933
O O17 0.098882 0.000000 0.508078
O O18 0.706282 0.500000 0.968929
O O19 0.700070 0.258139 0.895041
O O20 0.750000 0.250000 0.000000
O O21 0.275051 0.000000 0.164454
#
# Coordination Sequence:
#
# PCOD9169223 Si02
#       8
#     8   8   8   8   8   8   8   8
#     4   8  15  24  33  49  74 106 139 168 204 249
#     4   9  17  29  46  65  87 112 141 177 219 263
#     4   9  18  30  41  57  81 107 140 178 215 256
#     4  10  17  25  39  60  83 109 141 178 216 251
#     4  11  22  35  49  66  87 114 146 184 226 266
#     4   9  18  32  48  66  85 111 143 178 219 264
#     4   9  15  23  34  49  71 101 137 172 207 246
#     4   9  16  24  37  54  72 100 136 173 212 249
#
# _framework density 14.945125000000001
#
# number of rings (size 3 to 8) (size 9 to 14) (size 15 to 20)
#    0.000    2.750    1.250    3.000    0.000    5.500 
#    0.000    1.250    0.000    0.000    0.000    0.000 
#    0.000    0.000    0.000    1.125    0.000   21.875 
#
# Total GULP energy -178184.885431 kJ/mol
# GULP energy per Si atom -5568.277670 kJ/mol
# Density = 1.491111 g / cm^3
# Si number density = 14.945125 Si / 1000 Ang^3
#
#
#
# Elastic Constant Matrix: (Units=GPa)
#
#
# Indices 1 2 3 4 5 6 
#
# 1 56.0901 43.5642 49.3570 0.0000 -13.3146 0.0000
# 2 43.5642 71.4502 74.2352 0.0000 -22.7783 0.0000
# 3 49.3570 74.2352 118.7632 0.0000 -38.0649 0.0000
# 4 0.0000 0.0000 0.0000 28.3604 0.0000 -7.2088
# 5 -13.3146 -22.7783 -38.0649 0.0000 20.6677 0.0000
# 6 0.0000 0.0000 0.0000 -7.2088 0.0000 17.4418
#
#
#
# Elastic Compliance Matrix: (Units=1/GPa)
#
#
# Indices 1 2 3 4 5 6 
#
# 1 0.034897 -0.017377 -0.006282 0.000000 -0.008241 0.000000
# 2 -0.017377 0.048771 -0.023489 0.000000 -0.000705 0.000000
# 3 -0.006282 -0.023489 0.039343 0.000000 0.042526 0.000000
# 4 0.000000 0.000000 0.000000 0.039400 0.000000 0.016284
# 5 -0.008241 -0.000705 0.042526 0.000000 0.120621 0.000000
# 6 0.000000 0.000000 0.000000 0.016284 0.000000 0.064064
#
#
# Mechanical properties :
#
#
# Convention : Reuss Voigt Hill
#
# Bulk Modulus (GPa) = 34.82639 64.51291 49.66965
# Shear Modulus (GPa) = 11.08732 18.57045 14.82889
#
# Velocity S-wave (km/s) = 2.72668 3.52884 3.15337
# Velocity P-wave (km/s) = 5.76771 7.73718 6.82387
#
# Compressibility (1/GPa) = 0.02871385
#
# Stress axis : x y z
#
# Youngs Moduli (GPa) = 28.65574 20.50384 25.41722
#
# Poissons Ratio (x) = 0.35630 0.15967
# Poissons Ratio (y) = 0.49796 0.59704
# Poissons Ratio (z) = 0.18002 0.48162
#
# Static dielectric constant tensor:
#      x y z
#    x 1.462200 0.000000 -0.016820 
#    y 0.000000 1.494500 0.000000 
#    z -0.016820 0.000000 1.516370 
# 
# From -- ./inp_files/287514.got.cif
#   From: 2010.05.17/outbox.cif.g08.bks.cpg/sg12_144_cif.got.tgz:287514.got - 2010.06.03 13:09:07.
