data_PCOD9169340
_publ_section_title
;
Structure prediction by ZEFSAII (Michael W. Deem and Ramdas Pophale) SiO2 
 PCOD9169340
Probable space group: C 2/M
;
_chemical_formula_sum "Si O2"
_cell_formula_units_Z 56
_cell_length_a 28.990086
_cell_length_b 9.065303
_cell_length_c 18.200846
_cell_angle_alpha 90.000000
_cell_angle_beta 128.669734
_cell_angle_gamma 90.000000
_cell_volume 3734.575811
_symmetry_space_group_name_H-M "C 2/M"
_symmetry_group_IT_number 12
_symmetry_cell_setting 'monoclinic'
loop_
_space_group_symop_operation_xyz
x,y,z
-x,y,-z
-x,-y,-z
x,-y,z
1/2+x,1/2+y,z
1/2-x,1/2+y,-z
1/2-x,1/2-y,-z
1/2+x,1/2-y,z
loop_
_atom_site_type_symbol
_atom_site_label
_atom_site_fract_x
_atom_site_fract_y
_atom_site_fract_z
Si Si1 0.685888 0.822110 0.430818
Si Si2 0.599415 0.678120 0.228630
Si Si3 0.930844 0.171256 0.407402
Si Si4 0.067783 0.830504 0.037907
Si Si5 0.964680 0.323777 0.297661
Si Si6 0.526508 0.176273 0.858695
Si Si7 0.598565 0.175969 0.476929
O O1 0.750000 0.750000 0.500000
O O2 0.649961 0.752051 0.327369
O O3 0.648154 0.787042 0.466735
O O4 0.688830 0.000000 0.426935
O O5 0.598753 0.500000 0.235404
O O6 0.604734 0.712358 0.146801
O O7 0.536601 0.743738 0.192846
O O8 0.927600 0.246734 0.324741
O O9 0.895613 0.247388 0.438461
O O10 0.000000 0.184931 0.500000
O O11 0.916169 0.000000 0.388019
O O12 0.081006 0.000000 0.031112
O O13 0.067973 0.729154 0.966533
O O14 0.000000 0.827750 0.000000
O O15 0.959790 0.500000 0.301673
O O16 0.949963 0.285841 0.199022
O O17 0.033978 0.284916 0.379516
O O18 0.517250 0.000000 0.852529
O O19 0.598645 0.000000 0.487764
#
# Coordination Sequence:
#
# PCOD9169340 Si02
#       7
#     8   8   8   8   8   8   8
#     4  11  22  35  49  67  87 114 154 191 227 264
#     4  10  19  31  45  60  85 118 149 185 226 263
#     4   9  17  26  39  62  84 108 145 180 214 258
#     4   8  16  28  40  59  85 115 147 178 219 265
#     4   9  16  27  41  60  87 118 147 175 214 262
#     4  10  17  26  42  65  89 117 151 182 215 262
#     4   9  17  31  45  57  82 116 146 179 220 263
#
# _framework density 14.995010000000001
#
# number of rings (size 3 to 8) (size 9 to 14) (size 15 to 20)
#    0.000    2.571    1.429    2.571    0.000    7.143 
#    0.000    0.000    0.000    0.000    0.000    0.000 
#    0.000    1.143    0.000    3.714    0.000    4.571 
#
# Total GULP energy -155967.362904 kJ/mol
# GULP energy per Si atom -5570.262961 kJ/mol
# Density = 1.496088 g / cm^3
# Si number density = 14.995010 Si / 1000 Ang^3
#
#
#
# Elastic Constant Matrix: (Units=GPa)
#
#
# Indices 1 2 3 4 5 6 
#
# 1 66.0014 42.9899 61.7845 0.0000 -21.4169 0.0000
# 2 42.9899 59.0425 59.1278 0.0000 -20.6236 0.0000
# 3 61.7845 59.1278 117.5284 0.0000 -32.0149 0.0000
# 4 0.0000 0.0000 0.0000 24.9217 0.0000 -2.3733
# 5 -21.4169 -20.6236 -32.0149 0.0000 28.3091 0.0000
# 6 0.0000 0.0000 0.0000 -2.3733 0.0000 7.6229
#
#
#
# Elastic Compliance Matrix: (Units=1/GPa)
#
#
# Indices 1 2 3 4 5 6 
#
# 1 0.035359 -0.013577 -0.010355 0.000000 0.005149 0.000000
# 2 -0.013577 0.040606 -0.011607 0.000000 0.006185 0.000000
# 3 -0.010355 -0.011607 0.022190 0.000000 0.008805 0.000000
# 4 0.000000 0.000000 0.000000 0.041352 0.000000 0.012874
# 5 0.005149 0.006185 0.008805 0.000000 0.053683 0.000000
# 6 0.000000 0.000000 0.000000 0.012874 0.000000 0.135192
#
#
# Mechanical properties :
#
#
# Convention : Reuss Voigt Hill
#
# Bulk Modulus (GPa) = 36.93071 63.37519 50.15295
# Shear Modulus (GPa) = 12.24037 17.41541 14.82789
#
# Velocity S-wave (km/s) = 2.86019 3.41165 3.14802
# Velocity P-wave (km/s) = 5.96571 7.60757 6.83611
#
# Compressibility (1/GPa) = 0.02707774
#
# Stress axis : x y z
#
# Youngs Moduli (GPa) = 28.28171 24.62671 45.06525
#
# Poissons Ratio (x) = 0.33435 0.46665
# Poissons Ratio (y) = 0.38398 0.52306
# Poissons Ratio (z) = 0.29286 0.28583
#
# Static dielectric constant tensor:
#      x y z
#    x 1.473060 0.000000 -0.023810 
#    y 0.000000 1.500700 0.000000 
#    z -0.023810 0.000000 1.512120 
# 
# From -- ./inp_files/291671.got.cif
#   From: 2010.05.17/outbox.cif.g08.bks.cpg/sg12_146_cif.got.tgz:291671.got - 2010.06.03 13:09:07.
