data_PCOD9169623
_publ_section_title
;
Structure prediction by ZEFSAII (Michael W. Deem and Ramdas Pophale) SiO2 
 PCOD9169623
Probable space group: C 2/M
;
_chemical_formula_sum "Si O2"
_cell_formula_units_Z 28
_cell_length_a 7.700999
_cell_length_b 27.548018
_cell_length_c 5.566989
_cell_angle_alpha 90.000000
_cell_angle_beta 118.017592
_cell_angle_gamma 90.000000
_cell_volume 1042.609765
_symmetry_space_group_name_H-M "C 2/M"
_symmetry_group_IT_number 12
_symmetry_cell_setting 'monoclinic'
loop_
_space_group_symop_operation_xyz
x,y,z
-x,y,-z
-x,-y,-z
x,-y,z
1/2+x,1/2+y,z
1/2-x,1/2+y,-z
1/2-x,1/2-y,-z
1/2+x,1/2-y,z
loop_
_atom_site_type_symbol
_atom_site_label
_atom_site_fract_x
_atom_site_fract_y
_atom_site_fract_z
Si Si1 0.709746 0.191338 0.729962
Si Si2 0.500000 0.713800 0.500000
Si Si3 0.279166 0.057553 0.571560
Si Si4 0.271102 0.904699 0.063030
O O1 0.500000 0.171760 0.500000
O O2 0.654847 0.248004 0.722406
O O3 0.748414 0.153717 0.968836
O O4 0.872929 0.189086 0.626682
O O5 0.503108 0.076820 0.757613
O O6 0.192043 0.081251 0.274501
O O7 0.282797 0.000000 0.540271
O O8 0.189259 0.070517 0.771546
#
# Coordination Sequence:
#
# PCOD9169623 Si02
#       4
#     8   4   8   8
#     4   9  15  30  50  79 109 141 184 221 276 321
#     4   8  16  28  54  76 108 146 178 228 270 330
#     4  10  17  28  46  78 107 138 183 223 270 325
#     4  10  17  27  48  74 109 138 174 232 262 322
#
# _framework density 26.855687
#
# number of rings (size 3 to 8) (size 9 to 14) (size 15 to 20)
#    0.857    1.714    2.857    4.286    0.000    0.000 
#    0.000    0.000    0.000   32.571    0.000   11.000 
#    0.000    0.000    0.000    0.000    0.000    0.000 
#
# Total GULP energy -78195.571868 kJ/mol
# GULP energy per Si atom -5585.397991 kJ/mol
# Density = 2.679456 g / cm^3
# Si number density = 26.855687 Si / 1000 Ang^3
#
#
#
# Elastic Constant Matrix: (Units=GPa)
#
#
# Indices 1 2 3 4 5 6 
#
# 1 148.9636 2.9861 25.5391 0.0000 -26.8926 0.0000
# 2 2.9861 185.2060 29.5014 0.0000 -8.5623 0.0000
# 3 25.5391 29.5014 167.0286 0.0000 7.6474 0.0000
# 4 0.0000 0.0000 0.0000 49.1268 0.0000 -22.1312
# 5 -26.8926 -8.5623 7.6474 0.0000 42.6996 0.0000
# 6 0.0000 0.0000 0.0000 -22.1312 0.0000 14.6502
#
#
#
# Elastic Compliance Matrix: (Units=1/GPa)
#
#
# Indices 1 2 3 4 5 6 
#
# 1 0.007931 0.000361 -0.001521 0.000000 0.005340 0.000000
# 2 0.000361 0.005645 -0.001124 0.000000 0.001561 0.000000
# 3 -0.001521 -0.001124 0.006526 0.000000 -0.002352 0.000000
# 4 0.000000 0.000000 0.000000 0.063716 0.000000 0.096252
# 5 0.005340 0.001561 -0.002352 0.000000 0.027516 0.000000
# 6 0.000000 0.000000 0.000000 0.096252 0.000000 0.213660
#
#
# Mechanical properties :
#
#
# Convention : Reuss Voigt Hill
#
# Bulk Modulus (GPa) = 64.37368 68.58348 66.47858
# Shear Modulus (GPa) = 14.93704 50.84010 32.88857
#
# Velocity S-wave (km/s) = 2.36094 4.35568 3.50328
# Velocity P-wave (km/s) = 5.60841 7.13366 6.41652
#
# Compressibility (1/GPa) = 0.01553430
#
# Stress axis : x y z
#
# Youngs Moduli (GPa) = 126.09531 177.15690 153.24031
#
# Poissons Ratio (x) = -0.06400 0.23306
# Poissons Ratio (y) = -0.04555 0.17219
# Poissons Ratio (z) = 0.19177 0.19907
#
# Static dielectric constant tensor:
#      x y z
#    x 2.106440 0.000000 0.008090 
#    y 0.000000 2.023630 0.000000 
#    z 0.008090 0.000000 1.939080 
# 
# From -- ./inp_files/3304.got.cif
#   From: 2010.05.17/outbox.cif.g08.bks.cpg/sg12_2_cif.got.tgz:3304.got - 2010.06.03 13:09:07.
