data_PCOD9169807
_publ_section_title
;
Structure prediction by ZEFSAII (Michael W. Deem and Ramdas Pophale) SiO2 
 PCOD9169807
Probable space group: C 2/M
;
_chemical_formula_sum "Si O2"
_cell_formula_units_Z 60
_cell_length_a 22.047397
_cell_length_b 13.846388
_cell_length_c 16.238193
_cell_angle_alpha 90.000000
_cell_angle_beta 48.278373
_cell_angle_gamma 90.000000
_cell_volume 3699.947846
_symmetry_space_group_name_H-M "C 2/M"
_symmetry_group_IT_number 12
_symmetry_cell_setting 'monoclinic'
loop_
_space_group_symop_operation_xyz
x,y,z
-x,y,-z
-x,-y,-z
x,-y,z
1/2+x,1/2+y,z
1/2-x,1/2+y,-z
1/2-x,1/2-y,-z
1/2+x,1/2-y,z
loop_
_atom_site_type_symbol
_atom_site_label
_atom_site_fract_x
_atom_site_fract_y
_atom_site_fract_z
Si Si1 0.360645 0.384989 0.517548
Si Si2 0.091400 0.752282 0.259501
Si Si3 0.000000 0.783485 0.500000
Si Si4 0.261485 0.607750 0.850849
Si Si5 0.813124 0.388269 0.262497
Si Si6 0.475312 0.761918 0.117110
Si Si7 0.969407 0.114970 0.266888
Si Si8 0.605294 0.887884 0.099771
O O1 0.359862 0.500000 0.531520
O O2 0.427579 0.343789 0.521021
O O3 0.268515 0.352070 0.617577
O O4 0.391766 0.366726 0.396653
O O5 0.042603 0.728298 0.386575
O O6 0.174344 0.806706 0.205989
O O7 0.102042 0.660585 0.191909
O O8 0.040900 0.831810 0.252760
O O9 0.299916 0.500000 0.821450
O O10 0.212149 0.610077 0.810397
O O11 0.196324 0.618522 0.982161
O O12 0.830110 0.500000 0.271975
O O13 0.891843 0.322215 0.199871
O O14 0.465493 0.666534 0.182131
O O15 0.545714 0.827186 0.094742
O O16 0.500000 0.743453 0.000000
O O17 0.981450 0.000000 0.250251
O O18 0.581459 0.000000 0.121570
#
# Coordination Sequence:
#
# PCOD9169807 Si02
#       8
#     8   8   4   8   8   8   8   8
#     4   9  17  30  49  75 101 126 159 200 247 291
#     4  10  19  32  52  77 102 128 160 200 249 296
#     4  10  17  28  49  76 102 130 158 194 244 296
#     4  10  18  30  51  77 102 126 158 204 251 292
#     4  10  19  30  50  78 100 125 162 206 248 286
#     4  11  21  34  52  72  97 133 169 205 241 286
#     4   9  20  35  51  73 101 130 162 201 246 294
#     4  10  21  35  51  72  99 132 168 205 243 285
#
# _framework density 16.216445
#
# number of rings (size 3 to 8) (size 9 to 14) (size 15 to 20)
#    0.000    2.133    2.667    1.400    0.000    2.400 
#    0.000    0.333    0.000    0.800    0.000    0.000 
#    0.000    0.000    0.000    0.000    0.000    0.000 
#
# Total GULP energy -167167.593029 kJ/mol
# GULP energy per Si atom -5572.253101 kJ/mol
# Density = 1.617954 g / cm^3
# Si number density = 16.216445 Si / 1000 Ang^3
#
#
#
# Elastic Constant Matrix: (Units=GPa)
#
#
# Indices 1 2 3 4 5 6 
#
# 1 31.7025 5.0701 16.4327 0.0000 1.8786 0.0000
# 2 5.0701 52.8279 41.6461 0.0000 9.7119 0.0000
# 3 16.4327 41.6461 96.4869 0.0000 8.4963 0.0000
# 4 0.0000 0.0000 0.0000 18.7439 0.0000 8.1200
# 5 1.8786 9.7119 8.4963 0.0000 26.3225 0.0000
# 6 0.0000 0.0000 0.0000 8.1200 0.0000 4.8781
#
#
#
# Elastic Compliance Matrix: (Units=1/GPa)
#
#
# Indices 1 2 3 4 5 6 
#
# 1 0.034769 0.002210 -0.006778 0.000000 -0.001109 0.000000
# 2 0.002210 0.030059 -0.012722 0.000000 -0.007142 0.000000
# 3 -0.006778 -0.012722 0.017038 0.000000 -0.000322 0.000000
# 4 0.000000 0.000000 0.000000 0.191303 0.000000 -0.318443
# 5 -0.001109 -0.007142 -0.000322 0.000000 0.040809 0.000000
# 6 0.000000 0.000000 0.000000 -0.318443 0.000000 0.735079
#
#
# Mechanical properties :
#
#
# Convention : Reuss Voigt Hill
#
# Bulk Modulus (GPa) = 21.14747 34.14611 27.64679
# Shear Modulus (GPa) = 4.54794 17.84678 11.19736
#
# Velocity S-wave (km/s) = 1.67649 3.32103 2.63058
# Velocity P-wave (km/s) = 4.10080 5.98397 5.12954
#
# Compressibility (1/GPa) = 0.04728699
#
# Stress axis : x y z
#
# Youngs Moduli (GPa) = 28.76152 33.26752 58.69290
#
# Poissons Ratio (x) = -0.07353 0.39781
# Poissons Ratio (y) = -0.06357 0.74668
# Poissons Ratio (z) = 0.19494 0.42322
#
# Static dielectric constant tensor:
#      x y z
#    x 1.530030 0.000000 -0.007670 
#    y 0.000000 1.517600 0.000000 
#    z -0.007670 0.000000 1.571810 
# 
# From -- ./inp_files/239965.got.cif
#   From: 2010.05.17/outbox.cif.g08.bks.cpg/sg12_120_cif.got.tgz:239965.got - 2010.06.03 13:09:07.
