data_PCOD9169024
_publ_section_title
;
Structure prediction by ZEFSAII (Michael W. Deem and Ramdas Pophale) SiO2 
 PCOD9169024
Probable space group: C 2/M
;
_chemical_formula_sum "Si O2"
_cell_formula_units_Z 60
_cell_length_a 9.251068
_cell_length_b 22.575077
_cell_length_c 24.524384
_cell_angle_alpha 90.000000
_cell_angle_beta 35.571770
_cell_angle_gamma 90.000000
_cell_volume 2979.441883
_symmetry_space_group_name_H-M "C 2/M"
_symmetry_group_IT_number 12
_symmetry_cell_setting 'monoclinic'
loop_
_space_group_symop_operation_xyz
x,y,z
-x,y,-z
-x,-y,-z
x,-y,z
1/2+x,1/2+y,z
1/2-x,1/2+y,-z
1/2-x,1/2-y,-z
1/2+x,1/2-y,z
loop_
_atom_site_type_symbol
_atom_site_label
_atom_site_fract_x
_atom_site_fract_y
_atom_site_fract_z
Si Si1 0.798358 0.359885 0.640161
Si Si2 0.199666 0.737486 0.836260
Si Si3 0.713738 0.885386 0.582858
Si Si4 0.000000 0.668478 0.000000
Si Si5 0.862827 0.139021 0.701163
Si Si6 0.965337 0.142318 0.159165
Si Si7 0.257150 0.224171 0.351911
Si Si8 0.945163 0.432544 0.768640
O O1 0.614348 0.385824 0.650893
O O2 0.653215 0.362584 0.743635
O O3 0.836005 0.290706 0.612464
O O4 0.063282 0.388629 0.572801
O O5 0.252078 0.682365 0.780891
O O6 0.048252 0.789031 0.853734
O O7 0.473299 0.767069 0.759421
O O8 0.063900 0.711320 0.929925
O O9 0.695445 0.816459 0.609604
O O10 0.576760 0.925480 0.669426
O O11 0.000000 0.901055 0.500000
O O12 0.244655 0.628325 0.931313
O O13 0.910596 0.183062 0.635319
O O14 0.649003 0.094590 0.747177
O O15 0.802425 0.105865 0.165689
O O16 0.888921 0.500000 0.798854
#
# Coordination Sequence:
#
# PCOD9169024 Si02
#       8
#     8   8   8   4   8   8   8   8
#     4  10  17  32  56  80 117 156 186 232 293 352
#     4  11  18  34  55  90 126 154 188 243 299 351
#     4  10  21  36  58  87 116 154 198 243 287 343
#     4  12  22  30  57  98 121 152 194 248 296 340
#     4  10  17  32  59  80 114 155 189 239 283 354
#     4  11  20  36  55  86 122 153 194 240 292 350
#     4  10  16  32  54  78 124 162 181 225 296 364
#     4  10  23  43  63  79 109 164 203 237 295 353
#
# _framework density 20.138000000000002
#
# number of rings (size 3 to 8) (size 9 to 14) (size 15 to 20)
#    0.000    1.600    8.000    1.200    0.000    0.800 
#    0.000    5.667    0.000    2.400    0.000    0.000 
#    0.000    0.000    0.000    0.000    0.000    0.000 
#
# Total GULP energy -167297.507499 kJ/mol
# GULP energy per Si atom -5576.583583 kJ/mol
# Density = 2.009216 g / cm^3
# Si number density = 20.138000 Si / 1000 Ang^3
#
#
#
# Elastic Constant Matrix: (Units=GPa)
#
#
# Indices 1 2 3 4 5 6 
#
# 1 157.5858 30.1758 22.9515 0.0048 -27.2477 0.0014
# 2 30.1758 51.2995 -2.5815 0.0028 -6.3682 0.0116
# 3 22.9515 -2.5815 54.2500 0.0259 -19.1110 -0.0067
# 4 0.0048 0.0028 0.0259 3.6426 0.0000 -2.3796
# 5 -27.2477 -6.3682 -19.1110 0.0000 34.7805 -0.0042
# 6 0.0014 0.0116 -0.0067 -2.3796 -0.0042 8.1236
#
#
#
# Elastic Compliance Matrix: (Units=1/GPa)
#
#
# Indices 1 2 3 4 5 6 
#
# 1 0.008281 -0.004418 -0.002125 0.000014 0.004511 0.000010
# 2 -0.004418 0.022646 0.003953 -0.000070 0.002857 -0.000047
# 3 -0.002125 0.003953 0.023795 -0.000192 0.012134 -0.000036
# 4 0.000014 -0.000070 -0.000192 0.339496 -0.000095 0.099445
# 5 0.004511 0.002857 0.012134 -0.000095 0.039477 -0.000002
# 6 0.000010 -0.000047 -0.000036 0.099445 -0.000002 0.152227
#
#
# Mechanical properties :
#
#
# Convention : Reuss Voigt Hill
#
# Bulk Modulus (GPa) = 20.18433 40.46965 30.32699
# Shear Modulus (GPa) = 8.22890 23.48197 15.85543
#
# Velocity S-wave (km/s) = 2.02364 3.41846 2.80900
# Velocity P-wave (km/s) = 3.93763 5.97670 5.06092
#
# Compressibility (1/GPa) = 0.04954339
#
# Stress axis : x y z
#
# Youngs Moduli (GPa) = 120.75476 44.15809 42.02604
#
# Poissons Ratio (x) = 0.19510 0.08929
# Poissons Ratio (y) = 0.53351 -0.16615
# Poissons Ratio (z) = 0.25655 -0.17458
#
# Static dielectric constant tensor:
#      x y z
#    x 1.822470 -0.000010 -0.031310 
#    y -0.000010 1.679870 0.000010 
#    z -0.031310 0.000010 1.774680 
# 
# From -- ./inp_files/334065.got.cif
#   From: 2010.05.17/outbox.cif.g08.bks.cpg/sg12_168_cif.got.tgz:334065.got - 2010.06.03 13:09:07.
