data_PCOD9169936
_publ_section_title
;
Structure prediction by ZEFSAII (Michael W. Deem and Ramdas Pophale) SiO2 
 PCOD9169936
Probable space group: C 2/M
;
_chemical_formula_sum "Si O2"
_cell_formula_units_Z 64
_cell_length_a 19.941664
_cell_length_b 8.508317
_cell_length_c 21.181406
_cell_angle_alpha 90.000000
_cell_angle_beta 94.620994
_cell_angle_gamma 90.000000
_cell_volume 3582.167057
_symmetry_space_group_name_H-M "C 2/M"
_symmetry_group_IT_number 12
_symmetry_cell_setting 'monoclinic'
loop_
_space_group_symop_operation_xyz
x,y,z
-x,y,-z
-x,-y,-z
x,-y,z
1/2+x,1/2+y,z
1/2-x,1/2+y,-z
1/2-x,1/2-y,-z
1/2+x,1/2-y,z
loop_
_atom_site_type_symbol
_atom_site_label
_atom_site_fract_x
_atom_site_fract_y
_atom_site_fract_z
Si Si1 0.136120 0.309369 0.665818
Si Si2 0.233070 0.312838 0.148108
Si Si3 0.016975 0.689879 0.571311
Si Si4 0.282409 0.690640 0.712212
Si Si5 0.538726 0.189620 0.773920
Si Si6 0.625143 0.188511 0.895992
Si Si7 0.926581 0.187668 0.677452
Si Si8 0.320992 0.687016 0.977582
O O1 0.137474 0.500000 0.663898
O O2 0.088940 0.255561 0.604724
O O3 0.212792 0.255201 0.674839
O O4 0.096818 0.267369 0.727365
O O5 0.237904 0.500000 0.146509
O O6 0.216789 0.253383 0.216494
O O7 0.305188 0.242271 0.132032
O O8 0.178125 0.256418 0.092561
O O9 0.018541 0.500000 0.569727
O O10 0.000000 0.747579 0.500000
O O11 0.962076 0.739145 0.618962
O O12 0.281536 0.500000 0.714811
O O13 0.349863 0.739333 0.681367
O O14 0.564737 0.236930 0.844892
O O15 0.470807 0.262604 0.741547
O O16 0.532433 0.000000 0.772100
O O17 0.626339 0.000000 0.899871
O O18 0.625225 0.257625 0.966468
O O19 0.928541 0.000000 0.671790
O O20 0.319000 0.500000 0.974729
O O21 0.250000 0.750000 0.000000
#
# Coordination Sequence:
#
# PCOD9169936 Si02
#       8
#     8   8   8   8   8   8   8   8
#     4   8  14  29  52  74  95 129 171 203 239 295
#     4  11  20  29  45  71 100 132 169 214 259 300
#     4   9  18  35  58  79 101 134 173 208 244 295
#     4  10  19  34  51  71 102 138 171 204 256 309
#     4   9  17  31  52  72  97 135 171 209 254 305
#     4  10  17  29  48  70  97 131 170 213 259 307
#     4  10  21  33  51  77 106 134 164 211 256 299
#     4  10  18  28  42  65  98 133 168 212 259 307
#
# _framework density 17.86628
#
# number of rings (size 3 to 8) (size 9 to 14) (size 15 to 20)
#    0.000    2.375    1.250    5.250    0.000    2.250 
#    0.000    0.625    0.000    0.750    0.000    5.250 
#    0.000    0.000    0.000    0.000    0.000    0.000 
#
# Total GULP energy -178416.592544 kJ/mol
# GULP energy per Si atom -5575.518517 kJ/mol
# Density = 1.782562 g / cm^3
# Si number density = 17.866280 Si / 1000 Ang^3
#
#
#
# Elastic Constant Matrix: (Units=GPa)
#
#
# Indices 1 2 3 4 5 6 
#
# 1 113.2598 15.7553 62.4017 0.0000 18.5806 0.0000
# 2 15.7553 35.4363 18.1564 0.0000 5.1281 0.0000
# 3 62.4017 18.1564 134.5285 0.0000 32.8490 0.0000
# 4 0.0000 0.0000 0.0000 22.3283 0.0000 0.1522
# 5 18.5806 5.1281 32.8490 0.0000 22.5417 0.0000
# 6 0.0000 0.0000 0.0000 0.1522 0.0000 16.3014
#
#
#
# Elastic Compliance Matrix: (Units=1/GPa)
#
#
# Indices 1 2 3 4 5 6 
#
# 1 0.012198 -0.002655 -0.004645 0.000000 -0.002682 0.000000
# 2 -0.002655 0.030925 -0.002730 0.000000 -0.000868 0.000000
# 3 -0.004645 -0.002730 0.013769 0.000000 -0.015616 0.000000
# 4 0.000000 0.000000 0.000000 0.044789 0.000000 -0.000418
# 5 -0.002682 -0.000868 -0.015616 0.000000 0.069526 0.000000
# 6 0.000000 0.000000 0.000000 -0.000418 0.000000 0.061348
#
#
# Mechanical properties :
#
#
# Convention : Reuss Voigt Hill
#
# Bulk Modulus (GPa) = 27.15076 52.87238 40.01157
# Shear Modulus (GPa) = 18.87555 24.69502 21.78529
#
# Velocity S-wave (km/s) = 3.25390 3.72185 3.49571
# Velocity P-wave (km/s) = 5.41726 6.93737 6.22390
#
# Compressibility (1/GPa) = 0.03683138
#
# Stress axis : x y z
#
# Youngs Moduli (GPa) = 81.98306 32.33665 72.62473
#
# Poissons Ratio (x) = 0.08586 0.33733
# Poissons Ratio (y) = 0.21769 0.19827
# Poissons Ratio (z) = 0.38080 0.08828
#
# Static dielectric constant tensor:
#      x y z
#    x 1.611110 0.000000 0.035870 
#    y 0.000000 1.598890 0.000000 
#    z 0.035870 0.000000 1.618680 
# 
# From -- ./inp_files/319155.got.cif
#   From: 2010.05.17/outbox.cif.g08.bks.cpg/sg12_160_cif.got.tgz:319155.got - 2010.06.03 13:09:07.
