data_PCOD9169460
_publ_section_title
;
Structure prediction by ZEFSAII (Michael W. Deem and Ramdas Pophale) SiO2 
 PCOD9169460
Probable space group: C 2/M
;
_chemical_formula_sum "Si O2"
_cell_formula_units_Z 56
_cell_length_a 30.684172
_cell_length_b 7.492757
_cell_length_c 13.750582
_cell_angle_alpha 90.000000
_cell_angle_beta 77.331991
_cell_angle_gamma 90.000000
_cell_volume 3084.426070
_symmetry_space_group_name_H-M "C 2/M"
_symmetry_group_IT_number 12
_symmetry_cell_setting 'monoclinic'
loop_
_space_group_symop_operation_xyz
x,y,z
-x,y,-z
-x,-y,-z
x,-y,z
1/2+x,1/2+y,z
1/2-x,1/2+y,-z
1/2-x,1/2-y,-z
1/2+x,1/2-y,z
loop_
_atom_site_type_symbol
_atom_site_label
_atom_site_fract_x
_atom_site_fract_y
_atom_site_fract_z
Si Si1 0.141401 0.791006 0.745914
Si Si2 0.780186 0.210757 0.788630
Si Si3 0.449768 0.281935 0.136851
Si Si4 0.810294 0.715761 0.075129
Si Si5 0.449851 0.718142 0.911341
Si Si6 0.362196 0.294851 0.854814
Si Si7 0.768917 0.788373 0.384826
O O1 0.091284 0.717114 0.777370
O O2 0.160977 0.773745 0.845438
O O3 0.181100 0.714322 0.659756
O O4 0.136858 0.000000 0.723362
O O5 0.740059 0.279605 0.876984
O O6 0.828755 0.286113 0.791221
O O7 0.763483 0.228681 0.686528
O O8 0.782814 0.000000 0.807783
O O9 0.448879 0.500000 0.137516
O O10 0.499868 0.228501 0.141174
O O11 0.442638 0.228194 0.027514
O O12 0.810672 0.500000 0.070005
O O13 0.832479 0.789994 0.967563
O O14 0.448417 0.500000 0.912182
O O15 0.409870 0.784075 0.862626
O O16 0.371548 0.500000 0.822291
O O17 0.750000 0.750000 0.500000
O O18 0.772183 0.000000 0.372124
#
# Coordination Sequence:
#
# PCOD9169460 Si02
#       7
#     8   8   8   8   8   8   8
#     4   9  16  28  46  64  83 112 146 176 210 255
#     4   9  19  31  43  61  86 114 145 178 211 252
#     4   8  12  21  38  62  86 109 144 181 208 240
#     4  10  18  26  37  58  88 119 147 177 208 241
#     4   8  13  20  37  62  86 113 144 179 209 234
#     4  10  17  27  42  60  85 119 151 176 206 247
#     4  10  20  33  50  68  86 108 136 176 221 262
#
# _framework density 18.155728
#
# number of rings (size 3 to 8) (size 9 to 14) (size 15 to 20)
#    0.000    2.857    1.429    2.143    0.000    1.714 
#    0.000    0.000    0.000    1.714    0.000    1.000 
#    0.000    8.000    0.000    0.000    0.000    0.000 
#
# Total GULP energy -156016.319626 kJ/mol
# GULP energy per Si atom -5572.011415 kJ/mol
# Density = 1.811440 g / cm^3
# Si number density = 18.155728 Si / 1000 Ang^3
#
#
#
# Elastic Constant Matrix: (Units=GPa)
#
#
# Indices 1 2 3 4 5 6 
#
# 1 198.9475 0.9712 57.1694 0.0000 -12.0714 0.0000
# 2 0.9712 49.1749 -9.6909 0.0000 -2.2609 0.0000
# 3 57.1694 -9.6909 69.8537 0.0000 -16.3041 0.0000
# 4 0.0000 0.0000 0.0000 11.2462 0.0000 0.0628
# 5 -12.0714 -2.2609 -16.3041 0.0000 17.1548 0.0000
# 6 0.0000 0.0000 0.0000 0.0628 0.0000 7.4783
#
#
#
# Elastic Compliance Matrix: (Units=1/GPa)
#
#
# Indices 1 2 3 4 5 6 
#
# 1 0.006660 -0.001343 -0.005891 0.000000 -0.001089 0.000000
# 2 -0.001343 0.021870 0.005892 0.000000 0.007537 0.000000
# 3 -0.005891 0.005892 0.024632 0.000000 0.020042 0.000000
# 4 0.000000 0.000000 0.000000 0.088923 0.000000 -0.000747
# 5 -0.001089 0.007537 0.020042 0.000000 0.077567 0.000000
# 6 0.000000 0.000000 0.000000 -0.000747 0.000000 0.133727
#
#
# Mechanical properties :
#
#
# Convention : Reuss Voigt Hill
#
# Bulk Modulus (GPa) = 19.81032 46.09726 32.95379
# Shear Modulus (GPa) = 13.40885 25.14429 19.27657
#
# Velocity S-wave (km/s) = 2.72057 3.72549 3.26196
# Velocity P-wave (km/s) = 4.56111 6.62954 5.69010
#
# Compressibility (1/GPa) = 0.05047875
#
# Stress axis : x y z
#
# Youngs Moduli (GPa) = 150.15639 45.72520 40.59734
#
# Poissons Ratio (x) = 0.06139 0.23916
# Poissons Ratio (y) = 0.20159 -0.23920
# Poissons Ratio (z) = 0.88457 -0.26942
#
# Static dielectric constant tensor:
#      x y z
#    x 1.697300 0.000000 -0.021610 
#    y 0.000000 1.569660 0.000000 
#    z -0.021610 0.000000 1.542240 
# 
# From -- ./inp_files/247788.got.cif
#   From: 2010.05.17/outbox.cif.g08.bks.cpg/sg12_124_cif.got.tgz:247788.got - 2010.06.03 13:09:07.
