data_PCOD9169011
_publ_section_title
;
Structure prediction by ZEFSAII (Michael W. Deem and Ramdas Pophale) SiO2 
 PCOD9169011
Probable space group: C 2/M
;
_chemical_formula_sum "Si O2"
_cell_formula_units_Z 64
_cell_length_a 20.627837
_cell_length_b 18.634750
_cell_length_c 18.139351
_cell_angle_alpha 90.000000
_cell_angle_beta 30.331315
_cell_angle_gamma 90.000000
_cell_volume 3521.193572
_symmetry_space_group_name_H-M "C 2/M"
_symmetry_group_IT_number 12
_symmetry_cell_setting 'monoclinic'
loop_
_space_group_symop_operation_xyz
x,y,z
-x,y,-z
-x,-y,-z
x,-y,z
1/2+x,1/2+y,z
1/2-x,1/2+y,-z
1/2-x,1/2-y,-z
1/2+x,1/2-y,z
loop_
_atom_site_type_symbol
_atom_site_label
_atom_site_fract_x
_atom_site_fract_y
_atom_site_fract_z
Si Si1 0.912692 0.294014 0.390379
Si Si2 0.115038 0.869284 0.329423
Si Si3 0.034498 0.920137 0.252674
Si Si4 0.766032 0.851697 0.550299
Si Si5 0.880127 0.779835 0.911273
Si Si6 0.872873 0.201997 0.091794
Si Si7 0.405539 0.196611 0.659485
Si Si8 0.134348 0.641853 0.832323
O O1 0.833955 0.225997 0.501268
O O2 0.810935 0.344089 0.450295
O O3 0.999915 0.262329 0.239758
O O4 0.014769 0.326379 0.347030
O O5 0.100057 0.909367 0.267652
O O6 0.113194 0.783362 0.313944
O O7 0.247124 0.889108 0.238322
O O8 0.000000 0.882575 0.500000
O O9 0.094555 0.861350 0.139163
O O10 0.885820 0.903193 0.417654
O O11 0.050015 0.000000 0.209193
O O12 0.671416 0.870432 0.710636
O O13 0.750000 0.750000 0.000000
O O14 0.886468 0.773666 0.993122
O O15 0.733508 0.164908 0.223878
O O16 0.861434 0.272265 0.155171
O O17 0.000000 0.164069 0.000000
O O18 0.500000 0.184881 0.500000
O O19 0.000000 0.617281 0.000000
#
# Coordination Sequence:
#
# PCOD9169011 Si02
#       8
#     8   8   8   8   8   8   8   8
#     4  10  17  29  51  76 103 143 179 228 286 340
#     4  10  16  32  52  72 106 146 192 227 271 330
#     4  11  23  37  55  81 112 155 200 236 283 347
#     4  10  19  32  49  76 109 144 188 233 280 337
#     4  11  19  35  57  84 114 148 189 243 290 339
#     4  10  19  29  48  81 115 142 178 231 292 339
#     4  10  17  28  48  76 113 142 173 227 284 334
#     4  10  18  30  49  79 112 147 181 241 283 327
#
# _framework density 18.175656
#
# number of rings (size 3 to 8) (size 9 to 14) (size 15 to 20)
#    0.000    1.750    5.000    3.750    0.000    2.250 
#    0.000    0.000    0.000    4.125    0.000    0.000 
#    0.000    2.000    0.000    0.000    0.000    0.000 
#
# Total GULP energy -178313.349179 kJ/mol
# GULP energy per Si atom -5572.292162 kJ/mol
# Density = 1.813429 g / cm^3
# Si number density = 18.175656 Si / 1000 Ang^3
#
#
#
# Elastic Constant Matrix: (Units=GPa)
#
#
# Indices 1 2 3 4 5 6 
#
# 1 112.2818 8.9285 35.1461 0.0008 -28.3723 -0.0009
# 2 8.9285 32.2144 7.1223 0.0009 -0.8355 -0.0010
# 3 35.1461 7.1223 108.1149 0.0014 -15.4725 -0.0016
# 4 0.0008 0.0009 0.0014 6.5580 -0.0008 -1.5462
# 5 -28.3723 -0.8355 -15.4725 -0.0008 41.1538 0.0008
# 6 -0.0009 -0.0010 -0.0016 -1.5462 0.0008 16.1949
#
#
#
# Elastic Compliance Matrix: (Units=1/GPa)
#
#
# Indices 1 2 3 4 5 6 
#
# 1 0.011704 -0.002479 -0.002636 0.000000 0.007028 0.000000
# 2 -0.002479 0.032027 -0.001538 -0.000004 -0.001637 0.000001
# 3 -0.002636 -0.001538 0.010508 -0.000001 0.002103 0.000001
# 4 0.000000 -0.000004 -0.000001 0.155996 0.000002 0.014893
# 5 0.007028 -0.001637 0.002103 0.000002 0.029901 -0.000001
# 6 0.000000 0.000001 0.000001 0.014893 -0.000001 0.063170
#
#
# Mechanical properties :
#
#
# Convention : Reuss Voigt Hill
#
# Bulk Modulus (GPa) = 24.42988 39.44499 31.93743
# Shear Modulus (GPa) = 15.13974 26.20897 20.67436
#
# Velocity S-wave (km/s) = 2.88925 3.80146 3.37631
# Velocity P-wave (km/s) = 4.95989 6.40448 5.72791
#
# Compressibility (1/GPa) = 0.04093348
#
# Stress axis : x y z
#
# Youngs Moduli (GPa) = 85.43975 31.22397 95.16130
#
# Poissons Ratio (x) = 0.07740 0.25082
# Poissons Ratio (y) = 0.21180 0.14638
# Poissons Ratio (z) = 0.22520 0.04803
#
# Static dielectric constant tensor:
#      x y z
#    x 1.674160 0.000000 -0.022380 
#    y 0.000000 1.611180 0.000000 
#    z -0.022380 0.000000 1.672710 
# 
# From -- ./inp_files/285770.got.cif
#   From: 2010.05.17/outbox.cif.g08.bks.cpg/sg12_143_cif.got.tgz:285770.got - 2010.06.03 13:09:07.
