data_PCOD9169981
_publ_section_title
;
Structure prediction by ZEFSAII (Michael W. Deem and Ramdas Pophale) SiO2 
 PCOD9169981
Probable space group: C 2/M
;
_chemical_formula_sum "Si O2"
_cell_formula_units_Z 56
_cell_length_a 32.550952
_cell_length_b 17.111401
_cell_length_c 5.431919
_cell_angle_alpha 90.000000
_cell_angle_beta 120.210789
_cell_angle_gamma 90.000000
_cell_volume 2614.609249
_symmetry_space_group_name_H-M "C 2/M"
_symmetry_group_IT_number 12
_symmetry_cell_setting 'monoclinic'
loop_
_space_group_symop_operation_xyz
x,y,z
-x,y,-z
-x,-y,-z
x,-y,z
1/2+x,1/2+y,z
1/2-x,1/2+y,-z
1/2-x,1/2-y,-z
1/2+x,1/2-y,z
loop_
_atom_site_type_symbol
_atom_site_label
_atom_site_fract_x
_atom_site_fract_y
_atom_site_fract_z
Si Si1 0.692795 0.159574 0.612927
Si Si2 0.369297 0.000000 0.556563
Si Si3 0.343299 0.830927 0.995069
Si Si4 0.367008 0.000000 0.049648
Si Si5 0.203580 0.093931 0.149603
Si Si6 0.949179 0.716345 0.393941
Si Si7 0.647279 0.406761 0.481474
Si Si8 0.448994 0.314156 0.892708
O O1 0.662599 0.078242 0.539862
O O2 0.682800 0.200460 0.842938
O O3 0.747007 0.138377 0.734732
O O4 0.672348 0.203467 0.312487
O O5 0.396852 0.000000 0.386824
O O6 0.396952 0.000000 0.892939
O O7 0.333279 0.924045 0.946630
O O8 0.399699 0.827110 0.202045
O O9 0.180551 0.110816 0.345886
O O10 0.212575 0.000000 0.165815
O O11 0.169961 0.113296 0.815207
O O12 0.947976 0.748794 0.670545
O O13 0.000000 0.675233 0.500000
O O14 0.948614 0.781082 0.170965
O O15 0.640569 0.500000 0.460780
O O16 0.596996 0.365773 0.290475
O O17 0.500000 0.354724 0.000000
#
# Coordination Sequence:
#
# PCOD9169981 Si02
#       8
#     8   4   8   4   8   8   8   8
#     4  10  17  29  49  75 109 141 181 219 255 308
#     4   8  14  24  40  66  97 132 165 212 244 292
#     4  10  19  31  52  79 108 140 185 229 265 310
#     4   8  16  26  43  72 102 130 164 218 269 296
#     4  10  19  32  52  81 117 148 176 214 264 323
#     4  10  21  38  59  80 103 141 190 227 267 325
#     4  10  21  35  56  86 114 138 169 222 281 319
#     4  10  21  39  62  81 103 141 183 222 267 330
#
# _framework density 21.418113999999999
#
# number of rings (size 3 to 8) (size 9 to 14) (size 15 to 20)
#    0.000    2.286    0.714    2.571    0.000    0.286 
#    0.000    0.357    0.000   22.286    0.000    9.000 
#    0.000    0.000    0.000    0.000    0.000    0.000 
#
# Total GULP energy -156139.548827 kJ/mol
# GULP energy per Si atom -5576.412458 kJ/mol
# Density = 2.136937 g / cm^3
# Si number density = 21.418114 Si / 1000 Ang^3
#
#
#
# Elastic Constant Matrix: (Units=GPa)
#
#
# Indices 1 2 3 4 5 6 
#
# 1 86.7776 15.3713 12.3470 0.0000 -1.5287 0.0000
# 2 15.3713 55.8879 -12.0405 0.0000 5.5040 0.0000
# 3 12.3470 -12.0405 100.1263 0.0000 -29.4778 0.0000
# 4 0.0000 0.0000 0.0000 11.9493 0.0000 15.6123
# 5 -1.5287 5.5040 -29.4778 0.0000 61.5139 0.0000
# 6 0.0000 0.0000 0.0000 15.6123 0.0000 10.9925
#
#
#
# Elastic Compliance Matrix: (Units=1/GPa)
#
#
# Indices 1 2 3 4 5 6 
#
# 1 0.012501 -0.003858 -0.002110 0.000000 -0.000355 0.000000
# 2 -0.003858 0.019584 0.002662 0.000000 -0.000572 0.000000
# 3 -0.002110 0.002662 0.012204 0.000000 0.005558 0.000000
# 4 0.000000 0.000000 0.000000 -0.097805 0.000000 0.138909
# 5 -0.000355 -0.000572 0.005558 0.000000 0.018962 0.000000
# 6 0.000000 0.000000 0.000000 0.138909 0.000000 -0.106318
#
#
# Mechanical properties :
#
#
# Convention : Reuss Voigt Hill
#
# Bulk Modulus (GPa) = 26.54103 30.46081 28.50092
# Shear Modulus (GPa) = -41.08442 32.03209 -4.52616
#
# Velocity S-wave (km/s) = -4.38449 3.87144 -1.45528
# Velocity P-wave (km/s) = 3.63495 5.85124 3.24223
#
# Compressibility (1/GPa) = 0.03767751
#
# Stress axis : x y z
#
# Youngs Moduli (GPa) = 79.99338 51.06222 81.94104
#
# Poissons Ratio (x) = 0.19699 0.17290
# Poissons Ratio (y) = 0.30860 -0.21815
# Poissons Ratio (z) = 0.16879 -0.13594
#
# Static dielectric constant tensor:
#      x y z
#    x 1.979460 0.000000 -0.214390 
#    y 0.000000 1.813560 0.000000 
#    z -0.214390 0.000000 1.937670 
# 
# From -- ./inp_files/21869.got.cif
#   From: 2010.05.17/outbox.cif.g08.bks.cpg/sg12_11_cif.got.tgz:21869.got - 2010.06.03 13:09:07.
