data_PCOD9169160
_publ_section_title
;
Structure prediction by ZEFSAII (Michael W. Deem and Ramdas Pophale) SiO2 
 PCOD9169160
Probable space group: C 2/M
;
_chemical_formula_sum "Si O2"
_cell_formula_units_Z 48
_cell_length_a 25.249201
_cell_length_b 12.411102
_cell_length_c 24.715401
_cell_angle_alpha 90.000000
_cell_angle_beta 16.599200
_cell_angle_gamma 90.000000
_cell_volume 2212.574289
_symmetry_space_group_name_H-M "C 2/M"
_symmetry_group_IT_number 12
_symmetry_cell_setting 'monoclinic'
loop_
_space_group_symop_operation_xyz
x,y,z
-x,y,-z
-x,-y,-z
x,-y,z
1/2+x,1/2+y,z
1/2-x,1/2+y,-z
1/2-x,1/2-y,-z
1/2+x,1/2-y,z
loop_
_atom_site_type_symbol
_atom_site_label
_atom_site_fract_x
_atom_site_fract_y
_atom_site_fract_z
Si Si1 0.579403 0.621235 0.208327
Si Si2 0.253547 0.379600 0.794936
Si Si3 0.358608 0.296863 0.965606
Si Si4 0.169892 0.381852 0.643018
Si Si5 0.014668 0.817621 0.924272
Si Si6 0.671985 0.326491 0.398568
O O1 0.611009 0.500000 0.199147
O O2 0.656583 0.627929 0.071724
O O3 0.357175 0.637570 0.425719
O O4 0.679962 0.717836 0.142221
O O5 0.223815 0.500000 0.844672
O O6 0.451491 0.331104 0.618162
O O7 0.272641 0.382942 0.711415
O O8 0.091290 0.297721 0.967791
O O9 0.520406 0.212149 0.790275
O O10 0.417788 0.356892 0.963382
O O11 0.093021 0.500000 0.704095
O O12 0.245345 0.382655 0.630343
O O13 0.229722 0.790601 0.702036
O O14 0.000000 0.865196 0.000000
#
# Coordination Sequence:
#
# PCOD9169160 Si02
#       6
#     8   8   8   8   8   8
#     4  10  21  35  51  71  95 126 162 199 238 279
#     4  10  17  24  36  57  88 123 155 182 216 269
#     4  10  20  34  51  71  97 126 159 198 237 280
#     4  10  18  29  47  70  96 124 155 191 234 283
#     4   9  19  30  43  64  90 120 152 187 229 275
#     4   9  17  26  37  58  89 122 151 181 219 271
#
# _framework density 21.694186999999999
#
# number of rings (size 3 to 8) (size 9 to 14) (size 15 to 20)
#    0.000    2.333    0.000    4.000    0.000    8.333 
#    0.000    0.000    0.000    0.500    0.000    0.000 
#    0.000    0.000    0.000   46.500    0.000    0.167 
#
# Total GULP energy -133790.807286 kJ/mol
# GULP energy per Si atom -5574.616970 kJ/mol
# Density = 2.164481 g / cm^3
# Si number density = 21.694187 Si / 1000 Ang^3
#
#
#
# Elastic Constant Matrix: (Units=GPa)
#
#
# Indices 1 2 3 4 5 6 
#
# 1 106.3646 3.5620 -14.0317 -0.0039 11.6966 0.0002
# 2 3.5620 37.4104 14.4396 0.0163 -2.1280 0.0038
# 3 -14.0317 14.4396 63.1526 0.0127 -4.3689 0.0009
# 4 -0.0039 0.0163 0.0127 4.1499 0.0013 0.5555
# 5 11.6966 -2.1280 -4.3689 0.0013 38.2400 -0.0025
# 6 0.0002 0.0038 0.0009 0.5555 -0.0025 0.6722
#
#
#
# Elastic Compliance Matrix: (Units=1/GPa)
#
#
# Indices 1 2 3 4 5 6 
#
# 1 0.010128 -0.002107 0.002530 0.000013 -0.002926 -0.000016
# 2 -0.002107 0.029785 -0.007176 -0.000087 0.001482 -0.000079
# 3 0.002530 -0.007176 0.018099 -0.000031 0.000895 0.000044
# 4 0.000013 -0.000087 -0.000031 0.270945 -0.000036 -0.223911
# 5 -0.002926 0.001482 0.000895 -0.000036 0.027230 0.000121
# 6 -0.000016 -0.000079 0.000044 -0.223911 0.000121 1.672594
#
#
# Mechanical properties :
#
#
# Convention : Reuss Voigt Hill
#
# Bulk Modulus (GPa) = 22.46918 23.87416 23.17167
# Shear Modulus (GPa) = 2.43058 22.14294 12.28676
#
# Velocity S-wave (km/s) = 1.05963 3.19828 2.38242
# Velocity P-wave (km/s) = 3.44627 4.96663 4.27459
#
# Compressibility (1/GPa) = 0.04450542
#
# Stress axis : x y z
#
# Youngs Moduli (GPa) = 98.73944 33.57360 55.25054
#
# Poissons Ratio (x) = 0.07074 -0.13976
# Poissons Ratio (y) = 0.20806 0.39647
# Poissons Ratio (z) = -0.24977 0.24092
#
# Static dielectric constant tensor:
#      x y z
#    x 1.883500 0.000000 -0.027630 
#    y 0.000000 1.779890 0.000000 
#    z -0.027630 0.000000 1.845520 
# 
# From -- ./inp_files/349618.got.cif
#   From: 2010.05.17/outbox.cif.g08.bks.cpg/sg12_175_cif.got.tgz:349618.got - 2010.06.03 13:09:07.
