data_PCOD9169625
_publ_section_title
;
Structure prediction by ZEFSAII (Michael W. Deem and Ramdas Pophale) SiO2 
 PCOD9169625
Probable space group: C 2/M
;
_chemical_formula_sum "Si O2"
_cell_formula_units_Z 48
_cell_length_a 23.323049
_cell_length_b 8.697362
_cell_length_c 20.271592
_cell_angle_alpha 90.000000
_cell_angle_beta 43.924023
_cell_angle_gamma 90.000000
_cell_volume 2852.560419
_symmetry_space_group_name_H-M "C 2/M"
_symmetry_group_IT_number 12
_symmetry_cell_setting 'monoclinic'
loop_
_space_group_symop_operation_xyz
x,y,z
-x,y,-z
-x,-y,-z
x,-y,z
1/2+x,1/2+y,z
1/2-x,1/2+y,-z
1/2-x,1/2-y,-z
1/2+x,1/2-y,z
loop_
_atom_site_type_symbol
_atom_site_label
_atom_site_fract_x
_atom_site_fract_y
_atom_site_fract_z
Si Si1 0.557181 0.186410 0.551104
Si Si2 0.940508 0.677770 0.984719
Si Si3 0.696710 0.316259 0.818463
Si Si4 0.118812 0.313628 0.355184
Si Si5 0.841097 0.183391 0.411564
Si Si6 0.095078 0.685416 0.779218
O O1 0.461667 0.234021 0.619513
O O2 0.603630 0.228411 0.444294
O O3 0.600377 0.262306 0.577413
O O4 0.560606 0.000000 0.554635
O O5 0.918294 0.500000 0.991422
O O6 0.001251 0.733315 0.876514
O O7 0.859530 0.769807 0.072661
O O8 0.000000 0.681384 0.000000
O O9 0.695408 0.500000 0.812147
O O10 0.791674 0.262834 0.743723
O O11 0.654742 0.243568 0.788269
O O12 0.117998 0.500000 0.354497
O O13 0.750000 0.250000 0.500000
O O14 0.875449 0.248442 0.314307
O O15 0.836863 0.000000 0.412146
O O16 0.096661 0.500000 0.777335
#
# Coordination Sequence:
#
# PCOD9169625 Si02
#       6
#     8   8   8   8   8   8
#     4   9  17  34  54  71  97 132 166 198 237 286
#     4   8  16  30  46  67  97 131 165 201 246 293
#     4  10  17  27  48  78 105 129 163 204 245 291
#     4   8  16  30  51  75  98 128 163 199 240 287
#     4  12  24  36  51  74 101 129 162 198 241 292
#     4  10  20  34  50  70  99 134 167 202 246 291
#
# _framework density 16.826986999999999
#
# number of rings (size 3 to 8) (size 9 to 14) (size 15 to 20)
#    0.000    2.500    0.000    5.500    0.000    5.000 
#    0.000    4.167    0.000    1.000    0.000    0.000 
#    0.000    0.000    0.000    0.000    0.000    0.000 
#
# Total GULP energy -133806.168833 kJ/mol
# GULP energy per Si atom -5575.257035 kJ/mol
# Density = 1.678869 g / cm^3
# Si number density = 16.826987 Si / 1000 Ang^3
#
#
#
# Elastic Constant Matrix: (Units=GPa)
#
#
# Indices 1 2 3 4 5 6 
#
# 1 91.3082 35.5824 83.3082 0.0002 -12.1448 -0.0002
# 2 35.5824 62.9787 52.2354 0.0006 -6.1948 -0.0005
# 3 83.3082 52.2354 173.1767 0.0003 -20.6590 -0.0002
# 4 0.0002 0.0006 0.0003 26.7234 -0.0002 2.5405
# 5 -12.1448 -6.1948 -20.6590 -0.0002 29.2552 0.0001
# 6 -0.0002 -0.0005 -0.0002 2.5405 0.0001 21.1376
#
#
#
# Elastic Compliance Matrix: (Units=1/GPa)
#
#
# Indices 1 2 3 4 5 6 
#
# 1 0.020519 -0.004544 -0.008298 0.000000 0.001696 0.000000
# 2 -0.004544 0.022182 -0.004553 0.000000 -0.000405 0.000000
# 3 -0.008298 -0.004553 0.011590 0.000000 0.003776 0.000000
# 4 0.000000 0.000000 0.000000 0.037853 0.000000 -0.004550
# 5 0.001696 -0.000405 0.003776 0.000000 0.037467 0.000000
# 6 0.000000 0.000000 0.000000 -0.004550 0.000000 0.047856
#
#
# Mechanical properties :
#
#
# Convention : Reuss Voigt Hill
#
# Bulk Modulus (GPa) = 51.27839 74.41285 62.84562
# Shear Modulus (GPa) = 22.85629 25.84573 24.35101
#
# Velocity S-wave (km/s) = 3.68953 3.92340 3.80826
# Velocity P-wave (km/s) = 6.97784 8.05248 7.53434
#
# Compressibility (1/GPa) = 0.01950139
#
# Stress axis : x y z
#
# Youngs Moduli (GPa) = 48.73465 45.08082 86.28031
#
# Poissons Ratio (x) = 0.20484 0.71596
# Poissons Ratio (y) = 0.22144 0.39286
# Poissons Ratio (z) = 0.40440 0.20527
#
# Static dielectric constant tensor:
#      x y z
#    x 1.544380 0.000000 -0.020520 
#    y 0.000000 1.569000 0.000000 
#    z -0.020520 0.000000 1.586950 
# 
# From -- ./inp_files/280779.got.cif
#   From: 2010.05.17/outbox.cif.g08.bks.cpg/sg12_141_cif.got.tgz:280779.got - 2010.06.03 13:09:07.
