data_PCOD9169288
_publ_section_title
;
Structure prediction by ZEFSAII (Michael W. Deem and Ramdas Pophale) SiO2 
 PCOD9169288
Probable space group: C 2/M
;
_chemical_formula_sum "Si O2"
_cell_formula_units_Z 48
_cell_length_a 15.968020
_cell_length_b 30.156134
_cell_length_c 8.852032
_cell_angle_alpha 90.000000
_cell_angle_beta 27.525143
_cell_angle_gamma 90.000000
_cell_volume 1969.886543
_symmetry_space_group_name_H-M "C 2/M"
_symmetry_group_IT_number 12
_symmetry_cell_setting 'monoclinic'
loop_
_space_group_symop_operation_xyz
x,y,z
-x,y,-z
-x,-y,-z
x,-y,z
1/2+x,1/2+y,z
1/2-x,1/2+y,-z
1/2-x,1/2-y,-z
1/2+x,1/2-y,z
loop_
_atom_site_type_symbol
_atom_site_label
_atom_site_fract_x
_atom_site_fract_y
_atom_site_fract_z
Si Si1 0.002743 0.655568 0.309184
Si Si2 0.770459 0.000000 0.195289
Si Si3 0.812910 0.903235 0.126627
Si Si4 0.214472 0.090475 0.168933
Si Si5 0.006332 0.811582 0.167476
Si Si6 0.137663 0.742953 0.414657
Si Si7 0.654048 0.000000 0.037145
O O1 0.000000 0.659984 0.500000
O O2 0.841170 0.621239 0.530056
O O3 0.956574 0.704709 0.332555
O O4 0.184178 0.635230 0.950450
O O5 0.857495 0.046928 0.104991
O O6 0.762327 0.000000 0.024539
O O7 0.560356 0.000000 0.587290
O O8 0.962745 0.864643 0.862705
O O9 0.723591 0.911965 0.105710
O O10 0.000000 0.091740 0.500000
O O11 0.283505 0.045931 0.138710
O O12 0.187644 0.784000 0.925151
O O13 0.000000 0.804399 0.000000
O O14 0.846762 0.786854 0.510170
O O15 0.000000 0.754491 0.500000
#
# Coordination Sequence:
#
# PCOD9169288 Si02
#       7
#     8   4   8   8   8   8   4
#     4   8  15  29  46  70 100 139 183 222 265 331
#     4   9  14  28  51  70  95 148 187 220 268 336
#     4   9  18  31  49  70 102 144 185 218 268 336
#     4  10  17  25  42  76 111 140 172 230 286 327
#     4  11  23  39  58  85 119 152 189 236 287 340
#     4  10  21  38  61  84 112 150 196 237 282 333
#     4   9  15  24  44  70 109 138 179 226 285 326
#
# _framework density 24.366885
#
# number of rings (size 3 to 8) (size 9 to 14) (size 15 to 20)
#    0.000    2.500    1.667    2.250    0.000    2.000 
#    0.000    0.417    0.000    0.000    0.000    0.000 
#    0.000    1.333    0.000    0.000    0.000    0.000 
#
# Total GULP energy -133726.047439 kJ/mol
# GULP energy per Si atom -5571.918643 kJ/mol
# Density = 2.431142 g / cm^3
# Si number density = 24.366885 Si / 1000 Ang^3
#
#
#
# Elastic Constant Matrix: (Units=GPa)
#
#
# Indices 1 2 3 4 5 6 
#
# 1 40.1581 6.8229 -13.2641 -0.0008 5.6461 0.0002
# 2 6.8229 234.7354 60.6628 -0.0010 -3.2710 0.0003
# 3 -13.2641 60.6628 59.0183 -0.0003 -10.2980 0.0001
# 4 -0.0008 -0.0010 -0.0003-1287.5206 0.0004 402.7147
# 5 5.6461 -3.2710 -10.2980 0.0004 12.1435 -0.0001
# 6 0.0002 0.0003 0.0001 402.7147 -0.0001 -130.1125
#
#
#
# Elastic Compliance Matrix: (Units=1/GPa)
#
#
# Indices 1 2 3 4 5 6 
#
# 1 0.029287 -0.003170 0.008587 0.000000 -0.007189 0.000000
# 2 -0.003170 0.006324 -0.007814 0.000000 -0.003449 0.000000
# 3 0.008587 -0.007814 0.030330 0.000000 0.019623 0.000000
# 4 0.000000 0.000000 0.000000 -0.024350 0.000000 -0.075366
# 5 -0.007189 -0.003449 0.019623 0.000000 0.101404 0.000000
# 6 0.000000 0.000000 0.000000 -0.075366 0.000000 -0.240954
#
#
# Mechanical properties :
#
#
# Convention : Reuss Voigt Hill
#
# Bulk Modulus (GPa) = 16.35479 49.15057 32.75268
# Shear Modulus (GPa) = -68.69774 -262.45191 -165.57483
#
# Velocity S-wave (km/s) = -5.31548 -10.38953 -8.25217
# Velocity P-wave (km/s) = 5.56290 11.12242 8.79358
#
# Compressibility (1/GPa) = 0.06114416
#
# Stress axis : x y z
#
# Youngs Moduli (GPa) = 34.14463 158.13643 32.97092
#
# Poissons Ratio (x) = 0.50137 -0.28311
# Poissons Ratio (y) = 0.10826 0.25764
# Poissons Ratio (z) = -0.29318 1.23572
#
# Static dielectric constant tensor:
#      x y z
#    x 1.984170 0.000000 -0.046890 
#    y 0.000000 2.070800 0.000000 
#    z -0.046890 0.000000 2.020530 
# 
# From -- ./inp_files/80669.got.cif
#   From: 2010.05.17/outbox.cif.g08.bks.cpg/sg12_41_cif.got.tgz:80669.got - 2010.06.03 13:09:07.
