data_PCOD9169565
_publ_section_title
;
Structure prediction by ZEFSAII (Michael W. Deem and Ramdas Pophale) SiO2 
 PCOD9169565
Probable space group: C 2/M
;
_chemical_formula_sum "Si O2"
_cell_formula_units_Z 56
_cell_length_a 27.887375
_cell_length_b 7.686018
_cell_length_c 13.874722
_cell_angle_alpha 90.000000
_cell_angle_beta 57.848130
_cell_angle_gamma 90.000000
_cell_volume 2517.864546
_symmetry_space_group_name_H-M "C 2/M"
_symmetry_group_IT_number 12
_symmetry_cell_setting 'monoclinic'
loop_
_space_group_symop_operation_xyz
x,y,z
-x,y,-z
-x,-y,-z
x,-y,z
1/2+x,1/2+y,z
1/2-x,1/2+y,-z
1/2-x,1/2-y,-z
1/2+x,1/2-y,z
loop_
_atom_site_type_symbol
_atom_site_label
_atom_site_fract_x
_atom_site_fract_y
_atom_site_fract_z
Si Si1 0.256964 0.698663 0.256035
Si Si2 0.072777 0.206158 0.021201
Si Si3 0.865212 0.791363 0.237168
Si Si4 0.030267 0.287246 0.369212
Si Si5 0.466016 0.793787 0.248108
Si Si6 0.160496 0.286037 0.233684
Si Si7 0.318390 0.799223 0.998115
O O1 0.245851 0.500000 0.297840
O O2 0.301657 0.777022 0.284390
O O3 0.197130 0.775578 0.286001
O O4 0.291382 0.699483 0.117152
O O5 0.113738 0.291344 0.056606
O O6 0.008061 0.236907 0.117270
O O7 0.082122 0.000000 0.014247
O O8 0.096010 0.272020 0.893947
O O9 0.901451 0.753820 0.293108
O O10 0.861152 0.000000 0.233950
O O11 0.031091 0.500000 0.365000
O O12 0.095556 0.230390 0.301515
O O13 0.000000 0.235826 0.500000
O O14 0.994341 0.224559 0.315699
O O15 0.468269 0.000000 0.250486
O O16 0.161757 0.500000 0.232140
O O17 0.189661 0.231895 0.101511
O O18 0.301030 0.000000 0.023697
#
# Coordination Sequence:
#
# PCOD9169565 Si02
#       7
#     8   8   8   8   8   8   8
#     4   9  18  31  47  69 100 136 169 196 235 295
#     4  10  19  31  47  69 101 138 171 198 237 296
#     4   9  19  32  45  67  99 136 169 193 232 296
#     4   9  18  33  53  77 100 122 159 213 262 298
#     4  11  20  31  50  74  97 126 164 209 255 291
#     4   9  16  29  49  71  97 128 165 208 246 291
#     4  10  17  27  45  72 104 131 165 205 243 287
#
# _framework density 22.241069
#
# number of rings (size 3 to 8) (size 9 to 14) (size 15 to 20)
#    0.000    2.429    1.429    3.000    0.000    4.571 
#    0.000    0.714    0.000    2.571    0.000    0.000 
#    0.000    0.000    0.000    0.000    0.000    0.429 
#
# Total GULP energy -156211.261265 kJ/mol
# GULP energy per Si atom -5578.973617 kJ/mol
# Density = 2.219045 g / cm^3
# Si number density = 22.241069 Si / 1000 Ang^3
#
#
#
# Elastic Constant Matrix: (Units=GPa)
#
#
# Indices 1 2 3 4 5 6 
#
# 1 199.3588 16.5807 33.6333 0.0000 5.2476 0.0000
# 2 16.5807 48.4106 -7.3939 0.0000 1.6573 -0.0001
# 3 33.6333 -7.3939 32.6671 0.0000 -0.8531 0.0000
# 4 0.0000 0.0000 0.0000 -5.0914 0.0000 0.6742
# 5 5.2476 1.6573 -0.8531 0.0000 11.9050 0.0000
# 6 0.0000 -0.0001 0.0000 0.6742 0.0000 22.6713
#
#
#
# Elastic Compliance Matrix: (Units=1/GPa)
#
#
# Indices 1 2 3 4 5 6 
#
# 1 0.006677 -0.003361 -0.007714 0.000000 -0.003028 0.000000
# 2 -0.003361 0.023171 0.008676 0.000000 -0.001122 0.000000
# 3 -0.007714 0.008676 0.040651 0.000000 0.005106 0.000000
# 4 0.000000 0.000000 0.000000 -0.195640 0.000000 0.005818
# 5 -0.003028 -0.001122 0.005106 0.000000 0.085855 0.000000
# 6 0.000000 0.000000 0.000000 0.005818 0.000000 0.043936
#
#
# Mechanical properties :
#
#
# Convention : Reuss Voigt Hill
#
# Bulk Modulus (GPa) = 15.22056 40.67522 27.94789
# Shear Modulus (GPa) = 159.49204 21.73807 90.61505
#
# Velocity S-wave (km/s) = 8.47740 3.12971 6.38989
# Velocity P-wave (km/s) = 10.13311 5.60251 8.18743
#
# Compressibility (1/GPa) = 0.06570059
#
# Stress axis : x y z
#
# Youngs Moduli (GPa) = 149.77276 43.15656 24.59952
#
# Poissons Ratio (x) = 0.14506 0.18976
# Poissons Ratio (y) = 0.50344 -0.21343
# Poissons Ratio (z) = 1.15537 -0.37443
#
# Static dielectric constant tensor:
#      x y z
#    x 1.940170 0.000000 -0.007360 
#    y 0.000000 1.818410 0.000000 
#    z -0.007360 0.000000 1.776920 
# 
# From -- ./inp_files/243646.got.cif
#   From: 2010.05.17/outbox.cif.g08.bks.cpg/sg12_122_cif.got.tgz:243646.got - 2010.06.03 13:09:07.
