data_PCOD9169563
_publ_section_title
;
Structure prediction by ZEFSAII (Michael W. Deem and Ramdas Pophale) SiO2 
 PCOD9169563
Probable space group: C 2/M
;
_chemical_formula_sum "Si O2"
_cell_formula_units_Z 56
_cell_length_a 20.695706
_cell_length_b 20.220290
_cell_length_c 11.618873
_cell_angle_alpha 90.000000
_cell_angle_beta 136.126335
_cell_angle_gamma 90.000000
_cell_volume 3369.838489
_symmetry_space_group_name_H-M "C 2/M"
_symmetry_group_IT_number 12
_symmetry_cell_setting 'monoclinic'
loop_
_space_group_symop_operation_xyz
x,y,z
-x,y,-z
-x,-y,-z
x,-y,z
1/2+x,1/2+y,z
1/2-x,1/2+y,-z
1/2-x,1/2-y,-z
1/2+x,1/2-y,z
loop_
_atom_site_type_symbol
_atom_site_label
_atom_site_fract_x
_atom_site_fract_y
_atom_site_fract_z
Si Si1 0.865731 0.649240 0.586592
Si Si2 0.692619 0.843983 0.993979
Si Si3 0.471129 0.078797 0.334105
Si Si4 0.872845 0.809238 0.088830
Si Si5 0.724669 0.162237 0.293217
Si Si6 0.675935 0.681226 0.231746
Si Si7 0.915079 0.194287 0.646852
O O1 0.834303 0.633760 0.676393
O O2 0.772275 0.645546 0.389455
O O3 0.898741 0.726115 0.623787
O O4 0.947360 0.603928 0.645006
O O5 0.624426 0.888569 0.831057
O O6 0.649990 0.769491 0.938066
O O7 0.795490 0.840772 0.071774
O O8 0.700137 0.865063 0.136813
O O9 0.500000 0.100367 0.500000
O O10 0.463754 0.000000 0.323236
O O11 0.980388 0.819694 0.258187
O O12 0.858590 0.834416 0.939795
O O13 0.699849 0.240465 0.260669
O O14 0.833886 0.161198 0.466442
O O15 0.604525 0.672685 0.245950
#
# Coordination Sequence:
#
# PCOD9169563 Si02
#       7
#     8   8   8   8   8   8   8
#     4   9  16  32  48  66  97 131 158 197 240 285
#     4  10  20  32  43  70 100 127 162 203 240 285
#     4  11  23  37  52  69  92 129 170 203 241 287
#     4  10  17  27  45  72 100 131 158 196 244 286
#     4   8  17  29  46  68  98 127 156 193 243 292
#     4   8  15  26  45  69  98 128 160 190 238 290
#     4   9  15  27  46  73  98 130 157 188 242 298
#
# _framework density 16.618008
#
# number of rings (size 3 to 8) (size 9 to 14) (size 15 to 20)
#    0.000    2.714    1.429    3.000    0.000    2.286 
#    0.000    1.429    0.000    0.000    0.000    6.000 
#    0.000   14.857    0.000    0.000    0.000    0.000 
#
# Total GULP energy -156013.717550 kJ/mol
# GULP energy per Si atom -5571.918484 kJ/mol
# Density = 1.658018 g / cm^3
# Si number density = 16.618008 Si / 1000 Ang^3
#
#
#
# Elastic Constant Matrix: (Units=GPa)
#
#
# Indices 1 2 3 4 5 6 
#
# 1 105.9864 22.0929 75.1579 0.0000 16.5826 0.0000
# 2 22.0929 20.0720 23.8221 0.0000 -2.4843 0.0000
# 3 75.1579 23.8221 105.9544 0.0000 -2.3945 0.0000
# 4 0.0000 0.0000 0.0000 13.1606 0.0000 -1.3855
# 5 16.5826 -2.4843 -2.3945 0.0000 34.4057 0.0000
# 6 0.0000 0.0000 0.0000 -1.3855 0.0000 8.8512
#
#
#
# Elastic Compliance Matrix: (Units=1/GPa)
#
#
# Indices 1 2 3 4 5 6 
#
# 1 0.024822 -0.010588 -0.015539 0.000000 -0.013809 0.000000
# 2 -0.010588 0.072983 -0.008677 0.000000 0.009769 0.000000
# 3 -0.015539 -0.008677 0.022602 0.000000 0.008436 0.000000
# 4 0.000000 0.000000 0.000000 0.077257 0.000000 0.012094
# 5 -0.013809 0.009769 0.008436 0.000000 0.037013 0.000000
# 6 0.000000 0.000000 0.000000 0.012094 0.000000 0.114872
#
#
# Mechanical properties :
#
#
# Convention : Reuss Voigt Hill
#
# Bulk Modulus (GPa) = 19.68599 52.68429 36.18514
# Shear Modulus (GPa) = 11.46552 18.67949 15.07250
#
# Velocity S-wave (km/s) = 2.62953 3.35632 3.01491
# Velocity P-wave (km/s) = 4.59251 6.84046 5.82593
#
# Compressibility (1/GPa) = 0.05079756
#
# Stress axis : x y z
#
# Youngs Moduli (GPa) = 40.28729 13.70187 44.24426
#
# Poissons Ratio (x) = 0.14508 0.68749
# Poissons Ratio (y) = 0.42658 0.38393
# Poissons Ratio (z) = 0.62601 0.11890
#
# Static dielectric constant tensor:
#      x y z
#    x 1.566360 0.000000 -0.010380 
#    y 0.000000 1.525210 0.000000 
#    z -0.010380 0.000000 1.572290 
# 
# From -- ./inp_files/169496.got.cif
#   From: 2010.05.17/outbox.cif.g08.bks.cpg/sg12_85_cif.got.tgz:169496.got - 2010.06.03 13:09:07.
