data_PCOD9169410
_publ_section_title
;
Structure prediction by ZEFSAII (Michael W. Deem and Ramdas Pophale) SiO2 
 PCOD9169410
Probable space group: C 2/M
;
_chemical_formula_sum "Si O2"
_cell_formula_units_Z 56
_cell_length_a 16.936754
_cell_length_b 13.949387
_cell_length_c 15.043161
_cell_angle_alpha 90.000000
_cell_angle_beta 61.333728
_cell_angle_gamma 90.000000
_cell_volume 3118.431748
_symmetry_space_group_name_H-M "C 2/M"
_symmetry_group_IT_number 12
_symmetry_cell_setting 'monoclinic'
loop_
_space_group_symop_operation_xyz
x,y,z
-x,y,-z
-x,-y,-z
x,-y,z
1/2+x,1/2+y,z
1/2-x,1/2+y,-z
1/2-x,1/2-y,-z
1/2+x,1/2-y,z
loop_
_atom_site_type_symbol
_atom_site_label
_atom_site_fract_x
_atom_site_fract_y
_atom_site_fract_z
Si Si1 0.214424 0.385747 0.213498
Si Si2 0.712068 0.236116 0.391405
Si Si3 0.430238 0.107691 0.467349
Si Si4 0.079002 0.111280 0.530246
Si Si5 0.416047 0.612875 0.099409
Si Si6 0.029051 0.606482 0.224673
Si Si7 0.422862 0.291566 0.279412
O O1 0.217162 0.500000 0.238589
O O2 0.191562 0.315958 0.308228
O O3 0.314589 0.355766 0.129169
O O4 0.134967 0.378965 0.184822
O O5 0.662380 0.164101 0.486278
O O6 0.663633 0.335871 0.438499
O O7 0.818510 0.238760 0.341984
O O8 0.500000 0.153227 0.500000
O O9 0.481743 0.102712 0.347236
O O10 0.411257 0.000000 0.509237
O O11 0.053143 0.165937 0.636286
O O12 0.000000 0.115235 0.500000
O O13 0.098111 0.000000 0.540692
O O14 0.415781 0.500000 0.082437
O O15 0.427637 0.631287 0.198027
O O16 0.500000 0.655680 0.000000
O O17 0.014910 0.500000 0.191525
O O18 0.982208 0.701692 0.213662
#
# Coordination Sequence:
#
# PCOD9169410 Si02
#       7
#     8   8   8   8   8   8   8
#     4   9  17  31  54  79 101 127 164 215 265 298
#     4  11  19  31  47  71 100 134 172 210 249 290
#     4  10  17  26  45  71  99 131 169 209 249 289
#     4  11  23  35  46  66 104 149 179 198 231 296
#     4   9  19  37  60  81  99 123 164 219 269 304
#     4  10  19  30  47  73 103 133 165 205 250 302
#     4  11  22  35  51  76 103 135 171 214 255 295
#
# _framework density 17.957744999999999
#
# number of rings (size 3 to 8) (size 9 to 14) (size 15 to 20)
#    0.000    1.857    2.857    2.571    0.000    2.286 
#    0.000    0.714    0.000    0.429    0.000    0.000 
#    0.000    0.000    0.000    0.000    0.000    0.000 
#
# Total GULP energy -155949.994318 kJ/mol
# GULP energy per Si atom -5569.642654 kJ/mol
# Density = 1.791687 g / cm^3
# Si number density = 17.957745 Si / 1000 Ang^3
#
#
#
# Elastic Constant Matrix: (Units=GPa)
#
#
# Indices 1 2 3 4 5 6 
#
# 1 59.2112 15.1546 21.3673 0.0000 -20.7494 0.0000
# 2 15.1546 73.5019 1.3649 0.0000 -14.7304 0.0000
# 3 21.3673 1.3649 66.9523 0.0000 -26.3437 0.0000
# 4 0.0000 0.0000 0.0000 -476.9179 0.0000 -265.2211
# 5 -20.7494 -14.7304 -26.3437 0.0000 24.8039 0.0000
# 6 0.0000 0.0000 0.0000 -265.2211 0.0000 -119.9317
#
#
#
# Elastic Compliance Matrix: (Units=1/GPa)
#
#
# Indices 1 2 3 4 5 6 
#
# 1 0.023964 -0.001041 0.000031 0.000000 0.019461 0.000000
# 2 -0.001041 0.016846 0.006154 0.000000 0.015670 0.000000
# 3 0.000031 0.006154 0.027914 0.000000 0.033327 0.000000
# 4 0.000000 0.000000 0.000000 0.009124 0.000000 -0.020177
# 5 0.019461 0.015670 0.033327 0.000000 0.101298 0.000000
# 6 0.000000 0.000000 0.000000 -0.020177 0.000000 0.036282
#
#
# Mechanical properties :
#
#
# Convention : Reuss Voigt Hill
#
# Bulk Modulus (GPa) = 12.65645 30.60434 21.63040
# Shear Modulus (GPa) = 21.60035 -103.62390 -41.01177
#
# Velocity S-wave (km/s) = 3.47197 -7.60458 -4.78409
# Velocity P-wave (km/s) = 4.80998 7.74769 4.29481
#
# Compressibility (1/GPa) = 0.07901107
#
# Stress axis : x y z
#
# Youngs Moduli (GPa) = 41.72953 59.36192 35.82421
#
# Poissons Ratio (x) = 0.06182 -0.00110
# Poissons Ratio (y) = 0.04345 -0.22048
# Poissons Ratio (z) = -0.00128 -0.36534
#
# Static dielectric constant tensor:
#      x y z
#    x 1.655080 0.000000 -0.015550 
#    y 0.000000 1.673840 0.000000 
#    z -0.015550 0.000000 1.628210 
# 
# From -- ./inp_files/240463.got.cif
#   From: 2010.05.17/outbox.cif.g08.bks.cpg/sg12_121_cif.got.tgz:240463.got - 2010.06.03 13:09:07.
