data_PCOD9169561
_publ_section_title
;
Structure prediction by ZEFSAII (Michael W. Deem and Ramdas Pophale) SiO2 
 PCOD9169561
Probable space group: C 2/M
;
_chemical_formula_sum "Si O2"
_cell_formula_units_Z 40
_cell_length_a 14.613268
_cell_length_b 17.445512
_cell_length_c 11.767925
_cell_angle_alpha 90.000000
_cell_angle_beta 33.390542
_cell_angle_gamma 90.000000
_cell_volume 1651.065664
_symmetry_space_group_name_H-M "C 2/M"
_symmetry_group_IT_number 12
_symmetry_cell_setting 'monoclinic'
loop_
_space_group_symop_operation_xyz
x,y,z
-x,y,-z
-x,-y,-z
x,-y,z
1/2+x,1/2+y,z
1/2-x,1/2+y,-z
1/2-x,1/2-y,-z
1/2+x,1/2-y,z
loop_
_atom_site_type_symbol
_atom_site_label
_atom_site_fract_x
_atom_site_fract_y
_atom_site_fract_z
Si Si1 0.943355 0.815830 0.374401
Si Si2 0.581613 0.845577 0.714835
Si Si3 0.157076 0.589510 0.403072
Si Si4 0.752876 0.088057 0.889952
Si Si5 0.594583 0.587197 0.032334
O O1 0.751091 0.827196 0.608194
O O2 0.968518 0.728961 0.308315
O O3 0.964950 0.861129 0.233066
O O4 0.090216 0.855343 0.295572
O O5 0.630730 0.904173 0.563952
O O6 0.426653 0.876256 0.947029
O O7 0.163955 0.500000 0.365437
O O8 0.322439 0.618791 0.167426
O O9 0.000000 0.624844 0.500000
O O10 0.761143 0.083947 0.020054
O O11 0.774606 0.000000 0.825599
O O12 0.530887 0.500000 0.088502
#
# Coordination Sequence:
#
# PCOD9169561 Si02
#       5
#     8   8   8   8   8
#     4   9  20  32  42  65  94 126 162 188 222 276
#     4  11  19  29  47  64  92 131 157 187 230 273
#     4  10  17  27  45  71  96 122 156 186 223 278
#     4   9  17  30  46  64  88 120 155 190 224 265
#     4   8  16  30  44  64  95 121 148 187 224 266
#
# _framework density 24.226776999999998
#
# number of rings (size 3 to 8) (size 9 to 14) (size 15 to 20)
#    1.200    1.400    2.000    1.200    0.000    4.000 
#    0.000    2.000    0.000    0.000    0.000    0.000 
#    0.000   17.600    0.000   57.200    0.000    0.000 
#
# Total GULP energy -111410.942752 kJ/mol
# GULP energy per Si atom -5570.547138 kJ/mol
# Density = 2.417164 g / cm^3
# Si number density = 24.226777 Si / 1000 Ang^3
#
#
#
# Elastic Constant Matrix: (Units=GPa)
#
#
# Indices 1 2 3 4 5 6 
#
# 1 53.4119 -6.1347 20.2068 -0.0012 -0.2928 0.0007
# 2 -6.1347 87.6472 53.1498 -0.0002 -20.3203 0.0002
# 3 20.2068 53.1498 152.6693 -0.0071 -31.1396 0.0029
# 4 -0.0012 -0.0002 -0.0071 29.2377 0.0022 -21.9187
# 5 -0.2928 -20.3203 -31.1396 0.0022 36.3680 -0.0010
# 6 0.0007 0.0002 0.0029 -21.9187 -0.0010 17.0573
#
#
#
# Elastic Compliance Matrix: (Units=1/GPa)
#
#
# Indices 1 2 3 4 5 6 
#
# 1 0.020796 0.003760 -0.004360 -0.000007 -0.001465 -0.000009
# 2 0.003760 0.015797 -0.005077 -0.000019 0.004509 -0.000024
# 3 -0.004360 -0.005077 0.010067 0.000025 0.005748 0.000031
# 4 -0.000007 -0.000019 0.000025 0.932817 -0.000012 1.198675
# 5 -0.001465 0.004509 0.005748 -0.000012 0.034926 -0.000014
# 6 -0.000009 -0.000024 0.000031 1.198675 -0.000014 1.598930
#
#
# Mechanical properties :
#
#
# Convention : Reuss Voigt Hill
#
# Bulk Modulus (GPa) = 28.32494 47.57468 37.94981
# Shear Modulus (GPa) = 1.89648 31.63304 16.76476
#
# Velocity S-wave (km/s) = 0.88572 3.61737 2.63343
# Velocity P-wave (km/s) = 3.57253 6.09320 4.99450
#
# Compressibility (1/GPa) = 0.03530458
#
# Stress axis : x y z
#
# Youngs Moduli (GPa) = 48.08653 63.30336 99.33212
#
# Poissons Ratio (x) = -0.23802 0.43312
# Poissons Ratio (y) = -0.18081 0.50435
# Poissons Ratio (z) = 0.20967 0.32142
#
# Static dielectric constant tensor:
#      x y z
#    x 2.003860 0.000000 -0.107880 
#    y 0.000000 1.923210 0.000000 
#    z -0.107880 0.000000 1.990660 
# 
# From -- ./inp_files/110646.got.cif
#   From: 2010.05.17/outbox.cif.g08.bks.cpg/sg12_56_cif.got.tgz:110646.got - 2010.06.03 13:09:07.
