data_PCOD9169169
_publ_section_title
;
Structure prediction by ZEFSAII (Michael W. Deem and Ramdas Pophale) SiO2 
 PCOD9169169
Probable space group: C 2/M
;
_chemical_formula_sum "Si O2"
_cell_formula_units_Z 64
_cell_length_a 13.597409
_cell_length_b 8.382179
_cell_length_c 22.281219
_cell_angle_alpha 90.000000
_cell_angle_beta 86.817144
_cell_angle_gamma 90.000000
_cell_volume 2535.604939
_symmetry_space_group_name_H-M "C 2/M"
_symmetry_group_IT_number 12
_symmetry_cell_setting 'monoclinic'
loop_
_space_group_symop_operation_xyz
x,y,z
-x,y,-z
-x,-y,-z
x,-y,z
1/2+x,1/2+y,z
1/2-x,1/2+y,-z
1/2-x,1/2-y,-z
1/2+x,1/2-y,z
loop_
_atom_site_type_symbol
_atom_site_label
_atom_site_fract_x
_atom_site_fract_y
_atom_site_fract_z
Si Si1 0.357695 0.691769 0.517732
Si Si2 0.799464 0.322638 0.641455
Si Si3 0.368169 0.185413 0.887691
Si Si4 0.585833 0.309632 0.859822
Si Si5 0.189714 0.819919 0.229277
Si Si6 0.925062 0.181638 0.393420
Si Si7 0.957369 0.814726 0.264625
Si Si8 0.380808 0.311405 0.012640
O O1 0.361066 0.500000 0.515342
O O2 0.250000 0.750000 0.500000
O O3 0.366408 0.742342 0.587342
O O4 0.427272 0.750368 0.460398
O O5 0.837197 0.500000 0.651480
O O6 0.780154 0.241774 0.706202
O O7 0.691748 0.331823 0.615887
O O8 0.468455 0.285442 0.875194
O O9 0.298523 0.221481 0.832832
O O10 0.334593 0.225756 0.956423
O O11 0.393502 0.000000 0.884355
O O12 0.604100 0.500000 0.857455
O O13 0.599916 0.245255 0.791267
O O14 0.633932 0.245304 0.919371
O O15 0.071025 0.821370 0.242803
O O16 0.222671 0.000000 0.218036
O O17 0.957931 0.263316 0.330321
O O18 0.966140 0.000000 0.393946
O O19 0.922512 0.000000 0.272869
O O20 0.356857 0.500000 0.011963
O O21 0.500000 0.299095 0.000000
#
# Coordination Sequence:
#
# PCOD9169169 Si02
#       8
#     8   8   8   8   8   8   8   8
#     4   9  16  28  47  69  91 116 147 184 223 260
#     4  10  19  31  48  69  92 117 147 184 222 263
#     4  10  17  24  37  58  85 115 146 181 220 260
#     4   8  14  24  39  58  83 115 147 180 217 259
#     4  10  19  31  47  65  89 120 149 181 221 266
#     4   8  15  28  48  71  90 111 145 186 220 256
#     4   8  14  27  46  67  89 115 149 184 219 260
#     4   8  13  22  35  54  81 112 146 180 215 257
#
# _framework density 25.240525000000002
#
# number of rings (size 3 to 8) (size 9 to 14) (size 15 to 20)
#    0.000    3.125    0.000    4.500    0.000    2.250 
#    0.000    0.625    0.000   26.250    0.000    0.875 
#    0.000    0.000    0.000    0.000    0.000    0.000 
#
# Total GULP energy -178528.916306 kJ/mol
# GULP energy per Si atom -5579.028635 kJ/mol
# Density = 2.518308 g / cm^3
# Si number density = 25.240525 Si / 1000 Ang^3
#
#
#
# Elastic Constant Matrix: (Units=GPa)
#
#
# Indices 1 2 3 4 5 6 
#
# 1 53.5919 -0.7476 39.6594 0.0000 10.6554 0.0000
# 2 -0.7476 36.1911 22.6020 0.0000 -1.2694 0.0000
# 3 39.6594 22.6020 278.9158 0.0000 5.4034 0.0000
# 4 0.0000 0.0000 0.0000 34.1769 0.0000 4.7353
# 5 10.6554 -1.2694 5.4034 0.0000 63.0236 0.0000
# 6 0.0000 0.0000 0.0000 4.7353 0.0000 11.3505
#
#
#
# Elastic Compliance Matrix: (Units=1/GPa)
#
#
# Indices 1 2 3 4 5 6 
#
# 1 0.021738 0.002340 -0.003216 0.000000 -0.003352 0.000000
# 2 0.002340 0.029395 -0.002723 0.000000 0.000430 0.000000
# 3 -0.003216 -0.002723 0.004261 0.000000 0.000124 0.000000
# 4 0.000000 0.000000 0.000000 0.031055 0.000000 -0.012956
# 5 -0.003352 0.000430 0.000124 0.000000 0.016432 0.000000
# 6 0.000000 0.000000 0.000000 -0.012956 0.000000 0.093507
#
#
# Mechanical properties :
#
#
# Convention : Reuss Voigt Hill
#
# Bulk Modulus (GPa) = 20.74846 54.63626 37.69236
# Shear Modulus (GPa) = 22.76337 42.18921 32.47629
#
# Velocity S-wave (km/s) = 3.00635 4.09282 3.59091
# Velocity P-wave (km/s) = 4.50433 6.63537 5.67085
#
# Compressibility (1/GPa) = 0.04819634
#
# Stress axis : x y z
#
# Youngs Moduli (GPa) = 46.00157 34.01925 234.69652
#
# Poissons Ratio (x) = -0.07960 0.75471
# Poissons Ratio (y) = -0.10763 0.63909
# Poissons Ratio (z) = 0.14793 0.09264
#
# Static dielectric constant tensor:
#      x y z
#    x 2.154990 0.000000 0.002050 
#    y 0.000000 1.896680 0.000000 
#    z 0.002050 0.000000 2.114770 
# 
# From -- ./inp_files/319174.got.cif
#   From: 2010.05.17/outbox.cif.g08.bks.cpg/sg12_160_cif.got.tgz:319174.got - 2010.06.03 13:09:07.
