data_PCOD9169095
_publ_section_title
;
Structure prediction by ZEFSAII (Michael W. Deem and Ramdas Pophale) SiO2 
 PCOD9169095
Probable space group: C 2/M
;
_chemical_formula_sum "Si O2"
_cell_formula_units_Z 38
_cell_length_a 11.956901
_cell_length_b 19.817859
_cell_length_c 11.835018
_cell_angle_alpha 90.000000
_cell_angle_beta 36.895621
_cell_angle_gamma 90.000000
_cell_volume 1683.663869
_symmetry_space_group_name_H-M "C 2/M"
_symmetry_group_IT_number 12
_symmetry_cell_setting 'monoclinic'
loop_
_space_group_symop_operation_xyz
x,y,z
-x,y,-z
-x,-y,-z
x,-y,z
1/2+x,1/2+y,z
1/2-x,1/2+y,-z
1/2-x,1/2-y,-z
1/2+x,1/2-y,z
loop_
_atom_site_type_symbol
_atom_site_label
_atom_site_fract_x
_atom_site_fract_y
_atom_site_fract_z
Si Si1 0.036440 0.866448 0.741263
Si Si2 0.000000 0.500000 0.500000
Si Si3 0.406234 0.755111 0.696333
Si Si4 0.962441 0.394640 0.338315
Si Si5 0.092426 0.000000 0.251155
Si Si6 0.316526 0.000000 0.291830
Si Si7 0.000000 0.213679 0.000000
O O1 0.993677 0.810043 0.682577
O O2 0.913992 0.932624 0.817789
O O3 0.005397 0.833456 0.886565
O O4 0.252166 0.884926 0.554416
O O5 0.948638 0.441609 0.637232
O O6 0.500000 0.768544 0.500000
O O7 0.441944 0.821749 0.743394
O O8 0.188275 0.744225 0.853946
O O9 0.929116 0.435555 0.249060
O O10 0.257503 0.000000 0.209249
O O11 0.888921 0.000000 0.479959
#
# Coordination Sequence:
#
# PCOD9169095 Si02
#       7
#     8   2   8   8   4   4   4
#     4  11  24  41  67  98 136 175 224 279 333 401
#     4  10  16  34  58  98 136 160 214 270 312 392
#     4  12  25  42  69 100 132 177 227 271 335 398
#     4  10  19  37  65  97 130 172 218 269 330 387
#     4   9  20  39  62 101 130 174 222 273 339 395
#     4   8  18  32  63  95 135 167 214 278 324 390
#     4  12  26  45  64  99 136 174 220 284 334 391
#
# _framework density 22.569825000000002
#
# number of rings (size 3 to 8) (size 9 to 14) (size 15 to 20)
#    0.000    1.474    3.158    1.895    5.895    0.421 
#    0.000    2.105    0.000    1.895    0.000    0.000 
#    0.000    0.000    0.000    0.000    0.000    0.000 
#
# Total GULP energy -106042.018993 kJ/mol
# GULP energy per Si atom -5581.158894 kJ/mol
# Density = 2.251845 g / cm^3
# Si number density = 22.569825 Si / 1000 Ang^3
#
#
#
# Elastic Constant Matrix: (Units=GPa)
#
#
# Indices 1 2 3 4 5 6 
#
# 1 78.9171 8.9145 -0.2001 0.0017 1.7207 -0.0017
# 2 8.9145 93.3813 -27.8183 0.0013 0.1723 -0.0003
# 3 -0.2001 -27.8183 38.6620 0.0031 -13.5016 -0.0043
# 4 0.0017 0.0013 0.0031 -10.9599 -0.0022 -9.7282
# 5 1.7207 0.1723 -13.5016 -0.0022 26.3314 0.0026
# 6 -0.0017 -0.0003 -0.0043 -9.7282 0.0026 182.9265
#
#
#
# Elastic Compliance Matrix: (Units=1/GPa)
#
#
# Indices 1 2 3 4 5 6 
#
# 1 0.012906 -0.001773 -0.001826 0.000001 -0.001768 0.000000
# 2 -0.001773 0.014704 0.012885 0.000003 0.006626 0.000000
# 3 -0.001826 0.012885 0.042804 0.000008 0.021983 0.000001
# 4 0.000001 0.000003 0.000008 -0.087128 -0.000003 -0.004634
# 5 -0.001768 0.006626 0.021983 -0.000003 0.049321 0.000000
# 6 0.000000 0.000000 0.000001 -0.004634 0.000000 0.005220
#
#
# Mechanical properties :
#
#
# Convention : Reuss Voigt Hill
#
# Bulk Modulus (GPa) = 11.23780 19.19474 15.21627
# Shear Modulus (GPa) = 102.21422 54.99722 78.60572
#
# Velocity S-wave (km/s) = 6.73694 4.94171 5.90791
# Velocity P-wave (km/s) = 8.09352 6.40966 7.30030
#
# Compressibility (1/GPa) = 0.08898537
#
# Stress axis : x y z
#
# Youngs Moduli (GPa) = 77.48508 68.00766 23.36248
#
# Poissons Ratio (x) = 0.12056 0.04267
# Poissons Ratio (y) = 0.13737 -0.30103
# Poissons Ratio (z) = 0.14151 -0.87628
#
# Static dielectric constant tensor:
#      x y z
#    x 1.866430 0.000000 0.138610 
#    y 0.000000 1.752070 -0.000020 
#    z 0.138610 -0.000020 2.436080 
# 
# From -- ./inp_files/133694.got.cif
#   From: 2010.05.17/outbox.cif.g08.bks.cpg/sg12_67_cif.got.tgz:133694.got - 2010.06.03 13:09:07.
