data_PCOD9169771
_publ_section_title
;
Structure prediction by ZEFSAII (Michael W. Deem and Ramdas Pophale) SiO2 
 PCOD9169771
Probable space group: C 2/M
;
_chemical_formula_sum "Si O2"
_cell_formula_units_Z 56
_cell_length_a 20.839328
_cell_length_b 18.099856
_cell_length_c 10.963243
_cell_angle_alpha 90.000000
_cell_angle_beta 53.572672
_cell_angle_gamma 90.000000
_cell_volume 3327.236380
_symmetry_space_group_name_H-M "C 2/M"
_symmetry_group_IT_number 12
_symmetry_cell_setting 'monoclinic'
loop_
_space_group_symop_operation_xyz
x,y,z
-x,y,-z
-x,-y,-z
x,-y,z
1/2+x,1/2+y,z
1/2-x,1/2+y,-z
1/2-x,1/2-y,-z
1/2+x,1/2-y,z
loop_
_atom_site_type_symbol
_atom_site_label
_atom_site_fract_x
_atom_site_fract_y
_atom_site_fract_z
Si Si1 0.510876 0.820248 0.691318
Si Si2 0.351440 0.775393 0.629950
Si Si3 0.129359 0.416071 0.273752
Si Si4 0.210314 0.082678 0.063968
Si Si5 0.776400 0.669128 0.196858
Si Si6 0.368751 0.268999 0.897037
Si Si7 0.080651 0.587015 0.827759
O O1 0.567192 0.774151 0.537203
O O2 0.449584 0.876329 0.691299
O O3 0.456780 0.761087 0.824970
O O4 0.561542 0.870689 0.724515
O O5 0.337222 0.863253 0.657817
O O6 0.280607 0.723854 0.662188
O O7 0.360084 0.749814 0.762067
O O8 0.112136 0.500000 0.328798
O O9 0.200653 0.416683 0.094525
O O10 0.223771 0.107055 0.188383
O O11 0.156254 0.145929 0.063466
O O12 0.178683 0.000000 0.087458
O O13 0.847651 0.629375 0.186169
O O14 0.811909 0.720540 0.047660
O O15 0.098399 0.500000 0.790874
O O16 0.000000 0.591283 0.000000
#
# Coordination Sequence:
#
# PCOD9169771 Si02
#       7
#     8   8   8   8   8   8   8
#     4  11  21  32  50  74 104 136 166 207 250 297
#     4  10  20  32  49  75 101 134 167 204 253 304
#     4  10  17  28  47  75 106 130 156 201 259 303
#     4  10  17  28  51  78 100 128 168 210 251 292
#     4  11  18  34  53  71 104 138 169 204 241 301
#     4  10  17  33  52  74 101 135 168 208 252 296
#     4  11  22  35  53  77 103 134 170 203 245 306
#
# _framework density 16.830784000000001
#
# number of rings (size 3 to 8) (size 9 to 14) (size 15 to 20)
#    0.000    1.571    5.714    3.429    0.000    4.571 
#    0.000    0.000    0.000    7.714    0.000    3.000 
#    0.000    0.000    0.000    0.000    0.000    0.000 
#
# Total GULP energy -155892.785197 kJ/mol
# GULP energy per Si atom -5567.599471 kJ/mol
# Density = 1.679248 g / cm^3
# Si number density = 16.830784 Si / 1000 Ang^3
#
#
#
# Elastic Constant Matrix: (Units=GPa)
#
#
# Indices 1 2 3 4 5 6 
#
# 1 58.5388 53.4060 5.9611 0.0000 -5.4734 0.0000
# 2 53.4060 141.9456 30.7811 0.0000 -16.3850 0.0000
# 3 5.9611 30.7811 67.0078 0.0000 -12.9789 0.0000
# 4 0.0000 0.0000 0.0000 18.0623 0.0000 -9.5875
# 5 -5.4734 -16.3850 -12.9789 0.0000 15.6599 0.0000
# 6 0.0000 0.0000 0.0000 -9.5875 0.0000 25.3451
#
#
#
# Elastic Compliance Matrix: (Units=1/GPa)
#
#
# Indices 1 2 3 4 5 6 
#
# 1 0.026372 -0.010422 0.002519 0.000000 0.000400 0.000000
# 2 -0.010422 0.012484 -0.003554 0.000000 0.006474 0.000000
# 3 0.002519 -0.003554 0.018800 0.000000 0.012744 0.000000
# 4 0.000000 0.000000 0.000000 0.069273 0.000000 0.026204
# 5 0.000400 0.006474 0.012744 0.000000 0.081334 0.000000
# 6 0.000000 0.000000 0.000000 0.026204 0.000000 0.049368
#
#
# Mechanical properties :
#
#
# Convention : Reuss Voigt Hill
#
# Bulk Modulus (GPa) = 28.78280 49.75430 39.26855
# Shear Modulus (GPa) = 17.11588 23.63638 20.37613
#
# Velocity S-wave (km/s) = 3.19241 3.75154 3.48321
# Velocity P-wave (km/s) = 5.54320 6.95637 6.28960
#
# Compressibility (1/GPa) = 0.03474297
#
# Stress axis : x y z
#
# Youngs Moduli (GPa) = 37.91883 80.10094 53.19046
#
# Poissons Ratio (x) = 0.83484 -0.13399
# Poissons Ratio (y) = 0.39520 0.18902
# Poissons Ratio (z) = -0.09552 0.28465
#
# Static dielectric constant tensor:
#      x y z
#    x 1.606990 0.000000 -0.004750 
#    y 0.000000 1.600770 0.000000 
#    z -0.004750 0.000000 1.625320 
# 
# From -- ./inp_files/168395.got.cif
#   From: 2010.05.17/outbox.cif.g08.bks.cpg/sg12_85_cif.got.tgz:168395.got - 2010.06.03 13:09:07.
