data_PCOD9169681
_publ_section_title
;
Structure prediction by ZEFSAII (Michael W. Deem and Ramdas Pophale) SiO2 
 PCOD9169681
Probable space group: C 2/M
;
_chemical_formula_sum "Si O2"
_cell_formula_units_Z 56
_cell_length_a 29.956837
_cell_length_b 8.203792
_cell_length_c 14.037638
_cell_angle_alpha 90.000000
_cell_angle_beta 104.153899
_cell_angle_gamma 90.000000
_cell_volume 3345.154953
_symmetry_space_group_name_H-M "C 2/M"
_symmetry_group_IT_number 12
_symmetry_cell_setting 'monoclinic'
loop_
_space_group_symop_operation_xyz
x,y,z
-x,y,-z
-x,-y,-z
x,-y,z
1/2+x,1/2+y,z
1/2-x,1/2+y,-z
1/2-x,1/2-y,-z
1/2+x,1/2-y,z
loop_
_atom_site_type_symbol
_atom_site_label
_atom_site_fract_x
_atom_site_fract_y
_atom_site_fract_z
Si Si1 0.356120 0.199544 0.629315
Si Si2 0.269846 0.190006 0.110018
Si Si3 0.797404 0.689447 0.417373
Si Si4 0.213620 0.690603 0.257825
Si Si5 0.648178 0.312361 0.728720
Si Si6 0.050450 0.301562 0.414378
Si Si7 0.447291 0.196902 0.362138
O O1 0.322591 0.249421 0.525168
O O2 0.333117 0.250557 0.716600
O O3 0.407495 0.254071 0.629497
O O4 0.356036 0.000000 0.629001
O O5 0.232815 0.219835 0.175071
O O6 0.316399 0.280464 0.167253
O O7 0.280344 0.000000 0.110264
O O8 0.250000 0.250000 0.000000
O O9 0.784447 0.500000 0.422475
O O10 0.753296 0.788269 0.358780
O O11 0.833703 0.703489 0.349635
O O12 0.209387 0.500000 0.232028
O O13 0.652346 0.500000 0.701776
O O14 0.595188 0.269223 0.717958
O O15 0.050696 0.500000 0.413759
O O16 0.058293 0.255293 0.529111
O O17 0.998775 0.251021 0.359724
O O18 0.445217 0.000000 0.356667
#
# Coordination Sequence:
#
# PCOD9169681 Si02
#       7
#     8   8   8   8   8   8   8
#     4   9  16  26  43  66  94 128 165 198 228 268
#     4  11  22  38  56  73  93 117 151 194 239 289
#     4  10  17  28  44  62  90 128 167 198 226 267
#     4  10  19  30  45  68  96 124 155 192 235 282
#     4  11  20  30  46  70  99 127 157 195 239 285
#     4   8  14  25  44  67  91 127 171 206 231 263
#     4   9  15  27  47  66  90 127 170 205 234 270
#
# _framework density 16.740629999999999
#
# number of rings (size 3 to 8) (size 9 to 14) (size 15 to 20)
#    0.000    2.286    1.429    6.429    0.000    0.000 
#    0.000    3.571    0.000    0.000    0.000    1.000 
#    0.000    8.000    0.000    0.000    0.000    0.000 
#
# Total GULP energy -156129.755868 kJ/mol
# GULP energy per Si atom -5576.062710 kJ/mol
# Density = 1.670253 g / cm^3
# Si number density = 16.740630 Si / 1000 Ang^3
#
#
#
# Elastic Constant Matrix: (Units=GPa)
#
#
# Indices 1 2 3 4 5 6 
#
# 1 125.6579 -0.0237 48.6280 0.0000 -5.8492 0.0000
# 2 -0.0237 28.4906 3.0332 0.0000 -1.2641 0.0000
# 3 48.6280 3.0332 68.0681 0.0000 6.9025 0.0000
# 4 0.0000 0.0000 0.0000 13.3478 0.0000 1.8533
# 5 -5.8492 -1.2641 6.9025 0.0000 11.5826 0.0000
# 6 0.0000 0.0000 0.0000 1.8533 0.0000 16.8176
#
#
#
# Elastic Compliance Matrix: (Units=1/GPa)
#
#
# Indices 1 2 3 4 5 6 
#
# 1 0.012541 0.001671 -0.010318 0.000000 0.012664 0.000000
# 2 0.001671 0.035774 -0.003480 0.000000 0.006822 0.000000
# 3 -0.010318 -0.003480 0.024250 0.000000 -0.020042 0.000000
# 4 0.000000 0.000000 0.000000 0.076083 0.000000 -0.008384
# 5 0.012664 0.006822 -0.020042 0.000000 0.105420 0.000000
# 6 0.000000 0.000000 0.000000 -0.008384 0.000000 0.060385
#
#
# Mechanical properties :
#
#
# Convention : Reuss Voigt Hill
#
# Bulk Modulus (GPa) = 20.69913 36.16572 28.43243
# Shear Modulus (GPa) = 14.09204 19.72153 16.90679
#
# Velocity S-wave (km/s) = 2.90450 3.43602 3.18138
# Velocity P-wave (km/s) = 4.86206 6.11491 5.52412
#
# Compressibility (1/GPa) = 0.04831120
#
# Stress axis : x y z
#
# Youngs Moduli (GPa) = 79.73934 27.95338 41.23754
#
# Poissons Ratio (x) = -0.04671 0.42549
# Poissons Ratio (y) = -0.13323 0.14349
# Poissons Ratio (z) = 0.82275 0.09726
#
# Static dielectric constant tensor:
#      x y z
#    x 1.611920 0.000000 -0.006140 
#    y 0.000000 1.578600 0.000000 
#    z -0.006140 0.000000 1.539420 
# 
# From -- ./inp_files/247894.got.cif
#   From: 2010.05.17/outbox.cif.g08.bks.cpg/sg12_124_cif.got.tgz:247894.got - 2010.06.03 13:09:07.
