data_PCOD9169555
_publ_section_title
;
Structure prediction by ZEFSAII (Michael W. Deem and Ramdas Pophale) SiO2 
 PCOD9169555
Probable space group: C 2/M
;
_chemical_formula_sum "Si O2"
_cell_formula_units_Z 48
_cell_length_a 24.862111
_cell_length_b 8.769587
_cell_length_c 15.743254
_cell_angle_alpha 90.000000
_cell_angle_beta 61.568797
_cell_angle_gamma 90.000000
_cell_volume 3018.511818
_symmetry_space_group_name_H-M "C 2/M"
_symmetry_group_IT_number 12
_symmetry_cell_setting 'monoclinic'
loop_
_space_group_symop_operation_xyz
x,y,z
-x,y,-z
-x,-y,-z
x,-y,z
1/2+x,1/2+y,z
1/2-x,1/2+y,-z
1/2-x,1/2-y,-z
1/2+x,1/2-y,z
loop_
_atom_site_type_symbol
_atom_site_label
_atom_site_fract_x
_atom_site_fract_y
_atom_site_fract_z
Si Si1 0.316567 0.183083 0.470756
Si Si2 0.928781 0.182623 0.058676
Si Si3 0.201872 0.817957 0.153788
Si Si4 0.346027 0.183526 0.266992
Si Si5 0.211414 0.316640 0.326338
Si Si6 0.160616 0.682161 0.012361
O O1 0.250000 0.250000 0.500000
O O2 0.356612 0.225661 0.358418
O O3 0.327999 0.226726 0.560039
O O4 0.312681 0.000000 0.472750
O O5 0.896569 0.251846 0.165987
O O6 0.923606 0.000000 0.065252
O O7 0.891657 0.244769 0.005723
O O8 0.000000 0.224369 0.000000
O O9 0.187054 0.750249 0.256787
O O10 0.163738 0.746767 0.105220
O O11 0.195667 0.000000 0.158495
O O12 0.273282 0.781281 0.079697
O O13 0.279847 0.250705 0.289849
O O14 0.343221 0.000000 0.261324
O O15 0.215066 0.500000 0.318190
O O16 0.154413 0.500000 0.018285
#
# Coordination Sequence:
#
# PCOD9169555 Si02
#       6
#     8   8   8   8   8   8
#     4   8  16  27  41  64  93 124 156 190 231 280
#     4  11  23  36  50  69  95 128 164 201 240 282
#     4  10  19  30  47  71  99 128 157 194 237 286
#     4  10  18  30  46  66  94 126 161 199 236 278
#     4  10  17  27  45  69  98 129 157 189 234 286
#     4  10  20  33  49  69  94 126 161 198 238 283
#
# _framework density 15.901876
#
# number of rings (size 3 to 8) (size 9 to 14) (size 15 to 20)
#    0.000    2.167    1.667    2.500    0.000    4.000 
#    0.000    0.000    0.000    0.000    0.000    1.167 
#    0.000    9.333    0.000    0.000    0.000    0.000 
#
# Total GULP energy -133761.421907 kJ/mol
# GULP energy per Si atom -5573.392579 kJ/mol
# Density = 1.586568 g / cm^3
# Si number density = 15.901876 Si / 1000 Ang^3
#
#
#
# Elastic Constant Matrix: (Units=GPa)
#
#
# Indices 1 2 3 4 5 6 
#
# 1 75.4341 35.1574 67.9644 0.0000 12.6734 0.0000
# 2 35.1574 40.3827 42.8412 0.0000 8.2738 0.0000
# 3 67.9644 42.8412 157.6297 0.0000 34.9590 0.0000
# 4 0.0000 0.0000 0.0000 23.8373 0.0000 6.1899
# 5 12.6734 8.2738 34.9590 0.0000 25.3360 0.0000
# 6 0.0000 0.0000 0.0000 6.1899 0.0000 20.3487
#
#
#
# Elastic Compliance Matrix: (Units=1/GPa)
#
#
# Indices 1 2 3 4 5 6 
#
# 1 0.027563 -0.015890 -0.008154 0.000000 0.002653 0.000000
# 2 -0.015890 0.044060 -0.005325 0.000000 0.000907 0.000000
# 3 -0.008154 -0.005325 0.014434 0.000000 -0.014098 0.000000
# 4 0.000000 0.000000 0.000000 0.045549 0.000000 -0.013856
# 5 0.002653 0.000907 -0.014098 0.000000 0.057299 0.000000
# 6 0.000000 0.000000 0.000000 -0.013856 0.000000 0.053358
#
#
# Mechanical properties :
#
#
# Convention : Reuss Voigt Hill
#
# Bulk Modulus (GPa) = 36.60391 62.81916 49.71153
# Shear Modulus (GPa) = 16.12351 22.40331 19.26341
#
# Velocity S-wave (km/s) = 3.18769 3.75753 3.48428
# Velocity P-wave (km/s) = 6.05121 7.64300 6.89320
#
# Compressibility (1/GPa) = 0.02731949
#
# Stress axis : x y z
#
# Youngs Moduli (GPa) = 36.28031 22.69638 69.28306
#
# Poissons Ratio (x) = 0.36064 0.56493
# Poissons Ratio (y) = 0.57648 0.36892
# Poissons Ratio (z) = 0.29583 0.12086
#
# Static dielectric constant tensor:
#      x y z
#    x 1.491970 0.000000 0.025480 
#    y 0.000000 1.529370 0.000000 
#    z 0.025480 0.000000 1.571780 
# 
# From -- ./inp_files/229841.got.cif
#   From: 2010.05.17/outbox.cif.g08.bks.cpg/sg12_115_cif.got.tgz:229841.got - 2010.06.03 13:09:07.
