data_PCOD9169398
_publ_section_title
;
Structure prediction by ZEFSAII (Michael W. Deem and Ramdas Pophale) SiO2 
 PCOD9169398
Probable space group: C 2/M
;
_chemical_formula_sum "Si O2"
_cell_formula_units_Z 40
_cell_length_a 23.221052
_cell_length_b 16.897339
_cell_length_c 13.761331
_cell_angle_alpha 90.000000
_cell_angle_beta 17.631979
_cell_angle_gamma 90.000000
_cell_volume 1635.545325
_symmetry_space_group_name_H-M "C 2/M"
_symmetry_group_IT_number 12
_symmetry_cell_setting 'monoclinic'
loop_
_space_group_symop_operation_xyz
x,y,z
-x,y,-z
-x,-y,-z
x,-y,z
1/2+x,1/2+y,z
1/2-x,1/2+y,-z
1/2-x,1/2-y,-z
1/2+x,1/2-y,z
loop_
_atom_site_type_symbol
_atom_site_label
_atom_site_fract_x
_atom_site_fract_y
_atom_site_fract_z
Si Si1 0.790338 0.317025 0.635510
Si Si2 0.275604 0.910252 0.473399
Si Si3 0.812841 0.407843 0.996596
Si Si4 0.269039 0.909368 0.858959
Si Si5 0.225139 0.369179 0.736919
O O1 0.708817 0.353446 0.666891
O O2 0.714087 0.352882 0.859179
O O3 0.758236 0.224240 0.685062
O O4 0.009491 0.347503 0.282690
O O5 0.197350 0.900167 0.490410
O O6 0.249572 0.000000 0.547862
O O7 0.501343 0.892453 0.098844
O O8 0.878572 0.500000 0.880139
O O9 0.706670 0.403123 0.269830
O O10 0.704807 0.387580 0.070987
O O11 0.500000 0.906549 0.500000
O O12 0.217122 0.000000 0.920183
#
# Coordination Sequence:
#
# PCOD9169398 Si02
#       5
#     8   8   8   8   8
#     4  10  17  26  44  71  94 112 142 186 229 258
#     4  10  19  33  48  64  89 119 151 183 219 264
#     4   9  17  31  48  67  91 119 150 180 214 262
#     4   8  14  26  44  65  90 118 147 178 214 260
#     4  10  18  27  44  70  93 112 143 188 229 257
#
# _framework density 24.456676000000002
#
# number of rings (size 3 to 8) (size 9 to 14) (size 15 to 20)
#    0.000    2.600    0.000    7.200    0.000    0.800 
#    0.000    0.000    0.000    0.000    0.000  114.800 
#    0.000   77.600    0.000    0.000    0.000    0.000 
#
# Total GULP energy -111736.734265 kJ/mol
# GULP energy per Si atom -5586.836713 kJ/mol
# Density = 2.440101 g / cm^3
# Si number density = 24.456676 Si / 1000 Ang^3
#
#
#
# Elastic Constant Matrix: (Units=GPa)
#
#
# Indices 1 2 3 4 5 6 
#
# 1 107.9801 -4.5087 59.1041 -0.0027 87.1478 -0.0101
# 2 -4.5087 101.2345 7.1813 -0.0242 27.5381 -0.0039
# 3 59.1041 7.1813 57.6697 -0.0210 -29.4240 0.0081
# 4 -0.0027 -0.0242 -0.0210 41.4597 0.0058 -17.7769
# 5 87.1478 27.5381 -29.4240 0.0058 44.3579 0.0048
# 6 -0.0101 -0.0039 0.0081 -17.7769 0.0048 98.7405
#
#
#
# Elastic Compliance Matrix: (Units=1/GPa)
#
#
# Indices 1 2 3 4 5 6 
#
# 1 -0.001430 -0.002908 0.006322 0.000000 0.008809 -0.000001
# 2 -0.002908 0.008974 0.002926 0.000007 0.002083 0.000001
# 3 0.006322 0.002926 0.004886 0.000007 -0.010996 0.000002
# 4 0.000000 0.000007 0.000007 0.026138 -0.000003 0.004706
# 5 0.008809 0.002083 -0.010996 -0.000003 -0.003349 0.000002
# 6 -0.000001 0.000001 0.000002 0.004706 0.000002 0.010975
#
#
# Mechanical properties :
#
#
# Convention : Reuss Voigt Hill
#
# Bulk Modulus (GPa) = 39.82463 43.38195 41.60329
# Shear Modulus (GPa) = 119.37618 50.58546 84.98082
#
# Velocity S-wave (km/s) = 6.99409 4.55287 5.90110
# Velocity P-wave (km/s) = 9.03007 6.73906 7.96734
#
# Compressibility (1/GPa) = 0.02511009
#
# Stress axis : x y z
#
# Youngs Moduli (GPa) = -699.30006 111.42986 204.65299
#
# Poissons Ratio (x) = 0.32407 -1.29381
# Poissons Ratio (y) = -2.03375 -0.59882
# Poissons Ratio (z) = 4.42096 -0.32605
#
# Static dielectric constant tensor:
#      x y z
#    x 2.030710 -0.000010 -0.018270 
#    y -0.000010 1.828550 0.000010 
#    z -0.018270 0.000010 2.048030 
# 
# From -- ./inp_files/246461.got.cif
#   From: 2010.05.17/outbox.cif.g08.bks.cpg/sg12_124_cif.got.tgz:246461.got - 2010.06.03 13:09:07.
