data_PCOD9169875
_publ_section_title
;
Structure prediction by ZEFSAII (Michael W. Deem and Ramdas Pophale) SiO2 
 PCOD9169875
Probable space group: C 2/M
;
_chemical_formula_sum "Si O2"
_cell_formula_units_Z 58
_cell_length_a 25.547458
_cell_length_b 7.538153
_cell_length_c 15.203733
_cell_angle_alpha 90.000000
_cell_angle_beta 88.668638
_cell_angle_gamma 90.000000
_cell_volume 2927.154316
_symmetry_space_group_name_H-M "C 2/M"
_symmetry_group_IT_number 12
_symmetry_cell_setting 'monoclinic'
loop_
_space_group_symop_operation_xyz
x,y,z
-x,y,-z
-x,-y,-z
x,-y,z
1/2+x,1/2+y,z
1/2-x,1/2+y,-z
1/2-x,1/2-y,-z
1/2+x,1/2-y,z
loop_
_atom_site_type_symbol
_atom_site_label
_atom_site_fract_x
_atom_site_fract_y
_atom_site_fract_z
Si Si1 0.780572 0.208032 0.625450
Si Si2 0.623330 0.213140 0.248197
Si Si3 0.319882 0.213963 0.923079
Si Si4 0.359643 0.716501 0.480740
Si Si5 0.455232 0.295226 0.604821
Si Si6 0.169364 0.798686 0.700521
Si Si7 0.500000 0.000000 0.500000
Si Si8 0.702958 0.289535 0.882252
O O1 0.826963 0.228188 0.695037
O O2 0.807190 0.274332 0.534219
O O3 0.729034 0.303154 0.661626
O O4 0.768280 0.000000 0.617700
O O5 0.636669 0.271755 0.148670
O O6 0.571342 0.280463 0.298419
O O7 0.621582 0.000000 0.250723
O O8 0.262239 0.280047 0.894233
O O9 0.318076 0.000000 0.920627
O O10 0.326161 0.265298 0.024228
O O11 0.358384 0.500000 0.480067
O O12 0.408220 0.765604 0.540136
O O13 0.361288 0.782168 0.381008
O O14 0.468812 0.500000 0.588900
O O15 0.498964 0.156682 0.577072
O O16 0.174594 0.715465 0.796823
O O17 0.149352 0.000000 0.711616
O O18 0.708548 0.500000 0.865809
#
# Coordination Sequence:
#
# PCOD9169875 Si02
#       8
#     8   8   8   8   8   8   2   8
#     4  10  18  26  38  63  91 127 171 209 245 284
#     4  10  17  31  49  69  95 131 169 207 253 298
#     4   9  17  28  42  59  90 126 169 216 250 284
#     4   8  17  31  46  65  94 126 161 204 246 290
#     4  10  21  37  56  81 105 129 161 198 251 311
#     4  10  17  29  43  59  90 131 173 210 243 287
#     4  12  22  40  60  82 104 134 158 200 260 322
#     4   9  17  27  39  60  85 128 177 212 249 282
#
# _framework density 19.814465999999999
#
# number of rings (size 3 to 8) (size 9 to 14) (size 15 to 20)
#    0.000    2.483    2.069    2.276    0.000    1.655 
#    1.241    0.000    0.000    0.000    0.000    0.000 
#    0.000    2.207    0.000    8.414    0.000    0.000 
#
# Total GULP energy -161476.481976 kJ/mol
# GULP energy per Si atom -5568.154551 kJ/mol
# Density = 1.976937 g / cm^3
# Si number density = 19.814466 Si / 1000 Ang^3
#
#
#
# Elastic Constant Matrix: (Units=GPa)
#
#
# Indices 1 2 3 4 5 6 
#
# 1 21.3474 4.1996 14.2043 0.0000 -16.6261 0.0000
# 2 4.1996 85.7185 6.2796 0.0000 -7.6373 0.0000
# 3 14.2043 6.2796 172.0025 0.0000 -17.3022 0.0000
# 4 0.0000 0.0000 0.0000 15.0658 0.0000 -5.9500
# 5 -16.6261 -7.6373 -17.3022 0.0000 28.4516 0.0000
# 6 0.0000 0.0000 0.0000 -5.9500 0.0000 2.9323
#
#
#
# Elastic Compliance Matrix: (Units=1/GPa)
#
#
# Indices 1 2 3 4 5 6 
#
# 1 0.086755 0.000316 -0.002202 0.000000 0.049442 0.000000
# 2 0.000316 0.011955 -0.000129 0.000000 0.003315 0.000000
# 3 -0.002202 -0.000129 0.006250 0.000000 0.002479 0.000000
# 4 0.000000 0.000000 0.000000 0.334166 0.000000 0.678068
# 5 0.049442 0.003315 0.002479 0.000000 0.066437 0.000000
# 6 0.000000 0.000000 0.000000 0.678068 0.000000 1.716925
#
#
# Mechanical properties :
#
#
# Convention : Reuss Voigt Hill
#
# Bulk Modulus (GPa) = 9.90794 36.49280 23.20037
# Shear Modulus (GPa) = 2.21223 26.24893 14.23058
#
# Velocity S-wave (km/s) = 1.05778 3.64364 2.68282
# Velocity P-wave (km/s) = 2.55011 6.01321 4.61854
#
# Compressibility (1/GPa) = 0.10092914
#
# Stress axis : x y z
#
# Youngs Moduli (GPa) = 11.52677 83.64385 160.00428
#
# Poissons Ratio (x) = -0.02644 0.35239
# Poissons Ratio (y) = -0.00364 0.02065
# Poissons Ratio (z) = 0.02539 0.01080
#
# Static dielectric constant tensor:
#      x y z
#    x 1.726920 0.000000 -0.008680 
#    y 0.000000 1.763230 0.000000 
#    z -0.008680 0.000000 1.754110 
# 
# From -- ./inp_files/237678.got.cif
#   From: 2010.05.17/outbox.cif.g08.bks.cpg/sg12_119_cif.got.tgz:237678.got - 2010.06.03 13:09:07.
