data_PCOD9169825
_publ_section_title
;
Structure prediction by ZEFSAII (Michael W. Deem and Ramdas Pophale) SiO2 
 PCOD9169825
Probable space group: C 2/M
;
_chemical_formula_sum "Si O2"
_cell_formula_units_Z 56
_cell_length_a 22.965116
_cell_length_b 13.871387
_cell_length_c 24.795775
_cell_angle_alpha 90.000000
_cell_angle_beta 19.689368
_cell_angle_gamma 90.000000
_cell_volume 2661.299300
_symmetry_space_group_name_H-M "C 2/M"
_symmetry_group_IT_number 12
_symmetry_cell_setting 'monoclinic'
loop_
_space_group_symop_operation_xyz
x,y,z
-x,y,-z
-x,-y,-z
x,-y,z
1/2+x,1/2+y,z
1/2-x,1/2+y,-z
1/2-x,1/2-y,-z
1/2+x,1/2-y,z
loop_
_atom_site_type_symbol
_atom_site_label
_atom_site_fract_x
_atom_site_fract_y
_atom_site_fract_z
Si Si1 0.033936 0.387665 0.310090
Si Si2 0.163122 0.614620 0.976314
Si Si3 0.048466 0.691513 0.180779
Si Si4 0.350448 0.109660 0.176585
Si Si5 0.880782 0.891442 0.341670
Si Si6 0.820077 0.107714 0.520433
Si Si7 0.611575 0.718912 0.312114
O O1 0.079718 0.500000 0.269560
O O2 0.094291 0.336320 0.202049
O O3 0.823939 0.380981 0.492770
O O4 0.108221 0.329298 0.296194
O O5 0.192039 0.500000 0.952590
O O6 0.183002 0.660598 0.017790
O O7 0.964881 0.630891 0.129261
O O8 0.283891 0.661603 0.825945
O O9 0.980732 0.800010 0.231731
O O10 0.880162 0.625967 0.315318
O O11 0.207315 0.185985 0.282825
O O12 0.280417 0.000000 0.240090
O O13 0.500000 0.108792 0.000000
O O14 0.895555 0.883662 0.393787
O O15 0.935161 0.000000 0.278414
O O16 0.917304 0.179823 0.475158
O O17 0.850634 0.000000 0.513476
#
# Coordination Sequence:
#
# PCOD9169825 Si02
#       7
#     8   8   8   8   8   8   8
#     4  10  19  32  51  76 103 131 166 202 244 295
#     4  10  21  34  51  74 103 134 160 199 258 303
#     4  11  18  34  49  73 106 138 156 195 256 300
#     4   8  16  32  51  71  95 128 167 202 244 298
#     4   9  17  31  50  72 101 135 168 199 238 295
#     4  10  17  28  50  75  96 127 171 203 232 289
#     4  11  18  32  53  73  98 129 170 205 242 285
#
# _framework density 21.042352999999999
#
# number of rings (size 3 to 8) (size 9 to 14) (size 15 to 20)
#    0.000    2.143    2.857    5.143    0.000    0.571 
#    0.000    1.429    0.000    7.286    0.000    2.000 
#    0.000    0.000    0.000    0.000    0.000    0.000 
#
# Total GULP energy -156426.424775 kJ/mol
# GULP energy per Si atom -5586.658028 kJ/mol
# Density = 2.099446 g / cm^3
# Si number density = 21.042353 Si / 1000 Ang^3
#
#
#
# Elastic Constant Matrix: (Units=GPa)
#
#
# Indices 1 2 3 4 5 6 
#
# 1 62.2940 23.6150 5.8773 -0.0161 -10.8901 -0.0026
# 2 23.6150 121.8900 12.5825 -0.0302 0.6953 -0.0132
# 3 5.8773 12.5825 33.2753 -0.0651 -7.8275 -0.0369
# 4 -0.0161 -0.0302 -0.0651 11.8605 -0.0103 -22.0498
# 5 -10.8901 0.6953 -7.8275 -0.0103 27.7668 -0.0010
# 6 -0.0026 -0.0132 -0.0369 -22.0498 -0.0010 -0.1606
#
#
#
# Elastic Compliance Matrix: (Units=1/GPa)
#
#
# Indices 1 2 3 4 5 6 
#
# 1 0.018748 -0.003655 -0.000191 0.000000 0.007391 -0.000012
# 2 -0.003655 0.009288 -0.003490 0.000001 -0.002650 0.000002
# 3 -0.000191 -0.003490 0.033639 -0.000054 0.009495 -0.000128
# 4 0.000000 0.000001 -0.000054 0.000329 -0.000017 -0.045175
# 5 0.007391 -0.002650 0.009495 -0.000017 0.041656 -0.000058
# 6 -0.000012 0.000002 -0.000128 -0.045175 -0.000058 -0.024299
#
#
# Mechanical properties :
#
#
# Convention : Reuss Voigt Hill
#
# Bulk Modulus (GPa) = 21.27468 33.51211 27.39339
# Shear Modulus (GPa) = 45.57871 19.58563 32.58217
#
# Velocity S-wave (km/s) = 4.65913 3.05416 3.93925
# Velocity P-wave (km/s) = 6.25105 5.32896 5.80833
#
# Compressibility (1/GPa) = 0.04700423
#
# Stress axis : x y z
#
# Youngs Moduli (GPa) = 53.33767 107.67108 29.72739
#
# Poissons Ratio (x) = 0.39352 0.00568
# Poissons Ratio (y) = 0.19494 0.10374
# Poissons Ratio (z) = 0.01018 0.37574
#
# Static dielectric constant tensor:
#      x y z
#    x 1.772280 0.000000 0.012230 
#    y 0.000000 1.734440 0.000010 
#    z 0.012230 0.000010 1.840870 
# 
# From -- ./inp_files/368061.got.cif
#   From: 2010.05.17/outbox.cif.g08.bks.cpg/sg12_185_cif.got.tgz:368061.got - 2010.06.03 13:09:07.
