data_PCOD9169453
_publ_section_title
;
Structure prediction by ZEFSAII (Michael W. Deem and Ramdas Pophale) SiO2 
 PCOD9169453
Probable space group: C 2/M
;
_chemical_formula_sum "Si O2"
_cell_formula_units_Z 64
_cell_length_a 27.690116
_cell_length_b 7.468289
_cell_length_c 18.103687
_cell_angle_alpha 90.000000
_cell_angle_beta 79.529036
_cell_angle_gamma 90.000000
_cell_volume 3681.457397
_symmetry_space_group_name_H-M "C 2/M"
_symmetry_group_IT_number 12
_symmetry_cell_setting 'monoclinic'
loop_
_space_group_symop_operation_xyz
x,y,z
-x,y,-z
-x,-y,-z
x,-y,z
1/2+x,1/2+y,z
1/2-x,1/2+y,-z
1/2-x,1/2-y,-z
1/2+x,1/2-y,z
loop_
_atom_site_type_symbol
_atom_site_label
_atom_site_fract_x
_atom_site_fract_y
_atom_site_fract_z
Si Si1 0.963423 0.280028 0.335486
Si Si2 0.133217 0.705654 0.183059
Si Si3 0.542266 0.289666 0.104917
Si Si4 0.075987 0.720093 0.335961
Si Si5 0.065457 0.294202 0.814746
Si Si6 0.892433 0.283513 0.049418
Si Si7 0.558577 0.791010 0.500198
Si Si8 0.193703 0.285400 0.032943
O O1 0.963343 0.500000 0.335594
O O2 0.939432 0.216620 0.266007
O O3 0.936993 0.218193 0.418198
O O4 0.021039 0.228927 0.324459
O O5 0.147209 0.500000 0.193985
O O6 0.084063 0.708526 0.146270
O O7 0.116147 0.783606 0.265934
O O8 0.174460 0.785543 0.117519
O O9 0.539238 0.500000 0.121249
O O10 0.489667 0.207926 0.136840
O O11 0.562048 0.263923 0.016542
O O12 0.076215 0.500000 0.336142
O O13 0.082570 0.782028 0.418681
O O14 0.081121 0.500000 0.800444
O O15 0.098919 0.214480 0.870293
O O16 0.890959 0.500000 0.053464
O O17 0.843625 0.220352 0.020339
O O18 0.500000 0.784971 0.500000
O O19 0.572634 0.000000 0.500228
O O20 0.187112 0.500000 0.037663
O O21 0.250000 0.250000 0.000000
#
# Coordination Sequence:
#
# PCOD9169453 Si02
#       8
#     8   8   8   8   8   8   8   8
#     4   8  12  18  32  54  78 104 130 154 186 219
#     4   9  16  28  44  60  77 103 137 163 190 233
#     4  11  20  27  37  56  82 107 132 164 197 224
#     4   8  11  18  34  54  78 102 127 159 188 217
#     4  10  17  27  42  56  76 107 137 162 185 222
#     4   9  19  32  44  57  73  99 134 163 192 233
#     4   7  10  15  26  51  80 100 122 156 191 216
#     4   9  18  31  45  59  75  95 123 161 203 243
#
# _framework density 17.384419000000001
#
# number of rings (size 3 to 8) (size 9 to 14) (size 15 to 20)
#    0.000    3.125    1.250    3.750    0.000    4.000 
#    0.000    0.000    0.000    0.000    0.000    1.750 
#    0.000    1.000    0.000    0.750    0.000    1.500 
#
# Total GULP energy -178200.084449 kJ/mol
# GULP energy per Si atom -5568.752639 kJ/mol
# Density = 1.734485 g / cm^3
# Si number density = 17.384419 Si / 1000 Ang^3
#
#
#
# Elastic Constant Matrix: (Units=GPa)
#
#
# Indices 1 2 3 4 5 6 
#
# 1 55.3778 -1.7510 56.4976 0.0000 -11.5437 0.0000
# 2 -1.7510 56.1051 4.6257 0.0000 -0.0804 0.0000
# 3 56.4976 4.6257 201.4512 0.0000 -6.3951 0.0000
# 4 0.0000 0.0000 0.0000 -13.7765 0.0000 -5.1215
# 5 -11.5437 -0.0804 -6.3951 0.0000 18.2031 0.0000
# 6 0.0000 0.0000 0.0000 -5.1215 0.0000 4.9352
#
#
#
# Elastic Compliance Matrix: (Units=1/GPa)
#
#
# Indices 1 2 3 4 5 6 
#
# 1 0.029335 0.001578 -0.007759 0.000000 0.015884 0.000000
# 2 0.001578 0.017942 -0.000830 0.000000 0.000789 0.000000
# 3 -0.007759 -0.000830 0.007082 0.000000 -0.002436 0.000000
# 4 0.000000 0.000000 0.000000 -0.052380 0.000000 -0.054357
# 5 0.015884 0.000789 -0.002436 0.000000 0.064156 0.000000
# 6 0.000000 0.000000 0.000000 -0.054357 0.000000 0.146217
#
#
# Mechanical properties :
#
#
# Convention : Reuss Voigt Hill
#
# Bulk Modulus (GPa) = 24.79066 47.96431 36.37748
# Shear Modulus (GPa) = 20.84910 18.77651 19.81280
#
# Velocity S-wave (km/s) = 3.46685 3.29002 3.37959
# Velocity P-wave (km/s) = 5.50605 6.48711 6.01661
#
# Compressibility (1/GPa) = 0.04033777
#
# Stress axis : x y z
#
# Youngs Moduli (GPa) = 34.08943 55.73372 141.20866
#
# Poissons Ratio (x) = -0.08795 1.09563
# Poissons Ratio (y) = -0.05379 0.11713
# Poissons Ratio (z) = 0.26450 0.04623
#
# Static dielectric constant tensor:
#      x y z
#    x 1.544570 0.000000 -0.000850 
#    y 0.000000 1.671270 0.000000 
#    z -0.000850 0.000000 1.664600 
# 
# From -- ./inp_files/287670.got.cif
#   From: 2010.05.17/outbox.cif.g08.bks.cpg/sg12_144_cif.got.tgz:287670.got - 2010.06.03 13:09:07.
