data_PCOD9169243
_publ_section_title
;
Structure prediction by ZEFSAII (Michael W. Deem and Ramdas Pophale) SiO2 
 PCOD9169243
Probable space group: C 2/M
;
_chemical_formula_sum "Si O2"
_cell_formula_units_Z 40
_cell_length_a 14.753513
_cell_length_b 8.406258
_cell_length_c 14.419959
_cell_angle_alpha 90.000000
_cell_angle_beta 75.640962
_cell_angle_gamma 90.000000
_cell_volume 1732.521768
_symmetry_space_group_name_H-M "C 2/M"
_symmetry_group_IT_number 12
_symmetry_cell_setting 'monoclinic'
loop_
_space_group_symop_operation_xyz
x,y,z
-x,y,-z
-x,-y,-z
x,-y,z
1/2+x,1/2+y,z
1/2-x,1/2+y,-z
1/2-x,1/2-y,-z
1/2+x,1/2-y,z
loop_
_atom_site_type_symbol
_atom_site_label
_atom_site_fract_x
_atom_site_fract_y
_atom_site_fract_z
Si Si1 0.609097 0.690520 0.497430
Si Si2 0.205589 0.820312 0.104143
Si Si3 0.562608 0.688131 0.705351
Si Si4 0.359151 0.813733 0.699214
Si Si5 0.515263 0.181705 0.105269
O O1 0.500000 0.725361 0.500000
O O2 0.620524 0.500000 0.492254
O O3 0.621099 0.744884 0.600754
O O4 0.666623 0.766672 0.398907
O O5 0.212564 0.728352 0.200059
O O6 0.095976 0.806669 0.107466
O O7 0.237734 0.000000 0.108633
O O8 0.250000 0.750000 0.000000
O O9 0.578378 0.500000 0.713632
O O10 0.454693 0.718658 0.699781
O O11 0.567886 0.777614 0.802304
O O12 0.379282 0.000000 0.696126
O O13 0.546727 0.000000 0.117451
O O14 0.500000 0.190161 0.000000
#
# Coordination Sequence:
#
# PCOD9169243 Si02
#       5
#     8   8   8   8   8
#     4   8  14  24  37  57  86 118 150 186 231 277
#     4  11  21  34  51  70  96 127 161 199 238 282
#     4   9  16  26  41  61  88 121 155 191 232 278
#     4  10  17  25  40  63  90 119 152 189 233 281
#     4  10  20  33  49  71  99 128 160 198 238 281
#
# _framework density 23.087734000000001
#
# number of rings (size 3 to 8) (size 9 to 14) (size 15 to 20)
#    0.000    2.400    0.000    8.400    0.000    6.000 
#    0.000    0.000    0.000    0.000    0.000    1.400 
#    0.000    0.000    0.000    0.000    0.000    0.000 
#
# Total GULP energy -111527.034574 kJ/mol
# GULP energy per Si atom -5576.351729 kJ/mol
# Density = 2.303519 g / cm^3
# Si number density = 23.087734 Si / 1000 Ang^3
#
#
#
# Elastic Constant Matrix: (Units=GPa)
#
#
# Indices 1 2 3 4 5 6 
#
# 1 40.9569 -10.1319 9.8056 0.0000 -0.7236 0.0000
# 2 -10.1319 49.3767 39.0786 0.0000 10.4074 0.0000
# 3 9.8056 39.0786 276.7622 0.0000 22.1697 0.0000
# 4 0.0000 0.0000 0.0000 37.3418 0.0000 -0.5703
# 5 -0.7236 10.4074 22.1697 0.0000 7.8015 0.0000
# 6 0.0000 0.0000 0.0000 -0.5703 0.0000 4.3325
#
#
#
# Elastic Compliance Matrix: (Units=1/GPa)
#
#
# Indices 1 2 3 4 5 6 
#
# 1 0.026630 0.007361 -0.001805 0.000000 -0.002221 0.000000
# 2 0.007361 0.030549 -0.001767 0.000000 -0.035050 0.000000
# 3 -0.001805 -0.001767 0.004857 0.000000 -0.011612 0.000000
# 4 0.000000 0.000000 0.000000 0.026834 0.000000 0.003532
# 5 -0.002221 -0.035050 -0.011612 0.000000 0.207732 0.000000
# 6 0.000000 0.000000 0.000000 0.003532 0.000000 0.231278
#
#
# Mechanical properties :
#
#
# Convention : Reuss Voigt Hill
#
# Bulk Modulus (GPa) = 14.36496 49.40003 31.88250
# Shear Modulus (GPa) = 9.19956 31.78474 20.49215
#
# Velocity S-wave (km/s) = 1.99831 3.71441 2.98246
# Velocity P-wave (km/s) = 3.39996 6.31180 5.06945
#
# Compressibility (1/GPa) = 0.06961385
#
# Stress axis : x y z
#
# Youngs Moduli (GPa) = 37.55204 32.73461 205.89677
#
# Poissons Ratio (x) = -0.24096 0.37163
# Poissons Ratio (y) = -0.27642 0.36374
# Poissons Ratio (z) = 0.06778 0.05783
#
# Static dielectric constant tensor:
#      x y z
#    x 1.980460 0.000000 -0.034440 
#    y 0.000000 1.826960 0.000000 
#    z -0.034440 0.000000 1.998490 
# 
# From -- ./inp_files/221221.got.cif
#   From: 2010.05.17/outbox.cif.g08.bks.cpg/sg12_111_cif.got.tgz:221221.got - 2010.06.03 13:09:07.
