data_PCOD9169634
_publ_section_title
;
Structure prediction by ZEFSAII (Michael W. Deem and Ramdas Pophale) SiO2 
 PCOD9169634
Probable space group: C 2/M
;
_chemical_formula_sum "Si O2"
_cell_formula_units_Z 64
_cell_length_a 17.789341
_cell_length_b 14.511150
_cell_length_c 25.618723
_cell_angle_alpha 90.000000
_cell_angle_beta 29.854481
_cell_angle_gamma 90.000000
_cell_volume 3292.100438
_symmetry_space_group_name_H-M "C 2/M"
_symmetry_group_IT_number 12
_symmetry_cell_setting 'monoclinic'
loop_
_space_group_symop_operation_xyz
x,y,z
-x,y,-z
-x,-y,-z
x,-y,z
1/2+x,1/2+y,z
1/2-x,1/2+y,-z
1/2-x,1/2-y,-z
1/2+x,1/2-y,z
loop_
_atom_site_type_symbol
_atom_site_label
_atom_site_fract_x
_atom_site_fract_y
_atom_site_fract_z
Si Si1 0.784907 0.894507 0.742675
Si Si2 0.507150 0.328222 0.184764
Si Si3 0.380122 0.610547 0.446415
Si Si4 0.688536 0.602559 0.787544
Si Si5 0.695660 0.263087 0.603160
Si Si6 0.728468 0.895163 0.900221
Si Si7 0.512794 0.231464 0.902533
Si Si8 0.477580 0.894427 0.451306
O O1 0.775695 0.884836 0.811465
O O2 0.655995 0.829308 0.798429
O O3 0.958125 0.877308 0.622727
O O4 0.748942 0.000000 0.751736
O O5 0.392733 0.393171 0.220669
O O6 0.404359 0.268862 0.285376
O O7 0.632250 0.377765 0.144329
O O8 0.571176 0.266170 0.099081
O O9 0.363277 0.500000 0.446633
O O10 0.387927 0.675886 0.390622
O O11 0.242048 0.659489 0.559698
O O12 0.678109 0.500000 0.814969
O O13 0.594781 0.677847 0.876144
O O14 0.863678 0.626018 0.672693
O O15 0.850878 0.320281 0.515323
O O16 0.673624 0.000000 0.939910
O O17 0.596757 0.824966 0.994849
O O18 0.500000 0.893646 0.500000
O O19 0.432651 0.000000 0.464066
#
# Coordination Sequence:
#
# PCOD9169634 Si02
#       8
#     8   8   8   8   8   8   8   8
#     4  10  20  37  60  86 114 145 187 234 279 330
#     4  10  21  35  55  82 113 146 183 233 282 329
#     4  10  22  36  55  82 111 147 187 229 279 335
#     4   9  19  32  51  79 112 144 180 229 275 326
#     4  11  20  35  57  79 111 150 186 228 276 339
#     4  11  21  36  61  87 111 143 191 239 281 328
#     4  10  21  35  54  85 116 146 180 235 288 333
#     4  10  17  27  49  80 106 135 179 227 273 318
#
# _framework density 19.440474999999999
#
# number of rings (size 3 to 8) (size 9 to 14) (size 15 to 20)
#    0.750    1.125    2.500    2.625    0.000    2.000 
#    0.000    1.250    0.000    4.125    0.000    0.000 
#    0.000    0.000    0.000    0.000    0.000    0.000 
#
# Total GULP energy -178284.523101 kJ/mol
# GULP energy per Si atom -5571.391347 kJ/mol
# Density = 1.939623 g / cm^3
# Si number density = 19.440475 Si / 1000 Ang^3
#
#
#
# Elastic Constant Matrix: (Units=GPa)
#
#
# Indices 1 2 3 4 5 6 
#
# 1 13.7704 -14.7146 -19.4508 -0.0001 -5.4141 -0.0002
# 2 -14.7146 65.9539 25.7287 0.0019 6.1711 0.0007
# 3 -19.4508 25.7287 60.8583 0.0032 -0.4971 0.0005
# 4 -0.0001 0.0019 0.0032 26.4331 0.0008 -4.0338
# 5 -5.4141 6.1711 -0.4971 0.0008 24.7857 0.0003
# 6 -0.0002 0.0007 0.0005 -4.0338 0.0003 13.9831
#
#
#
# Elastic Compliance Matrix: (Units=1/GPa)
#
#
# Indices 1 2 3 4 5 6 
#
# 1 0.171763 0.016254 0.048306 -0.000008 0.034441 -0.000003
# 2 0.016254 0.020253 -0.003380 -0.000001 -0.001560 -0.000001
# 3 0.048306 -0.003380 0.033398 -0.000004 0.012063 -0.000002
# 4 -0.000008 -0.000001 -0.000004 0.039574 -0.000003 0.011416
# 5 0.034441 -0.001560 0.012063 -0.000003 0.048499 -0.000002
# 6 -0.000003 -0.000001 -0.000002 0.011416 -0.000002 0.074808
#
#
# Mechanical properties :
#
#
# Convention : Reuss Voigt Hill
#
# Bulk Modulus (GPa) = 2.87543 13.74547 8.31045
# Shear Modulus (GPa) = 13.09385 22.97501 18.03443
#
# Velocity S-wave (km/s) = 2.59807 3.44148 3.04908
# Velocity P-wave (km/s) = 3.23763 4.78305 4.08411
#
# Compressibility (1/GPa) = 0.34777435
#
# Stress axis : x y z
#
# Youngs Moduli (GPa) = 5.82199 49.37549 29.94183
#
# Poissons Ratio (x) = -0.80256 -1.44638
# Poissons Ratio (y) = -0.09463 0.10120
# Poissons Ratio (z) = -0.28124 0.16689
#
# Static dielectric constant tensor:
#      x y z
#    x 1.700760 0.000000 -0.019140 
#    y 0.000000 1.697530 0.000000 
#    z -0.019140 0.000000 1.669390 
# 
# From -- ./inp_files/379344.got.cif
#   From: 2010.05.17/outbox.cif.g08.bks.cpg/sg12_190_cif.got.tgz:379344.got - 2010.06.03 13:09:07.
