data_PCOD9169221
_publ_section_title
;
Structure prediction by ZEFSAII (Michael W. Deem and Ramdas Pophale) SiO2 
 PCOD9169221
Probable space group: C 2/M
;
_chemical_formula_sum "Si O2"
_cell_formula_units_Z 56
_cell_length_a 16.949124
_cell_length_b 25.594745
_cell_length_c 9.749650
_cell_angle_alpha 90.000000
_cell_angle_beta 140.525332
_cell_angle_gamma 90.000000
_cell_volume 2688.837640
_symmetry_space_group_name_H-M "C 2/M"
_symmetry_group_IT_number 12
_symmetry_cell_setting 'monoclinic'
loop_
_space_group_symop_operation_xyz
x,y,z
-x,y,-z
-x,-y,-z
x,-y,z
1/2+x,1/2+y,z
1/2-x,1/2+y,-z
1/2-x,1/2-y,-z
1/2+x,1/2-y,z
loop_
_atom_site_type_symbol
_atom_site_label
_atom_site_fract_x
_atom_site_fract_y
_atom_site_fract_z
Si Si1 0.147397 0.329600 0.165212
Si Si2 0.311047 0.942739 0.148677
Si Si3 0.580786 0.765070 0.811230
Si Si4 0.269613 0.671574 0.907988
Si Si5 0.171897 0.308993 0.498079
Si Si6 0.577110 0.923647 0.403777
Si Si7 0.649823 0.944404 0.209668
O O1 0.208036 0.307611 0.386335
O O2 0.194194 0.389157 0.208831
O O3 0.145386 0.292393 0.031789
O O4 0.000000 0.333987 0.000000
O O5 0.235129 0.888449 0.049736
O O6 0.431816 0.938379 0.211370
O O7 0.368215 0.941771 0.379036
O O8 0.252346 0.000000 0.048171
O O9 0.638336 0.800476 0.768444
O O10 0.433038 0.765744 0.618916
O O11 0.630181 0.706276 0.879080
O O12 0.277051 0.681469 0.753350
O O13 0.088331 0.361538 0.406060
O O14 0.660346 0.942645 0.389241
O O15 0.699154 0.000000 0.223888
O O16 0.500000 0.945115 0.000000
#
# Coordination Sequence:
#
# PCOD9169221 Si02
#       7
#     8   8   8   8   8   8   8
#     4   8  16  27  41  56  80 114 139 175 209 240
#     4  10  17  25  39  59  83 109 138 168 202 249
#     4  10  18  31  42  59  89 111 143 178 208 245
#     4  10  20  28  44  64  83 117 142 173 213 249
#     4   9  16  30  46  60  84 113 144 173 207 249
#     4   9  15  25  38  57  82 111 137 162 199 243
#     4   9  15  21  32  53  78 107 140 164 194 240
#
# _framework density 20.826843
#
# number of rings (size 3 to 8) (size 9 to 14) (size 15 to 20)
#    0.000    2.714    1.429    3.000    0.000    0.571 
#    0.000    0.000    0.000    0.000    0.000    0.000 
#    0.000   15.429    0.000    0.000    0.000    0.000 
#
# Total GULP energy -155952.904736 kJ/mol
# GULP energy per Si atom -5569.746598 kJ/mol
# Density = 2.077944 g / cm^3
# Si number density = 20.826843 Si / 1000 Ang^3
#
#
#
# Elastic Constant Matrix: (Units=GPa)
#
#
# Indices 1 2 3 4 5 6 
#
# 1 36.3848 16.3513 15.7957 0.0000 -20.6237 0.0000
# 2 16.3513 145.6647 19.0430 0.0000 9.3008 0.0000
# 3 15.7957 19.0430 21.2338 0.0000 -14.0272 0.0000
# 4 0.0000 0.0000 0.0000 20.0973 0.0000 9.6236
# 5 -20.6237 9.3008 -14.0272 0.0000 29.3509 0.0000
# 6 0.0000 0.0000 0.0000 9.6236 0.0000 47.9263
#
#
#
# Elastic Compliance Matrix: (Units=1/GPa)
#
#
# Indices 1 2 3 4 5 6 
#
# 1 0.056241 -0.007133 -0.011459 0.000000 0.036303 0.000000
# 2 -0.007133 0.010451 -0.013979 0.000000 -0.015005 0.000000
# 3 -0.011459 -0.013979 0.096104 0.000000 0.042308 0.000000
# 4 0.000000 0.000000 0.000000 0.055051 0.000000 -0.011054
# 5 0.036303 -0.015005 0.042308 0.000000 0.084553 0.000000
# 6 0.000000 0.000000 0.000000 -0.011054 0.000000 0.023085
#
#
# Mechanical properties :
#
#
# Convention : Reuss Voigt Hill
#
# Bulk Modulus (GPa) = 10.24010 33.96259 22.10135
# Shear Modulus (GPa) = 11.81531 29.61445 20.71488
#
# Velocity S-wave (km/s) = 2.38441 3.77495 3.15719
# Velocity P-wave (km/s) = 3.53667 5.94498 4.89136
#
# Compressibility (1/GPa) = 0.09765525
#
# Stress axis : x y z
#
# Youngs Moduli (GPa) = 17.78054 95.68116 10.40537
#
# Poissons Ratio (x) = 0.68251 0.11923
# Poissons Ratio (y) = 0.12683 0.14546
# Poissons Ratio (z) = 0.20374 1.33753
#
# Static dielectric constant tensor:
#      x y z
#    x 1.796320 0.000000 -0.096330 
#    y 0.000000 1.856390 0.000000 
#    z -0.096330 0.000000 1.801940 
# 
# From -- ./inp_files/170058.got.cif
#   From: 2010.05.17/outbox.cif.g08.bks.cpg/sg12_86_cif.got.tgz:170058.got - 2010.06.03 13:09:07.
