data_PCOD9169353
_publ_section_title
;
Structure prediction by ZEFSAII (Michael W. Deem and Ramdas Pophale) SiO2 
 PCOD9169353
Probable space group: C 2/M
;
_chemical_formula_sum "Si O2"
_cell_formula_units_Z 64
_cell_length_a 16.789549
_cell_length_b 13.601810
_cell_length_c 15.682891
_cell_angle_alpha 90.000000
_cell_angle_beta 100.060253
_cell_angle_gamma 90.000000
_cell_volume 3526.407848
_symmetry_space_group_name_H-M "C 2/M"
_symmetry_group_IT_number 12
_symmetry_cell_setting 'monoclinic'
loop_
_space_group_symop_operation_xyz
x,y,z
-x,y,-z
-x,-y,-z
x,-y,z
1/2+x,1/2+y,z
1/2-x,1/2+y,-z
1/2-x,1/2-y,-z
1/2+x,1/2-y,z
loop_
_atom_site_type_symbol
_atom_site_label
_atom_site_fract_x
_atom_site_fract_y
_atom_site_fract_z
Si Si1 0.244879 0.880702 0.339730
Si Si2 0.362479 0.309929 0.964681
Si Si3 0.682151 0.110641 0.965269
Si Si4 0.409894 0.611928 0.147997
Si Si5 0.132260 0.691566 0.781847
Si Si6 0.906320 0.114252 0.789996
Si Si7 0.502658 0.883976 0.637898
Si Si8 0.132168 0.384757 0.506150
O O1 0.299512 0.838540 0.273125
O O2 0.152761 0.856539 0.298244
O O3 0.285088 0.845703 0.436242
O O4 0.253641 0.000000 0.341014
O O5 0.275150 0.359550 0.965375
O O6 0.387671 0.328550 0.873216
O O7 0.354492 0.194308 0.981450
O O8 0.416776 0.358371 0.049438
O O9 0.639760 0.123002 0.865715
O O10 0.676238 0.000000 0.995948
O O11 0.379864 0.500000 0.149081
O O12 0.357462 0.697153 0.182320
O O13 0.498264 0.617714 0.206832
O O14 0.045651 0.674384 0.721386
O O15 0.886337 0.000000 0.805483
O O16 0.567603 0.880296 0.572148
O O17 0.417526 0.845279 0.584356
O O18 0.495329 0.000000 0.658691
O O19 0.145151 0.500000 0.488986
#
# Coordination Sequence:
#
# PCOD9169353 Si02
#       8
#     8   8   8   8   8   8   8   8
#     4   9  15  25  45  70  90 107 133 171 217 259
#     4  10  19  29  45  64  83 112 145 177 211 249
#     4  10  18  28  43  66  91 110 136 175 215 252
#     4  10  21  32  42  60  85 114 147 182 214 246
#     4  10  17  26  43  64  86 113 139 172 212 254
#     4  10  18  30  47  63  84 111 144 182 215 250
#     4   8  12  20  37  62  90 111 129 160 209 261
#     4   7  11  19  34  62  92 109 125 160 209 258
#
# _framework density 18.148779000000001
#
# number of rings (size 3 to 8) (size 9 to 14) (size 15 to 20)
#    0.000    2.750    1.250    4.125    0.000    1.000 
#    0.000    0.000    0.000    8.250    0.000    7.000 
#    0.000    0.000    0.000    0.000    0.000    0.000 
#
# Total GULP energy -178150.337196 kJ/mol
# GULP energy per Si atom -5567.198037 kJ/mol
# Density = 1.810747 g / cm^3
# Si number density = 18.148779 Si / 1000 Ang^3
#
#
#
# Elastic Constant Matrix: (Units=GPa)
#
#
# Indices 1 2 3 4 5 6 
#
# 1 30.6557 3.5184 20.8213 0.0000 26.0829 0.0000
# 2 3.5184 92.4063 16.2875 0.0000 1.7268 0.0000
# 3 20.8213 16.2875 56.2905 0.0000 35.0973 0.0000
# 4 0.0000 0.0000 0.0000 17.0428 0.0000 3.4661
# 5 26.0829 1.7268 35.0973 0.0000 34.0832 0.0000
# 6 0.0000 0.0000 0.0000 3.4661 0.0000 10.2266
#
#
#
# Elastic Compliance Matrix: (Units=1/GPa)
#
#
# Indices 1 2 3 4 5 6 
#
# 1 0.119578 -0.009559 0.042716 0.000000 -0.135012 0.000000
# 2 -0.009559 0.012979 -0.012210 0.000000 0.019231 0.000000
# 3 0.042716 -0.012210 0.071223 0.000000 -0.105413 0.000000
# 4 0.000000 0.000000 0.000000 0.063020 0.000000 -0.021359
# 5 -0.135012 0.019231 -0.105413 0.000000 0.240236 0.000000
# 6 0.000000 0.000000 0.000000 -0.021359 0.000000 0.105024
#
#
# Mechanical properties :
#
#
# Convention : Reuss Voigt Hill
#
# Bulk Modulus (GPa) = 4.07046 28.95632 16.51339
# Shear Modulus (GPa) = 7.66803 21.51886 14.59345
#
# Velocity S-wave (km/s) = 2.05773 3.44712 2.83874
# Velocity P-wave (km/s) = 2.80952 5.64209 4.45682
#
# Compressibility (1/GPa) = 0.24567237
#
# Stress axis : x y z
#
# Youngs Moduli (GPa) = 8.36276 77.05009 14.04032
#
# Poissons Ratio (x) = 0.73653 -0.59974
# Poissons Ratio (y) = 0.07994 0.17144
# Poissons Ratio (z) = -0.35722 0.94081
#
# Static dielectric constant tensor:
#      x y z
#    x 1.662450 0.000000 0.074080 
#    y 0.000000 1.621340 0.000000 
#    z 0.074080 0.000000 1.636480 
# 
# From -- ./inp_files/224833.got.cif
#   From: 2010.05.17/outbox.cif.g08.bks.cpg/sg12_113_cif.got.tgz:224833.got - 2010.06.03 13:09:07.
