data_PCOD9169932
_publ_section_title
;
Structure prediction by ZEFSAII (Michael W. Deem and Ramdas Pophale) SiO2 
 PCOD9169932
Probable space group: C 2/M
;
_chemical_formula_sum "Si O2"
_cell_formula_units_Z 48
_cell_length_a 13.720927
_cell_length_b 21.373296
_cell_length_c 8.054991
_cell_angle_alpha 90.000000
_cell_angle_beta 59.686692
_cell_angle_gamma 90.000000
_cell_volume 2039.251821
_symmetry_space_group_name_H-M "C 2/M"
_symmetry_group_IT_number 12
_symmetry_cell_setting 'monoclinic'
loop_
_space_group_symop_operation_xyz
x,y,z
-x,y,-z
-x,-y,-z
x,-y,z
1/2+x,1/2+y,z
1/2-x,1/2+y,-z
1/2-x,1/2-y,-z
1/2+x,1/2-y,z
loop_
_atom_site_type_symbol
_atom_site_label
_atom_site_fract_x
_atom_site_fract_y
_atom_site_fract_z
Si Si1 0.250791 0.429830 0.429034
Si Si2 0.136537 0.431951 0.892550
Si Si3 0.291207 0.705730 0.315619
Si Si4 0.015616 0.065807 0.287289
Si Si5 0.029252 0.803167 0.282586
Si Si6 0.615527 0.199896 0.010713
O O1 0.216375 0.500000 0.395189
O O2 0.192253 0.423722 0.661824
O O3 0.230930 0.362091 0.358616
O O4 0.386694 0.432523 0.333183
O O5 0.174970 0.500000 0.922204
O O6 0.161295 0.369948 0.975919
O O7 0.000000 0.435013 0.000000
O O8 0.250000 0.750000 0.500000
O O9 0.419863 0.693862 0.260157
O O10 0.301343 0.751421 0.150838
O O11 0.083095 0.129349 0.191546
O O12 0.000000 0.063720 0.500000
O O13 0.066814 0.000000 0.186397
O O14 0.000000 0.806262 0.500000
O O15 0.081654 0.735989 0.204376
O O16 0.500000 0.195895 0.000000
#
# Coordination Sequence:
#
# PCOD9169932 Si02
#       6
#     8   8   8   8   8   8
#     4   9  16  26  43  68  94 119 152 191 230 275
#     4   9  16  26  42  66  91 117 156 198 230 267
#     4  10  17  29  48  69  93 121 154 192 235 274
#     4   8  14  26  45  65  87 119 154 184 225 275
#     4   9  18  31  47  67  96 123 155 191 230 278
#     4   9  17  29  46  68  92 120 152 190 232 277
#
# _framework density 23.538046000000001
#
# number of rings (size 3 to 8) (size 9 to 14) (size 15 to 20)
#    0.000    3.000    1.667    0.000    0.000    0.000 
#    0.000    1.667    0.000    5.500    0.000    0.000 
#    0.000    0.000    0.000    0.000    0.000    0.000 
#
# Total GULP energy -133643.390452 kJ/mol
# GULP energy per Si atom -5568.474602 kJ/mol
# Density = 2.348447 g / cm^3
# Si number density = 23.538046 Si / 1000 Ang^3
#
#
#
# Elastic Constant Matrix: (Units=GPa)
#
#
# Indices 1 2 3 4 5 6 
#
# 1 65.0241 -1.8065 -6.6345 0.0000 -17.6021 0.0000
# 2 -1.8065 314.2533 58.3403 0.0000 -4.9826 0.0000
# 3 -6.6345 58.3403 42.6455 0.0000 -9.3170 0.0000
# 4 0.0000 0.0000 0.0000 28.3183 0.0000 2.4615
# 5 -17.6021 -4.9826 -9.3170 0.0000 19.2867 0.0000
# 6 0.0000 0.0000 0.0000 2.4615 0.0000 -6.6254
#
#
#
# Elastic Compliance Matrix: (Units=1/GPa)
#
#
# Indices 1 2 3 4 5 6 
#
# 1 0.023886 -0.001639 0.011882 0.000000 0.027116 0.000000
# 2 -0.001639 0.004442 -0.007164 0.000000 -0.003809 0.000000
# 3 0.011882 -0.007164 0.041437 0.000000 0.029011 0.000000
# 4 0.000000 0.000000 0.000000 0.034208 0.000000 0.012709
# 5 0.027116 -0.003809 0.029011 0.000000 0.089627 0.000000
# 6 0.000000 0.000000 0.000000 0.012709 0.000000 -0.146213
#
#
# Mechanical properties :
#
#
# Convention : Reuss Voigt Hill
#
# Bulk Modulus (GPa) = 13.17117 57.96906 35.57011
# Shear Modulus (GPa) = 75.14563 32.99750 54.07156
#
# Velocity S-wave (km/s) = 5.65637 3.74823 4.79811
# Velocity P-wave (km/s) = 6.94746 6.58890 6.77055
#
# Compressibility (1/GPa) = 0.07592342
#
# Stress axis : x y z
#
# Youngs Moduli (GPa) = 41.86521 225.10447 24.13314
#
# Poissons Ratio (x) = 0.36886 -0.28675
# Poissons Ratio (y) = 0.06860 0.17290
# Poissons Ratio (z) = -0.49744 1.61273
#
# Static dielectric constant tensor:
#      x y z
#    x 2.045660 0.000000 -0.274540 
#    y 0.000000 2.124520 0.000000 
#    z -0.274540 0.000000 2.305720 
# 
# From -- ./inp_files/89013.got.cif
#   From: 2010.05.17/outbox.cif.g08.bks.cpg/sg12_45_cif.got.tgz:89013.got - 2010.06.03 13:09:07.
