data_PCOD9169275
_publ_section_title
;
Structure prediction by ZEFSAII (Michael W. Deem and Ramdas Pophale) SiO2 
 PCOD9169275
Probable space group: C 2/M
;
_chemical_formula_sum "Si O2"
_cell_formula_units_Z 64
_cell_length_a 30.092829
_cell_length_b 7.537573
_cell_length_c 17.601092
_cell_angle_alpha 90.000000
_cell_angle_beta 63.575501
_cell_angle_gamma 90.000000
_cell_volume 3575.281210
_symmetry_space_group_name_H-M "C 2/M"
_symmetry_group_IT_number 12
_symmetry_cell_setting 'monoclinic'
loop_
_space_group_symop_operation_xyz
x,y,z
-x,y,-z
-x,-y,-z
x,-y,z
1/2+x,1/2+y,z
1/2-x,1/2+y,-z
1/2-x,1/2-y,-z
1/2+x,1/2-y,z
loop_
_atom_site_type_symbol
_atom_site_label
_atom_site_fract_x
_atom_site_fract_y
_atom_site_fract_z
Si Si1 0.332204 0.785055 0.652603
Si Si2 0.281479 0.202400 0.261398
Si Si3 0.503523 0.217220 0.586407
Si Si4 0.726846 0.792210 0.896458
Si Si5 0.887915 0.284556 0.455160
Si Si6 0.901293 0.712793 0.736907
Si Si7 0.677379 0.290323 0.086661
Si Si8 0.800344 0.713935 0.413888
O O1 0.278177 0.703642 0.688892
O O2 0.363674 0.740823 0.554516
O O3 0.362279 0.724115 0.703154
O O4 0.326799 0.000000 0.659419
O O5 0.199203 0.500000 0.754156
O O6 0.290753 0.284423 0.170877
O O7 0.297983 0.283329 0.329257
O O8 0.500000 0.270159 0.500000
O O9 0.555204 0.275556 0.584776
O O10 0.455622 0.276149 0.670841
O O11 0.503624 0.000000 0.585362
O O12 0.778587 0.717082 0.891553
O O13 0.736312 0.000000 0.873941
O O14 0.687763 0.779432 0.994547
O O15 0.889110 0.500000 0.449110
O O16 0.849226 0.221859 0.421040
O O17 0.902998 0.500000 0.730218
O O18 0.876065 0.756575 0.836147
O O19 0.685116 0.500000 0.076279
O O20 0.802870 0.500000 0.408026
O O21 0.750000 0.750000 0.500000
#
# Coordination Sequence:
#
# PCOD9169275 Si02
#       8
#     8   8   8   8   8   8   8   8
#     4  10  17  25  42  65  89 118 152 184 212 250
#     4  10  19  30  43  63  90 121 149 177 220 264
#     4   9  15  25  42  65  90 117 151 186 216 250
#     4   9  18  31  44  61  87 116 146 180 219 265
#     4   9  16  27  41  62  91 119 151 188 215 243
#     4  10  18  27  44  68  90 118 152 183 217 258
#     4  10  19  30  45  64  88 117 145 179 224 269
#     4  10  19  29  44  65  90 120 151 182 217 257
#
# _framework density 17.900690999999998
#
# number of rings (size 3 to 8) (size 9 to 14) (size 15 to 20)
#    0.000    2.375    3.750    0.375    0.000    1.000 
#    0.000    0.000    0.000    1.875    0.000    0.875 
#    0.000    7.000    0.000    0.000    0.000    0.000 
#
# Total GULP energy -178413.777877 kJ/mol
# GULP energy per Si atom -5575.430559 kJ/mol
# Density = 1.785995 g / cm^3
# Si number density = 17.900691 Si / 1000 Ang^3
#
#
#
# Elastic Constant Matrix: (Units=GPa)
#
#
# Indices 1 2 3 4 5 6 
#
# 1 107.3152 -3.5956 61.2524 0.0002 -0.7071 -0.0001
# 2 -3.5956 44.4881 -2.9379 0.0009 1.9994 0.0009
# 3 61.2524 -2.9379 142.3746 0.0001 1.2257 -0.0001
# 4 0.0002 0.0009 0.0001 8.8963 0.0000 -5.0833
# 5 -0.7071 1.9994 1.2257 0.0000 27.8458 0.0000
# 6 -0.0001 0.0009 -0.0001 -5.0833 0.0000 7.1264
#
#
#
# Elastic Compliance Matrix: (Units=1/GPa)
#
#
# Indices 1 2 3 4 5 6 
#
# 1 0.012377 0.000627 -0.005316 -0.000001 0.000503 0.000000
# 2 0.000627 0.022615 0.000211 -0.000007 -0.001617 -0.000008
# 3 -0.005316 0.000211 0.009320 0.000000 -0.000560 0.000000
# 4 -0.000001 -0.000007 0.000000 0.189739 0.000000 0.135341
# 5 0.000503 -0.001617 -0.000560 0.000000 0.036066 0.000001
# 6 0.000000 -0.000008 0.000000 0.135341 0.000001 0.236863
#
#
# Mechanical properties :
#
#
# Convention : Reuss Voigt Hill
#
# Bulk Modulus (GPa) = 28.28452 44.84620 36.56536
# Shear Modulus (GPa) = 9.47468 24.73763 17.10616
#
# Velocity S-wave (km/s) = 2.30313 3.72147 3.09465
# Velocity P-wave (km/s) = 4.78619 6.60098 5.76544
#
# Compressibility (1/GPa) = 0.03535502
#
# Stress axis : x y z
#
# Youngs Moduli (GPa) = 80.79490 44.21808 107.29546
#
# Poissons Ratio (x) = -0.02771 0.57041
# Poissons Ratio (y) = -0.05063 -0.02264
# Poissons Ratio (z) = 0.42953 -0.00933
#
# Static dielectric constant tensor:
#      x y z
#    x 1.611110 0.000000 0.021610 
#    y 0.000000 1.705010 0.000000 
#    z 0.021610 0.000000 1.632750 
# 
# From -- ./inp_files/248987.got.cif
#   From: 2010.05.17/outbox.cif.g08.bks.cpg/sg12_125_cif.got.tgz:248987.got - 2010.06.03 13:09:07.
