data_PCOD9169391
_publ_section_title
;
Structure prediction by ZEFSAII (Michael W. Deem and Ramdas Pophale) SiO2 
 PCOD9169391
Probable space group: C 2/M
;
_chemical_formula_sum "Si O2"
_cell_formula_units_Z 48
_cell_length_a 29.174641
_cell_length_b 8.833740
_cell_length_c 12.388957
_cell_angle_alpha 90.000000
_cell_angle_beta 70.509676
_cell_angle_gamma 90.000000
_cell_volume 3009.936931
_symmetry_space_group_name_H-M "C 2/M"
_symmetry_group_IT_number 12
_symmetry_cell_setting 'monoclinic'
loop_
_space_group_symop_operation_xyz
x,y,z
-x,y,-z
-x,-y,-z
x,-y,z
1/2+x,1/2+y,z
1/2-x,1/2+y,-z
1/2-x,1/2-y,-z
1/2+x,1/2-y,z
loop_
_atom_site_type_symbol
_atom_site_label
_atom_site_fract_x
_atom_site_fract_y
_atom_site_fract_z
Si Si1 0.676761 0.819364 0.567781
Si Si2 0.485729 0.324040 0.883909
Si Si3 0.417230 0.179428 0.238310
Si Si4 0.753083 0.679983 0.673998
Si Si5 0.616653 0.682521 0.962335
Si Si6 0.721800 0.819391 0.921011
O O1 0.620447 0.787435 0.635736
O O2 0.709246 0.730534 0.629426
O O3 0.698296 0.785281 0.433012
O O4 0.684580 0.000000 0.579516
O O5 0.488374 0.500000 0.850726
O O6 0.527516 0.233204 0.789910
O O7 0.500000 0.315286 0.000000
O O8 0.429664 0.273504 0.926817
O O9 0.395941 0.261023 0.148484
O O10 0.416817 0.000000 0.218626
O O11 0.750277 0.500000 0.695418
O O12 0.747521 0.766999 0.790007
O O13 0.619616 0.500000 0.958985
O O14 0.667088 0.754277 0.958868
O O15 0.720595 0.000000 0.928235
O O16 0.750000 0.750000 0.000000
#
# Coordination Sequence:
#
# PCOD9169391 Si02
#       6
#     8   8   8   8   8   8
#     4   9  18  30  46  71 101 131 161 196 238 287
#     4   8  16  28  42  63  94 127 159 193 235 288
#     4  10  17  26  44  71 100 129 160 194 235 286
#     4  10  19  32  49  69  96 130 164 199 241 285
#     4  10  19  32  47  66  94 128 162 200 242 284
#     4  12  24  37  52  71  95 126 166 205 244 290
#
# _framework density 15.947177999999999
#
# number of rings (size 3 to 8) (size 9 to 14) (size 15 to 20)
#    0.000    2.167    1.667    4.000    0.000    5.000 
#    0.000    0.000    0.000    0.000    0.000    1.167 
#    0.000    9.333    0.000    0.000    0.000    0.000 
#
# Total GULP energy -133783.133392 kJ/mol
# GULP energy per Si atom -5574.297225 kJ/mol
# Density = 1.591088 g / cm^3
# Si number density = 15.947178 Si / 1000 Ang^3
#
#
#
# Elastic Constant Matrix: (Units=GPa)
#
#
# Indices 1 2 3 4 5 6 
#
# 1 98.9570 51.8679 73.3011 0.0000 -28.7281 0.0000
# 2 51.8679 80.9911 53.5619 0.0000 -16.6737 0.0000
# 3 73.3011 53.5619 95.9363 0.0000 -28.1496 0.0000
# 4 0.0000 0.0000 0.0000 22.8324 0.0000 -3.7435
# 5 -28.7281 -16.6737 -28.1496 0.0000 34.1182 0.0000
# 6 0.0000 0.0000 0.0000 -3.7435 0.0000 25.4390
#
#
#
# Elastic Compliance Matrix: (Units=1/GPa)
#
#
# Indices 1 2 3 4 5 6 
#
# 1 0.025838 -0.005403 -0.014667 0.000000 0.007014 0.000000
# 2 -0.005403 0.020718 -0.007656 0.000000 -0.000742 0.000000
# 3 -0.014667 -0.007656 0.027949 0.000000 0.006968 0.000000
# 4 0.000000 0.000000 0.000000 0.044880 0.000000 0.006604
# 5 0.007014 -0.000742 0.006968 0.000000 0.040603 0.000000
# 6 0.000000 0.000000 0.000000 0.006604 0.000000 0.040282
#
#
# Mechanical properties :
#
#
# Convention : Reuss Voigt Hill
#
# Bulk Modulus (GPa) = 52.48687 70.37180 61.42933
# Shear Modulus (GPa) = 19.07854 22.95483 21.01668
#
# Velocity S-wave (km/s) = 3.46259 3.79810 3.63422
# Velocity P-wave (km/s) = 6.99789 7.96605 7.49761
#
# Compressibility (1/GPa) = 0.01905239
#
# Stress axis : x y z
#
# Youngs Moduli (GPa) = 38.70206 48.26733 35.77910
#
# Poissons Ratio (x) = 0.26081 0.52478
# Poissons Ratio (y) = 0.20912 0.27393
# Poissons Ratio (z) = 0.56765 0.36954
#
# Static dielectric constant tensor:
#      x y z
#    x 1.532860 0.000000 -0.049490 
#    y 0.000000 1.536880 0.000000 
#    z -0.049490 0.000000 1.536060 
# 
# From -- ./inp_files/179201.got.cif
#   From: 2010.05.17/outbox.cif.g08.bks.cpg/sg12_90_cif.got.tgz:179201.got - 2010.06.03 13:09:07.
