data_PCOD9169507
_publ_section_title
;
Structure prediction by ZEFSAII (Michael W. Deem and Ramdas Pophale) SiO2 
 PCOD9169507
Probable space group: C 2/M
;
_chemical_formula_sum "Si O2"
_cell_formula_units_Z 64
_cell_length_a 27.545212
_cell_length_b 8.834938
_cell_length_c 17.625353
_cell_angle_alpha 90.000000
_cell_angle_beta 77.814005
_cell_angle_gamma 90.000000
_cell_volume 4192.661345
_symmetry_space_group_name_H-M "C 2/M"
_symmetry_group_IT_number 12
_symmetry_cell_setting 'monoclinic'
loop_
_space_group_symop_operation_xyz
x,y,z
-x,y,-z
-x,-y,-z
x,-y,z
1/2+x,1/2+y,z
1/2-x,1/2+y,-z
1/2-x,1/2-y,-z
1/2+x,1/2-y,z
loop_
_atom_site_type_symbol
_atom_site_label
_atom_site_fract_x
_atom_site_fract_y
_atom_site_fract_z
Si Si1 0.935122 0.817015 0.692695
Si Si2 0.440374 0.674135 0.006562
Si Si3 0.426651 0.181032 0.169223
Si Si4 0.871702 0.823602 0.325471
Si Si5 0.114600 0.816656 0.441551
Si Si6 0.957660 0.319005 0.843553
Si Si7 0.037077 0.823537 0.587306
Si Si8 0.304484 0.180745 0.473773
O O1 0.892717 0.783641 0.644676
O O2 0.932570 0.745100 0.776191
O O3 0.986526 0.759011 0.637436
O O4 0.937947 0.000000 0.699996
O O5 0.424094 0.500000 0.010226
O O6 0.418688 0.759881 0.086491
O O7 0.500000 0.675851 0.000000
O O8 0.433325 0.753392 0.927997
O O9 0.387847 0.251840 0.240744
O O10 0.483433 0.225339 0.174357
O O11 0.424091 0.000000 0.172269
O O12 0.920889 0.815514 0.362044
O O13 0.829812 0.737444 0.387180
O O14 0.858520 0.000000 0.321616
O O15 0.064596 0.765215 0.503109
O O16 0.160429 0.742148 0.469830
O O17 0.117905 0.000000 0.449849
O O18 0.955703 0.500000 0.845557
O O19 0.025950 0.000000 0.575414
O O20 0.250000 0.250000 0.500000
O O21 0.302944 0.000000 0.475857
#
# Coordination Sequence:
#
# PCOD9169507 Si02
#       8
#     8   8   8   8   8   8   8   8
#     4  10  17  27  44  64  90 124 160 191 221 267
#     4   9  17  28  42  58  80 117 163 199 230 271
#     4  10  18  28  42  63  92 122 154 194 236 272
#     4  10  18  30  49  70  92 120 157 192 228 274
#     4   9  18  31  47  68  90 117 154 191 229 273
#     4  10  19  28  39  59  91 125 158 195 235 270
#     4   8  14  25  42  62  87 118 153 188 220 258
#     4  11  22  37  54  70  92 118 149 190 239 285
#
# _framework density 15.264768
#
# number of rings (size 3 to 8) (size 9 to 14) (size 15 to 20)
#    0.000    2.375    1.250    3.750    0.000    4.500 
#    0.000    0.000    0.000    2.250    0.000    0.000 
#    0.000    1.000    0.000    3.750    0.000    5.750 
#
# Total GULP energy -178345.645618 kJ/mol
# GULP energy per Si atom -5573.301426 kJ/mol
# Density = 1.523002 g / cm^3
# Si number density = 15.264768 Si / 1000 Ang^3
#
#
#
# Elastic Constant Matrix: (Units=GPa)
#
#
# Indices 1 2 3 4 5 6 
#
# 1 44.8927 32.0633 49.8548 0.0000 -0.2986 0.0000
# 2 32.0633 75.6939 59.4748 0.0000 2.2573 0.0000
# 3 49.8548 59.4748 148.2887 0.0000 15.9740 0.0000
# 4 0.0000 0.0000 0.0000 25.8802 0.0000 0.0492
# 5 -0.2986 2.2573 15.9740 0.0000 18.2003 0.0000
# 6 0.0000 0.0000 0.0000 0.0492 0.0000 15.5094
#
#
#
# Elastic Compliance Matrix: (Units=1/GPa)
#
#
# Indices 1 2 3 4 5 6 
#
# 1 0.041749 -0.008746 -0.011838 0.000000 0.012160 0.000000
# 2 -0.008746 0.021519 -0.005950 0.000000 0.002410 0.000000
# 3 -0.011838 -0.005950 0.014414 0.000000 -0.012107 0.000000
# 4 0.000000 0.000000 0.000000 0.038640 0.000000 -0.000123
# 5 0.012160 0.002410 -0.012107 0.000000 0.065471 0.000000
# 6 0.000000 0.000000 0.000000 -0.000123 0.000000 0.064477
#
#
# Mechanical properties :
#
#
# Convention : Reuss Voigt Hill
#
# Bulk Modulus (GPa) = 40.62628 61.29567 50.96098
# Shear Modulus (GPa) = 16.25785 20.41683 18.33734
#
# Velocity S-wave (km/s) = 3.26706 3.66117 3.46972
# Velocity P-wave (km/s) = 6.39561 7.62328 7.03627
#
# Compressibility (1/GPa) = 0.02461461
#
# Stress axis : x y z
#
# Youngs Moduli (GPa) = 23.95240 46.47087 69.37541
#
# Poissons Ratio (x) = 0.40641 0.82130
# Poissons Ratio (y) = 0.20948 0.41278
# Poissons Ratio (z) = 0.28356 0.27650
#
# Static dielectric constant tensor:
#      x y z
#    x 1.489760 0.000000 0.009960 
#    y 0.000000 1.514550 0.000000 
#    z 0.009960 0.000000 1.516700 
# 
# From -- ./inp_files/294575.got.cif
#   From: 2010.05.17/outbox.cif.g08.bks.cpg/sg12_148_cif.got.tgz:294575.got - 2010.06.03 13:09:07.
