data_PCOD9169196
_publ_section_title
;
Structure prediction by ZEFSAII (Michael W. Deem and Ramdas Pophale) SiO2 
 PCOD9169196
Probable space group: C 2/M
;
_chemical_formula_sum "Si O2"
_cell_formula_units_Z 48
_cell_length_a 14.137766
_cell_length_b 8.756840
_cell_length_c 19.802041
_cell_angle_alpha 90.000000
_cell_angle_beta 113.881766
_cell_angle_gamma 90.000000
_cell_volume 2241.641858
_symmetry_space_group_name_H-M "C 2/M"
_symmetry_group_IT_number 12
_symmetry_cell_setting 'monoclinic'
loop_
_space_group_symop_operation_xyz
x,y,z
-x,y,-z
-x,-y,-z
x,-y,z
1/2+x,1/2+y,z
1/2-x,1/2+y,-z
1/2-x,1/2-y,-z
1/2+x,1/2-y,z
loop_
_atom_site_type_symbol
_atom_site_label
_atom_site_fract_x
_atom_site_fract_y
_atom_site_fract_z
Si Si1 0.877723 0.821424 0.986817
Si Si2 0.344661 0.685732 0.832280
Si Si3 0.571276 0.181035 0.863127
Si Si4 0.027189 0.816564 0.712376
Si Si5 0.287245 0.682312 0.671797
Si Si6 0.084379 0.816181 0.578273
O O1 0.819156 0.769181 0.901732
O O2 0.856369 0.000000 0.992233
O O3 0.863784 0.733809 0.052804
O O4 0.000000 0.810579 0.000000
O O5 0.352996 0.500000 0.834754
O O6 0.456862 0.755018 0.847835
O O7 0.276958 0.729933 0.747916
O O8 0.588673 0.244168 0.792859
O O9 0.573046 0.000000 0.860627
O O10 0.905004 0.781926 0.686099
O O11 0.056067 0.764789 0.645815
O O12 0.038931 0.000000 0.720354
O O13 0.274619 0.500000 0.664529
O O14 0.200927 0.760143 0.601313
O O15 0.000000 0.761520 0.500000
O O16 0.082716 0.000000 0.576901
#
# Coordination Sequence:
#
# PCOD9169196 Si02
#       6
#     8   8   8   8   8   8
#     4   8  13  23  40  63  96 139 179 210 250 308
#     4   8  15  28  45  67 100 142 179 209 253 313
#     4  10  17  24  41  72 104 133 173 223 261 293
#     4   9  19  37  56  74 105 146 177 206 259 325
#     4   9  18  34  56  80 106 139 177 214 255 308
#     4  10  22  39  58  81 107 135 170 214 265 320
#
# _framework density 21.412876000000001
#
# number of rings (size 3 to 8) (size 9 to 14) (size 15 to 20)
#    0.000    3.000    0.000    3.500    0.000    7.333 
#    0.000    0.000    0.000    1.000    0.000    0.000 
#    0.000    0.000    0.000    0.000    0.000    0.000 
#
# Total GULP energy -133922.423271 kJ/mol
# GULP energy per Si atom -5580.100970 kJ/mol
# Density = 2.136414 g / cm^3
# Si number density = 21.412876 Si / 1000 Ang^3
#
#
#
# Elastic Constant Matrix: (Units=GPa)
#
#
# Indices 1 2 3 4 5 6 
#
# 1 44.8686 -16.0440 31.7026 0.0000 4.0163 0.0000
# 2 -16.0440 -68.7599 12.2817 0.0000 5.5884 0.0000
# 3 31.7026 12.2817 132.7743 0.0000 23.6481 0.0000
# 4 0.0000 0.0000 0.0000 27.7750 0.0000 3.8646
# 5 4.0163 5.5884 23.6481 0.0000 36.6304 0.0000
# 6 0.0000 0.0000 0.0000 3.8646 0.0000 1.7922
#
#
#
# Elastic Compliance Matrix: (Units=1/GPa)
#
#
# Indices 1 2 3 4 5 6 
#
# 1 0.023668 -0.006336 -0.005396 0.000000 0.001855 0.000000
# 2 -0.006336 -0.012538 0.002495 0.000000 0.000997 0.000000
# 3 -0.005396 0.002495 0.009663 0.000000 -0.006027 0.000000
# 4 0.000000 0.000000 0.000000 0.051436 0.000000 -0.110917
# 5 0.001855 0.000997 -0.006027 0.000000 0.030835 0.000000
# 6 0.000000 0.000000 0.000000 -0.110917 0.000000 0.797167
#
#
# Mechanical properties :
#
#
# Convention : Reuss Voigt Hill
#
# Bulk Modulus (GPa) = 431.01997 18.30706 224.66351
# Shear Modulus (GPa) = 5.43787 18.63568 12.03678
#
# Velocity S-wave (km/s) = 1.59532 2.95329 2.37350
# Velocity P-wave (km/s) = 14.32203 4.49415 10.61409
#
# Compressibility (1/GPa) = 0.00232008
#
# Stress axis : x y z
#
# Youngs Moduli (GPa) = 42.25090 -79.75511 103.49235
#
# Poissons Ratio (x) = -0.50530 0.55840
# Poissons Ratio (y) = 0.26768 -0.25822
# Poissons Ratio (z) = 0.22797 0.19899
#
# Static dielectric constant tensor:
#      x y z
#    x 1.703580 0.000000 -0.028640 
#    y 0.000000 1.708670 0.000000 
#    z -0.028640 0.000000 1.793370 
# 
# From -- ./inp_files/313369.got.cif
#   From: 2010.05.17/outbox.cif.g08.bks.cpg/sg12_157_cif.got.tgz:313369.got - 2010.06.03 13:09:07.
