data_PCOD9169220
_publ_section_title
;
Structure prediction by ZEFSAII (Michael W. Deem and Ramdas Pophale) SiO2 
 PCOD9169220
Probable space group: C 2/M
;
_chemical_formula_sum "Si O2"
_cell_formula_units_Z 48
_cell_length_a 9.737434
_cell_length_b 19.928720
_cell_length_c 11.774342
_cell_angle_alpha 90.000000
_cell_angle_beta 80.287519
_cell_angle_gamma 90.000000
_cell_volume 2252.115616
_symmetry_space_group_name_H-M "C 2/M"
_symmetry_group_IT_number 12
_symmetry_cell_setting 'monoclinic'
loop_
_space_group_symop_operation_xyz
x,y,z
-x,y,-z
-x,-y,-z
x,-y,z
1/2+x,1/2+y,z
1/2-x,1/2+y,-z
1/2-x,1/2-y,-z
1/2+x,1/2-y,z
loop_
_atom_site_type_symbol
_atom_site_label
_atom_site_fract_x
_atom_site_fract_y
_atom_site_fract_z
Si Si1 0.864545 0.821298 0.593146
Si Si2 0.183420 0.338813 0.426131
Si Si3 0.004629 0.341729 0.740237
Si Si4 0.767308 0.821222 0.059669
Si Si5 0.943733 0.812778 0.244910
Si Si6 0.146471 0.576098 0.909291
O O1 0.848637 0.741111 0.577342
O O2 0.732976 0.853607 0.547392
O O3 0.000000 0.840407 0.500000
O O4 0.910092 0.832608 0.716917
O O5 0.055843 0.367818 0.371483
O O6 0.321823 0.349489 0.331575
O O7 0.865500 0.329485 0.837294
O O8 0.069927 0.267024 0.727230
O O9 0.104364 0.389992 0.796644
O O10 0.904570 0.822385 0.119544
O O11 0.750000 0.750000 0.000000
O O12 0.751122 0.879181 0.968995
O O13 0.194805 0.500000 0.889136
O O14 0.000000 0.575299 0.000000
#
# Coordination Sequence:
#
# PCOD9169220 Si02
#       6
#     8   8   8   8   8   8
#     4   8  13  22  34  52  82 108 124 159 203 240
#     4   8  14  22  35  55  81 106 130 158 198 246
#     4   9  16  25  38  58  82 105 134 166 205 239
#     4  10  17  25  39  59  81 107 139 169 202 239
#     4   9  15  23  36  56  82 105 133 167 199 241
#     4   9  17  28  40  56  82 109 136 169 205 241
#
# _framework density 21.313293000000002
#
# number of rings (size 3 to 8) (size 9 to 14) (size 15 to 20)
#    0.000    3.167    1.667    0.000    0.000    0.000 
#    0.000    0.000    0.000    0.000    0.000    3.500 
#    0.000   76.000    0.000    1.000    0.000    0.167 
#
# Total GULP energy -133785.984759 kJ/mol
# GULP energy per Si atom -5574.416032 kJ/mol
# Density = 2.126478 g / cm^3
# Si number density = 21.313293 Si / 1000 Ang^3
#
#
#
# Elastic Constant Matrix: (Units=GPa)
#
#
# Indices 1 2 3 4 5 6 
#
# 1 89.2864 16.1221 65.8859 0.0000 34.8528 0.0000
# 2 16.1221 57.7187 50.5140 0.0000 25.7456 0.0000
# 3 65.8859 50.5140 207.7563 0.0000 71.5190 0.0000
# 4 0.0000 0.0000 0.0000 12.2604 0.0000 5.4895
# 5 34.8528 25.7456 71.5190 0.0000 62.3239 0.0000
# 6 0.0000 0.0000 0.0000 5.4895 0.0000 13.0214
#
#
#
# Elastic Compliance Matrix: (Units=1/GPa)
#
#
# Indices 1 2 3 4 5 6 
#
# 1 0.015550 0.000926 -0.003358 0.000000 -0.005225 0.000000
# 2 0.000926 0.022999 -0.004028 0.000000 -0.005396 0.000000
# 3 -0.003358 -0.004028 0.009320 0.000000 -0.007153 0.000000
# 4 0.000000 0.000000 0.000000 0.100542 0.000000 -0.042386
# 5 -0.005225 -0.005396 -0.007153 0.000000 0.029405 0.000000
# 6 0.000000 0.000000 0.000000 -0.042386 0.000000 0.094666
#
#
# Mechanical properties :
#
#
# Convention : Reuss Voigt Hill
#
# Bulk Modulus (GPa) = 28.61272 68.86727 48.73999
# Shear Modulus (GPa) = 16.83209 32.33709 24.58459
#
# Velocity S-wave (km/s) = 2.81329 3.89938 3.39999
# Velocity P-wave (km/s) = 4.89967 7.25642 6.19122
#
# Compressibility (1/GPa) = 0.03494949
#
# Stress axis : x y z
#
# Youngs Moduli (GPa) = 64.30801 43.48017 107.29487
#
# Poissons Ratio (x) = -0.04026 0.36027
# Poissons Ratio (y) = -0.05954 0.43218
# Poissons Ratio (z) = 0.21593 0.17514
#
# Static dielectric constant tensor:
#      x y z
#    x 1.882590 0.000000 -0.026170 
#    y 0.000000 1.693650 0.000000 
#    z -0.026170 0.000000 1.878610 
# 
# From -- ./inp_files/205702.got.cif
#   From: 2010.05.17/outbox.cif.g08.bks.cpg/sg12_103_cif.got.tgz:205702.got - 2010.06.03 13:09:07.
