data_PCOD9169595
_publ_section_title
;
Structure prediction by ZEFSAII (Michael W. Deem and Ramdas Pophale) SiO2 
 PCOD9169595
Probable space group: C 2/M
;
_chemical_formula_sum "Si O2"
_cell_formula_units_Z 64
_cell_length_a 21.081775
_cell_length_b 8.632146
_cell_length_c 24.958895
_cell_angle_alpha 90.000000
_cell_angle_beta 126.675310
_cell_angle_gamma 90.000000
_cell_volume 3642.869360
_symmetry_space_group_name_H-M "C 2/M"
_symmetry_group_IT_number 12
_symmetry_cell_setting 'monoclinic'
loop_
_space_group_symop_operation_xyz
x,y,z
-x,y,-z
-x,-y,-z
x,-y,z
1/2+x,1/2+y,z
1/2-x,1/2+y,-z
1/2-x,1/2-y,-z
1/2+x,1/2-y,z
loop_
_atom_site_type_symbol
_atom_site_label
_atom_site_fract_x
_atom_site_fract_y
_atom_site_fract_z
Si Si1 0.606489 0.187321 0.794168
Si Si2 0.333587 0.811624 0.771772
Si Si3 0.925776 0.319910 0.504040
Si Si4 0.071552 0.185743 0.996298
Si Si5 0.985686 0.312199 0.145569
Si Si6 0.718430 0.185922 0.134771
Si Si7 0.821399 0.815136 0.364183
Si Si8 0.954648 0.312429 0.351494
O O1 0.562172 0.236004 0.825829
O O2 0.694639 0.253047 0.834742
O O3 0.558912 0.234024 0.716538
O O4 0.610960 0.000000 0.796311
O O5 0.422810 0.760166 0.805788
O O6 0.306231 0.763786 0.817496
O O7 0.266763 0.762144 0.695760
O O8 0.334614 0.000000 0.771890
O O9 0.904338 0.500000 0.499246
O O10 0.854597 0.234131 0.438708
O O11 0.000000 0.312408 0.500000
O O12 0.964280 0.259937 0.578622
O O13 0.052813 0.248602 0.927988
O O14 0.074725 0.000000 0.996991
O O15 0.152792 0.251103 0.061029
O O16 0.000000 0.233423 0.000000
O O17 0.985001 0.500000 0.142880
O O18 0.718362 0.000000 0.133553
O O19 0.881314 0.747241 0.349928
O O20 0.824437 0.000000 0.361689
O O21 0.954478 0.500000 0.354618
#
# Coordination Sequence:
#
# PCOD9169595 Si02
#       8
#     8   8   8   8   8   8   8   8
#     4  10  21  36  56  81 107 138 178 222 261 306
#     4   9  18  32  52  78 104 134 174 214 258 310
#     4   8  15  27  42  66 101 137 169 207 256 307
#     4  11  23  38  57  83 110 135 171 220 265 308
#     4  10  21  39  59  78 104 140 179 215 260 319
#     4  11  21  36  59  81 106 141 175 213 261 317
#     4  10  17  27  46  75 103 130 171 218 257 300
#     4   9  17  30  47  70 103 137 169 208 259 310
#
# _framework density 17.568569
#
# number of rings (size 3 to 8) (size 9 to 14) (size 15 to 20)
#    0.000    2.250    2.500    1.875    0.000    3.750 
#    0.000    1.250    0.000    0.750    0.000    0.000 
#    0.000    0.000    0.000    0.000    0.000    1.250 
#
# Total GULP energy -178471.482088 kJ/mol
# GULP energy per Si atom -5577.233815 kJ/mol
# Density = 1.752858 g / cm^3
# Si number density = 17.568569 Si / 1000 Ang^3
#
#
#
# Elastic Constant Matrix: (Units=GPa)
#
#
# Indices 1 2 3 4 5 6 
#
# 1 119.8250 23.9595 87.7912 0.0000 -0.4065 0.0000
# 2 23.9595 15.8686 33.5648 0.0000 -1.3845 0.0000
# 3 87.7912 33.5648 205.0513 0.0000 8.2228 0.0000
# 4 0.0000 0.0000 0.0000 23.1167 0.0000 0.1947
# 5 -0.4065 -1.3845 8.2228 0.0000 23.8630 0.0000
# 6 0.0000 0.0000 0.0000 0.1947 0.0000 15.6307
#
#
#
# Elastic Compliance Matrix: (Units=1/GPa)
#
#
# Indices 1 2 3 4 5 6 
#
# 1 0.013645 -0.012391 -0.003847 0.000000 0.000839 0.000000
# 2 -0.012391 0.110680 -0.013244 0.000000 0.010774 0.000000
# 3 -0.003847 -0.013244 0.008848 0.000000 -0.003883 0.000000
# 4 0.000000 0.000000 0.000000 0.043263 0.000000 -0.000539
# 5 0.000839 0.010774 -0.003883 0.000000 0.043883 0.000000
# 6 0.000000 0.000000 0.000000 -0.000539 0.000000 0.063983
#
#
# Mechanical properties :
#
#
# Convention : Reuss Voigt Hill
#
# Bulk Modulus (GPa) = 13.47574 70.15289 41.81432
# Shear Modulus (GPa) = 13.58688 25.55071 19.56880
#
# Velocity S-wave (km/s) = 2.78396 3.81772 3.34106
# Velocity P-wave (km/s) = 4.24510 7.71044 6.22382
#
# Compressibility (1/GPa) = 0.07420740
#
# Stress axis : x y z
#
# Youngs Moduli (GPa) = 73.28852 9.03509 113.02434
#
# Poissons Ratio (x) = 0.11195 0.43484
# Poissons Ratio (y) = 0.90810 1.49691
# Poissons Ratio (z) = 0.28196 0.11966
#
# Static dielectric constant tensor:
#      x y z
#    x 1.569740 0.000000 -0.001410 
#    y 0.000000 1.600190 0.000000 
#    z -0.001410 0.000000 1.616650 
# 
# From -- ./inp_files/346262.got.cif
#   From: 2010.05.17/outbox.cif.g08.bks.cpg/sg12_174_cif.got.tgz:346262.got - 2010.06.03 13:09:07.
