data_PCOD9169368
_publ_section_title
;
Structure prediction by ZEFSAII (Michael W. Deem and Ramdas Pophale) SiO2 
 PCOD9169368
Probable space group: C 2/M
;
_chemical_formula_sum "Si O2"
_cell_formula_units_Z 48
_cell_length_a 29.225303
_cell_length_b 9.095214
_cell_length_c 12.265076
_cell_angle_alpha 90.000000
_cell_angle_beta 109.706571
_cell_angle_gamma 90.000000
_cell_volume 3069.241688
_symmetry_space_group_name_H-M "C 2/M"
_symmetry_group_IT_number 12
_symmetry_cell_setting 'monoclinic'
loop_
_space_group_symop_operation_xyz
x,y,z
-x,y,-z
-x,-y,-z
x,-y,z
1/2+x,1/2+y,z
1/2-x,1/2+y,-z
1/2-x,1/2-y,-z
1/2+x,1/2-y,z
loop_
_atom_site_type_symbol
_atom_site_label
_atom_site_fract_x
_atom_site_fract_y
_atom_site_fract_z
Si Si1 0.275806 0.824069 0.418299
Si Si2 0.113057 0.676847 0.537730
Si Si3 0.825101 0.825759 0.048792
Si Si4 0.512218 0.830230 0.379941
Si Si5 0.916309 0.175661 0.258226
Si Si6 0.756054 0.326236 0.829831
O O1 0.250000 0.750000 0.500000
O O2 0.333537 0.790275 0.463236
O O3 0.253925 0.760152 0.288946
O O4 0.270237 0.000000 0.416997
O O5 0.109117 0.500000 0.551238
O O6 0.068365 0.718605 0.422253
O O7 0.104425 0.754603 0.646664
O O8 0.878975 0.785238 0.131812
O O9 0.789269 0.802688 0.123709
O O10 0.823466 0.000000 0.022081
O O11 0.802814 0.734153 0.931951
O O12 0.500000 0.825360 0.500000
O O13 0.470950 0.735102 0.289195
O O14 0.508229 0.000000 0.342088
O O15 0.916404 0.000000 0.269331
O O16 0.759918 0.500000 0.812142
#
# Coordination Sequence:
#
# PCOD9169368 Si02
#       6
#     8   8   8   8   8   8
#     4  11  22  35  51  69  93 126 163 200 238 277
#     4   9  18  31  45  62  90 126 158 191 230 276
#     4   9  18  30  45  68  98 127 154 190 234 281
#     4   8  15  27  41  61  90 122 155 186 224 278
#     4  10  17  26  43  69  97 123 152 188 232 278
#     4  10  19  32  48  68  93 124 161 196 233 279
#
# _framework density 15.639042
#
# number of rings (size 3 to 8) (size 9 to 14) (size 15 to 20)
#    0.000    2.500    1.667    2.500    0.000    5.667 
#    0.000    0.000    0.000    0.000    0.000    1.167 
#    0.000    9.333    0.000    0.000    0.000    0.000 
#
# Total GULP energy -133748.039531 kJ/mol
# GULP energy per Si atom -5572.834980 kJ/mol
# Density = 1.560345 g / cm^3
# Si number density = 15.639042 Si / 1000 Ang^3
#
#
#
# Elastic Constant Matrix: (Units=GPa)
#
#
# Indices 1 2 3 4 5 6 
#
# 1 101.5624 52.8613 71.5587 0.0000 29.3083 0.0000
# 2 52.8613 56.4513 50.6744 0.0000 13.8862 0.0000
# 3 71.5587 50.6744 85.3822 0.0000 27.3433 0.0000
# 4 0.0000 0.0000 0.0000 26.9946 0.0000 4.8504
# 5 29.3083 13.8862 27.3433 0.0000 32.1825 0.0000
# 6 0.0000 0.0000 0.0000 4.8504 0.0000 22.8022
#
#
#
# Elastic Compliance Matrix: (Units=1/GPa)
#
#
# Indices 1 2 3 4 5 6 
#
# 1 0.028416 -0.011990 -0.013833 0.000000 -0.008952 0.000000
# 2 -0.011990 0.043312 -0.018091 0.000000 0.007602 0.000000
# 3 -0.013833 -0.018091 0.037791 0.000000 -0.011705 0.000000
# 4 0.000000 0.000000 0.000000 0.038517 0.000000 -0.008193
# 5 -0.008952 0.007602 -0.011705 0.000000 0.045890 0.000000
# 6 0.000000 0.000000 0.000000 -0.008193 0.000000 0.045598
#
#
# Mechanical properties :
#
#
# Convention : Reuss Voigt Hill
#
# Bulk Modulus (GPa) = 46.10171 65.95386 56.02779
# Shear Modulus (GPa) = 14.94400 20.94930 17.94665
#
# Velocity S-wave (km/s) = 3.09456 3.66396 3.39123
# Velocity P-wave (km/s) = 6.50469 7.75652 7.15802
#
# Compressibility (1/GPa) = 0.02169117
#
# Stress axis : x y z
#
# Youngs Moduli (GPa) = 35.19102 23.08842 26.46137
#
# Poissons Ratio (x) = 0.27683 0.36604
# Poissons Ratio (y) = 0.42193 0.47872
# Poissons Ratio (z) = 0.48679 0.41770
#
# Static dielectric constant tensor:
#      x y z
#    x 1.537560 0.000000 0.036100 
#    y 0.000000 1.518980 0.000000 
#    z 0.036100 0.000000 1.499320 
# 
# From -- ./inp_files/179335.got.cif
#   From: 2010.05.17/outbox.cif.g08.bks.cpg/sg12_90_cif.got.tgz:179335.got - 2010.06.03 13:09:07.
