data_PCOD9169892
_publ_section_title
;
Structure prediction by ZEFSAII (Michael W. Deem and Ramdas Pophale) SiO2 
 PCOD9169892
Probable space group: C 2/M
;
_chemical_formula_sum "Si O2"
_cell_formula_units_Z 52
_cell_length_a 13.767032
_cell_length_b 30.116187
_cell_length_c 8.519269
_cell_angle_alpha 90.000000
_cell_angle_beta 137.879683
_cell_angle_gamma 90.000000
_cell_volume 2368.995646
_symmetry_space_group_name_H-M "C 2/M"
_symmetry_group_IT_number 12
_symmetry_cell_setting 'monoclinic'
loop_
_space_group_symop_operation_xyz
x,y,z
-x,y,-z
-x,-y,-z
x,-y,z
1/2+x,1/2+y,z
1/2-x,1/2+y,-z
1/2-x,1/2-y,-z
1/2+x,1/2-y,z
loop_
_atom_site_type_symbol
_atom_site_label
_atom_site_fract_x
_atom_site_fract_y
_atom_site_fract_z
Si Si1 0.646696 0.762792 0.120998
Si Si2 0.213485 0.872698 0.002942
Si Si3 0.200999 0.166998 0.320484
Si Si4 0.194331 0.849347 0.647887
Si Si5 0.427471 0.947020 0.243538
Si Si6 0.500000 0.903247 0.000000
Si Si7 0.973880 0.698785 0.296790
O O1 0.656153 0.717329 0.224002
O O2 0.775041 0.796406 0.304257
O O3 0.500000 0.787496 0.000000
O O4 0.600633 0.760849 0.885735
O O5 0.165634 0.860721 0.121836
O O6 0.272969 0.922487 0.065403
O O7 0.353640 0.839667 0.155576
O O8 0.130045 0.862825 0.740434
O O9 0.136243 0.146330 0.400763
O O10 0.373548 0.174919 0.558840
O O11 0.349221 0.875892 0.829579
O O12 0.500000 0.934619 0.500000
O O13 0.418541 0.000000 0.227033
O O14 0.501831 0.930236 0.169262
O O15 0.000000 0.716365 0.500000
#
# Coordination Sequence:
#
# PCOD9169892 Si02
#       7
#     8   8   8   8   8   4   8
#     4  11  20  30  42  66  85 113 163 193 220 262
#     4   9  19  31  45  65  86 116 158 178 219 275
#     4  11  19  31  47  60  89 121 152 193 226 252
#     4  10  17  29  46  59  81 119 152 184 217 255
#     4  10  18  27  43  67  92 118 149 184 222 268
#     4  10  17  30  46  62  92 122 156 180 217 268
#     4   9  18  30  44  61  83 119 154 187 215 261
#
# _framework density 21.950229
#
# number of rings (size 3 to 8) (size 9 to 14) (size 15 to 20)
#    0.000    2.000    2.308    4.846    0.000    5.538 
#    0.000    0.000    0.000    0.000    0.000    0.000 
#    0.000    0.615    0.000    5.538    0.615    0.000 
#
# Total GULP energy -144857.394217 kJ/mol
# GULP energy per Si atom -5571.438239 kJ/mol
# Density = 2.190027 g / cm^3
# Si number density = 21.950229 Si / 1000 Ang^3
#
#
#
# Elastic Constant Matrix: (Units=GPa)
#
#
# Indices 1 2 3 4 5 6 
#
# 1 103.5305 24.2505 56.0586 0.0000 -40.2689 0.0000
# 2 24.2505 71.8794 32.5648 0.0000 -24.6804 0.0000
# 3 56.0586 32.5648 179.5025 0.0000 -56.7146 0.0000
# 4 0.0000 0.0000 0.0000 31.1001 0.0000 -11.8712
# 5 -40.2689 -24.6804 -56.7146 0.0000 54.1887 0.0000
# 6 0.0000 0.0000 0.0000 -11.8712 0.0000 16.4297
#
#
#
# Elastic Compliance Matrix: (Units=1/GPa)
#
#
# Indices 1 2 3 4 5 6 
#
# 1 0.013975 -0.001190 -0.001552 0.000000 0.008219 0.000000
# 2 -0.001190 0.016696 -0.000798 0.000000 0.005885 0.000000
# 3 -0.001552 -0.000798 0.008548 0.000000 0.007430 0.000000
# 4 0.000000 0.000000 0.000000 0.044400 0.000000 0.032081
# 5 0.008219 0.005885 0.007430 0.000000 0.035018 0.000000
# 6 0.000000 0.000000 0.000000 0.032081 0.000000 0.084046
#
#
# Mechanical properties :
#
#
# Convention : Reuss Voigt Hill
#
# Bulk Modulus (GPa) = 31.11428 64.51779 47.81603
# Shear Modulus (GPa) = 22.67843 36.47957 29.57900
#
# Velocity S-wave (km/s) = 3.21779 4.08109 3.67488
# Velocity P-wave (km/s) = 5.29257 7.18774 6.31169
#
# Compressibility (1/GPa) = 0.03213958
#
# Stress axis : x y z
#
# Youngs Moduli (GPa) = 71.55787 59.89563 116.99016
#
# Poissons Ratio (x) = 0.07126 0.18152
# Poissons Ratio (y) = 0.08513 0.09336
# Poissons Ratio (z) = 0.11103 0.04780
#
# Static dielectric constant tensor:
#      x y z
#    x 2.564900 0.000000 -0.637190 
#    y 0.000000 1.760410 0.000000 
#    z -0.637190 0.000000 2.413300 
# 
# From -- ./inp_files/80266.got.cif
#   From: 2010.05.17/outbox.cif.g08.bks.cpg/sg12_41_cif.got.tgz:80266.got - 2010.06.03 13:09:07.
