data_PCOD9169589
_publ_section_title
;
Structure prediction by ZEFSAII (Michael W. Deem and Ramdas Pophale) SiO2 
 PCOD9169589
Probable space group: C 2/M
;
_chemical_formula_sum "Si O2"
_cell_formula_units_Z 42
_cell_length_a 11.083309
_cell_length_b 30.158209
_cell_length_c 7.009974
_cell_angle_alpha 90.000000
_cell_angle_beta 63.864766
_cell_angle_gamma 90.000000
_cell_volume 2103.536878
_symmetry_space_group_name_H-M "C 2/M"
_symmetry_group_IT_number 12
_symmetry_cell_setting 'monoclinic'
loop_
_space_group_symop_operation_xyz
x,y,z
-x,y,-z
-x,-y,-z
x,-y,z
1/2+x,1/2+y,z
1/2-x,1/2+y,-z
1/2-x,1/2-y,-z
1/2+x,1/2-y,z
loop_
_atom_site_type_symbol
_atom_site_label
_atom_site_fract_x
_atom_site_fract_y
_atom_site_fract_z
Si Si1 0.468403 0.729077 0.795593
Si Si2 0.500000 0.500000 0.500000
Si Si3 0.518563 0.168658 0.700033
Si Si4 0.259208 0.657737 0.994142
Si Si5 0.813985 0.841535 0.412839
Si Si6 0.022452 0.915810 0.211388
O O1 0.481211 0.779160 0.719718
O O2 0.584864 0.699020 0.621988
O O3 0.500000 0.729894 0.000000
O O4 0.327377 0.703139 0.870255
O O5 0.532494 0.460861 0.318512
O O6 0.500000 0.149364 0.500000
O O7 0.399415 0.150755 0.915517
O O8 0.676551 0.162354 0.625822
O O9 0.281057 0.660883 0.209220
O O10 0.349570 0.616927 0.862084
O O11 0.896696 0.886796 0.376822
O O12 0.000000 0.922933 0.000000
#
# Coordination Sequence:
#
# PCOD9169589 Si02
#       6
#     8   2   8   8   8   8
#     4   9  16  28  41  65 102 143 175 211 250 286
#     4  12  22  36  64  92  92 120 186 214 264 338
#     4  10  17  27  46  73  97 138 183 207 237 304
#     4   8  16  31  49  67 102 139 170 205 257 303
#     4   8  16  31  49  67 102 139 170 205 257 303
#     4   9  19  38  57  78 105 131 158 218 268 310
#
# _framework density 19.966372
#
# number of rings (size 3 to 8) (size 9 to 14) (size 15 to 20)
#    0.000    3.048    0.000    3.714    0.000    0.000 
#   10.286    0.000    0.000    2.286    0.000    6.667 
#    0.000    0.000    0.000    0.000    0.000    0.000 
#
# Total GULP energy -117000.193996 kJ/mol
# GULP energy per Si atom -5571.437809 kJ/mol
# Density = 1.992093 g / cm^3
# Si number density = 19.966372 Si / 1000 Ang^3
#
#
#
# Elastic Constant Matrix: (Units=GPa)
#
#
# Indices 1 2 3 4 5 6 
#
# 1 77.8396 23.0154 55.5873 0.0000 -25.1122 0.0000
# 2 23.0154 125.0360 50.2720 0.0000 -21.5446 0.0000
# 3 55.5873 50.2720 163.2239 0.0000 -26.4351 0.0000
# 4 0.0000 0.0000 0.0000 16.7202 0.0000 8.9076
# 5 -25.1122 -21.5446 -26.4351 0.0000 51.3086 0.0000
# 6 0.0000 0.0000 0.0000 8.9076 0.0000 5.7662
#
#
#
# Elastic Compliance Matrix: (Units=1/GPa)
#
#
# Indices 1 2 3 4 5 6 
#
# 1 0.018736 -0.000231 -0.005281 0.000000 0.006352 0.000000
# 2 -0.000231 0.009461 -0.002411 0.000000 0.002617 0.000000
# 3 -0.005281 -0.002411 0.008821 0.000000 0.000948 0.000000
# 4 0.000000 0.000000 0.000000 0.337877 0.000000 -0.521953
# 5 0.006352 0.002617 0.000948 0.000000 0.024186 0.000000
# 6 0.000000 0.000000 0.000000 -0.521953 0.000000 0.979738
#
#
# Mechanical properties :
#
#
# Convention : Reuss Voigt Hill
#
# Bulk Modulus (GPa) = 47.23347 69.31656 58.27502
# Shear Modulus (GPa) = 3.56704 30.57399 17.07052
#
# Velocity S-wave (km/s) = 1.33806 3.91740 2.92715
# Velocity P-wave (km/s) = 5.10833 7.43326 6.37763
#
# Compressibility (1/GPa) = 0.02117143
#
# Stress axis : x y z
#
# Youngs Moduli (GPa) = 53.37438 105.70099 113.36483
#
# Poissons Ratio (x) = 0.02442 0.59864
# Poissons Ratio (y) = 0.01233 0.27336
# Poissons Ratio (z) = 0.28185 0.25488
#
# Static dielectric constant tensor:
#      x y z
#    x 1.783650 0.000000 0.018490 
#    y 0.000000 1.625390 0.000000 
#    z 0.018490 0.000000 1.792700 
# 
# From -- ./inp_files/67721.got.cif
#   From: 2010.05.17/outbox.cif.g08.bks.cpg/sg12_34_cif.got.tgz:67721.got - 2010.06.03 13:09:07.
