data_PCOD9169715
_publ_section_title
;
Structure prediction by ZEFSAII (Michael W. Deem and Ramdas Pophale) SiO2 
 PCOD9169715
Probable space group: C 2/M
;
_chemical_formula_sum "Si O2"
_cell_formula_units_Z 48
_cell_length_a 29.643555
_cell_length_b 8.409454
_cell_length_c 12.535530
_cell_angle_alpha 90.000000
_cell_angle_beta 70.115952
_cell_angle_gamma 90.000000
_cell_volume 2938.633929
_symmetry_space_group_name_H-M "C 2/M"
_symmetry_group_IT_number 12
_symmetry_cell_setting 'monoclinic'
loop_
_space_group_symop_operation_xyz
x,y,z
-x,y,-z
-x,-y,-z
x,-y,z
1/2+x,1/2+y,z
1/2-x,1/2+y,-z
1/2-x,1/2-y,-z
1/2+x,1/2-y,z
loop_
_atom_site_type_symbol
_atom_site_label
_atom_site_fract_x
_atom_site_fract_y
_atom_site_fract_z
Si Si1 0.835089 0.693729 0.252041
Si Si2 0.575394 0.189112 0.948285
Si Si3 0.765951 0.809400 0.604208
Si Si4 0.135511 0.689837 0.531816
Si Si5 0.970238 0.808230 0.422210
Si Si6 0.499897 0.689393 0.836480
O O1 0.836313 0.500000 0.252117
O O2 0.872335 0.746192 0.131903
O O3 0.779300 0.740642 0.286506
O O4 0.854192 0.745404 0.353970
O O5 0.539593 0.225824 0.878382
O O6 0.576468 0.000000 0.964565
O O7 0.551182 0.270225 0.069763
O O8 0.750000 0.750000 0.500000
O O9 0.819144 0.742516 0.575925
O O10 0.768341 0.000000 0.602298
O O11 0.133962 0.500000 0.535749
O O12 0.084853 0.754698 0.533804
O O13 0.000000 0.749106 0.500000
O O14 0.993545 0.758783 0.290638
O O15 0.971067 0.000000 0.423724
O O16 0.507867 0.500000 0.837453
#
# Coordination Sequence:
#
# PCOD9169715 Si02
#       6
#     8   8   8   8   8   8
#     4   8  15  26  42  65  92 120 149 178 217 274
#     4  10  17  28  46  66  92 124 150 179 225 275
#     4   9  16  27  42  64  92 122 153 185 225 273
#     4  10  18  30  45  65  92 121 154 191 231 274
#     4  10  21  35  49  65  89 124 161 195 233 275
#     4  10  19  30  43  65  91 117 153 192 228 270
#
# _framework density 16.334119999999999
#
# number of rings (size 3 to 8) (size 9 to 14) (size 15 to 20)
#    0.000    2.500    1.667    4.000    0.000    1.000 
#    0.000    2.500    0.000    0.000    0.000    1.167 
#    0.000    0.000    0.000    0.000    0.000    0.000 
#
# Total GULP energy -133686.781728 kJ/mol
# GULP energy per Si atom -5570.282572 kJ/mol
# Density = 1.629694 g / cm^3
# Si number density = 16.334120 Si / 1000 Ang^3
#
#
#
# Elastic Constant Matrix: (Units=GPa)
#
#
# Indices 1 2 3 4 5 6 
#
# 1 114.7813 4.8297 71.6405 0.0000 -27.8809 0.0000
# 2 4.8297 10.7627 8.6922 0.0000 3.5316 0.0000
# 3 71.6405 8.6922 85.1637 0.0000 -22.2299 0.0000
# 4 0.0000 0.0000 0.0000 7.2360 0.0000 -5.8503
# 5 -27.8809 3.5316 -22.2299 0.0000 31.9400 0.0000
# 6 0.0000 0.0000 0.0000 -5.8503 0.0000 22.4596
#
#
#
# Elastic Compliance Matrix: (Units=1/GPa)
#
#
# Indices 1 2 3 4 5 6 
#
# 1 0.019505 0.001010 -0.014781 0.000000 0.006627 0.000000
# 2 0.001010 0.116491 -0.019395 0.000000 -0.025497 0.000000
# 3 -0.014781 -0.019395 0.028531 0.000000 0.009099 0.000000
# 4 0.000000 0.000000 0.000000 0.175065 0.000000 0.045601
# 5 0.006627 -0.025497 0.009099 0.000000 0.046246 0.000000
# 6 0.000000 0.000000 0.000000 0.045601 0.000000 0.056402
#
#
# Mechanical properties :
#
#
# Convention : Reuss Voigt Hill
#
# Bulk Modulus (GPa) = 10.18381 42.33694 26.26038
# Shear Modulus (GPa) = 9.23697 20.69680 14.96689
#
# Velocity S-wave (km/s) = 2.38061 3.56348 3.03032
# Velocity P-wave (km/s) = 3.71546 6.55033 5.32501
#
# Compressibility (1/GPa) = 0.09819507
#
# Stress axis : x y z
#
# Youngs Moduli (GPa) = 51.26872 8.58437 35.05003
#
# Poissons Ratio (x) = -0.00867 0.51808
# Poissons Ratio (y) = -0.05179 0.67979
# Poissons Ratio (z) = 0.75781 0.16649
#
# Static dielectric constant tensor:
#      x y z
#    x 1.558530 0.000000 -0.045230 
#    y 0.000000 1.558330 0.000000 
#    z -0.045230 0.000000 1.558300 
# 
# From -- ./inp_files/179209.got.cif
#   From: 2010.05.17/outbox.cif.g08.bks.cpg/sg12_90_cif.got.tgz:179209.got - 2010.06.03 13:09:07.
