data_PCOD9169233
_publ_section_title
;
Structure prediction by ZEFSAII (Michael W. Deem and Ramdas Pophale) SiO2 
 PCOD9169233
Probable space group: C 2/M
;
_chemical_formula_sum "Si O2"
_cell_formula_units_Z 64
_cell_length_a 24.095282
_cell_length_b 8.188460
_cell_length_c 22.300231
_cell_angle_alpha 90.000000
_cell_angle_beta 122.181350
_cell_angle_gamma 90.000000
_cell_volume 3723.935160
_symmetry_space_group_name_H-M "C 2/M"
_symmetry_group_IT_number 12
_symmetry_cell_setting 'monoclinic'
loop_
_space_group_symop_operation_xyz
x,y,z
-x,y,-z
-x,-y,-z
x,-y,z
1/2+x,1/2+y,z
1/2-x,1/2+y,-z
1/2-x,1/2-y,-z
1/2+x,1/2-y,z
loop_
_atom_site_type_symbol
_atom_site_label
_atom_site_fract_x
_atom_site_fract_y
_atom_site_fract_z
Si Si1 0.678442 0.302346 0.224097
Si Si2 0.450188 0.305752 0.636030
Si Si3 0.050973 0.199805 0.227957
Si Si4 0.958710 0.696305 0.418335
Si Si5 0.593201 0.189218 0.074684
Si Si6 0.968273 0.810716 0.072768
Si Si7 0.686848 0.800478 0.638341
Si Si8 0.686243 0.804241 0.499305
O O1 0.677980 0.500000 0.221808
O O2 0.619844 0.251725 0.236174
O O3 0.658933 0.236232 0.147401
O O4 0.748900 0.246688 0.288592
O O5 0.457551 0.500000 0.642400
O O6 0.454442 0.243798 0.706870
O O7 0.503754 0.238377 0.620826
O O8 0.379001 0.264438 0.568552
O O9 0.990626 0.253111 0.150658
O O10 0.050695 0.000000 0.227199
O O11 0.956706 0.500000 0.422479
O O12 0.883641 0.754804 0.377608
O O13 0.000000 0.757195 0.500000
O O14 0.536582 0.293966 0.074981
O O15 0.578160 0.000000 0.076908
O O16 0.585305 0.223245 0.999578
O O17 0.950326 0.000000 0.067157
O O18 0.691237 0.750969 0.571341
O O19 0.687585 0.000000 0.639956
O O20 0.750000 0.750000 0.500000
O O21 0.681677 0.000000 0.496313
#
# Coordination Sequence:
#
# PCOD9169233 Si02
#       8
#     8   8   8   8   8   8   8   8
#     4   9  16  30  49  67  89 127 168 195 227 287
#     4  11  21  34  51  74  99 127 162 205 250 292
#     4   8  16  29  46  68  97 126 159 199 236 279
#     4  10  19  36  55  71  93 126 167 210 250 291
#     4  10  17  25  39  66 100 126 148 190 242 280
#     4   9  15  27  45  63  87 128 169 191 215 276
#     4   9  18  33  53  69  91 128 168 203 241 286
#     4  11  21  35  51  72  98 130 162 199 243 293
#
# _framework density 17.186122000000001
#
# number of rings (size 3 to 8) (size 9 to 14) (size 15 to 20)
#    0.000    2.375    1.250    4.500    0.000    2.250 
#    0.000   10.625    0.000    0.000    0.000    0.875 
#    0.000    0.000    0.000    0.000    0.000    0.000 
#
# Total GULP energy -178372.676327 kJ/mol
# GULP energy per Si atom -5574.146135 kJ/mol
# Density = 1.714701 g / cm^3
# Si number density = 17.186122 Si / 1000 Ang^3
#
#
#
# Elastic Constant Matrix: (Units=GPa)
#
#
# Indices 1 2 3 4 5 6 
#
# 1 104.4927 2.1483 71.8756 0.0000 3.3628 0.0000
# 2 2.1483 11.7505 8.1705 0.0000 0.2872 0.0000
# 3 71.8756 8.1705 188.7165 0.0000 11.0256 0.0000
# 4 0.0000 0.0000 0.0000 13.5590 0.0000 -4.2092
# 5 3.3628 0.2872 11.0256 0.0000 3.2599 0.0000
# 6 0.0000 0.0000 0.0000 -4.2092 0.0000 14.8466
#
#
#
# Elastic Compliance Matrix: (Units=1/GPa)
#
#
# Indices 1 2 3 4 5 6 
#
# 1 0.013028 0.001172 -0.005261 0.000000 0.004251 0.000000
# 2 0.001172 0.087956 -0.004650 0.000000 0.006767 0.000000
# 3 -0.005261 -0.004650 0.008927 0.000000 -0.024356 0.000000
# 4 0.000000 0.000000 0.000000 0.080870 0.000000 0.022928
# 5 0.004251 0.006767 -0.024356 0.000000 0.384152 0.000000
# 6 0.000000 0.000000 0.000000 0.022928 0.000000 0.073856
#
#
# Mechanical properties :
#
#
# Convention : Reuss Voigt Hill
#
# Bulk Modulus (GPa) = 10.81857 52.14983 31.48420
# Shear Modulus (GPa) = 7.17281 21.18412 14.17846
#
# Velocity S-wave (km/s) = 2.04516 3.51469 2.87539
# Velocity P-wave (km/s) = 3.44754 6.84695 5.42062
#
# Compressibility (1/GPa) = 0.09243368
#
# Stress axis : x y z
#
# Youngs Moduli (GPa) = 76.75809 11.36932 112.02008
#
# Poissons Ratio (x) = -0.01333 0.58934
# Poissons Ratio (y) = -0.08998 0.52088
# Poissons Ratio (z) = 0.40383 0.05287
#
# Static dielectric constant tensor:
#      x y z
#    x 1.546680 0.000000 0.000390 
#    y 0.000000 1.607230 0.000000 
#    z 0.000390 0.000000 1.624660 
# 
# From -- ./inp_files/323734.got.cif
#   From: 2010.05.17/outbox.cif.g08.bks.cpg/sg12_162_cif.got.tgz:323734.got - 2010.06.03 13:09:07.
