data_PCOD9169855
_publ_section_title
;
Structure prediction by ZEFSAII (Michael W. Deem and Ramdas Pophale) SiO2 
 PCOD9169855
Probable space group: C 2/M
;
_chemical_formula_sum "Si O2"
_cell_formula_units_Z 64
_cell_length_a 28.318920
_cell_length_b 15.649379
_cell_length_c 19.530242
_cell_angle_alpha 90.000000
_cell_angle_beta 20.773234
_cell_angle_gamma 90.000000
_cell_volume 3069.772127
_symmetry_space_group_name_H-M "C 2/M"
_symmetry_group_IT_number 12
_symmetry_cell_setting 'monoclinic'
loop_
_space_group_symop_operation_xyz
x,y,z
-x,y,-z
-x,-y,-z
x,-y,z
1/2+x,1/2+y,z
1/2-x,1/2+y,-z
1/2-x,1/2-y,-z
1/2+x,1/2-y,z
loop_
_atom_site_type_symbol
_atom_site_label
_atom_site_fract_x
_atom_site_fract_y
_atom_site_fract_z
Si Si1 0.882395 0.736346 0.216172
Si Si2 0.746654 0.596177 0.656184
Si Si3 0.703218 0.184982 0.272329
Si Si4 0.540594 0.595296 0.365126
Si Si5 0.763310 0.907596 0.659038
Si Si6 0.901048 0.655525 0.998260
Si Si7 0.562547 0.095431 0.201670
Si Si8 0.102091 0.716062 0.269160
O O1 0.830004 0.832413 0.283612
O O2 0.766775 0.672232 0.348640
O O3 0.954372 0.697351 0.184636
O O4 0.000000 0.732545 0.000000
O O5 0.697105 0.500000 0.713429
O O6 0.741773 0.621295 0.744044
O O7 0.901755 0.599600 0.425116
O O8 0.684353 0.167146 0.217120
O O9 0.554101 0.207186 0.498923
O O10 0.796861 0.267140 0.145559
O O11 0.500000 0.598795 0.500000
O O12 0.599444 0.500000 0.273754
O O13 0.405760 0.599711 0.502939
O O14 0.622437 0.681725 0.240651
O O15 0.756413 0.000000 0.633175
O O16 0.648908 0.904614 0.872639
O O17 0.896056 0.610484 0.932415
O O18 0.616441 0.168592 0.178365
O O19 0.599504 0.000000 0.175014
#
# Coordination Sequence:
#
# PCOD9169855 Si02
#       8
#     8   8   8   8   8   8   8   8
#     4  10  20  34  55  83 107 140 191 236 283 327
#     4  10  20  38  58  81 112 146 191 231 274 336
#     4  10  18  34  58  83 106 147 189 235 281 322
#     4  10  17  28  52  84 107 139 184 228 280 327
#     4  10  18  30  51  79 111 139 178 235 279 326
#     4  11  20  35  53  79 116 142 187 230 282 338
#     4  10  23  37  55  81 114 153 186 226 284 343
#     4  10  18  35  59  79 115 147 188 233 277 337
#
# _framework density 20.848452000000002
#
# number of rings (size 3 to 8) (size 9 to 14) (size 15 to 20)
#    0.000    1.875    5.000    1.125    0.000    4.500 
#    0.000    3.125    0.000    3.000    0.000    0.000 
#    0.000    0.000    0.000    0.000    0.000    0.000 
#
# Total GULP energy -178569.036307 kJ/mol
# GULP energy per Si atom -5580.282385 kJ/mol
# Density = 2.080100 g / cm^3
# Si number density = 20.848452 Si / 1000 Ang^3
#
#
#
# Elastic Constant Matrix: (Units=GPa)
#
#
# Indices 1 2 3 4 5 6 
#
# 1 51.3997 26.9679 6.4146 0.0000 -10.0864 0.0000
# 2 26.9679 120.7386 8.0353 0.0000 3.1351 0.0000
# 3 6.4146 8.0353 41.8015 0.0000 -5.6434 0.0000
# 4 0.0000 0.0000 0.0000 2.7277 0.0000 2.0031
# 5 -10.0864 3.1351 -5.6434 0.0000 25.5569 0.0000
# 6 0.0000 0.0000 0.0000 2.0031 0.0000 19.0044
#
#
#
# Elastic Compliance Matrix: (Units=1/GPa)
#
#
# Indices 1 2 3 4 5 6 
#
# 1 0.024574 -0.005663 -0.001319 0.000000 0.010102 0.000000
# 2 -0.005663 0.009746 -0.001513 0.000000 -0.003765 0.000000
# 3 -0.001319 -0.001513 0.025119 0.000000 0.005212 0.000000
# 4 0.000000 0.000000 0.000000 0.397371 0.000000 -0.041883
# 5 0.010102 -0.003765 0.005212 0.000000 0.044728 0.000000
# 6 0.000000 0.000000 0.000000 -0.041883 0.000000 0.057034
#
#
# Mechanical properties :
#
#
# Convention : Reuss Voigt Hill
#
# Bulk Modulus (GPa) = 23.55714 32.97504 28.26609
# Shear Modulus (GPa) = 8.47874 20.95925 14.71900
#
# Velocity S-wave (km/s) = 2.01883 3.17411 2.65995
# Velocity P-wave (km/s) = 4.09365 5.41149 4.79803
#
# Compressibility (1/GPa) = 0.04244998
#
# Stress axis : x y z
#
# Youngs Moduli (GPa) = 40.69406 102.60942 39.81002
#
# Poissons Ratio (x) = 0.58110 0.05249
# Poissons Ratio (y) = 0.23046 0.06021
# Poissons Ratio (z) = 0.05366 0.15520
#
# Static dielectric constant tensor:
#      x y z
#    x 1.778160 0.000000 -0.024250 
#    y 0.000000 1.752340 0.000000 
#    z -0.024250 0.000000 1.752700 
# 
# From -- ./inp_files/330365.got.cif
#   From: 2010.05.17/outbox.cif.g08.bks.cpg/sg12_166_cif.got.tgz:330365.got - 2010.06.03 13:09:07.
