data_PCOD9169158
_publ_section_title
;
Structure prediction by ZEFSAII (Michael W. Deem and Ramdas Pophale) SiO2 
 PCOD9169158
Probable space group: C 2/M
;
_chemical_formula_sum "Si O2"
_cell_formula_units_Z 64
_cell_length_a 20.909812
_cell_length_b 8.656745
_cell_length_c 25.294923
_cell_angle_alpha 90.000000
_cell_angle_beta 123.451613
_cell_angle_gamma 90.000000
_cell_volume 3820.210023
_symmetry_space_group_name_H-M "C 2/M"
_symmetry_group_IT_number 12
_symmetry_cell_setting 'monoclinic'
loop_
_space_group_symop_operation_xyz
x,y,z
-x,y,-z
-x,-y,-z
x,-y,z
1/2+x,1/2+y,z
1/2-x,1/2+y,-z
1/2-x,1/2-y,-z
1/2+x,1/2-y,z
loop_
_atom_site_type_symbol
_atom_site_label
_atom_site_fract_x
_atom_site_fract_y
_atom_site_fract_z
Si Si1 0.878271 0.683868 0.326277
Si Si2 0.910003 0.813729 0.453319
Si Si3 0.703128 0.684188 0.804761
Si Si4 0.472788 0.685850 0.666678
Si Si5 0.633174 0.685184 0.927262
Si Si6 0.717246 0.315096 0.065839
Si Si7 0.834114 0.813964 0.529446
Si Si8 0.446572 0.815776 0.201900
O O1 0.880627 0.500000 0.321931
O O2 0.876040 0.734986 0.385885
O O3 0.808612 0.750392 0.259278
O O4 0.956583 0.754303 0.337144
O O5 0.867548 0.767044 0.487683
O O6 0.000000 0.775254 0.500000
O O7 0.904932 0.000000 0.445040
O O8 0.774499 0.741969 0.872446
O O9 0.628227 0.749822 0.801396
O O10 0.799812 0.000000 0.196748
O O11 0.477479 0.500000 0.670830
O O12 0.394477 0.733176 0.602278
O O13 0.484459 0.753683 0.730610
O O14 0.633622 0.500000 0.921666
O O15 0.708749 0.752901 0.932704
O O16 0.562690 0.754273 0.862023
O O17 0.645461 0.722127 0.994858
O O18 0.723146 0.500000 0.072769
O O19 0.750000 0.750000 0.500000
O O20 0.831970 0.000000 0.528934
O O21 0.444302 0.000000 0.201511
#
# Coordination Sequence:
#
# PCOD9169158 Si02
#       8
#     8   8   8   8   8   8   8   8
#     4  11  20  29  45  70  93 116 152 201 241 273
#     4  10  19  36  55  72  96 126 161 194 238 291
#     4  10  17  25  37  53  78 113 147 183 230 282
#     4  10  18  32  48  64  88 123 156 188 237 289
#     4   9  15  22  32  47  70 105 143 181 225 275
#     4   9  15  22  32  47  71 103 143 186 224 267
#     4  10  22  37  55  74  97 128 157 197 241 291
#     4  10  17  24  36  56  79 106 144 193 232 267
#
# _framework density 16.753005999999999
#
# number of rings (size 3 to 8) (size 9 to 14) (size 15 to 20)
#    0.000    2.125    1.250    7.500    0.000    3.250 
#    0.000    0.000    0.000    0.000    0.000    0.000 
#    0.000    0.000    0.000    1.125    0.000   21.500 
#
# Total GULP energy -178298.927308 kJ/mol
# GULP energy per Si atom -5571.841478 kJ/mol
# Density = 1.671488 g / cm^3
# Si number density = 16.753006 Si / 1000 Ang^3
#
#
#
# Elastic Constant Matrix: (Units=GPa)
#
#
# Indices 1 2 3 4 5 6 
#
# 1 43.1040 14.7884 38.5206 0.0000 1.6974 0.0000
# 2 14.7884 97.5505 67.7266 0.0000 -1.2213 0.0000
# 3 38.5206 67.7266 212.1769 0.0000 -0.5088 0.0000
# 4 0.0000 0.0000 0.0000 60.1649 0.0000 -9.9370
# 5 1.6974 -1.2213 -0.5088 0.0000 7.6483 0.0000
# 6 0.0000 0.0000 0.0000 -9.9370 0.0000 16.1821
#
#
#
# Elastic Compliance Matrix: (Units=1/GPa)
#
#
# Indices 1 2 3 4 5 6 
#
# 1 0.028096 -0.001016 -0.004793 0.000000 -0.006716 0.000000
# 2 -0.001016 0.013232 -0.004034 0.000000 0.002070 0.000000
# 3 -0.004793 -0.004034 0.006873 0.000000 0.000877 0.000000
# 4 0.000000 0.000000 0.000000 0.018497 0.000000 0.011359
# 5 -0.006716 0.002070 0.000877 0.000000 0.132628 0.000000
# 6 0.000000 0.000000 0.000000 0.011359 0.000000 0.068772
#
#
# Mechanical properties :
#
#
# Convention : Reuss Voigt Hill
#
# Bulk Modulus (GPa) = 35.06920 66.10030 50.58475
# Shear Modulus (GPa) = 16.81875 32.25212 24.53543
#
# Velocity S-wave (km/s) = 3.17191 4.39242 3.83108
# Velocity P-wave (km/s) = 5.86457 8.07873 7.05901
#
# Compressibility (1/GPa) = 0.02851505
#
# Stress axis : x y z
#
# Youngs Moduli (GPa) = 35.59263 75.57520 145.49817
#
# Poissons Ratio (x) = 0.07678 0.69731
# Poissons Ratio (y) = 0.03616 0.58697
# Poissons Ratio (z) = 0.17058 0.30488
#
# Static dielectric constant tensor:
#      x y z
#    x 1.519040 0.000000 -0.000550 
#    y 0.000000 1.559510 0.000000 
#    z -0.000550 0.000000 1.655040 
# 
# From -- ./inp_files/345568.got.cif
#   From: 2010.05.17/outbox.cif.g08.bks.cpg/sg12_173_cif.got.tgz:345568.got - 2010.06.03 13:09:07.
