data_PCOD9169577
_publ_section_title
;
Structure prediction by ZEFSAII (Michael W. Deem and Ramdas Pophale) SiO2 
 PCOD9169577
Probable space group: C 2/M
;
_chemical_formula_sum "Si O2"
_cell_formula_units_Z 56
_cell_length_a 26.700589
_cell_length_b 14.046047
_cell_length_c 24.690652
_cell_angle_alpha 90.000000
_cell_angle_beta 21.374140
_cell_angle_gamma 90.000000
_cell_volume 3374.840439
_symmetry_space_group_name_H-M "C 2/M"
_symmetry_group_IT_number 12
_symmetry_cell_setting 'monoclinic'
loop_
_space_group_symop_operation_xyz
x,y,z
-x,y,-z
-x,-y,-z
x,-y,z
1/2+x,1/2+y,z
1/2-x,1/2+y,-z
1/2-x,1/2-y,-z
1/2+x,1/2-y,z
loop_
_atom_site_type_symbol
_atom_site_label
_atom_site_fract_x
_atom_site_fract_y
_atom_site_fract_z
Si Si1 0.564211 0.387500 0.766232
Si Si2 0.959826 0.892400 0.337876
Si Si3 0.144673 0.297733 0.511030
Si Si4 0.408200 0.112589 0.812946
Si Si5 0.274449 0.108052 0.062276
Si Si6 0.034137 0.387209 0.403062
Si Si7 0.718269 0.690570 0.908989
O O1 0.586775 0.500000 0.751292
O O2 0.539383 0.371752 0.727045
O O3 0.699425 0.330453 0.646481
O O4 0.430146 0.355083 0.933830
O O5 0.875710 0.812719 0.454443
O O6 0.116990 0.889728 0.200084
O O7 0.907398 0.000000 0.398317
O O8 0.059331 0.353053 0.644131
O O9 0.067154 0.328973 0.534334
O O10 0.303453 0.167291 0.878646
O O11 0.392679 0.000000 0.817880
O O12 0.368990 0.128416 0.914556
O O13 0.292304 0.195538 0.084854
O O14 0.302438 0.000000 0.053083
O O15 0.019331 0.500000 0.406362
O O16 0.187542 0.354836 0.232337
O O17 0.000000 0.371145 0.500000
#
# Coordination Sequence:
#
# PCOD9169577 Si02
#       7
#     8   8   8   8   8   8   8
#     4  11  21  31  48  78 110 137 166 201 248 307
#     4  10  19  31  48  75 109 140 169 203 244 295
#     4  11  20  34  50  72 104 140 171 207 251 298
#     4  10  17  27  46  69  96 132 169 199 237 294
#     4  10  18  29  48  74 102 133 172 209 237 287
#     4  10  21  37  56  75  95 125 171 222 263 300
#     4  11  18  32  51  70  97 132 168 203 254 299
#
# _framework density 16.593375999999999
#
# number of rings (size 3 to 8) (size 9 to 14) (size 15 to 20)
#    0.000    1.571    4.286    5.143    0.000    0.000 
#    0.000    2.857    0.000    4.286    0.000    0.000 
#    0.000    2.286    0.000    0.000    0.000    0.000 
#
# Total GULP energy -156294.535649 kJ/mol
# GULP energy per Si atom -5581.947702 kJ/mol
# Density = 1.655561 g / cm^3
# Si number density = 16.593376 Si / 1000 Ang^3
#
#
#
# Elastic Constant Matrix: (Units=GPa)
#
#
# Indices 1 2 3 4 5 6 
#
# 1 35.0950 37.4046 40.0313 0.0004 10.6602 0.0001
# 2 37.4046 116.2239 48.0992 0.0010 15.7594 0.0001
# 3 40.0313 48.0992 117.4049 0.0007 1.3332 0.0001
# 4 0.0004 0.0010 0.0007 23.6465 -0.0005 0.2179
# 5 10.6602 15.7594 1.3332 -0.0005 16.7564 0.0001
# 6 0.0001 0.0001 0.0001 0.2179 0.0001 7.1826
#
#
#
# Elastic Compliance Matrix: (Units=1/GPa)
#
#
# Indices 1 2 3 4 5 6 
#
# 1 0.073745 -0.010461 -0.020456 -0.000001 -0.035450 0.000000
# 2 -0.010461 0.013577 -0.001928 0.000000 -0.005960 0.000000
# 3 -0.020456 -0.001928 0.016128 0.000000 0.013544 0.000000
# 4 -0.000001 0.000000 0.000000 0.042301 0.000002 -0.001283
# 5 -0.035450 -0.005960 0.013544 0.000002 0.086760 -0.000001
# 6 0.000000 0.000000 0.000000 -0.001283 -0.000001 0.139264
#
#
# Mechanical properties :
#
#
# Convention : Reuss Voigt Hill
#
# Bulk Modulus (GPa) = 26.48290 57.75487 42.11888
# Shear Modulus (GPa) = 11.10983 19.06302 15.08642
#
# Velocity S-wave (km/s) = 2.59034 3.39312 3.01854
# Velocity P-wave (km/s) = 4.99410 7.08749 6.13081
#
# Compressibility (1/GPa) = 0.03776022
#
# Stress axis : x y z
#
# Youngs Moduli (GPa) = 13.56026 73.65562 62.00223
#
# Poissons Ratio (x) = 0.77050 1.26834
# Poissons Ratio (y) = 0.14185 0.11952
# Poissons Ratio (z) = 0.27739 0.14199
#
# Static dielectric constant tensor:
#      x y z
#    x 1.535110 0.000000 -0.004950 
#    y 0.000000 1.595870 0.000000 
#    z -0.004950 0.000000 1.551530 
# 
# From -- ./inp_files/104442.got.cif
#   From: 2010.05.17/outbox.cif.g08.bks.cpg/sg12_53_cif.got.tgz:104442.got - 2010.06.03 13:09:07.
