data_PCOD9169210
_publ_section_title
;
Structure prediction by ZEFSAII (Michael W. Deem and Ramdas Pophale) SiO2 
 PCOD9169210
Probable space group: C 2/M
;
_chemical_formula_sum "Si O2"
_cell_formula_units_Z 64
_cell_length_a 27.849174
_cell_length_b 7.780010
_cell_length_c 18.006793
_cell_angle_alpha 90.000000
_cell_angle_beta 78.460966
_cell_angle_gamma 90.000000
_cell_volume 3822.621091
_symmetry_space_group_name_H-M "C 2/M"
_symmetry_group_IT_number 12
_symmetry_cell_setting 'monoclinic'
loop_
_space_group_symop_operation_xyz
x,y,z
-x,y,-z
-x,-y,-z
x,-y,z
1/2+x,1/2+y,z
1/2-x,1/2+y,-z
1/2-x,1/2-y,-z
1/2+x,1/2-y,z
loop_
_atom_site_type_symbol
_atom_site_label
_atom_site_fract_x
_atom_site_fract_y
_atom_site_fract_z
Si Si1 0.445849 0.294695 0.530847
Si Si2 0.172898 0.295158 0.166535
Si Si3 0.631638 0.702273 0.329455
Si Si4 0.682242 0.197699 0.687272
Si Si5 0.713475 0.208652 0.836059
Si Si6 0.283092 0.198166 0.591046
Si Si7 0.359827 0.791364 0.446360
Si Si8 0.193291 0.706500 0.001579
O O1 0.500000 0.222798 0.500000
O O2 0.450739 0.500000 0.537221
O O3 0.417225 0.234036 0.613768
O O4 0.408756 0.260198 0.474425
O O5 0.168152 0.500000 0.167053
O O6 0.136596 0.225720 0.240278
O O7 0.229039 0.254555 0.173482
O O8 0.165989 0.229283 0.084071
O O9 0.637173 0.500000 0.344475
O O10 0.677407 0.793943 0.354664
O O11 0.690824 0.275443 0.766058
O O12 0.735341 0.201322 0.631081
O O13 0.646259 0.272729 0.635883
O O14 0.667178 0.000000 0.703545
O O15 0.685676 0.268133 0.919594
O O16 0.712191 0.000000 0.834360
O O17 0.313296 0.265896 0.510814
O O18 0.269148 0.000000 0.582695
O O19 0.357865 0.000000 0.446663
O O20 0.187894 0.500000 0.001999
O O21 0.250000 0.750000 0.000000
#
# Coordination Sequence:
#
# PCOD9169210 Si02
#       8
#     8   8   8   8   8   8   8   8
#     4   9  19  35  51  64  79 102 134 172 212 254
#     4  10  17  25  38  57  82 107 139 177 204 236
#     4  10  18  28  43  61  81 106 136 169 209 252
#     4  10  18  27  40  58  84 113 142 170 196 236
#     4   9  16  26  39  54  78 114 147 170 200 235
#     4  10  18  27  39  56  82 111 141 172 200 232
#     4   9  19  31  42  61  84 108 136 167 205 246
#     4   8  15  25  36  52  75 107 142 173 202 232
#
# _framework density 16.742438
#
# number of rings (size 3 to 8) (size 9 to 14) (size 15 to 20)
#    0.000    2.625    1.250    1.500    0.000    2.250 
#    0.000    0.000    0.000    0.000    0.000    0.000 
#    0.000    1.000    0.000   12.500    0.000    1.000 
#
# Total GULP energy -178220.387282 kJ/mol
# GULP energy per Si atom -5569.387103 kJ/mol
# Density = 1.670433 g / cm^3
# Si number density = 16.742438 Si / 1000 Ang^3
#
#
#
# Elastic Constant Matrix: (Units=GPa)
#
#
# Indices 1 2 3 4 5 6 
#
# 1 49.9274 -3.1685 56.6711 0.0000 -3.5332 0.0000
# 2 -3.1685 27.8510 0.3257 0.0000 -3.1232 0.0000
# 3 56.6711 0.3257 156.8075 0.0000 14.2805 0.0000
# 4 0.0000 0.0000 0.0000 12.9405 0.0000 0.3549
# 5 -3.5332 -3.1232 14.2805 0.0000 17.5255 0.0000
# 6 0.0000 0.0000 0.0000 0.3549 0.0000 7.1777
#
#
#
# Elastic Compliance Matrix: (Units=1/GPa)
#
#
# Indices 1 2 3 4 5 6 
#
# 1 0.041879 0.007650 -0.017330 0.000000 0.023928 0.000000
# 2 0.007650 0.038111 -0.003892 0.000000 0.011505 0.000000
# 3 -0.017330 -0.003892 0.014074 0.000000 -0.015656 0.000000
# 4 0.000000 0.000000 0.000000 0.077382 0.000000 -0.003826
# 5 0.023928 0.011505 -0.015656 0.000000 0.076691 0.000000
# 6 0.000000 0.000000 0.000000 -0.003826 0.000000 0.139509
#
#
# Mechanical properties :
#
#
# Convention : Reuss Voigt Hill
#
# Bulk Modulus (GPa) = 14.94299 38.02695 26.48497
# Shear Modulus (GPa) = 11.43909 19.57924 15.50916
#
# Velocity S-wave (km/s) = 2.61672 3.42341 3.04688
# Velocity P-wave (km/s) = 4.25138 6.19585 5.31332
#
# Compressibility (1/GPa) = 0.06692102
#
# Stress axis : x y z
#
# Youngs Moduli (GPa) = 23.87838 26.23889 71.05128
#
# Poissons Ratio (x) = -0.20073 1.23134
# Poissons Ratio (y) = -0.18268 0.27652
# Poissons Ratio (z) = 0.41382 0.10212
#
# Static dielectric constant tensor:
#      x y z
#    x 1.529280 0.000000 0.021220 
#    y 0.000000 1.606220 0.000000 
#    z 0.021220 0.000000 1.648590 
# 
# From -- ./inp_files/287686.got.cif
#   From: 2010.05.17/outbox.cif.g08.bks.cpg/sg12_144_cif.got.tgz:287686.got - 2010.06.03 13:09:07.
