data_PCOD9169761
_publ_section_title
;
Structure prediction by ZEFSAII (Michael W. Deem and Ramdas Pophale) SiO2 
 PCOD9169761
Probable space group: C 2/M
;
_chemical_formula_sum "Si O2"
_cell_formula_units_Z 56
_cell_length_a 20.066463
_cell_length_b 7.661832
_cell_length_c 18.449267
_cell_angle_alpha 90.000000
_cell_angle_beta 65.737920
_cell_angle_gamma 90.000000
_cell_volume 2585.966056
_symmetry_space_group_name_H-M "C 2/M"
_symmetry_group_IT_number 12
_symmetry_cell_setting 'monoclinic'
loop_
_space_group_symop_operation_xyz
x,y,z
-x,y,-z
-x,-y,-z
x,-y,z
1/2+x,1/2+y,z
1/2-x,1/2+y,-z
1/2-x,1/2-y,-z
1/2+x,1/2-y,z
loop_
_atom_site_type_symbol
_atom_site_label
_atom_site_fract_x
_atom_site_fract_y
_atom_site_fract_z
Si Si1 0.565749 0.794192 0.584333
Si Si2 0.584204 0.289406 0.974482
Si Si3 0.352636 0.711586 0.590213
Si Si4 0.909803 0.797448 0.713738
Si Si5 0.596848 0.794468 0.811985
Si Si6 0.928392 0.795391 0.864204
Si Si7 0.308196 0.787142 0.365718
O O1 0.583049 0.765689 0.492545
O O2 0.493458 0.708059 0.648519
O O3 0.637217 0.728990 0.595673
O O4 0.557449 0.000000 0.601910
O O5 0.584843 0.500000 0.976100
O O6 0.622573 0.235228 0.883017
O O7 0.500000 0.232258 0.000000
O O8 0.604726 0.223796 0.045521
O O9 0.352701 0.500000 0.592294
O O10 0.364603 0.777870 0.666612
O O11 0.274964 0.773678 0.593958
O O12 0.906882 0.718674 0.795788
O O13 0.887775 0.000000 0.730121
O O14 0.516691 0.713949 0.833804
O O15 0.654516 0.733738 0.726666
O O16 0.586467 0.000000 0.805861
O O17 0.909573 0.000000 0.870688
O O18 0.306080 0.000000 0.368719
#
# Coordination Sequence:
#
# PCOD9169761 Si02
#       7
#     8   8   8   8   8   8   8
#     4  11  21  35  53  74 100 128 161 205 254 294
#     4   8  15  27  43  67  99 127 154 196 241 281
#     4  10  21  37  53  71  97 130 169 206 240 288
#     4  10  20  34  54  75  96 129 169 204 240 288
#     4  10  17  28  47  72  98 126 160 196 240 288
#     4   9  17  30  47  70  98 126 159 198 241 284
#     4   9  19  34  51  72 100 131 163 202 244 289
#
# _framework density 21.655351
#
# number of rings (size 3 to 8) (size 9 to 14) (size 15 to 20)
#    0.000    2.429    1.429    2.571    0.000    4.857 
#    0.000    2.143    0.000    0.857    0.000    0.000 
#    0.000    0.000    0.000    0.000    0.000    1.429 
#
# Total GULP energy -156201.810371 kJ/mol
# GULP energy per Si atom -5578.636085 kJ/mol
# Density = 2.160606 g / cm^3
# Si number density = 21.655351 Si / 1000 Ang^3
#
#
#
# Elastic Constant Matrix: (Units=GPa)
#
#
# Indices 1 2 3 4 5 6 
#
# 1 36.3865 -2.5807 -18.1268 0.0004 3.7549 0.0005
# 2 -2.5807 42.7854 -2.9877 0.0011 5.1489 0.0007
# 3 -18.1268 -2.9877 84.7940 0.0001 20.8694 0.0003
# 4 0.0004 0.0011 0.0001 15.2441 -0.0001 1.8437
# 5 3.7549 5.1489 20.8694 -0.0001 24.9678 0.0002
# 6 0.0005 0.0007 0.0003 1.8437 0.0002 3.8370
#
#
#
# Elastic Compliance Matrix: (Units=1/GPa)
#
#
# Indices 1 2 3 4 5 6 
#
# 1 0.035304 0.004879 0.011675 -0.000001 -0.016074 -0.000005
# 2 0.004879 0.025104 0.004258 -0.000001 -0.009470 -0.000004
# 3 0.011675 0.004258 0.018995 0.000000 -0.018511 -0.000003
# 4 -0.000001 -0.000001 0.000000 0.069647 0.000001 -0.033466
# 5 -0.016074 -0.009470 -0.018511 0.000001 0.059894 0.000001
# 6 -0.000005 -0.000004 -0.000003 -0.033466 0.000001 0.276700
#
#
# Mechanical properties :
#
#
# Convention : Reuss Voigt Hill
#
# Bulk Modulus (GPa) = 8.26256 12.95283 10.60770
# Shear Modulus (GPa) = 10.32288 21.32054 15.82171
#
# Velocity S-wave (km/s) = 2.18569 3.14114 2.70592
# Velocity P-wave (km/s) = 3.19271 4.37607 3.83037
#
# Compressibility (1/GPa) = 0.12102781
#
# Stress axis : x y z
#
# Youngs Moduli (GPa) = 28.32553 39.83466 52.64513
#
# Poissons Ratio (x) = -0.19436 -0.61464
# Poissons Ratio (y) = -0.13820 -0.22418
# Poissons Ratio (z) = -0.33070 -0.16963
#
# Static dielectric constant tensor:
#      x y z
#    x 1.781710 0.000000 0.053610 
#    y 0.000000 1.803310 0.000000 
#    z 0.053610 0.000000 1.817900 
# 
# From -- ./inp_files/280442.got.cif
#   From: 2010.05.17/outbox.cif.g08.bks.cpg/sg12_141_cif.got.tgz:280442.got - 2010.06.03 13:09:07.
