data_PCOD9169012
_publ_section_title
;
Structure prediction by ZEFSAII (Michael W. Deem and Ramdas Pophale) SiO2 
 PCOD9169012
Probable space group: C 2/M
;
_chemical_formula_sum "Si O2"
_cell_formula_units_Z 56
_cell_length_a 14.606556
_cell_length_b 25.454729
_cell_length_c 22.492289
_cell_angle_alpha 90.000000
_cell_angle_beta 158.119525
_cell_angle_gamma 90.000000
_cell_volume 3116.565308
_symmetry_space_group_name_H-M "C 2/M"
_symmetry_group_IT_number 12
_symmetry_cell_setting 'monoclinic'
loop_
_space_group_symop_operation_xyz
x,y,z
-x,y,-z
-x,-y,-z
x,-y,z
1/2+x,1/2+y,z
1/2-x,1/2+y,-z
1/2-x,1/2-y,-z
1/2+x,1/2-y,z
loop_
_atom_site_type_symbol
_atom_site_label
_atom_site_fract_x
_atom_site_fract_y
_atom_site_fract_z
Si Si1 0.453774 0.146060 0.106956
Si Si2 0.841905 0.226889 0.119805
Si Si3 0.424274 0.717791 0.386169
Si Si4 0.254590 0.837012 0.118870
Si Si5 0.246002 0.868187 0.517140
Si Si6 0.624827 0.438060 0.639409
Si Si7 0.150510 0.678873 0.537441
O O1 0.659260 0.192025 0.226176
O O2 0.304914 0.145044 0.080078
O O3 0.620543 0.094212 0.201236
O O4 0.273758 0.168268 0.947657
O O5 0.774225 0.273156 0.124923
O O6 0.128054 0.214112 0.302646
O O7 0.750000 0.250000 0.000000
O O8 0.500000 0.710105 0.500000
O O9 0.599981 0.683422 0.451180
O O10 0.465810 0.778534 0.395795
O O11 0.484500 0.862851 0.291838
O O12 0.000000 0.849319 0.000000
O O13 0.263878 0.862994 0.457852
O O14 0.079512 0.916117 0.438519
O O15 0.500000 0.426495 0.500000
O O16 0.663807 0.500000 0.668155
O O17 0.000000 0.654152 0.500000
#
# Coordination Sequence:
#
# PCOD9169012 Si02
#       7
#     8   8   8   8   8   8   8
#     4  10  19  35  53  80 116 147 183 234 285 329
#     4  10  21  34  46  74 118 160 192 217 261 341
#     4  10  16  32  52  72 108 147 187 228 270 320
#     4  11  21  29  49  82 119 155 179 217 280 348
#     4  11  20  34  54  83 113 141 192 242 278 336
#     4  10  20  39  68  88 103 136 191 257 303 330
#     4  11  22  32  51  77 114 162 194 222 270 336
#
# _framework density 17.968498
#
# number of rings (size 3 to 8) (size 9 to 14) (size 15 to 20)
#    0.000    1.571    4.286    3.857    6.000    1.143 
#    0.000    0.000    0.000    3.857    0.000    0.000 
#    0.000    0.000    0.000    0.000    0.000    0.000 
#
# Total GULP energy -155879.271891 kJ/mol
# GULP energy per Si atom -5567.116853 kJ/mol
# Density = 1.792760 g / cm^3
# Si number density = 17.968498 Si / 1000 Ang^3
#
#
#
# Elastic Constant Matrix: (Units=GPa)
#
#
# Indices 1 2 3 4 5 6 
#
# 1 79.1447 24.0652 33.6073 0.0123 28.4043 -0.0052
# 2 24.0652 84.1142 27.2925 -0.0080 9.5399 0.0117
# 3 33.6073 27.2925 63.4164 -0.0528 25.2347 0.0385
# 4 0.0123 -0.0080 -0.0528 25.7523 0.0298 -0.4024
# 5 28.4043 9.5399 25.2347 0.0298 30.7227 -0.0045
# 6 -0.0052 0.0117 0.0385 -0.4024 -0.0045 15.1688
#
#
#
# Elastic Compliance Matrix: (Units=1/GPa)
#
#
# Indices 1 2 3 4 5 6 
#
# 1 0.020464 -0.002990 -0.003564 0.000000 -0.015064 0.000014
# 2 -0.002990 0.014271 -0.005785 -0.000009 0.003084 0.000003
# 3 -0.003564 -0.005785 0.026920 0.000074 -0.017020 -0.000068
# 4 0.000000 -0.000009 0.000074 0.038848 -0.000095 0.001030
# 5 -0.015064 0.003084 -0.017020 -0.000095 0.059499 0.000051
# 6 0.000014 0.000003 -0.000068 0.001030 0.000051 0.065952
#
#
# Mechanical properties :
#
#
# Convention : Reuss Voigt Hill
#
# Bulk Modulus (GPa) = 27.04306 44.06727 35.55516
# Shear Modulus (GPa) = 19.01460 23.77613 21.39536
#
# Velocity S-wave (km/s) = 3.25656 3.64154 3.45442
# Velocity P-wave (km/s) = 5.40584 6.50070 5.97839
#
# Compressibility (1/GPa) = 0.03697807
#
# Stress axis : x y z
#
# Youngs Moduli (GPa) = 48.86664 70.07136 37.14769
#
# Poissons Ratio (x) = 0.20951 0.13238
# Poissons Ratio (y) = 0.14611 0.21489
# Poissons Ratio (z) = 0.17414 0.40534
#
# Static dielectric constant tensor:
#      x y z
#    x 1.649440 0.000030 -0.100610 
#    y 0.000030 1.618840 0.000080 
#    z -0.100610 0.000080 1.227580 
# 
# From -- ./inp_files/341631.got.cif
#   From: 2010.05.17/outbox.cif.g08.bks.cpg/sg12_171_cif.got.tgz:341631.got - 2010.06.03 13:09:07.
