data_PCOD9169610
_publ_section_title
;
Structure prediction by ZEFSAII (Michael W. Deem and Ramdas Pophale) SiO2 
 PCOD9169610
Probable space group: C 2/M
;
_chemical_formula_sum "Si O2"
_cell_formula_units_Z 64
_cell_length_a 27.447552
_cell_length_b 10.357936
_cell_length_c 24.573055
_cell_angle_alpha 90.000000
_cell_angle_beta 26.898378
_cell_angle_gamma 90.000000
_cell_volume 3160.586443
_symmetry_space_group_name_H-M "C 2/M"
_symmetry_group_IT_number 12
_symmetry_cell_setting 'monoclinic'
loop_
_space_group_symop_operation_xyz
x,y,z
-x,y,-z
-x,-y,-z
x,-y,z
1/2+x,1/2+y,z
1/2-x,1/2+y,-z
1/2-x,1/2-y,-z
1/2+x,1/2-y,z
loop_
_atom_site_type_symbol
_atom_site_label
_atom_site_fract_x
_atom_site_fract_y
_atom_site_fract_z
Si Si1 0.359433 0.355077 0.521964
Si Si2 0.700275 0.847716 0.966701
Si Si3 0.446356 0.223906 0.607318
Si Si4 0.125083 0.637383 0.205911
Si Si5 0.217757 0.347022 0.821754
Si Si6 0.961065 0.657499 0.217853
Si Si7 0.381509 0.148386 0.407969
Si Si8 0.374076 0.852806 0.191791
O O1 0.376976 0.500000 0.482518
O O2 0.462380 0.314507 0.455823
O O3 0.342633 0.249742 0.491401
O O4 0.251060 0.358474 0.665175
O O5 0.798639 0.756291 0.884607
O O6 0.686271 0.827609 0.915582
O O7 0.721998 0.000000 0.953995
O O8 0.585326 0.812018 0.106228
O O9 0.500000 0.162802 0.500000
O O10 0.403896 0.142071 0.700785
O O11 0.339284 0.297152 0.694612
O O12 0.178146 0.500000 0.139965
O O13 0.009641 0.641394 0.292620
O O14 0.219523 0.500000 0.810881
O O15 0.135005 0.292766 0.859209
O O16 0.953705 0.500000 0.223460
O O17 0.931664 0.706839 0.186964
O O18 0.880148 0.695503 0.346815
O O19 0.340070 0.000000 0.454330
O O20 0.417857 0.000000 0.143311
#
# Coordination Sequence:
#
# PCOD9169610 Si02
#       8
#     8   8   8   8   8   8   8   8
#     4  10  19  30  49  77 104 129 160 199 242 288
#     4   9  18  32  52  75  98 125 161 203 246 291
#     4  10  17  27  47  73 104 131 156 189 242 293
#     4   9  19  33  48  71 100 128 159 197 244 294
#     4   9  16  26  43  72 105 128 151 193 249 292
#     4   9  18  33  50  69  94 130 170 207 243 282
#     4   9  19  35  51  68  98 134 163 198 246 291
#     4   9  17  28  46  73 102 128 161 201 243 286
#
# _framework density 20.249407000000001
#
# number of rings (size 3 to 8) (size 9 to 14) (size 15 to 20)
#    0.000    2.750    1.250    0.375    0.000    5.250 
#    0.000    3.125    0.000    0.750    0.000    3.500 
#    0.000    0.000    0.000    0.000    0.000    0.000 
#
# Total GULP energy -178258.899700 kJ/mol
# GULP energy per Si atom -5570.590616 kJ/mol
# Density = 2.020332 g / cm^3
# Si number density = 20.249407 Si / 1000 Ang^3
#
#
#
# Elastic Constant Matrix: (Units=GPa)
#
#
# Indices 1 2 3 4 5 6 
#
# 1 71.5735 10.8408 2.8655 0.0001 2.0130 0.0002
# 2 10.8408 57.8663 10.7383 0.0014 -0.1968 0.0007
# 3 2.8655 10.7383 48.1760 0.0004 4.4461 0.0005
# 4 0.0001 0.0014 0.0004 -15.8747 -0.0008 -7.8919
# 5 2.0130 -0.1968 4.4461 -0.0008 29.3117 -0.0002
# 6 0.0002 0.0007 0.0005 -7.8919 -0.0002 6.5005
#
#
#
# Elastic Compliance Matrix: (Units=1/GPa)
#
#
# Indices 1 2 3 4 5 6 
#
# 1 0.014411 -0.002671 -0.000171 0.000000 -0.000982 0.000000
# 2 -0.002671 0.018538 -0.004058 0.000001 0.000923 0.000000
# 3 -0.000171 -0.004058 0.021981 0.000001 -0.003350 -0.000001
# 4 0.000000 0.000001 0.000001 -0.039284 -0.000001 -0.047692
# 5 -0.000982 0.000923 -0.003350 -0.000001 0.034698 -0.000001
# 6 0.000000 0.000000 -0.000001 -0.047692 -0.000001 0.095934
#
#
# Mechanical properties :
#
#
# Convention : Reuss Voigt Hill
#
# Bulk Modulus (GPa) = 24.31426 25.16722 24.74074
# Shear Modulus (GPa) = 28.77060 14.19891 21.48475
#
# Velocity S-wave (km/s) = 3.77345 2.65089 3.26084
# Velocity P-wave (km/s) = 5.56945 4.67175 5.14023
#
# Compressibility (1/GPa) = 0.04112813
#
# Stress axis : x y z
#
# Youngs Moduli (GPa) = 69.39277 53.94343 45.49350
#
# Poissons Ratio (x) = 0.14410 0.00778
# Poissons Ratio (y) = 0.18537 0.18463
# Poissons Ratio (z) = 0.01187 0.21892
#
# Static dielectric constant tensor:
#      x y z
#    x 1.811730 0.000000 0.033720 
#    y 0.000000 1.687460 0.000000 
#    z 0.033720 0.000000 1.730040 
# 
# From -- ./inp_files/351733.got.cif
#   From: 2010.05.17/outbox.cif.g08.bks.cpg/sg12_176_cif.got.tgz:351733.got - 2010.06.03 13:09:07.
