data_PCOD9169244
_publ_section_title
;
Structure prediction by ZEFSAII (Michael W. Deem and Ramdas Pophale) SiO2 
 PCOD9169244
Probable space group: C 2/M
;
_chemical_formula_sum "Si O2"
_cell_formula_units_Z 56
_cell_length_a 29.183606
_cell_length_b 9.150365
_cell_length_c 18.174436
_cell_angle_alpha 90.000000
_cell_angle_beta 129.953038
_cell_angle_gamma 90.000000
_cell_volume 3720.409312
_symmetry_space_group_name_H-M "C 2/M"
_symmetry_group_IT_number 12
_symmetry_cell_setting 'monoclinic'
loop_
_space_group_symop_operation_xyz
x,y,z
-x,y,-z
-x,-y,-z
x,-y,z
1/2+x,1/2+y,z
1/2-x,1/2+y,-z
1/2-x,1/2-y,-z
1/2+x,1/2-y,z
loop_
_atom_site_type_symbol
_atom_site_label
_atom_site_fract_x
_atom_site_fract_y
_atom_site_fract_z
Si Si1 0.029403 0.325227 0.199156
Si Si2 0.538325 0.827222 0.374295
Si Si3 0.068749 0.168567 0.100252
Si Si4 0.185779 0.174802 0.932913
Si Si5 0.101088 0.327050 0.727264
Si Si6 0.570463 0.332068 0.550697
Si Si7 0.404426 0.675307 0.029845
O O1 0.024621 0.500000 0.190254
O O2 0.051444 0.285858 0.303644
O O3 0.069722 0.264877 0.174240
O O4 0.963635 0.256111 0.119788
O O5 0.466994 0.806126 0.313759
O O6 0.572568 0.737079 0.471896
O O7 0.549813 0.000000 0.396292
O O8 0.082466 0.000000 0.132224
O O9 0.105492 0.216009 0.065955
O O10 0.000000 0.173140 0.000000
O O11 0.145745 0.241530 0.826393
O O12 0.150090 0.204877 0.972002
O O13 0.190877 0.000000 0.930071
O O14 0.250000 0.250000 0.000000
O O15 0.113468 0.500000 0.740759
O O16 0.102464 0.263017 0.646277
O O17 0.500000 0.330096 0.500000
O O18 0.590410 0.500000 0.572540
O O19 0.416220 0.500000 0.042696
#
# Coordination Sequence:
#
# PCOD9169244 Si02
#       7
#     8   8   8   8   8   8   8
#     4  10  17  25  40  64  89 114 145 178 213 255
#     4   9  17  27  40  61  89 118 145 175 214 259
#     4   8  15  27  40  57  81 112 145 174 211 259
#     4  11  22  34  48  65  85 113 152 192 226 261
#     4  10  18  31  46  60  84 116 146 181 223 261
#     4   9  17  27  41  62  84 111 147 180 212 257
#     4   9  18  31  44  57  81 115 147 180 219 261
#
# _framework density 15.052108
#
# number of rings (size 3 to 8) (size 9 to 14) (size 15 to 20)
#    0.000    2.571    1.429    2.571    0.000    6.571 
#    0.000    0.000    0.000    0.000    0.000    0.000 
#    0.000    1.143    0.000    3.429    0.000    5.286 
#
# Total GULP energy -155994.123037 kJ/mol
# GULP energy per Si atom -5571.218680 kJ/mol
# Density = 1.501785 g / cm^3
# Si number density = 15.052108 Si / 1000 Ang^3
#
#
#
# Elastic Constant Matrix: (Units=GPa)
#
#
# Indices 1 2 3 4 5 6 
#
# 1 88.8701 51.7362 60.7291 0.0000 -31.4534 0.0000
# 2 51.7362 69.3191 48.2750 0.0000 -19.1949 0.0000
# 3 60.7291 48.2750 69.2814 0.0000 -29.7352 0.0000
# 4 0.0000 0.0000 0.0000 25.3726 0.0000 -7.5096
# 5 -31.4534 -19.1949 -29.7352 0.0000 31.3126 0.0000
# 6 0.0000 0.0000 0.0000 -7.5096 0.0000 20.2492
#
#
#
# Elastic Compliance Matrix: (Units=1/GPa)
#
#
# Indices 1 2 3 4 5 6 
#
# 1 0.031912 -0.008852 -0.017514 0.000000 0.009998 0.000000
# 2 -0.008852 0.030580 -0.015731 0.000000 -0.005085 0.000000
# 3 -0.017514 -0.015731 0.049048 0.000000 0.019342 0.000000
# 4 0.000000 0.000000 0.000000 0.044272 0.000000 0.016419
# 5 0.009998 -0.005085 0.019342 0.000000 0.057229 0.000000
# 6 0.000000 0.000000 0.000000 0.016419 0.000000 0.055474
#
#
# Mechanical properties :
#
#
# Convention : Reuss Voigt Hill
#
# Bulk Modulus (GPa) = 36.56714 60.99457 48.78086
# Shear Modulus (GPa) = 13.81885 19.83558 16.82721
#
# Velocity S-wave (km/s) = 3.03325 3.63408 3.34717
# Velocity P-wave (km/s) = 6.05094 7.63014 6.88596
#
# Compressibility (1/GPa) = 0.02734696
#
# Stress axis : x y z
#
# Youngs Moduli (GPa) = 31.33614 32.70080 20.38812
#
# Poissons Ratio (x) = 0.28948 0.35707
# Poissons Ratio (y) = 0.27740 0.32072
# Poissons Ratio (z) = 0.54881 0.51441
#
# Static dielectric constant tensor:
#      x y z
#    x 1.510880 0.000000 -0.031630 
#    y 0.000000 1.500930 0.000000 
#    z -0.031630 0.000000 1.476660 
# 
# From -- ./inp_files/291487.got.cif
#   From: 2010.05.17/outbox.cif.g08.bks.cpg/sg12_146_cif.got.tgz:291487.got - 2010.06.03 13:09:07.
