data_PCOD9169414
_publ_section_title
;
Structure prediction by ZEFSAII (Michael W. Deem and Ramdas Pophale) SiO2 
 PCOD9169414
Probable space group: C 2/M
;
_chemical_formula_sum "Si O2"
_cell_formula_units_Z 40
_cell_length_a 10.135441
_cell_length_b 25.531880
_cell_length_c 8.132677
_cell_angle_alpha 90.000000
_cell_angle_beta 49.879106
_cell_angle_gamma 90.000000
_cell_volume 1609.319849
_symmetry_space_group_name_H-M "C 2/M"
_symmetry_group_IT_number 12
_symmetry_cell_setting 'monoclinic'
loop_
_space_group_symop_operation_xyz
x,y,z
-x,y,-z
-x,-y,-z
x,-y,z
1/2+x,1/2+y,z
1/2-x,1/2+y,-z
1/2-x,1/2-y,-z
1/2+x,1/2-y,z
loop_
_atom_site_type_symbol
_atom_site_label
_atom_site_fract_x
_atom_site_fract_y
_atom_site_fract_z
Si Si1 0.115670 0.500000 0.152903
Si Si2 0.061197 0.222814 0.639307
Si Si3 0.671769 0.612352 0.531569
Si Si4 0.184308 0.392085 0.927361
Si Si5 0.270799 0.500000 0.390078
Si Si6 0.531277 0.171005 0.285471
O O1 0.224580 0.500000 0.234253
O O2 0.914101 0.500000 0.366182
O O3 0.158157 0.450405 0.008455
O O4 0.250000 0.250000 0.500000
O O5 0.077422 0.162965 0.684493
O O6 0.958603 0.270830 0.803477
O O7 0.000000 0.215579 0.500000
O O8 0.676260 0.610440 0.327804
O O9 0.639114 0.554804 0.631260
O O10 0.873178 0.629176 0.397530
O O11 0.000000 0.372030 0.000000
O O12 0.197738 0.358203 0.081896
O O13 0.500000 0.183421 0.500000
#
# Coordination Sequence:
#
# PCOD9169414 Si02
#       6
#     4   8   8   8   4   8
#     4  11  18  27  46  78 108 139 174 221 270 320
#     4   9  19  36  56  77 106 144 184 223 267 320
#     4  10  19  30  48  76 107 136 176 221 268 314
#     4  10  17  26  45  75 110 135 169 222 273 309
#     4  11  19  28  48  75 103 143 179 214 268 322
#     4   9  16  29  48  71 101 139 173 214 263 318
#
# _framework density 24.855221
#
# number of rings (size 3 to 8) (size 9 to 14) (size 15 to 20)
#    0.000    2.200    4.000    2.100    0.000    0.000 
#    0.000    4.500    0.000   14.400    0.000    1.400 
#    0.000    0.000    0.000    0.000    0.000    0.000 
#
# Total GULP energy -111356.951267 kJ/mol
# GULP energy per Si atom -5567.847563 kJ/mol
# Density = 2.479865 g / cm^3
# Si number density = 24.855221 Si / 1000 Ang^3
#
#
#
# Elastic Constant Matrix: (Units=GPa)
#
#
# Indices 1 2 3 4 5 6 
#
# 1 48.8713 11.6132 12.8583 0.0000 -3.1181 0.0000
# 2 11.6132 250.7786 23.5080 0.0000 0.5996 0.0000
# 3 12.8583 23.5080 69.2173 0.0000 -5.9931 0.0000
# 4 0.0000 0.0000 0.0000 -28.5134 0.0000 25.6276
# 5 -3.1181 0.5996 -5.9931 0.0000 24.8579 0.0000
# 6 0.0000 0.0000 0.0000 25.6276 0.0000 22.6128
#
#
#
# Elastic Compliance Matrix: (Units=1/GPa)
#
#
# Indices 1 2 3 4 5 6 
#
# 1 0.021698 -0.000668 -0.003643 0.000000 0.001859 0.000000
# 2 -0.000668 0.004144 -0.001327 0.000000 -0.000504 0.000000
# 3 -0.003643 -0.001327 0.015869 0.000000 0.003401 0.000000
# 4 0.000000 0.000000 0.000000 -0.017374 0.000000 0.019690
# 5 0.001859 -0.000504 0.003401 0.000000 0.041294 0.000000
# 6 0.000000 0.000000 0.000000 0.019690 0.000000 0.021907
#
#
# Mechanical properties :
#
#
# Convention : Reuss Voigt Hill
#
# Bulk Modulus (GPa) = 32.85630 51.64736 42.25183
# Shear Modulus (GPa) = 45.88883 25.18400 35.53642
#
# Velocity S-wave (km/s) = 4.30146 3.18658 3.78529
# Velocity P-wave (km/s) = 6.15774 5.86203 6.01171
#
# Compressibility (1/GPa) = 0.03043556
#
# Stress axis : x y z
#
# Youngs Moduli (GPa) = 46.08781 241.30688 63.01539
#
# Poissons Ratio (x) = 0.16113 0.22956
# Poissons Ratio (y) = 0.03077 0.08362
# Poissons Ratio (z) = 0.16790 0.32022
#
# Static dielectric constant tensor:
#      x y z
#    x 2.216470 0.000000 0.043710 
#    y 0.000000 1.997630 0.000000 
#    z 0.043710 0.000000 2.075900 
# 
# From -- ./inp_files/50463.got.cif
#   From: 2010.05.17/outbox.cif.g08.bks.cpg/sg12_26_cif.got.tgz:50463.got - 2010.06.03 13:09:07.
