data_PCOD9169532
_publ_section_title
;
Structure prediction by ZEFSAII (Michael W. Deem and Ramdas Pophale) SiO2 
 PCOD9169532
Probable space group: C 2/M
;
_chemical_formula_sum "Si O2"
_cell_formula_units_Z 48
_cell_length_a 29.250721
_cell_length_b 8.859383
_cell_length_c 12.472744
_cell_angle_alpha 90.000000
_cell_angle_beta 70.248319
_cell_angle_gamma 90.000000
_cell_volume 3042.063935
_symmetry_space_group_name_H-M "C 2/M"
_symmetry_group_IT_number 12
_symmetry_cell_setting 'monoclinic'
loop_
_space_group_symop_operation_xyz
x,y,z
-x,y,-z
-x,-y,-z
x,-y,z
1/2+x,1/2+y,z
1/2-x,1/2+y,-z
1/2-x,1/2-y,-z
1/2+x,1/2-y,z
loop_
_atom_site_type_symbol
_atom_site_label
_atom_site_fract_x
_atom_site_fract_y
_atom_site_fract_z
Si Si1 0.884184 0.817841 0.534896
Si Si2 0.084590 0.680239 0.261731
Si Si3 0.279887 0.817996 0.574430
Si Si4 0.012893 0.825548 0.616966
Si Si5 0.743553 0.681074 0.837733
Si Si6 0.325893 0.181146 0.945054
O O1 0.895138 0.757129 0.645894
O O2 0.834347 0.746975 0.533949
O O3 0.931075 0.775777 0.425088
O O4 0.881763 0.000000 0.539784
O O5 0.087618 0.500000 0.273401
O O6 0.120366 0.723909 0.136398
O O7 0.028835 0.729956 0.293128
O O8 0.250000 0.750000 0.500000
O O9 0.254868 0.773742 0.707419
O O10 0.281229 0.000000 0.568027
O O11 0.000000 0.821145 0.500000
O O12 0.009321 0.000000 0.653755
O O13 0.740762 0.500000 0.843064
O O14 0.788780 0.726282 0.878499
O O15 0.695578 0.748051 0.930290
O O16 0.323891 0.000000 0.955777
#
# Coordination Sequence:
#
# PCOD9169532 Si02
#       6
#     8   8   8   8   8   8
#     4  10  19  31  46  65  93 127 160 196 235 276
#     4  10  17  27  44  69  98 126 155 191 235 283
#     4  11  22  36  51  70  95 124 163 200 235 279
#     4   8  16  28  41  63  93 123 157 191 228 282
#     4   9  18  32  46  65  93 123 157 195 231 276
#     4   9  17  29  45  68  96 124 155 191 232 280
#
# _framework density 15.778760999999999
#
# number of rings (size 3 to 8) (size 9 to 14) (size 15 to 20)
#    0.000    2.500    1.667    2.500    0.000    6.333 
#    0.000    0.000    0.000    0.000    0.000    1.167 
#    0.000    9.333    0.000    0.000    0.000    0.000 
#
# Total GULP energy -133722.428623 kJ/mol
# GULP energy per Si atom -5571.767859 kJ/mol
# Density = 1.574285 g / cm^3
# Si number density = 15.778761 Si / 1000 Ang^3
#
#
#
# Elastic Constant Matrix: (Units=GPa)
#
#
# Indices 1 2 3 4 5 6 
#
# 1 109.2724 41.3241 74.1276 0.0000 -28.6568 0.0000
# 2 41.3241 43.3014 39.0259 0.0000 -14.1566 0.0000
# 3 74.1276 39.0259 100.8189 0.0000 -27.5479 0.0000
# 4 0.0000 0.0000 0.0000 24.5553 0.0000 -6.1789
# 5 -28.6568 -14.1566 -27.5479 0.0000 32.2208 0.0000
# 6 0.0000 0.0000 0.0000 -6.1789 0.0000 25.9280
#
#
#
# Elastic Compliance Matrix: (Units=1/GPa)
#
#
# Indices 1 2 3 4 5 6 
#
# 1 0.021193 -0.008754 -0.010562 0.000000 0.005973 0.000000
# 2 -0.008754 0.039716 -0.008216 0.000000 0.002640 0.000000
# 3 -0.010562 -0.008216 0.022589 0.000000 0.006309 0.000000
# 4 0.000000 0.000000 0.000000 0.043322 0.000000 0.010324
# 5 0.005973 0.002640 0.006309 0.000000 0.042902 0.000000
# 6 0.000000 0.000000 0.000000 0.010324 0.000000 0.041029
#
#
# Mechanical properties :
#
#
# Convention : Reuss Voigt Hill
#
# Bulk Modulus (GPa) = 35.16872 62.48310 48.82591
# Shear Modulus (GPa) = 18.16252 23.13514 20.64883
#
# Velocity S-wave (km/s) = 3.39643 3.83328 3.62145
# Velocity P-wave (km/s) = 6.14150 7.69919 6.96403
#
# Compressibility (1/GPa) = 0.02843436
#
# Stress axis : x y z
#
# Youngs Moduli (GPa) = 47.18502 25.17899 44.26971
#
# Poissons Ratio (x) = 0.22041 0.46757
# Poissons Ratio (y) = 0.41304 0.36372
# Poissons Ratio (z) = 0.49837 0.20687
#
# Static dielectric constant tensor:
#      x y z
#    x 1.532630 0.000000 -0.034690 
#    y 0.000000 1.530240 0.000000 
#    z -0.034690 0.000000 1.518480 
# 
# From -- ./inp_files/185727.got.cif
#   From: 2010.05.17/outbox.cif.g08.bks.cpg/sg12_93_cif.got.tgz:185727.got - 2010.06.03 13:09:07.
