data_PCOD9169635
_publ_section_title
;
Structure prediction by ZEFSAII (Michael W. Deem and Ramdas Pophale) SiO2 
 PCOD9169635
Probable space group: C 2/M
;
_chemical_formula_sum "Si O2"
_cell_formula_units_Z 52
_cell_length_a 17.557279
_cell_length_b 26.638479
_cell_length_c 11.574283
_cell_angle_alpha 90.000000
_cell_angle_beta 148.502007
_cell_angle_gamma 90.000000
_cell_volume 2828.270914
_symmetry_space_group_name_H-M "C 2/M"
_symmetry_group_IT_number 12
_symmetry_cell_setting 'monoclinic'
loop_
_space_group_symop_operation_xyz
x,y,z
-x,y,-z
-x,-y,-z
x,-y,z
1/2+x,1/2+y,z
1/2-x,1/2+y,-z
1/2-x,1/2-y,-z
1/2+x,1/2-y,z
loop_
_atom_site_type_symbol
_atom_site_label
_atom_site_fract_x
_atom_site_fract_y
_atom_site_fract_z
Si Si1 0.500000 0.274812 0.000000
Si Si2 0.045120 0.057457 0.192154
Si Si3 0.676925 0.054832 0.085897
Si Si4 0.649681 0.917952 0.316615
Si Si5 0.040314 0.835292 0.831790
Si Si6 0.779835 0.310097 0.674720
Si Si7 0.165228 0.845627 0.761908
O O1 0.570493 0.309575 0.992869
O O2 0.376784 0.238928 0.785471
O O3 0.217904 0.067444 0.429895
O O4 0.975168 0.104389 0.170966
O O5 0.012993 0.000000 0.189327
O O6 0.000000 0.061382 0.000000
O O7 0.686998 0.059504 0.238497
O O8 0.770609 0.098637 0.152438
O O9 0.724452 0.000000 0.110348
O O10 0.505392 0.062844 0.841373
O O11 0.641782 0.858424 0.280561
O O12 0.153190 0.824327 0.875113
O O13 0.882751 0.813935 0.587023
O O14 0.759894 0.317594 0.787220
O O15 0.000000 0.847693 0.500000
#
# Coordination Sequence:
#
# PCOD9169635 Si02
#       7
#     4   8   8   8   8   8   8
#     4  12  20  34  57  78 101 136 176 218 264 310
#     4  10  19  33  53  77 106 144 181 216 254 297
#     4  10  17  27  49  80 107 137 172 217 273 315
#     4   9  17  31  51  79 110 134 174 221 260 316
#     4  10  21  35  52  79 106 133 177 220 254 314
#     4   9  19  34  53  76 103 135 168 214 272 312
#     4   9  19  34  49  72 109 140 169 215 268 319
#
# _framework density 18.385791000000001
#
# number of rings (size 3 to 8) (size 9 to 14) (size 15 to 20)
#    0.000    2.308    0.769    5.077    0.000    1.538 
#    0.000    0.000    0.000    0.923    0.000    3.231 
#    0.000    0.000    0.000    0.000    0.000    0.000 
#
# Total GULP energy -144954.805215 kJ/mol
# GULP energy per Si atom -5575.184816 kJ/mol
# Density = 1.834394 g / cm^3
# Si number density = 18.385791 Si / 1000 Ang^3
#
#
#
# Elastic Constant Matrix: (Units=GPa)
#
#
# Indices 1 2 3 4 5 6 
#
# 1 59.4392 30.6525 5.0494 0.0000 -9.3277 0.0000
# 2 30.6525 94.5666 4.9462 0.0000 -5.4238 0.0000
# 3 5.0494 4.9462 60.0087 0.0000 -12.8601 0.0000
# 4 0.0000 0.0000 0.0000 -0.5950 0.0000 -2.5694
# 5 -9.3277 -5.4238 -12.8601 0.0000 17.7172 0.0000
# 6 0.0000 0.0000 0.0000 -2.5694 0.0000 -1.0843
#
#
#
# Elastic Compliance Matrix: (Units=1/GPa)
#
#
# Indices 1 2 3 4 5 6 
#
# 1 0.021677 -0.006495 0.000866 0.000000 0.010053 0.000000
# 2 -0.006495 0.012712 -0.000474 0.000000 0.000128 0.000000
# 3 0.000866 -0.000474 0.019773 0.000000 0.014663 0.000000
# 4 0.000000 0.000000 0.000000 0.182036 0.000000 -0.431354
# 5 0.010053 0.000128 0.014663 0.000000 0.072417 0.000000
# 6 0.000000 0.000000 0.000000 -0.431354 0.000000 0.099892
#
#
# Mechanical properties :
#
#
# Convention : Reuss Voigt Hill
#
# Bulk Modulus (GPa) = 23.83477 32.81230 28.32354
# Shear Modulus (GPa) = 11.50219 14.76533 13.13376
#
# Velocity S-wave (km/s) = 2.50392 2.83695 2.67562
# Velocity P-wave (km/s) = 4.62075 5.34942 4.99838
#
# Compressibility (1/GPa) = 0.04195551
#
# Stress axis : x y z
#
# Youngs Moduli (GPa) = 46.13089 78.66577 50.57467
#
# Poissons Ratio (x) = 0.51095 -0.04378
# Poissons Ratio (y) = 0.29963 0.02396
# Poissons Ratio (z) = -0.03993 0.03727
#
# Static dielectric constant tensor:
#      x y z
#    x 1.624540 0.000000 -0.024200 
#    y 0.000000 1.654440 0.000000 
#    z -0.024200 0.000000 1.645410 
# 
# From -- ./inp_files/160836.got.cif
#   From: 2010.05.17/outbox.cif.g08.bks.cpg/sg12_81_cif.got.tgz:160836.got - 2010.06.03 13:09:07.
