data_PCOD9169556
_publ_section_title
;
Structure prediction by ZEFSAII (Michael W. Deem and Ramdas Pophale) SiO2 
 PCOD9169556
Probable space group: C 2/M
;
_chemical_formula_sum "Si O2"
_cell_formula_units_Z 64
_cell_length_a 22.963116
_cell_length_b 14.464307
_cell_length_c 12.591082
_cell_angle_alpha 90.000000
_cell_angle_beta 69.447349
_cell_angle_gamma 90.000000
_cell_volume 3915.882996
_symmetry_space_group_name_H-M "C 2/M"
_symmetry_group_IT_number 12
_symmetry_cell_setting 'monoclinic'
loop_
_space_group_symop_operation_xyz
x,y,z
-x,y,-z
-x,-y,-z
x,-y,z
1/2+x,1/2+y,z
1/2-x,1/2+y,-z
1/2-x,1/2-y,-z
1/2+x,1/2-y,z
loop_
_atom_site_type_symbol
_atom_site_label
_atom_site_fract_x
_atom_site_fract_y
_atom_site_fract_z
Si Si1 0.036183 0.274037 0.871526
Si Si2 0.433643 0.105882 0.825451
Si Si3 0.143767 0.607142 0.913301
Si Si4 0.755158 0.262631 0.245769
Si Si5 0.298965 0.604985 0.549970
Si Si6 0.664202 0.106782 0.283806
Si Si7 0.134193 0.789325 0.669222
Si Si8 0.339846 0.102887 0.459497
O O1 0.087738 0.347852 0.880521
O O2 0.074507 0.198031 0.781530
O O3 0.987231 0.325398 0.827501
O O4 0.000000 0.241071 0.000000
O O5 0.399950 0.125860 0.736236
O O6 0.457052 0.000000 0.810162
O O7 0.380406 0.110379 0.950639
O O8 0.154030 0.500000 0.876407
O O9 0.204350 0.668988 0.853123
O O10 0.709521 0.325109 0.347111
O O11 0.715888 0.181294 0.217800
O O12 0.805410 0.216857 0.293566
O O13 0.309690 0.500000 0.577139
O O14 0.350168 0.639863 0.433984
O O15 0.232103 0.607881 0.532285
O O16 0.657439 0.113175 0.415474
O O17 0.681416 0.000000 0.248067
O O18 0.127612 0.687967 0.619385
O O19 0.363100 0.000000 0.415933
#
# Coordination Sequence:
#
# PCOD9169556 Si02
#       8
#     8   8   8   8   8   8   8   8
#     4   9  18  31  48  66  89 119 153 193 227 260
#     4   9  18  31  45  65  92 126 160 183 219 272
#     4   9  17  29  47  70  95 121 151 191 227 259
#     4  10  17  28  45  70  96 119 150 184 228 274
#     4  10  17  27  45  70  93 116 147 186 231 273
#     4  10  18  29  45  64  97 131 150 178 222 274
#     4  10  17  28  46  69  91 117 152 187 226 272
#     4   9  16  27  43  66  98 123 142 179 228 272
#
# _framework density 16.343696000000001
#
# number of rings (size 3 to 8) (size 9 to 14) (size 15 to 20)
#    0.000    2.500    2.500    1.500    0.000    5.500 
#    0.000    0.625    0.000    2.625    0.000    5.250 
#    0.000    0.000    0.000    0.000    0.000    0.000 
#
# Total GULP energy -178293.235465 kJ/mol
# GULP energy per Si atom -5571.663608 kJ/mol
# Density = 1.630650 g / cm^3
# Si number density = 16.343696 Si / 1000 Ang^3
#
#
#
# Elastic Constant Matrix: (Units=GPa)
#
#
# Indices 1 2 3 4 5 6 
#
# 1 40.4912 25.0497 18.4899 0.0000 -2.6884 0.0000
# 2 25.0497 49.2676 20.6031 0.0000 -8.1538 0.0000
# 3 18.4899 20.6031 35.6338 0.0000 -14.2906 0.0000
# 4 0.0000 0.0000 0.0000 20.2934 0.0000 0.4774
# 5 -2.6884 -8.1538 -14.2906 0.0000 26.5160 0.0000
# 6 0.0000 0.0000 0.0000 0.4774 0.0000 11.9621
#
#
#
# Elastic Compliance Matrix: (Units=1/GPa)
#
#
# Indices 1 2 3 4 5 6 
#
# 1 0.041116 -0.015778 -0.015929 0.000000 -0.009268 0.000000
# 2 -0.015778 0.032825 -0.009422 0.000000 0.003416 0.000000
# 3 -0.015929 -0.009422 0.050987 0.000000 0.022966 0.000000
# 4 0.000000 0.000000 0.000000 0.049323 0.000000 -0.001968
# 5 -0.009268 0.003416 0.022966 0.000000 0.050201 0.000000
# 6 0.000000 0.000000 0.000000 -0.001968 0.000000 0.083676
#
#
# Mechanical properties :
#
#
# Convention : Reuss Voigt Hill
#
# Bulk Modulus (GPa) = 23.43545 28.18645 25.81095
# Shear Modulus (GPa) = 12.35759 15.83761 14.09760
#
# Velocity S-wave (km/s) = 2.75272 3.11631 2.94014
# Velocity P-wave (km/s) = 4.94708 5.49837 5.22999
#
# Compressibility (1/GPa) = 0.04267039
#
# Stress axis : x y z
#
# Youngs Moduli (GPa) = 24.32150 30.46454 19.61291
#
# Poissons Ratio (x) = 0.48066 0.31241
# Poissons Ratio (y) = 0.38374 0.18480
# Poissons Ratio (z) = 0.38741 0.28705
#
# Static dielectric constant tensor:
#      x y z
#    x 1.528900 0.000000 -0.009780 
#    y 0.000000 1.547160 0.000000 
#    z -0.009780 0.000000 1.582710 
# 
# From -- ./inp_files/167217.got.cif
#   From: 2010.05.17/outbox.cif.g08.bks.cpg/sg12_84_cif.got.tgz:167217.got - 2010.06.03 13:09:07.
