data_PCOD9169023
_publ_section_title
;
Structure prediction by ZEFSAII (Michael W. Deem and Ramdas Pophale) SiO2 
 PCOD9169023
Probable space group: C 2/M
;
_chemical_formula_sum "Si O2"
_cell_formula_units_Z 48
_cell_length_a 24.429850
_cell_length_b 15.139791
_cell_length_c 19.516838
_cell_angle_alpha 90.000000
_cell_angle_beta 17.565129
_cell_angle_gamma 90.000000
_cell_volume 2178.484955
_symmetry_space_group_name_H-M "C 2/M"
_symmetry_group_IT_number 12
_symmetry_cell_setting 'monoclinic'
loop_
_space_group_symop_operation_xyz
x,y,z
-x,y,-z
-x,-y,-z
x,-y,z
1/2+x,1/2+y,z
1/2-x,1/2+y,-z
1/2-x,1/2-y,-z
1/2+x,1/2-y,z
loop_
_atom_site_type_symbol
_atom_site_label
_atom_site_fract_x
_atom_site_fract_y
_atom_site_fract_z
Si Si1 0.847172 0.865341 0.478120
Si Si2 0.451254 0.094252 0.274041
Si Si3 0.158535 0.778081 0.038530
Si Si4 0.199603 0.206504 0.843918
Si Si5 0.270875 0.331475 0.341628
Si Si6 0.204269 0.405246 0.787714
O O1 0.687349 0.905260 0.623876
O O2 0.800224 0.763578 0.549202
O O3 0.844085 0.905512 0.557176
O O4 0.025231 0.857658 0.219586
O O5 0.559805 0.185688 0.136338
O O6 0.331871 0.102567 0.485695
O O7 0.550987 0.000000 0.156747
O O8 0.250000 0.750000 0.000000
O O9 0.266744 0.807493 0.841455
O O10 0.270361 0.160271 0.690053
O O11 0.223470 0.311793 0.802080
O O12 0.986950 0.177005 0.096577
O O13 0.221648 0.500000 0.803767
O O14 0.000000 0.401964 0.000000
#
# Coordination Sequence:
#
# PCOD9169023 Si02
#       6
#     8   8   8   8   8   8
#     4  10  17  34  55  82 112 144 185 221 271 333
#     4  11  20  34  57  84 109 139 186 241 279 315
#     4  11  22  37  58  80 112 154 190 220 273 348
#     4  10  16  32  54  77 108 142 182 225 265 333
#     4   9  16  31  54  79 106 136 183 227 265 322
#     4  10  17  27  51  87 114 135 170 232 291 321
#
# _framework density 22.033660999999999
#
# number of rings (size 3 to 8) (size 9 to 14) (size 15 to 20)
#    0.000    1.833    6.667    1.500    0.000    2.000 
#    0.000   10.833    0.000    2.000    0.000    0.000 
#    0.000    0.000    0.000    0.000    0.000    0.000 
#
# Total GULP energy -133711.037025 kJ/mol
# GULP energy per Si atom -5571.293209 kJ/mol
# Density = 2.198351 g / cm^3
# Si number density = 22.033661 Si / 1000 Ang^3
#
#
#
# Elastic Constant Matrix: (Units=GPa)
#
#
# Indices 1 2 3 4 5 6 
#
# 1 130.8010 -4.1185 31.8706 0.0068 41.8632 0.0001
# 2 -4.1185 54.1036 12.4324 -0.0034 7.6008 0.0091
# 3 31.8706 12.4324 31.8721 0.0112 32.2517 -0.0062
# 4 0.0068 -0.0034 0.0112 -5.3111 -0.0115 -1.6300
# 5 41.8632 7.6008 32.2517 -0.0115 45.5878 0.0073
# 6 0.0001 0.0091 -0.0062 -1.6300 0.0073 -3.7326
#
#
#
# Elastic Compliance Matrix: (Units=1/GPa)
#
#
# Indices 1 2 3 4 5 6 
#
# 1 0.011324 0.003075 -0.005215 0.000019 -0.007223 -0.000006
# 2 0.003075 0.021959 -0.017874 -0.000104 0.006160 0.000141
# 3 -0.005215 -0.017874 0.125655 0.000661 -0.081127 -0.000698
# 4 0.000019 -0.000104 0.000661 -0.217421 -0.000537 0.094943
# 5 -0.007223 0.006160 -0.081127 -0.000537 0.084935 0.000549
# 6 -0.000006 0.000141 -0.000698 0.094943 0.000549 -0.309368
#
#
# Mechanical properties :
#
#
# Convention : Reuss Voigt Hill
#
# Bulk Modulus (GPa) = 8.40961 33.01620 20.71291
# Shear Modulus (GPa) = -24.60005 19.08164 -2.75920
#
# Velocity S-wave (km/s) = -3.34500 2.94602 -1.12026
# Velocity P-wave (km/s) = 3.33072 5.15645 2.78346
#
# Compressibility (1/GPa) = 0.11891156
#
# Stress axis : x y z
#
# Youngs Moduli (GPa) = 88.30671 45.53974 7.95830
#
# Poissons Ratio (x) = -0.14003 0.04150
# Poissons Ratio (y) = -0.27154 0.14224
# Poissons Ratio (z) = 0.46048 0.81396
#
# Static dielectric constant tensor:
#      x y z
#    x 1.899150 0.000020 -0.019490 
#    y 0.000020 1.831050 -0.000020 
#    z -0.019490 -0.000020 1.919390 
# 
# From -- ./inp_files/328484.got.cif
#   From: 2010.05.17/outbox.cif.g08.bks.cpg/sg12_165_cif.got.tgz:328484.got - 2010.06.03 13:09:07.
