data_PCOD9169541
_publ_section_title
;
Structure prediction by ZEFSAII (Michael W. Deem and Ramdas Pophale) SiO2 
 PCOD9169541
Probable space group: C 2/M
;
_chemical_formula_sum "Si O2"
_cell_formula_units_Z 56
_cell_length_a 11.944872
_cell_length_b 28.085571
_cell_length_c 13.142606
_cell_angle_alpha 90.000000
_cell_angle_beta 146.345987
_cell_angle_gamma 90.000000
_cell_volume 2443.398785
_symmetry_space_group_name_H-M "C 2/M"
_symmetry_group_IT_number 12
_symmetry_cell_setting 'monoclinic'
loop_
_space_group_symop_operation_xyz
x,y,z
-x,y,-z
-x,-y,-z
x,-y,z
1/2+x,1/2+y,z
1/2-x,1/2+y,-z
1/2-x,1/2-y,-z
1/2+x,1/2-y,z
loop_
_atom_site_type_symbol
_atom_site_label
_atom_site_fract_x
_atom_site_fract_y
_atom_site_fract_z
Si Si1 0.777044 0.446623 0.899443
Si Si2 0.259654 0.691853 0.828873
Si Si3 0.351999 0.605105 0.795284
Si Si4 0.251541 0.393499 0.327202
Si Si5 0.806590 0.200460 0.283377
Si Si6 0.288724 0.552565 0.555629
Si Si7 0.218304 0.850539 0.950432
O O1 0.849393 0.500000 0.978302
O O2 0.813894 0.430732 0.810142
O O3 0.532267 0.449418 0.725013
O O4 0.827315 0.400817 0.008057
O O5 0.195823 0.643730 0.722229
O O6 0.231448 0.744001 0.763190
O O7 0.500000 0.686913 0.000000
O O8 0.194932 0.683872 0.896379
O O9 0.254603 0.566687 0.647073
O O10 0.502430 0.632959 0.832170
O O11 0.500000 0.587097 0.000000
O O12 0.500000 0.392337 0.500000
O O13 0.173536 0.340062 0.240382
O O14 0.215430 0.410703 0.414210
O O15 0.821022 0.177346 0.183051
O O16 0.000000 0.201711 0.500000
O O17 0.206765 0.500000 0.471555
#
# Coordination Sequence:
#
# PCOD9169541 Si02
#       7
#     8   8   8   8   8   8   8
#     4   8  12  19  34  56  79 102 128 160 200 245
#     4   9  18  31  42  56  85 116 137 165 208 243
#     4   8  15  26  36  52  79 107 134 166 201 235
#     4   8  14  22  33  55  82 101 123 164 209 240
#     4  10  17  27  45  64  81 106 141 173 202 239
#     4   9  14  21  34  51  77 110 133 153 197 253
#     4   8  15  27  41  57  82 111 136 166 205 245
#
# _framework density 22.918894999999999
#
# number of rings (size 3 to 8) (size 9 to 14) (size 15 to 20)
#    0.000    3.714    0.000    3.429    0.000    2.000 
#    0.000    8.571    0.000    0.429    0.000    0.000 
#    0.000   21.143    0.000    0.000    0.000    0.000 
#
# Total GULP energy -155901.698095 kJ/mol
# GULP energy per Si atom -5567.917789 kJ/mol
# Density = 2.286673 g / cm^3
# Si number density = 22.918895 Si / 1000 Ang^3
#
#
#
# Elastic Constant Matrix: (Units=GPa)
#
#
# Indices 1 2 3 4 5 6 
#
# 1 64.7189 38.2186 37.2758 0.0000 -29.8465 0.0000
# 2 38.2186 162.3258 57.4423 0.0000 -38.0060 0.0000
# 3 37.2758 57.4423 98.6236 0.0000 -33.2283 0.0000
# 4 0.0000 0.0000 0.0000 68.5416 0.0000 13.6763
# 5 -29.8465 -38.0060 -33.2283 0.0000 38.0969 0.0000
# 6 0.0000 0.0000 0.0000 13.6763 0.0000 21.7646
#
#
#
# Elastic Compliance Matrix: (Units=1/GPa)
#
#
# Indices 1 2 3 4 5 6 
#
# 1 0.025417 -0.000991 -0.003758 0.000000 0.015646 0.000000
# 2 -0.000991 0.008664 -0.002862 0.000000 0.005370 0.000000
# 3 -0.003758 -0.002862 0.015964 0.000000 0.008125 0.000000
# 4 0.000000 0.000000 0.000000 0.016681 0.000000 -0.010482
# 5 0.015646 0.005370 0.008125 0.000000 0.050951 0.000000
# 6 0.000000 0.000000 0.000000 -0.010482 0.000000 0.052533
#
#
# Mechanical properties :
#
#
# Convention : Reuss Voigt Hill
#
# Bulk Modulus (GPa) = 28.71696 65.72686 47.22191
# Shear Modulus (GPa) = 25.37563 38.52938 31.95250
#
# Velocity S-wave (km/s) = 3.33106 4.10459 3.73789
# Velocity P-wave (km/s) = 5.22988 7.15569 6.26720
#
# Compressibility (1/GPa) = 0.03482263
#
# Stress axis : x y z
#
# Youngs Moduli (GPa) = 39.34449 115.41894 62.63962
#
# Poissons Ratio (x) = 0.11440 0.23538
# Poissons Ratio (y) = 0.03900 0.17929
# Poissons Ratio (z) = 0.14784 0.33036
#
# Static dielectric constant tensor:
#      x y z
#    x 1.922240 0.000000 0.073690 
#    y 0.000000 2.002130 0.000000 
#    z 0.073690 0.000000 1.933580 
# 
# From -- ./inp_files/137004.got.cif
#   From: 2010.05.17/outbox.cif.g08.bks.cpg/sg12_69_cif.got.tgz:137004.got - 2010.06.03 13:09:07.
