data_PCOD9169473
_publ_section_title
;
Structure prediction by ZEFSAII (Michael W. Deem and Ramdas Pophale) SiO2 
 PCOD9169473
Probable space group: C 2/M
;
_chemical_formula_sum "Si O2"
_cell_formula_units_Z 48
_cell_length_a 14.909356
_cell_length_b 14.376401
_cell_length_c 9.997949
_cell_angle_alpha 90.000000
_cell_angle_beta 90.304683
_cell_angle_gamma 90.000000
_cell_volume 2142.958888
_symmetry_space_group_name_H-M "C 2/M"
_symmetry_group_IT_number 12
_symmetry_cell_setting 'monoclinic'
loop_
_space_group_symop_operation_xyz
x,y,z
-x,y,-z
-x,-y,-z
x,-y,z
1/2+x,1/2+y,z
1/2-x,1/2+y,-z
1/2-x,1/2-y,-z
1/2+x,1/2-y,z
loop_
_atom_site_type_symbol
_atom_site_label
_atom_site_fract_x
_atom_site_fract_y
_atom_site_fract_z
Si Si1 0.863119 0.350880 0.254123
Si Si2 0.928784 0.689221 0.774527
Si Si3 0.532177 0.601641 0.154750
Si Si4 0.216285 0.356195 0.017027
Si Si5 0.340403 0.372325 0.250725
Si Si6 0.205588 0.650897 0.464551
O O1 0.841764 0.240108 0.252680
O O2 0.831018 0.388537 0.396557
O O3 0.970323 0.349477 0.232846
O O4 0.808575 0.391969 0.129123
O O5 0.873990 0.644565 0.895836
O O6 0.876567 0.667240 0.637731
O O7 0.923318 0.801096 0.801797
O O8 0.578003 0.500000 0.166190
O O9 0.442511 0.598090 0.243906
O O10 0.500000 0.612864 0.000000
O O11 0.291385 0.400093 0.112562
O O12 0.250000 0.250000 0.000000
O O13 0.281660 0.399959 0.377842
O O14 0.250000 0.750000 0.500000
#
# Coordination Sequence:
#
# PCOD9169473 Si02
#       6
#     8   8   8   8   8   8
#     4   9  15  24  40  63  86 113 142 178 233 280
#     4  10  17  27  42  64  94 120 149 189 227 268
#     4  10  19  30  46  67  93 128 162 186 213 262
#     4   9  15  24  41  63  87 115 148 187 230 266
#     4   8  16  28  41  61  87 115 150 185 220 263
#     4   9  17  27  42  61  84 116 150 187 232 272
#
# _framework density 22.398937
#
# number of rings (size 3 to 8) (size 9 to 14) (size 15 to 20)
#    0.000    2.833    0.000    5.000    0.000    0.000 
#    0.000    0.000    0.000   18.000    0.000    3.500 
#    0.000   21.333    0.000  101.333    0.000   67.500 
#
# Total GULP energy -133890.023063 kJ/mol
# GULP energy per Si atom -5578.750961 kJ/mol
# Density = 2.234796 g / cm^3
# Si number density = 22.398937 Si / 1000 Ang^3
#
#
#
# Elastic Constant Matrix: (Units=GPa)
#
#
# Indices 1 2 3 4 5 6 
#
# 1 77.6211 -13.2755 32.3794 0.0000 -11.8592 0.0000
# 2 -13.2755 67.7143 -3.0467 0.0000 0.0466 0.0000
# 3 32.3794 -3.0467 154.1441 0.0000 -2.7784 0.0000
# 4 0.0000 0.0000 0.0000 -38.3919 0.0000 -7.3120
# 5 -11.8592 0.0466 -2.7784 0.0000 22.2916 0.0000
# 6 0.0000 0.0000 0.0000 -7.3120 0.0000 -14.8799
#
#
#
# Elastic Compliance Matrix: (Units=1/GPa)
#
#
# Indices 1 2 3 4 5 6 
#
# 1 0.015938 0.002978 -0.003143 0.000000 0.008081 0.000000
# 2 0.002978 0.015337 -0.000295 0.000000 0.001515 0.000000
# 3 -0.003143 -0.000295 0.007128 0.000000 -0.000783 0.000000
# 4 0.000000 0.000000 0.000000 -0.028737 0.000000 0.014121
# 5 0.008081 0.001515 -0.000783 0.000000 0.049058 0.000000
# 6 0.000000 0.000000 0.000000 0.014121 0.000000 -0.074144
#
#
# Mechanical properties :
#
#
# Convention : Reuss Voigt Hill
#
# Bulk Modulus (GPa) = 26.67947 36.84377 31.76162
# Shear Modulus (GPa) = -2496.34018 12.69878 -1241.82070
#
# Velocity S-wave (km/s) = -33.42020 2.38363 -23.57147
# Velocity P-wave (km/s) = 38.43535 4.90512 26.95567
#
# Compressibility (1/GPa) = 0.03748200
#
# Stress axis : x y z
#
# Youngs Moduli (GPa) = 62.74176 65.20005 140.29574
#
# Poissons Ratio (x) = -0.19415 0.44102
# Poissons Ratio (y) = -0.18683 0.04139
# Poissons Ratio (z) = 0.19723 0.01924
#
# Static dielectric constant tensor:
#      x y z
#    x 1.829570 0.000000 -0.017950 
#    y 0.000000 1.920770 0.000000 
#    z -0.017950 0.000000 1.819040 
# 
# From -- ./inp_files/61684.got.cif
#   From: 2010.05.17/outbox.cif.g08.bks.cpg/sg12_31_cif.got.tgz:61684.got - 2010.06.03 13:09:07.
