data_PCOD9169734
_publ_section_title
;
Structure prediction by ZEFSAII (Michael W. Deem and Ramdas Pophale) SiO2 
 PCOD9169734
Probable space group: C 2/M
;
_chemical_formula_sum "Si O2"
_cell_formula_units_Z 64
_cell_length_a 24.387597
_cell_length_b 12.783966
_cell_length_c 23.986055
_cell_angle_alpha 90.000000
_cell_angle_beta 150.908695
_cell_angle_gamma 90.000000
_cell_volume 3635.891163
_symmetry_space_group_name_H-M "C 2/M"
_symmetry_group_IT_number 12
_symmetry_cell_setting 'monoclinic'
loop_
_space_group_symop_operation_xyz
x,y,z
-x,y,-z
-x,-y,-z
x,-y,z
1/2+x,1/2+y,z
1/2-x,1/2+y,-z
1/2-x,1/2-y,-z
1/2+x,1/2-y,z
loop_
_atom_site_type_symbol
_atom_site_label
_atom_site_fract_x
_atom_site_fract_y
_atom_site_fract_z
Si Si1 0.122026 0.123992 0.273022
Si Si2 0.489918 0.380617 0.424236
Si Si3 0.450970 0.882678 0.291163
Si Si4 0.270617 0.745198 0.187522
Si Si5 0.934506 0.765305 0.179263
Si Si6 0.281096 0.876219 0.964105
Si Si7 0.791509 0.122392 0.766624
Si Si8 0.639739 0.809931 0.535707
O O1 0.115633 0.137523 0.199811
O O2 0.244174 0.174192 0.394701
O O3 0.023641 0.176239 0.220087
O O4 0.127516 0.000000 0.288046
O O5 0.500000 0.381978 0.500000
O O6 0.494041 0.500000 0.407324
O O7 0.373149 0.325386 0.302790
O O8 0.591625 0.307119 0.493938
O O9 0.332564 0.838689 0.208803
O O10 0.488781 0.801189 0.277516
O O11 0.540740 0.877332 0.420777
O O12 0.440040 0.000000 0.260230
O O13 0.205420 0.674868 0.085015
O O14 0.201852 0.799374 0.175985
O O15 0.844772 0.845368 0.126797
O O16 0.864559 0.682529 0.080305
O O17 0.296245 0.000000 0.977060
O O18 0.676412 0.150738 0.629959
O O19 0.789958 0.000000 0.781149
#
# Coordination Sequence:
#
# PCOD9169734 Si02
#       8
#     8   8   8   8   8   8   8   8
#     4   9  18  35  57  78 106 141 170 210 265 318
#     4  10  17  28  46  72 107 143 177 211 247 296
#     4  10  19  31  51  80 110 140 173 216 261 302
#     4  10  19  32  52  79 106 141 177 216 259 315
#     4  10  21  36  57  79 102 134 179 226 262 312
#     4  10  21  38  57  77 102 136 177 224 272 309
#     4   9  17  32  53  78 109 140 169 210 259 313
#     4   9  18  32  50  78 110 141 174 205 257 320
#
# _framework density 17.602287
#
# number of rings (size 3 to 8) (size 9 to 14) (size 15 to 20)
#    0.750    1.625    1.250    2.250    0.000    0.500 
#    0.000    6.250    0.000    2.250    0.000    0.000 
#    0.000    0.000    0.000    0.000    0.000    0.000 
#
# Total GULP energy -178228.798251 kJ/mol
# GULP energy per Si atom -5569.649945 kJ/mol
# Density = 1.756222 g / cm^3
# Si number density = 17.602287 Si / 1000 Ang^3
#
#
#
# Elastic Constant Matrix: (Units=GPa)
#
#
# Indices 1 2 3 4 5 6 
#
# 1 65.6026 44.2618 -1.5870 -0.0001 -4.2743 0.0000
# 2 44.2618 111.8867 2.6913 -0.0001 1.4934 0.0000
# 3 -1.5870 2.6913 12.8052 -0.0001 -13.9543 0.0000
# 4 -0.0001 -0.0001 -0.0001 8.1890 0.0000 -3.7096
# 5 -4.2743 1.4934 -13.9543 0.0000 24.4182 0.0000
# 6 0.0000 0.0000 0.0000 -3.7096 0.0000 22.6016
#
#
#
# Elastic Compliance Matrix: (Units=1/GPa)
#
#
# Indices 1 2 3 4 5 6 
#
# 1 0.024481 -0.010645 0.028233 0.000000 0.021071 0.000000
# 2 -0.010645 0.013787 -0.018997 0.000000 -0.013563 0.000000
# 3 0.028233 -0.018997 0.244502 0.000004 0.145830 0.000001
# 4 0.000000 0.000000 0.000004 0.131924 0.000002 0.021653
# 5 0.021071 -0.013563 0.145830 0.000002 0.128809 0.000001
# 6 0.000000 0.000000 0.000001 0.021653 0.000001 0.047798
#
#
# Mechanical properties :
#
#
# Convention : Reuss Voigt Hill
#
# Bulk Modulus (GPa) = 3.57203 31.22520 17.39862
# Shear Modulus (GPa) = 7.27340 20.70365 13.98853
#
# Velocity S-wave (km/s) = 2.03496 3.43328 2.82210
# Velocity P-wave (km/s) = 2.74865 5.78743 4.53042
#
# Compressibility (1/GPa) = 0.27995312
#
# Stress axis : x y z
#
# Youngs Moduli (GPa) = 40.84739 72.53350 4.08995
#
# Poissons Ratio (x) = 0.77213 -0.11547
# Poissons Ratio (y) = 0.43482 0.07770
# Poissons Ratio (z) = -1.15326 1.37790
#
# Static dielectric constant tensor:
#      x y z
#    x 1.602620 0.000000 -0.021190 
#    y 0.000000 1.585490 0.000000 
#    z -0.021190 0.000000 1.608910 
# 
# From -- ./inp_files/351789.got.cif
#   From: 2010.05.17/outbox.cif.g08.bks.cpg/sg12_176_cif.got.tgz:351789.got - 2010.06.03 13:09:07.
