data_PCOD9169081
_publ_section_title
;
Structure prediction by ZEFSAII (Michael W. Deem and Ramdas Pophale) SiO2 
 PCOD9169081
Probable space group: C 2/M
;
_chemical_formula_sum "Si O2"
_cell_formula_units_Z 44
_cell_length_a 20.210921
_cell_length_b 18.119218
_cell_length_c 8.795442
_cell_angle_alpha 90.000000
_cell_angle_beta 42.386231
_cell_angle_gamma 90.000000
_cell_volume 2171.318822
_symmetry_space_group_name_H-M "C 2/M"
_symmetry_group_IT_number 12
_symmetry_cell_setting 'monoclinic'
loop_
_space_group_symop_operation_xyz
x,y,z
-x,y,-z
-x,-y,-z
x,-y,z
1/2+x,1/2+y,z
1/2-x,1/2+y,-z
1/2-x,1/2-y,-z
1/2+x,1/2-y,z
loop_
_atom_site_type_symbol
_atom_site_label
_atom_site_fract_x
_atom_site_fract_y
_atom_site_fract_z
Si Si1 0.507172 0.352523 0.668498
Si Si2 0.778149 0.870977 0.669228
Si Si3 0.565228 0.500000 0.085002
Si Si4 0.500000 0.127266 0.500000
Si Si5 0.770785 0.000000 0.439577
Si Si6 0.846996 0.729474 0.932926
Si Si7 0.108778 0.500000 0.454524
Si Si8 0.227090 0.000000 0.074500
O O1 0.500000 0.367899 0.500000
O O2 0.618468 0.327292 0.511337
O O3 0.496357 0.426807 0.783022
O O4 0.582824 0.297961 0.144653
O O5 0.764384 0.926105 0.551856
O O6 0.782300 0.927752 0.805418
O O7 0.691604 0.814597 0.854830
O O8 0.642993 0.500000 0.091618
O O9 0.627727 0.500000 0.826144
O O10 0.414950 0.177580 0.713287
O O11 0.542948 0.072935 0.555818
O O12 0.683024 0.000000 0.467180
O O13 0.750000 0.750000 0.000000
O O14 0.172122 0.500000 0.190580
#
# Coordination Sequence:
#
# PCOD9169081 Si02
#       8
#     8   8   4   4   4   8   4   4
#     4  12  22  37  67 104 126 167 225 284 328 384
#     4  11  22  40  64  98 132 172 215 272 333 396
#     4  11  21  39  65  95 127 168 220 276 317 394
#     4  11  22  40  70 103 128 164 232 283 320 388
#     4  10  26  43  69  94 141 177 215 270 344 396
#     4  12  22  39  67 101 135 168 219 284 332 385
#     4  10  22  40  68 100 123 173 224 272 323 390
#     4  10  16  33  66  91 120 160 213 272 316 363
#
# _framework density 20.264182999999999
#
# number of rings (size 3 to 8) (size 9 to 14) (size 15 to 20)
#    0.000    0.909    6.364    1.364    2.545    1.455 
#    0.000    2.727    4.000    0.000    0.000    0.000 
#    0.000    0.000    0.000    0.000    0.000    0.000 
#
# Total GULP energy -122988.475296 kJ/mol
# GULP energy per Si atom -5590.385241 kJ/mol
# Density = 2.021806 g / cm^3
# Si number density = 20.264183 Si / 1000 Ang^3
#
#
#
# Elastic Constant Matrix: (Units=GPa)
#
#
# Indices 1 2 3 4 5 6 
#
# 1 87.7239 30.8819 43.8970 0.0000 -12.4444 0.0000
# 2 30.8819 102.5210 56.6097 0.0000 -18.2110 0.0000
# 3 43.8970 56.6097 125.2704 0.0000 -17.1541 0.0000
# 4 0.0000 0.0000 0.0000 48.2490 0.0000 -18.8703
# 5 -12.4444 -18.2110 -17.1541 0.0000 39.1349 0.0000
# 6 0.0000 0.0000 0.0000 -18.8703 0.0000 16.1317
#
#
#
# Elastic Compliance Matrix: (Units=1/GPa)
#
#
# Indices 1 2 3 4 5 6 
#
# 1 0.014272 -0.001778 -0.003925 0.000000 0.001990 0.000000
# 2 -0.001778 0.013741 -0.005094 0.000000 0.003596 0.000000
# 3 -0.003925 -0.005094 0.011878 0.000000 0.001588 0.000000
# 4 0.000000 0.000000 0.000000 0.038204 0.000000 0.044690
# 5 0.001990 0.003596 0.001588 0.000000 0.028555 0.000000
# 6 0.000000 0.000000 0.000000 0.044690 0.000000 0.114266
#
#
# Mechanical properties :
#
#
# Convention : Reuss Voigt Hill
#
# Bulk Modulus (GPa) = 54.65663 64.25473 59.45568
# Shear Modulus (GPa) = 20.11188 32.97823 26.54506
#
# Velocity S-wave (km/s) = 3.15379 4.03850 3.62325
# Velocity P-wave (km/s) = 6.34763 7.31596 6.84893
#
# Compressibility (1/GPa) = 0.01829604
#
# Stress axis : x y z
#
# Youngs Moduli (GPa) = 70.06831 72.77275 84.19201
#
# Poissons Ratio (x) = 0.12940 0.33045
# Poissons Ratio (y) = 0.12459 0.42889
# Poissons Ratio (z) = 0.27502 0.37072
#
# Static dielectric constant tensor:
#      x y z
#    x 1.710950 0.000000 -0.017490 
#    y 0.000000 1.734630 0.000000 
#    z -0.017490 0.000000 1.731180 
# 
# From -- ./inp_files/98028.got.cif
#   From: 2010.05.17/outbox.cif.g08.bks.cpg/sg12_50_cif.got.tgz:98028.got - 2010.06.03 13:09:07.
