data_PCOD9169271
_publ_section_title
;
Structure prediction by ZEFSAII (Michael W. Deem and Ramdas Pophale) SiO2 
 PCOD9169271
Probable space group: C 2/M
;
_chemical_formula_sum "Si O2"
_cell_formula_units_Z 28
_cell_length_a 5.085569
_cell_length_b 29.609426
_cell_length_c 6.817562
_cell_angle_alpha 90.000000
_cell_angle_beta 81.688021
_cell_angle_gamma 90.000000
_cell_volume 1015.810031
_symmetry_space_group_name_H-M "C 2/M"
_symmetry_group_IT_number 12
_symmetry_cell_setting 'monoclinic'
loop_
_space_group_symop_operation_xyz
x,y,z
-x,y,-z
-x,-y,-z
x,-y,z
1/2+x,1/2+y,z
1/2-x,1/2+y,-z
1/2-x,1/2-y,-z
1/2+x,1/2-y,z
loop_
_atom_site_type_symbol
_atom_site_label
_atom_site_fract_x
_atom_site_fract_y
_atom_site_fract_z
Si Si1 0.007118 0.273582 0.236667
Si Si2 0.603993 0.357027 0.761101
Si Si3 0.589290 0.096957 0.770958
Si Si4 0.225292 0.500000 0.640135
O O1 0.692996 0.266729 0.303428
O O2 0.186289 0.315903 0.282481
O O3 0.000000 0.272904 0.000000
O O4 0.324888 0.368604 0.687510
O O5 0.805532 0.398664 0.695623
O O6 0.500000 0.353352 0.000000
O O7 0.694895 0.046283 0.762453
O O8 0.500000 0.109651 0.000000
O O9 0.500000 0.500000 0.500000
O O10 0.000000 0.500000 0.500000
#
# Coordination Sequence:
#
# PCOD9169271 Si02
#       4
#     8   8   8   4
#     4  10  17  25  41  70 112 154 183 216 270 325
#     4  10  18  30  49  76 109 148 188 222 264 325
#     4  10  21  37  58  81 111 148 186 226 274 333
#     4  12  25  42  61  84 112 140 182 236 289 338
#
# _framework density 27.564205000000001
#
# number of rings (size 3 to 8) (size 9 to 14) (size 15 to 20)
#    0.000    1.714    0.000    9.000    0.000    0.000 
#    0.000    5.714    0.000    0.000    0.000    0.000 
#    0.000   80.000    0.000    0.000    0.000    0.000 
#
# Total GULP energy -78226.271613 kJ/mol
# GULP energy per Si atom -5587.590830 kJ/mol
# Density = 2.750147 g / cm^3
# Si number density = 27.564205 Si / 1000 Ang^3
#
#
#
# Elastic Constant Matrix: (Units=GPa)
#
#
# Indices 1 2 3 4 5 6 
#
# 1 264.9839 62.6973 42.9306 0.0000 -39.3587 0.0000
# 2 62.6973 167.9609 -0.0756 0.0000 -28.7514 0.0000
# 3 42.9306 -0.0756 94.9922 0.0000 -6.9643 0.0000
# 4 0.0000 0.0000 0.0000 -13.5108 0.0000 12.9861
# 5 -39.3587 -28.7514 -6.9643 0.0000 57.0784 0.0000
# 6 0.0000 0.0000 0.0000 12.9861 0.0000 36.7067
#
#
#
# Elastic Compliance Matrix: (Units=1/GPa)
#
#
# Indices 1 2 3 4 5 6 
#
# 1 0.004771 -0.001379 -0.001985 0.000000 0.002353 0.000000
# 2 -0.001379 0.006920 0.000822 0.000000 0.002635 0.000000
# 3 -0.001985 0.000822 0.011457 0.000000 0.000443 0.000000
# 4 0.000000 0.000000 0.000000 -0.055233 0.000000 0.019540
# 5 0.002353 0.002635 0.000443 0.000000 0.020524 0.000000
# 6 0.000000 0.000000 0.000000 0.019540 0.000000 0.020330
#
#
# Mechanical properties :
#
#
# Convention : Reuss Voigt Hill
#
# Bulk Modulus (GPa) = 55.35699 82.11572 68.73636
# Shear Modulus (GPa) = 251.57710 44.21384 147.89547
#
# Velocity S-wave (km/s) = 9.56387 4.00938 7.33290
# Velocity P-wave (km/s) = 11.91987 7.16163 9.83291
#
# Compressibility (1/GPa) = 0.01806456
#
# Stress axis : x y z
#
# Youngs Moduli (GPa) = 209.59036 144.50870 87.28007
#
# Poissons Ratio (x) = 0.19929 0.17324
# Poissons Ratio (y) = 0.28905 -0.07174
# Poissons Ratio (z) = 0.41601 -0.11878
#
# Static dielectric constant tensor:
#      x y z
#    x 2.087680 0.000000 0.104160 
#    y 0.000000 2.278820 0.000000 
#    z 0.104160 0.000000 2.255310 
# 
# From -- ./inp_files/34461.got.cif
#   From: 2010.05.17/outbox.cif.g08.bks.cpg/sg12_18_cif.got.tgz:34461.got - 2010.06.03 13:09:07.
