data_PCOD9169537
_publ_section_title
;
Structure prediction by ZEFSAII (Michael W. Deem and Ramdas Pophale) SiO2 
 PCOD9169537
Probable space group: C 2/M
;
_chemical_formula_sum "Si O2"
_cell_formula_units_Z 56
_cell_length_a 31.683768
_cell_length_b 18.172681
_cell_length_c 5.426054
_cell_angle_alpha 90.000000
_cell_angle_beta 62.464294
_cell_angle_gamma 90.000000
_cell_volume 2770.306788
_symmetry_space_group_name_H-M "C 2/M"
_symmetry_group_IT_number 12
_symmetry_cell_setting 'monoclinic'
loop_
_space_group_symop_operation_xyz
x,y,z
-x,y,-z
-x,-y,-z
x,-y,z
1/2+x,1/2+y,z
1/2-x,1/2+y,-z
1/2-x,1/2-y,-z
1/2+x,1/2-y,z
loop_
_atom_site_type_symbol
_atom_site_label
_atom_site_fract_x
_atom_site_fract_y
_atom_site_fract_z
Si Si1 0.301040 0.718639 0.277635
Si Si2 0.055834 0.782984 0.323694
Si Si3 0.922763 0.607195 0.729441
Si Si4 0.105427 0.223184 0.688626
Si Si5 0.757857 0.413584 0.671668
Si Si6 0.813566 0.630715 0.017995
Si Si7 0.551541 0.873643 0.839251
O O1 0.250000 0.750000 0.500000
O O2 0.339226 0.715427 0.394201
O O3 0.288748 0.638243 0.210548
O O4 0.318653 0.780648 0.038325
O O5 0.062056 0.694021 0.303766
O O6 0.085640 0.807542 0.484448
O O7 0.000000 0.799955 0.500000
O O8 0.077651 0.807881 0.003860
O O9 0.866416 0.599063 0.867680
O O10 0.945902 0.581601 0.416867
O O11 0.940361 0.579704 0.941387
O O12 0.092189 0.310588 0.719235
O O13 0.747887 0.500000 0.713014
O O14 0.786895 0.389274 0.837522
O O15 0.786880 0.398072 0.337578
O O16 0.500000 0.835549 0.000000
#
# Coordination Sequence:
#
# PCOD9169537 Si02
#       7
#     8   8   8   8   8   8   8
#     4  10  22  36  59  86 112 154 190 240 285 337
#     4  10  18  28  46  73 118 147 170 219 291 337
#     4  10  17  27  47  72 106 138 179 217 269 334
#     4  10  18  29  45  72 110 144 182 215 273 338
#     4  11  25  41  57  79 116 151 196 240 291 340
#     4  11  21  38  60  82 109 150 192 239 282 339
#     4  10  17  27  44  71 117 146 168 218 291 336
#
# _framework density 20.214366999999999
#
# number of rings (size 3 to 8) (size 9 to 14) (size 15 to 20)
#    0.000    1.714    2.857    6.000    6.000    2.286 
#    0.000    0.000    0.000    0.000    0.000    0.000 
#    0.000   72.571    0.000    0.000    0.000    0.286 
#
# Total GULP energy -156267.380226 kJ/mol
# GULP energy per Si atom -5580.977865 kJ/mol
# Density = 2.016836 g / cm^3
# Si number density = 20.214367 Si / 1000 Ang^3
#
#
#
# Elastic Constant Matrix: (Units=GPa)
#
#
# Indices 1 2 3 4 5 6 
#
# 1 139.1232 23.5229 30.5364 0.0000 17.6936 0.0000
# 2 23.5229 73.0721 1.0514 0.0000 8.4016 0.0000
# 3 30.5364 1.0514 103.1125 0.0000 38.8177 0.0000
# 4 0.0000 0.0000 0.0000 -65.2376 0.0000 -41.8692
# 5 17.6936 8.4016 38.8177 0.0000 49.0647 0.0000
# 6 0.0000 0.0000 0.0000 -41.8692 0.0000 -42.5712
#
#
#
# Elastic Compliance Matrix: (Units=1/GPa)
#
#
# Indices 1 2 3 4 5 6 
#
# 1 0.008176 -0.002500 -0.002061 0.000000 -0.000890 0.000000
# 2 -0.002500 0.014809 0.001716 0.000000 -0.002992 0.000000
# 3 -0.002061 0.001716 0.014415 0.000000 -0.010955 0.000000
# 4 0.000000 0.000000 0.000000 -0.041565 0.000000 0.040879
# 5 -0.000890 -0.002992 -0.010955 0.000000 0.029882 0.000000
# 6 0.000000 0.000000 0.000000 0.040879 0.000000 -0.063695
#
#
# Mechanical properties :
#
#
# Convention : Reuss Voigt Hill
#
# Bulk Modulus (GPa) = 31.53590 47.28104 39.40847
# Shear Modulus (GPa) = -230.23387 5.59765 -112.31811
#
# Velocity S-wave (km/s) = -10.68379 1.66588 -7.46218
# Velocity P-wave (km/s) = 11.68574 5.20968 7.39648
#
# Compressibility (1/GPa) = 0.03170990
#
# Stress axis : x y z
#
# Youngs Moduli (GPa) = 122.30793 67.52569 69.37158
#
# Poissons Ratio (x) = 0.16882 0.14296
# Poissons Ratio (y) = 0.30577 -0.11901
# Poissons Ratio (z) = 0.25205 -0.11584
#
# Static dielectric constant tensor:
#      x y z
#    x 1.756390 0.000000 0.025710 
#    y 0.000000 1.706980 0.000000 
#    z 0.025710 0.000000 1.830150 
# 
# From -- ./inp_files/31987.got.cif
#   From: 2010.05.17/outbox.cif.g08.bks.cpg/sg12_16_cif.got.tgz:31987.got - 2010.06.03 13:09:07.
