data_PCOD9169199
_publ_section_title
;
Structure prediction by ZEFSAII (Michael W. Deem and Ramdas Pophale) SiO2 
 PCOD9169199
Probable space group: C 2/M
;
_chemical_formula_sum "Si O2"
_cell_formula_units_Z 48
_cell_length_a 15.160008
_cell_length_b 14.606851
_cell_length_c 8.508879
_cell_angle_alpha 90.000000
_cell_angle_beta 74.062309
_cell_angle_gamma 90.000000
_cell_volume 1811.778763
_symmetry_space_group_name_H-M "C 2/M"
_symmetry_group_IT_number 12
_symmetry_cell_setting 'monoclinic'
loop_
_space_group_symop_operation_xyz
x,y,z
-x,y,-z
-x,-y,-z
x,-y,z
1/2+x,1/2+y,z
1/2-x,1/2+y,-z
1/2-x,1/2-y,-z
1/2+x,1/2-y,z
loop_
_atom_site_type_symbol
_atom_site_label
_atom_site_fract_x
_atom_site_fract_y
_atom_site_fract_z
Si Si1 0.635717 0.611165 0.508251
Si Si2 0.653966 0.113185 0.590839
Si Si3 0.124897 0.603599 0.936565
Si Si4 0.790685 0.150590 0.016510
Si Si5 0.625447 0.106899 0.273738
Si Si6 0.535645 0.610398 0.229299
O O1 0.636222 0.500000 0.512296
O O2 0.740125 0.641900 0.465532
O O3 0.590453 0.635731 0.362762
O O4 0.567666 0.641218 0.681982
O O5 0.611591 0.147129 0.774626
O O6 0.605652 0.144983 0.454447
O O7 0.650882 0.000000 0.592952
O O8 0.092230 0.500000 0.944236
O O9 0.235373 0.596346 0.907563
O O10 0.091396 0.642882 0.120848
O O11 0.898431 0.142917 0.944002
O O12 0.750000 0.250000 0.000000
O O13 0.736891 0.114123 0.195707
O O14 0.599518 0.000000 0.287844
O O15 0.533828 0.500000 0.216060
#
# Coordination Sequence:
#
# PCOD9169199 Si02
#       6
#     8   8   8   8   8   8
#     4   8  13  20  37  60  73  89 122 156 184 220
#     4   9  13  22  40  58  72  91 122 153 183 221
#     4   8  14  25  39  51  71  97 120 152 186 210
#     4  10  17  25  35  48  72 104 131 151 178 215
#     4   8  15  25  38  53  72  95 123 155 184 216
#     4   9  14  23  38  54  74  98 124 156 188 212
#
# _framework density 26.493300000000001
#
# number of rings (size 3 to 8) (size 9 to 14) (size 15 to 20)
#    1.000    2.333    1.667    2.000    0.000    0.000 
#    0.000    1.667    0.000    4.000    0.000    0.000 
#    0.000    0.000    0.000   27.000    0.000   24.000 
#
# Total GULP energy -133740.245916 kJ/mol
# GULP energy per Si atom -5572.510247 kJ/mol
# Density = 2.643300 g / cm^3
# Si number density = 26.493300 Si / 1000 Ang^3
#
#
#
# Elastic Constant Matrix: (Units=GPa)
#
#
# Indices 1 2 3 4 5 6 
#
# 1 118.9340 4.4725 67.2843 0.0000 -36.0037 0.0000
# 2 4.4725 89.8804 5.1470 0.0000 -18.3926 0.0000
# 3 67.2843 5.1470 250.2315 0.0000 -13.8815 0.0000
# 4 0.0000 0.0000 0.0000 -87.2318 0.0000 32.3944
# 5 -36.0037 -18.3926 -13.8815 0.0000 100.8511 0.0000
# 6 0.0000 0.0000 0.0000 32.3944 0.0000 -11.2145
#
#
#
# Elastic Compliance Matrix: (Units=1/GPa)
#
#
# Indices 1 2 3 4 5 6 
#
# 1 0.011068 0.000352 -0.002782 0.000000 0.003633 0.000000
# 2 0.000352 0.011572 -0.000210 0.000000 0.002207 0.000000
# 3 -0.002782 -0.000210 0.004728 0.000000 -0.000381 0.000000
# 4 0.000000 0.000000 0.000000 0.157654 0.000000 0.455402
# 5 0.003633 0.002207 -0.000381 0.000000 0.011563 0.000000
# 6 0.000000 0.000000 0.000000 0.455402 0.000000 1.226310
#
#
# Mechanical properties :
#
#
# Convention : Reuss Voigt Hill
#
# Bulk Modulus (GPa) = 45.27444 68.09484 56.68464
# Shear Modulus (GPa) = 3.48302 25.95709 14.72005
#
# Velocity S-wave (km/s) = 1.14784 3.13351 2.35970
# Velocity P-wave (km/s) = 4.34544 6.23300 5.37276
#
# Compressibility (1/GPa) = 0.02208752
#
# Stress axis : x y z
#
# Youngs Moduli (GPa) = 90.34876 86.41486 211.52811
#
# Poissons Ratio (x) = -0.03041 0.58844
# Poissons Ratio (y) = -0.03179 0.04446
# Poissons Ratio (z) = 0.25134 0.01816
#
# Static dielectric constant tensor:
#      x y z
#    x 2.070800 0.000000 -0.006490 
#    y 0.000000 0.812660 0.000000 
#    z -0.006490 0.000000 2.138160 
# 
# From -- ./inp_files/97255.got.cif
#   From: 2010.05.17/outbox.cif.g08.bks.cpg/sg12_49_cif.got.tgz:97255.got - 2010.06.03 13:09:07.
