data_PCOD9169768
_publ_section_title
;
Structure prediction by ZEFSAII (Michael W. Deem and Ramdas Pophale) SiO2 
 PCOD9169768
Probable space group: C 2/M
;
_chemical_formula_sum "Si O2"
_cell_formula_units_Z 48
_cell_length_a 9.361717
_cell_length_b 18.584052
_cell_length_c 13.641209
_cell_angle_alpha 90.000000
_cell_angle_beta 88.493482
_cell_angle_gamma 90.000000
_cell_volume 2372.458583
_symmetry_space_group_name_H-M "C 2/M"
_symmetry_group_IT_number 12
_symmetry_cell_setting 'monoclinic'
loop_
_space_group_symop_operation_xyz
x,y,z
-x,y,-z
-x,-y,-z
x,-y,z
1/2+x,1/2+y,z
1/2-x,1/2+y,-z
1/2-x,1/2-y,-z
1/2+x,1/2-y,z
loop_
_atom_site_type_symbol
_atom_site_label
_atom_site_fract_x
_atom_site_fract_y
_atom_site_fract_z
Si Si1 0.966493 0.347033 0.158598
Si Si2 0.586380 0.417534 0.847957
Si Si3 0.229549 0.663967 0.005453
Si Si4 0.040284 0.796828 0.269414
Si Si5 0.357225 0.079792 0.691781
Si Si6 0.238723 0.218124 0.607491
O O1 0.096237 0.352767 0.078964
O O2 0.003886 0.399848 0.246819
O O3 0.984307 0.266267 0.198797
O O4 0.822270 0.359169 0.101241
O O5 0.545949 0.500000 0.867149
O O6 0.640772 0.377024 0.944788
O O7 0.471428 0.369702 0.791928
O O8 0.723335 0.418063 0.770676
O O9 0.250000 0.750000 0.000000
O O10 0.923521 0.797679 0.358536
O O11 0.188962 0.771874 0.313967
O O12 0.326544 0.143914 0.617259
O O13 0.365986 0.000000 0.649940
O O14 0.250000 0.250000 0.500000
#
# Coordination Sequence:
#
# PCOD9169768 Si02
#       6
#     8   8   8   8   8   8
#     4   9  18  28  48  75  96 136 174 209 249 291
#     4   9  17  30  48  73 103 135 168 207 250 294
#     4  10  17  28  47  74 103 133 175 214 243 289
#     4  10  19  34  54  76 102 135 168 209 256 303
#     4   8  16  31  50  73 101 130 167 211 255 296
#     4  10  20  34  56  81 100 127 169 214 258 308
#
# _framework density 20.232175000000002
#
# number of rings (size 3 to 8) (size 9 to 14) (size 15 to 20)
#    0.000    2.667    1.667    1.500    0.000    0.667 
#    0.000    4.167    0.000   18.000    0.000    0.000 
#    0.000    0.000    0.000    0.000    0.000    0.000 
#
# Total GULP energy -133922.774110 kJ/mol
# GULP energy per Si atom -5580.115588 kJ/mol
# Density = 2.018613 g / cm^3
# Si number density = 20.232175 Si / 1000 Ang^3
#
#
#
# Elastic Constant Matrix: (Units=GPa)
#
#
# Indices 1 2 3 4 5 6 
#
# 1 61.1047 16.6138 23.3876 0.0000 3.7761 0.0000
# 2 16.6138 138.6316 51.9489 0.0000 23.0975 0.0000
# 3 23.3876 51.9489 97.2966 0.0000 14.9110 0.0000
# 4 0.0000 0.0000 0.0000 23.2505 0.0000 -0.6757
# 5 3.7761 23.0975 14.9110 0.0000 17.3515 0.0000
# 6 0.0000 0.0000 0.0000 -0.6757 0.0000 16.7484
#
#
#
# Elastic Compliance Matrix: (Units=1/GPa)
#
#
# Indices 1 2 3 4 5 6 
#
# 1 0.018077 -0.000743 -0.004028 0.000000 0.000516 0.000000
# 2 -0.000743 0.010481 -0.003805 0.000000 -0.010520 0.000000
# 3 -0.004028 -0.003805 0.014243 0.000000 -0.006298 0.000000
# 4 0.000000 0.000000 0.000000 0.043060 0.000000 0.001737
# 5 0.000516 -0.010520 -0.006298 0.000000 0.076935 0.000000
# 6 0.000000 0.000000 0.000000 0.001737 0.000000 0.059777
#
#
# Mechanical properties :
#
#
# Convention : Reuss Voigt Hill
#
# Bulk Modulus (GPa) = 38.98785 53.43708 46.21246
# Shear Modulus (GPa) = 20.13891 25.14225 22.64058
#
# Velocity S-wave (km/s) = 3.15840 3.52900 3.34883
# Velocity P-wave (km/s) = 5.71076 6.56311 6.15171
#
# Compressibility (1/GPa) = 0.02564902
#
# Stress axis : x y z
#
# Youngs Moduli (GPa) = 55.31873 95.40967 70.21084
#
# Poissons Ratio (x) = 0.07091 0.28278
# Poissons Ratio (y) = 0.04111 0.26717
# Poissons Ratio (z) = 0.22280 0.36305
#
# Static dielectric constant tensor:
#      x y z
#    x 2.346770 0.000000 -0.068170 
#    y 0.000000 1.705910 0.000000 
#    z -0.068170 0.000000 1.722580 
# 
# From -- ./inp_files/205580.got.cif
#   From: 2010.05.17/outbox.cif.g08.bks.cpg/sg12_103_cif.got.tgz:205580.got - 2010.06.03 13:09:07.
