data_PCOD9169036
_publ_section_title
;
Structure prediction by ZEFSAII (Michael W. Deem and Ramdas Pophale) SiO2 
 PCOD9169036
Probable space group: C 2/M
;
_chemical_formula_sum "Si O2"
_cell_formula_units_Z 36
_cell_length_a 26.476443
_cell_length_b 14.985936
_cell_length_c 8.507643
_cell_angle_alpha 90.000000
_cell_angle_beta 33.040782
_cell_angle_gamma 90.000000
_cell_volume 1840.505716
_symmetry_space_group_name_H-M "C 2/M"
_symmetry_group_IT_number 12
_symmetry_cell_setting 'monoclinic'
loop_
_space_group_symop_operation_xyz
x,y,z
-x,y,-z
-x,-y,-z
x,-y,z
1/2+x,1/2+y,z
1/2-x,1/2+y,-z
1/2-x,1/2-y,-z
1/2+x,1/2-y,z
loop_
_atom_site_type_symbol
_atom_site_label
_atom_site_fract_x
_atom_site_fract_y
_atom_site_fract_z
Si Si1 0.414061 0.500000 0.608731
Si Si2 0.501923 0.000000 0.685941
Si Si3 0.259198 0.191000 0.134889
Si Si4 0.442908 0.660739 0.294359
Si Si5 0.710769 0.000000 0.103692
Si Si6 0.945532 0.307415 0.808961
O O1 0.500000 0.500000 0.500000
O O2 0.425582 0.586823 0.471356
O O3 0.307605 0.500000 0.948032
O O4 0.500000 0.000000 0.500000
O O5 0.453204 0.092429 0.857611
O O6 0.610845 0.000000 0.447722
O O7 0.160263 0.193059 0.477738
O O8 0.284661 0.090005 0.012988
O O9 0.250000 0.250000 0.000000
O O10 0.342073 0.220367 0.031751
O O11 0.502788 0.740169 0.211372
O O12 0.500000 0.623053 0.000000
O O13 0.000000 0.306474 0.500000
#
# Coordination Sequence:
#
# PCOD9169036 Si02
#       6
#     4   4   8   8   4   8
#     4  10  23  39  61  83 110 155 200 234 279 355
#     4  10  16  32  57  89 105 137 188 248 278 326
#     4  11  20  34  59  86 110 150 196 238 283 345
#     4  11  24  39  56  85 123 152 188 244 297 340
#     4  10  18  31  55  86 110 136 185 244 291 310
#     4  11  19  35  61  85 112 149 197 238 286 347
#
# _framework density 19.559840000000001
#
# number of rings (size 3 to 8) (size 9 to 14) (size 15 to 20)
#    0.000    1.333    6.667    1.000    3.111    0.889 
#    0.000    0.556    0.000    0.000    0.000    0.000 
#    0.000    0.000    0.000    0.000    0.000    0.000 
#
# Total GULP energy -100445.340832 kJ/mol
# GULP energy per Si atom -5580.296713 kJ/mol
# Density = 1.951532 g / cm^3
# Si number density = 19.559840 Si / 1000 Ang^3
#
#
#
# Elastic Constant Matrix: (Units=GPa)
#
#
# Indices 1 2 3 4 5 6 
#
# 1 69.7876 15.8112 46.3912 0.0000 -50.0843 0.0000
# 2 15.8112 94.9091 -7.6910 0.0000 -13.1482 0.0000
# 3 46.3912 -7.6910 105.5244 0.0000 -44.0840 0.0000
# 4 0.0000 0.0000 0.0000 29.4847 0.0000 5.5091
# 5 -50.0843 -13.1482 -44.0840 0.0000 44.0026 0.0000
# 6 0.0000 0.0000 0.0000 5.5091 0.0000 36.0233
#
#
#
# Elastic Compliance Matrix: (Units=1/GPa)
#
#
# Indices 1 2 3 4 5 6 
#
# 1 0.079712 0.000419 0.005061 0.000000 0.095924 0.000000
# 2 0.000419 0.011923 0.004080 0.000000 0.008128 0.000000
# 3 0.005061 0.004080 0.017997 0.000000 0.025010 0.000000
# 4 0.000000 0.000000 0.000000 0.034914 0.000000 -0.005339
# 5 0.095924 0.008128 0.025010 0.000000 0.159392 0.000000
# 6 0.000000 0.000000 0.000000 -0.005339 0.000000 0.028576
#
#
# Mechanical properties :
#
#
# Convention : Reuss Voigt Hill
#
# Bulk Modulus (GPa) = 7.76686 42.13822 24.95254
# Shear Modulus (GPa) = 14.03268 36.28277 25.15773
#
# Velocity S-wave (km/s) = 2.68138 4.31160 3.59024
# Velocity P-wave (km/s) = 3.68318 6.81003 5.47459
#
# Compressibility (1/GPa) = 0.12875212
#
# Stress axis : x y z
#
# Youngs Moduli (GPa) = 12.54523 83.87076 55.56450
#
# Poissons Ratio (x) = -0.03518 -0.28119
# Poissons Ratio (y) = -0.00526 -0.22670
# Poissons Ratio (z) = -0.06349 -0.34219
#
# Static dielectric constant tensor:
#      x y z
#    x 1.676860 0.000000 -0.035670 
#    y 0.000000 1.712100 0.000000 
#    z -0.035670 0.000000 1.733990 
# 
# From -- ./inp_files/58395.got.cif
#   From: 2010.05.17/outbox.cif.g08.bks.cpg/sg12_30_cif.got.tgz:58395.got - 2010.06.03 13:09:07.
