data_PCOD9169411
_publ_section_title
;
Structure prediction by ZEFSAII (Michael W. Deem and Ramdas Pophale) SiO2 
 PCOD9169411
Probable space group: C 2/M
;
_chemical_formula_sum "Si O2"
_cell_formula_units_Z 56
_cell_length_a 29.800678
_cell_length_b 7.398806
_cell_length_c 14.666492
_cell_angle_alpha 90.000000
_cell_angle_beta 61.518588
_cell_angle_gamma 90.000000
_cell_volume 2842.424970
_symmetry_space_group_name_H-M "C 2/M"
_symmetry_group_IT_number 12
_symmetry_cell_setting 'monoclinic'
loop_
_space_group_symop_operation_xyz
x,y,z
-x,y,-z
-x,-y,-z
x,-y,z
1/2+x,1/2+y,z
1/2-x,1/2+y,-z
1/2-x,1/2-y,-z
1/2+x,1/2-y,z
loop_
_atom_site_type_symbol
_atom_site_label
_atom_site_fract_x
_atom_site_fract_y
_atom_site_fract_z
Si Si1 0.366983 0.719331 0.559940
Si Si2 0.047720 0.220936 0.389229
Si Si3 0.972176 0.218210 0.797752
Si Si4 0.243747 0.217398 0.397387
Si Si5 0.652567 0.795340 0.779092
Si Si6 0.412868 0.281827 0.324705
Si Si7 0.444669 0.789537 0.021982
O O1 0.364469 0.500000 0.566430
O O2 0.398884 0.778115 0.616923
O O3 0.310093 0.782806 0.591188
O O4 0.401700 0.765570 0.439284
O O5 0.042859 0.279135 0.289018
O O6 0.000000 0.276005 0.500000
O O7 0.046278 0.000000 0.390261
O O8 0.030672 0.275178 0.757323
O O9 0.971211 0.000000 0.797725
O O10 0.941385 0.278426 0.916063
O O11 0.250000 0.250000 0.500000
O O12 0.291859 0.287568 0.292236
O O13 0.244181 0.000000 0.388564
O O14 0.628768 0.799550 0.701087
O O15 0.606486 0.710694 0.882604
O O16 0.660253 0.000000 0.806596
O O17 0.409423 0.500000 0.320568
O O18 0.445548 0.000000 0.049610
O O19 0.500000 0.712495 0.000000
#
# Coordination Sequence:
#
# PCOD9169411 Si02
#       7
#     8   8   8   8   8   8   8
#     4   9  16  27  44  68  97 124 147 178 228 280
#     4   9  15  26  45  70  97 121 146 183 230 277
#     4  10  19  29  47  74  96 118 153 193 231 270
#     4  10  19  30  47  70  94 121 153 188 228 274
#     4  10  20  32  45  65  93 126 159 186 221 275
#     4  10  17  26  45  72  97 119 148 187 228 271
#     4  10  20  33  47  63  90 129 161 187 228 275
#
# _framework density 19.701487
#
# number of rings (size 3 to 8) (size 9 to 14) (size 15 to 20)
#    0.000    2.286    4.286    0.000    0.000    0.857 
#    0.000    0.000    0.000    3.000    0.000    0.000 
#    0.000    0.000    0.000    0.000    0.000    0.000 
#
# Total GULP energy -156182.475097 kJ/mol
# GULP energy per Si atom -5577.945539 kJ/mol
# Density = 1.965665 g / cm^3
# Si number density = 19.701487 Si / 1000 Ang^3
#
#
#
# Elastic Constant Matrix: (Units=GPa)
#
#
# Indices 1 2 3 4 5 6 
#
# 1 116.1750 0.6367 49.2410 0.0000 -7.8986 0.0000
# 2 0.6367 66.9785 2.6124 0.0000 -4.6984 0.0000
# 3 49.2410 2.6124 117.3529 0.0000 -12.1725 0.0000
# 4 0.0000 0.0000 0.0000 18.5150 0.0000 5.5082
# 5 -7.8986 -4.6984 -12.1725 0.0000 38.6374 0.0000
# 6 0.0000 0.0000 0.0000 5.5082 0.0000 4.6915
#
#
#
# Elastic Compliance Matrix: (Units=1/GPa)
#
#
# Indices 1 2 3 4 5 6 
#
# 1 0.010494 0.000125 -0.004323 0.000000 0.000798 0.000000
# 2 0.000125 0.015063 -0.000202 0.000000 0.001794 0.000000
# 3 -0.004323 -0.000202 0.010592 0.000000 0.002429 0.000000
# 4 0.000000 0.000000 0.000000 0.083002 0.000000 -0.097451
# 5 0.000798 0.001794 0.002429 0.000000 0.027028 0.000000
# 6 0.000000 0.000000 0.000000 -0.097451 0.000000 0.327564
#
#
# Mechanical properties :
#
#
# Convention : Reuss Voigt Hill
#
# Bulk Modulus (GPa) = 36.56542 45.05406 40.80974
# Shear Modulus (GPa) = 10.16968 28.90322 19.53645
#
# Velocity S-wave (km/s) = 2.27444 3.83437 3.15242
# Velocity P-wave (km/s) = 5.04950 6.52083 5.83175
#
# Compressibility (1/GPa) = 0.02734824
#
# Stress axis : x y z
#
# Youngs Moduli (GPa) = 95.29578 66.38932 94.41400
#
# Poissons Ratio (x) = -0.00829 0.40816
# Poissons Ratio (y) = -0.01190 0.01904
# Poissons Ratio (z) = 0.41197 0.01339
#
# Static dielectric constant tensor:
#      x y z
#    x 1.689180 0.000000 -0.027960 
#    y 0.000000 1.795530 0.000000 
#    z -0.027960 0.000000 1.684210 
# 
# From -- ./inp_files/181955.got.cif
#   From: 2010.05.17/outbox.cif.g08.bks.cpg/sg12_91_cif.got.tgz:181955.got - 2010.06.03 13:09:07.
