data_PCOD9169124
_publ_section_title
;
Structure prediction by ZEFSAII (Michael W. Deem and Ramdas Pophale) SiO2 
 PCOD9169124
Probable space group: C 2/M
;
_chemical_formula_sum "Si O2"
_cell_formula_units_Z 42
_cell_length_a 21.462828
_cell_length_b 11.540045
_cell_length_c 25.806985
_cell_angle_alpha 90.000000
_cell_angle_beta 14.540663
_cell_angle_gamma 90.000000
_cell_volume 1604.801851
_symmetry_space_group_name_H-M "C 2/M"
_symmetry_group_IT_number 12
_symmetry_cell_setting 'monoclinic'
loop_
_space_group_symop_operation_xyz
x,y,z
-x,y,-z
-x,-y,-z
x,-y,z
1/2+x,1/2+y,z
1/2-x,1/2+y,-z
1/2-x,1/2-y,-z
1/2+x,1/2-y,z
loop_
_atom_site_type_symbol
_atom_site_label
_atom_site_fract_x
_atom_site_fract_y
_atom_site_fract_z
Si Si1 0.919470 0.000000 0.925174
Si Si2 0.072546 0.823792 0.298584
Si Si3 0.000000 0.500000 0.000000
Si Si4 0.183119 0.000000 0.566048
Si Si5 0.884048 0.306393 0.643161
Si Si6 0.150368 0.500000 0.050552
Si Si7 0.796154 0.500000 0.793186
Si Si8 0.528747 0.243597 0.097876
O O1 0.657818 0.000000 0.106151
O O2 0.893968 0.000000 0.007156
O O3 0.014878 0.132525 0.838091
O O4 0.301402 0.901976 0.136218
O O5 0.959869 0.770678 0.442051
O O6 0.867204 0.891778 0.431366
O O7 0.213293 0.744748 0.142375
O O8 0.428058 0.000000 0.403458
O O9 0.941028 0.000000 0.798937
O O10 0.688222 0.229731 0.769634
O O11 0.000000 0.369329 0.500000
O O12 0.771199 0.392881 0.774937
O O13 0.046719 0.621333 0.113001
#
# Coordination Sequence:
#
# PCOD9169124 Si02
#       8
#     4   8   2   4   8   4   4   8
#     4  12  25  43  72 105 138 183 237 286 338 420
#     4  10  20  41  70  96 128 185 225 279 342 407
#     4  10  16  36  72  90 136 166 236 268 334 402
#     4   9  24  42  66  94 137 183 220 274 350 425
#     4  12  26  41  66 100 135 182 227 297 345 403
#     4  10  25  46  74 104 134 187 224 291 344 410
#     4  12  27  46  61  97 144 186 226 283 360 414
#     4  11  23  45  71 103 140 176 240 282 341 421
#
# _framework density 26.171455999999999
#
# number of rings (size 3 to 8) (size 9 to 14) (size 15 to 20)
#    0.000    1.143    3.810    2.000    2.667    3.048 
#    0.000    3.333    0.000    0.000    0.000    0.000 
#    0.000    0.000    0.000    0.000    0.000    0.000 
#
# Total GULP energy -116933.075037 kJ/mol
# GULP energy per Si atom -5568.241668 kJ/mol
# Density = 2.611189 g / cm^3
# Si number density = 26.171456 Si / 1000 Ang^3
#
#
#
# Elastic Constant Matrix: (Units=GPa)
#
#
# Indices 1 2 3 4 5 6 
#
# 1 172.6911 66.4399 30.5537 0.0753 -15.6400 -0.0107
# 2 66.4399 159.7528 24.6272 0.0983 -1.5729 -0.0109
# 3 30.5537 24.6272 76.7003 0.2374 -23.7030 -0.0029
# 4 0.0753 0.0983 0.2374 0.7556 -0.0258 -14.9011
# 5 -15.6400 -1.5729 -23.7030 -0.0258 43.0142 -0.0025
# 6 -0.0107 -0.0109 -0.0029 -14.9011 -0.0025 51.5991
#
#
#
# Elastic Compliance Matrix: (Units=1/GPa)
#
#
# Indices 1 2 3 4 5 6 
#
# 1 0.007279 -0.002784 -0.001469 -0.000038 0.001735 -0.000010
# 2 -0.002784 0.007695 -0.001914 0.000035 -0.001785 0.000011
# 3 -0.001469 -0.001914 0.016931 0.000983 0.008726 0.000284
# 4 -0.000038 0.000035 0.000983 -0.281817 0.000355 -0.081385
# 5 0.001735 -0.001785 0.008726 0.000355 0.028623 0.000104
# 6 -0.000010 0.000011 0.000284 -0.081385 0.000104 -0.004123
#
#
# Mechanical properties :
#
#
# Convention : Reuss Voigt Hill
#
# Bulk Modulus (GPa) = 51.09475 72.48731 61.79103
# Shear Modulus (GPa) = -24.20664 38.24202 7.01769
#
# Velocity S-wave (km/s) = -3.04456 3.82673 1.63928
# Velocity P-wave (km/s) = 2.68447 6.87621 5.21961
#
# Compressibility (1/GPa) = 0.01957148
#
# Stress axis : x y z
#
# Youngs Moduli (GPa) = 137.38648 129.95925 59.06236
#
# Poissons Ratio (x) = 0.36175 0.08679
# Poissons Ratio (y) = 0.38242 0.11302
# Poissons Ratio (z) = 0.20188 0.24869
#
# Static dielectric constant tensor:
#      x y z
#    x 2.025460 -0.000010 0.087480 
#    y -0.000010 2.193110 0.000070 
#    z 0.087480 0.000070 2.203280 
# 
# From -- ./inp_files/365988.got.cif
#   From: 2010.05.17/outbox.cif.g08.bks.cpg/sg12_183_cif.got.tgz:365988.got - 2010.06.03 13:09:07.
