data_PCOD9169009
_publ_section_title
;
Structure prediction by ZEFSAII (Michael W. Deem and Ramdas Pophale) SiO2 
 PCOD9169009
Probable space group: C 2/M
;
_chemical_formula_sum "Si O2"
_cell_formula_units_Z 48
_cell_length_a 15.254575
_cell_length_b 22.854391
_cell_length_c 20.812991
_cell_angle_alpha 90.000000
_cell_angle_beta 21.718629
_cell_angle_gamma 90.000000
_cell_volume 2685.117540
_symmetry_space_group_name_H-M "C 2/M"
_symmetry_group_IT_number 12
_symmetry_cell_setting 'monoclinic'
loop_
_space_group_symop_operation_xyz
x,y,z
-x,y,-z
-x,-y,-z
x,-y,z
1/2+x,1/2+y,z
1/2-x,1/2+y,-z
1/2-x,1/2-y,-z
1/2+x,1/2-y,z
loop_
_atom_site_type_symbol
_atom_site_label
_atom_site_fract_x
_atom_site_fract_y
_atom_site_fract_z
Si Si1 0.221813 0.068128 0.668303
Si Si2 0.030194 0.134939 0.049902
Si Si3 0.588495 0.783787 0.367353
Si Si4 0.142475 0.161424 0.611082
Si Si5 0.090894 0.163282 0.502919
Si Si6 0.091419 0.726998 0.167476
O O1 0.500000 0.075994 0.500000
O O2 0.153183 0.109715 0.655668
O O3 0.046553 0.088292 0.844571
O O4 0.192844 0.000000 0.672989
O O5 0.832390 0.185163 0.190137
O O6 0.268837 0.171650 0.897877
O O7 0.000000 0.108444 0.000000
O O8 0.500000 0.797445 0.500000
O O9 0.396365 0.806985 0.447638
O O10 0.600537 0.714562 0.355477
O O11 0.115192 0.137001 0.557535
O O12 0.963155 0.214169 0.753524
O O13 0.335502 0.199244 0.323716
O O14 0.000000 0.131446 0.500000
O O15 0.250000 0.750000 0.000000
#
# Coordination Sequence:
#
# PCOD9169009 Si02
#       6
#     8   8   8   8   8   8
#     4  11  23  39  59  79 105 153 196 218 267 340
#     4  12  20  32  54  84 119 141 172 229 287 331
#     4  10  16  32  51  77 115 150 169 208 270 343
#     4  11  18  36  54  75 111 153 183 222 267 331
#     4  10  21  32  50  77 112 146 183 218 267 333
#     4  11  20  30  53  84 113 148 178 218 285 339
#
# _framework density 17.876311999999999
#
# number of rings (size 3 to 8) (size 9 to 14) (size 15 to 20)
#    0.000    1.167    5.000    6.000    0.000    0.333 
#    0.000    0.000    0.000    0.500    0.000    1.167 
#    0.000    0.000    0.000    0.000    0.000    0.000 
#
# Total GULP energy -133714.395459 kJ/mol
# GULP energy per Si atom -5571.433144 kJ/mol
# Density = 1.783562 g / cm^3
# Si number density = 17.876312 Si / 1000 Ang^3
#
#
#
# Elastic Constant Matrix: (Units=GPa)
#
#
# Indices 1 2 3 4 5 6 
#
# 1 163.4803 35.6205 31.2271 -0.0042 22.1225 -0.0312
# 2 35.6205 77.7159 12.0052 3.3651 6.3267 1.7691
# 3 31.2271 12.0052 60.8292 3.0378 11.3755 1.7253
# 4 -0.0042 3.3651 3.0378 -9.5259 -0.4838 -24.1273
# 5 22.1225 6.3267 11.3755 -0.4838 25.9314 -0.3182
# 6 -0.0312 1.7691 1.7253 -24.1273 -0.3182 -8.8640
#
#
#
# Elastic Compliance Matrix: (Units=1/GPa)
#
#
# Indices 1 2 3 4 5 6 
#
# 1 0.007881 -0.002799 -0.002549 -0.000125 -0.004932 -0.000564
# 2 -0.002799 0.014348 -0.001369 0.000337 -0.000485 0.001706
# 3 -0.002549 -0.001369 0.019014 0.000569 -0.005796 0.002095
# 4 -0.000125 0.000337 0.000569 0.017839 -0.000486 -0.048362
# 5 -0.004932 -0.000485 -0.005796 -0.000486 0.045404 -0.001515
# 6 -0.000564 0.001706 0.002095 -0.048362 -0.001515 0.019626
#
#
# Mechanical properties :
#
#
# Convention : Reuss Voigt Hill
#
# Bulk Modulus (GPa) = 35.95968 51.08123 43.52046
# Shear Modulus (GPa) = 34.05626 16.38648 25.22137
#
# Velocity S-wave (km/s) = 4.36949 3.03092 3.76025
# Velocity P-wave (km/s) = 6.75397 6.39418 6.57653
#
# Compressibility (1/GPa) = 0.02780892
#
# Stress axis : x y z
#
# Youngs Moduli (GPa) = 126.88978 69.69757 52.59202
#
# Poissons Ratio (x) = 0.19506 0.13405
# Poissons Ratio (y) = 0.35512 0.07202
# Poissons Ratio (z) = 0.32342 0.09545
#
# Static dielectric constant tensor:
#      x y z
#    x 6.828950 -0.026500 6.662570 
#    y -0.026500 1.586250 -0.034560 
#    z 6.662570 -0.034560 10.274100 
# 
# From -- ./inp_files/312588.got.cif
#   From: 2010.05.17/outbox.cif.g08.bks.cpg/sg12_157_cif.got.tgz:312588.got - 2010.06.03 13:09:07.
