data_PCOD9169527
_publ_section_title
;
Structure prediction by ZEFSAII (Michael W. Deem and Ramdas Pophale) SiO2 
 PCOD9169527
Probable space group: C 2/M
;
_chemical_formula_sum "Si O2"
_cell_formula_units_Z 48
_cell_length_a 24.557399
_cell_length_b 9.336355
_cell_length_c 15.328452
_cell_angle_alpha 90.000000
_cell_angle_beta 118.802902
_cell_angle_gamma 90.000000
_cell_volume 3079.654880
_symmetry_space_group_name_H-M "C 2/M"
_symmetry_group_IT_number 12
_symmetry_cell_setting 'monoclinic'
loop_
_space_group_symop_operation_xyz
x,y,z
-x,y,-z
-x,-y,-z
x,-y,z
1/2+x,1/2+y,z
1/2-x,1/2+y,-z
1/2-x,1/2-y,-z
1/2+x,1/2-y,z
loop_
_atom_site_type_symbol
_atom_site_label
_atom_site_fract_x
_atom_site_fract_y
_atom_site_fract_z
Si Si1 0.597709 0.668329 0.220657
Si Si2 0.926302 0.664885 0.966930
Si Si3 0.815681 0.828748 0.546605
Si Si4 0.593377 0.169893 0.511083
Si Si5 0.046881 0.330556 0.665530
Si Si6 0.453186 0.669453 0.158181
O O1 0.601998 0.500000 0.201464
O O2 0.606491 0.761585 0.140822
O O3 0.645669 0.700110 0.334761
O O4 0.527531 0.692445 0.201693
O O5 0.907999 0.500000 0.963816
O O6 0.920293 0.753215 0.051456
O O7 0.000000 0.667804 0.000000
O O8 0.750000 0.750000 0.500000
O O9 0.856293 0.764445 0.499173
O O10 0.808753 0.000000 0.532843
O O11 0.525430 0.194292 0.415766
O O12 0.585617 0.201327 0.607832
O O13 0.607109 0.000000 0.512198
O O14 0.053085 0.500000 0.689196
O O15 0.063871 0.238858 0.762712
O O16 0.441955 0.500000 0.148077
#
# Coordination Sequence:
#
# PCOD9169527 Si02
#       6
#     8   8   8   8   8   8
#     4   9  18  31  44  63  93 125 157 196 238 279
#     4   9  17  27  42  65  91 122 157 191 233 285
#     4  11  22  35  50  70  95 128 167 203 239 280
#     4   9  18  32  48  68  95 127 160 198 240 282
#     4   9  17  29  47  70  97 127 158 193 238 287
#     4  10  17  27  44  68  97 127 156 190 236 285
#
# _framework density 15.586162
#
# number of rings (size 3 to 8) (size 9 to 14) (size 15 to 20)
#    0.000    2.500    1.667    2.500    0.000    4.667 
#    0.000    1.667    0.000    0.000    0.000    1.167 
#    0.000    0.000    0.000    0.000    0.000    0.000 
#
# Total GULP energy -133799.857528 kJ/mol
# GULP energy per Si atom -5574.994064 kJ/mol
# Density = 1.555069 g / cm^3
# Si number density = 15.586162 Si / 1000 Ang^3
#
#
#
# Elastic Constant Matrix: (Units=GPa)
#
#
# Indices 1 2 3 4 5 6 
#
# 1 72.2462 60.9022 53.7091 0.0000 -11.2546 0.0000
# 2 60.9022 98.2483 88.1533 0.0000 -21.9921 0.0000
# 3 53.7091 88.1533 113.9717 0.0000 -30.8578 0.0000
# 4 0.0000 0.0000 0.0000 32.5501 0.0000 -6.9746
# 5 -11.2546 -21.9921 -30.8578 0.0000 23.4388 0.0000
# 6 0.0000 0.0000 0.0000 -6.9746 0.0000 21.7031
#
#
#
# Elastic Compliance Matrix: (Units=1/GPa)
#
#
# Indices 1 2 3 4 5 6 
#
# 1 0.029257 -0.018586 -0.000512 0.000000 -0.004065 0.000000
# 2 -0.018586 0.045329 -0.026731 0.000000 -0.001585 0.000000
# 3 -0.000512 -0.026731 0.035481 0.000000 0.021384 0.000000
# 4 0.000000 0.000000 0.000000 0.032994 0.000000 0.010603
# 5 -0.004065 -0.001585 0.021384 0.000000 0.067378 0.000000
# 6 0.000000 0.000000 0.000000 0.010603 0.000000 0.049484
#
#
# Mechanical properties :
#
#
# Convention : Reuss Voigt Hill
#
# Bulk Modulus (GPa) = 54.32367 76.66616 65.49491
# Shear Modulus (GPa) = 13.97753 20.98518 17.48135
#
# Velocity S-wave (km/s) = 2.99790 3.67331 3.35265
# Velocity P-wave (km/s) = 6.84928 8.20283 7.55642
#
# Compressibility (1/GPa) = 0.01840818
#
# Stress axis : x y z
#
# Youngs Moduli (GPa) = 34.18011 22.06085 28.18427
#
# Poissons Ratio (x) = 0.41003 0.01443
# Poissons Ratio (y) = 0.63528 0.75340
# Poissons Ratio (z) = 0.01750 0.58971
#
# Static dielectric constant tensor:
#      x y z
#    x 1.492720 0.000000 -0.008810 
#    y 0.000000 1.516830 0.000000 
#    z -0.008810 0.000000 1.510300 
# 
# From -- ./inp_files/230416.got.cif
#   From: 2010.05.17/outbox.cif.g08.bks.cpg/sg12_116_cif.got.tgz:230416.got - 2010.06.03 13:09:07.
