data_PCOD9169882
_publ_section_title
;
Structure prediction by ZEFSAII (Michael W. Deem and Ramdas Pophale) SiO2 
 PCOD9169882
Probable space group: C 2/M
;
_chemical_formula_sum "Si O2"
_cell_formula_units_Z 52
_cell_length_a 17.071682
_cell_length_b 15.229731
_cell_length_c 18.325215
_cell_angle_alpha 90.000000
_cell_angle_beta 150.308104
_cell_angle_gamma 90.000000
_cell_volume 2360.029022
_symmetry_space_group_name_H-M "C 2/M"
_symmetry_group_IT_number 12
_symmetry_cell_setting 'monoclinic'
loop_
_space_group_symop_operation_xyz
x,y,z
-x,y,-z
-x,-y,-z
x,-y,z
1/2+x,1/2+y,z
1/2-x,1/2+y,-z
1/2-x,1/2-y,-z
1/2+x,1/2-y,z
loop_
_atom_site_type_symbol
_atom_site_label
_atom_site_fract_x
_atom_site_fract_y
_atom_site_fract_z
Si Si1 0.174779 0.601385 0.493163
Si Si2 0.249572 0.306363 0.772600
Si Si3 0.093470 0.730355 0.783737
Si Si4 0.069534 0.000000 0.937329
Si Si5 0.246356 0.500000 0.770744
Si Si6 0.949192 0.094163 0.604682
Si Si7 0.464530 0.316065 0.815047
Si Si8 0.500000 0.675604 0.500000
O O1 0.144153 0.500000 0.494988
O O2 0.281737 0.592055 0.508180
O O3 0.291602 0.658963 0.639160
O O4 0.027581 0.659335 0.348488
O O5 0.249144 0.291992 0.860666
O O6 0.179306 0.404372 0.700860
O O7 0.409324 0.298813 0.853930
O O8 0.130219 0.236335 0.642749
O O9 0.045144 0.827155 0.718089
O O10 0.056933 0.742674 0.841150
O O11 0.058059 0.909080 0.884999
O O12 0.910623 0.000000 0.858271
O O13 0.211857 0.000000 0.109509
O O14 0.925712 0.116004 0.501846
O O15 0.028348 0.000000 0.678811
#
# Coordination Sequence:
#
# PCOD9169882 Si02
#       8
#     8   8   8   4   4   8   8   4
#     4  10  18  28  43  70 105 136 165 195 245 297
#     4  10  20  32  48  73 104 132 160 203 251 300
#     4  10  20  30  46  75 105 135 162 205 244 296
#     4   9  18  34  56  74  89 134 169 215 254 292
#     4   9  20  35  50  74 105 120 165 217 262 294
#     4   9  17  28  42  62  98 138 172 204 225 275
#     4  10  17  33  51  71  98 133 174 198 242 301
#     4  10  17  29  44  70  98 138 167 192 247 300
#
# _framework density 22.033626999999999
#
# number of rings (size 3 to 8) (size 9 to 14) (size 15 to 20)
#    0.000    2.308    0.769    4.846    2.154    0.308 
#    0.000    0.769    0.000    0.000    0.000    0.000 
#    0.000    1.231    0.000    0.154    0.000    0.000 
#
# Total GULP energy -144881.262421 kJ/mol
# GULP energy per Si atom -5572.356247 kJ/mol
# Density = 2.198348 g / cm^3
# Si number density = 22.033627 Si / 1000 Ang^3
#
#
#
# Elastic Constant Matrix: (Units=GPa)
#
#
# Indices 1 2 3 4 5 6 
#
# 1 169.9872 41.1373 25.4232 0.0002 -0.5370 0.0001
# 2 41.1373 97.4707 12.0771 -0.0005 17.0122 0.0002
# 3 25.4232 12.0771 40.1402 0.0008 6.0877 0.0009
# 4 0.0002 -0.0005 0.0008 13.1448 0.0005 -12.9583
# 5 -0.5370 17.0122 6.0877 0.0005 25.1165 0.0004
# 6 0.0001 0.0002 0.0009 -12.9583 0.0004 35.7508
#
#
#
# Elastic Compliance Matrix: (Units=1/GPa)
#
#
# Indices 1 2 3 4 5 6 
#
# 1 0.007272 -0.003126 -0.004163 0.000000 0.003282 0.000000
# 2 -0.003126 0.013205 -0.000650 0.000002 -0.008853 0.000001
# 3 -0.004163 -0.000650 0.028749 -0.000003 -0.006617 -0.000002
# 4 0.000000 0.000002 -0.000003 0.118372 -0.000003 0.042905
# 5 0.003282 -0.008853 -0.006617 -0.000003 0.047485 -0.000002
# 6 0.000000 0.000001 -0.000002 0.042905 -0.000002 0.043523
#
#
# Mechanical properties :
#
#
# Convention : Reuss Voigt Hill
#
# Bulk Modulus (GPa) = 29.98824 51.65259 40.82041
# Shear Modulus (GPa) = 17.50699 30.06646 23.78672
#
# Velocity S-wave (km/s) = 2.82185 3.69802 3.28924
# Velocity P-wave (km/s) = 4.92513 6.45967 5.74387
#
# Compressibility (1/GPa) = 0.03334641
#
# Stress axis : x y z
#
# Youngs Moduli (GPa) = 137.50661 75.73056 34.78428
#
# Poissons Ratio (x) = 0.23676 0.14481
# Poissons Ratio (y) = 0.42989 0.02262
# Poissons Ratio (z) = 0.57247 0.04924
#
# Static dielectric constant tensor:
#      x y z
#    x 1.921890 0.000000 -0.030160 
#    y 0.000000 1.820930 0.000000 
#    z -0.030160 0.000000 1.841900 
# 
# From -- ./inp_files/155410.got.cif
#   From: 2010.05.17/outbox.cif.g08.bks.cpg/sg12_78_cif.got.tgz:155410.got - 2010.06.03 13:09:07.
