data_PCOD9169766
_publ_section_title
;
Structure prediction by ZEFSAII (Michael W. Deem and Ramdas Pophale) SiO2 
 PCOD9169766
Probable space group: C 2/M
;
_chemical_formula_sum "Si O2"
_cell_formula_units_Z 64
_cell_length_a 25.995091
_cell_length_b 7.474985
_cell_length_c 21.669586
_cell_angle_alpha 90.000000
_cell_angle_beta 41.505411
_cell_angle_gamma 90.000000
_cell_volume 2790.379083
_symmetry_space_group_name_H-M "C 2/M"
_symmetry_group_IT_number 12
_symmetry_cell_setting 'monoclinic'
loop_
_space_group_symop_operation_xyz
x,y,z
-x,y,-z
-x,-y,-z
x,-y,z
1/2+x,1/2+y,z
1/2-x,1/2+y,-z
1/2-x,1/2-y,-z
1/2+x,1/2-y,z
loop_
_atom_site_type_symbol
_atom_site_label
_atom_site_fract_x
_atom_site_fract_y
_atom_site_fract_z
Si Si1 0.628514 0.796604 0.069919
Si Si2 0.481600 0.297112 0.125842
Si Si3 0.155089 0.780244 0.830267
Si Si4 0.921870 0.718725 0.421747
Si Si5 0.362552 0.214882 0.340199
Si Si6 0.224785 0.289545 0.381348
Si Si7 0.907906 0.280324 0.759904
Si Si8 0.244007 0.795252 0.867630
O O1 0.557240 0.792796 0.085876
O O2 0.598974 0.724538 0.162058
O O3 0.652414 0.000000 0.059205
O O4 0.701182 0.706054 0.971770
O O5 0.650232 0.500000 0.832226
O O6 0.429680 0.220726 0.116763
O O7 0.420063 0.296646 0.237617
O O8 0.220801 0.719284 0.722284
O O9 0.185477 0.719702 0.869219
O O10 0.994513 0.000000 0.911359
O O11 0.921417 0.500000 0.423913
O O12 0.887952 0.770308 0.385319
O O13 0.860941 0.781971 0.527988
O O14 0.011151 0.776594 0.342887
O O15 0.276309 0.266841 0.396851
O O16 0.370245 0.000000 0.329342
O O17 0.216713 0.500000 0.375918
O O18 0.908663 0.500000 0.759293
O O19 0.829706 0.217110 0.796843
O O20 0.255903 0.000000 0.837517
#
# Coordination Sequence:
#
# PCOD9169766 Si02
#       8
#     8   8   8   8   8   8   8   8
#     4  11  21  35  54  78 106 128 163 213 261 305
#     4  10  19  33  53  77 105 136 167 204 252 305
#     4   8  17  33  51  74 103 133 170 212 244 288
#     4   9  16  28  48  74 103 134 164 206 256 296
#     4  10  17  28  47  73 108 138 164 204 253 298
#     4   9  17  30  49  72 102 137 172 204 244 298
#     4   9  18  33  53  76 103 132 164 211 260 299
#     4  10  20  36  56  73  96 136 177 208 251 303
#
# _framework density 22.935953999999999
#
# number of rings (size 3 to 8) (size 9 to 14) (size 15 to 20)
#    0.000    2.500    1.250    2.625    0.000    0.500 
#    0.000    7.500    0.000    3.750    0.000    0.000 
#    0.000    5.000    0.000    0.000    0.000    0.000 
#
# Total GULP energy -178666.735082 kJ/mol
# GULP energy per Si atom -5583.335471 kJ/mol
# Density = 2.288375 g / cm^3
# Si number density = 22.935954 Si / 1000 Ang^3
#
#
#
# Elastic Constant Matrix: (Units=GPa)
#
#
# Indices 1 2 3 4 5 6 
#
# 1 49.5969 -7.4430 -6.6849 0.0039 4.0326 0.0186
# 2 -7.4430 57.5732 -6.0736 0.0144 7.1989 -0.0180
# 3 -6.6849 -6.0736 58.0935 0.0044 -9.9473 0.0029
# 4 0.0039 0.0144 0.0044 9.2723 -0.0026 2.1689
# 5 4.0326 7.1989 -9.9473 -0.0026 24.1439 -0.0049
# 6 0.0186 -0.0180 0.0029 2.1689 -0.0049 1.3373
#
#
#
# Elastic Compliance Matrix: (Units=1/GPa)
#
#
# Indices 1 2 3 4 5 6 
#
# 1 0.021272 0.003440 0.002177 0.000075 -0.003682 -0.000388
# 2 0.003440 0.018657 0.001394 -0.000120 -0.005563 0.000375
# 3 0.002177 0.001394 0.018803 -0.000006 0.006968 -0.000018
# 4 0.000075 -0.000120 -0.000006 0.173780 -0.000017 -0.281861
# 5 -0.003682 -0.005563 0.006968 -0.000017 0.046563 0.000158
# 6 -0.000388 0.000375 -0.000018 -0.281861 0.000158 1.204968
#
#
# Mechanical properties :
#
#
# Convention : Reuss Voigt Hill
#
# Bulk Modulus (GPa) = 13.74521 13.87339 13.80930
# Shear Modulus (GPa) = 3.34611 19.31504 11.33057
#
# Velocity S-wave (km/s) = 1.20916 2.90509 2.22504
# Velocity P-wave (km/s) = 2.82051 4.16109 3.55457
#
# Compressibility (1/GPa) = 0.07275261
#
# Stress axis : x y z
#
# Youngs Moduli (GPa) = 47.01084 53.60012 53.18320
#
# Poissons Ratio (x) = -0.18438 -0.11578
# Poissons Ratio (y) = -0.16171 -0.07413
# Poissons Ratio (z) = -0.10234 -0.07471
#
# Static dielectric constant tensor:
#      x y z
#    x 1.856620 -0.000010 -0.003650 
#    y -0.000010 1.872680 0.000010 
#    z -0.003650 0.000010 1.845640 
# 
# From -- ./inp_files/324120.got.cif
#   From: 2010.05.17/outbox.cif.g08.bks.cpg/sg12_163_cif.got.tgz:324120.got - 2010.06.03 13:09:07.
