data_PCOD9169953
_publ_section_title
;
Structure prediction by ZEFSAII (Michael W. Deem and Ramdas Pophale) SiO2 
 PCOD9169953
Probable space group: C 2/M
;
_chemical_formula_sum "Si O2"
_cell_formula_units_Z 52
_cell_length_a 18.713538
_cell_length_b 16.265798
_cell_length_c 18.122324
_cell_angle_alpha 90.000000
_cell_angle_beta 21.399700
_cell_angle_gamma 90.000000
_cell_volume 2012.730362
_symmetry_space_group_name_H-M "C 2/M"
_symmetry_group_IT_number 12
_symmetry_cell_setting 'monoclinic'
loop_
_space_group_symop_operation_xyz
x,y,z
-x,y,-z
-x,-y,-z
x,-y,z
1/2+x,1/2+y,z
1/2-x,1/2+y,-z
1/2-x,1/2-y,-z
1/2+x,1/2-y,z
loop_
_atom_site_type_symbol
_atom_site_label
_atom_site_fract_x
_atom_site_fract_y
_atom_site_fract_z
Si Si1 0.717668 0.669545 0.140030
Si Si2 0.799415 0.095500 0.537206
Si Si3 0.412102 0.000000 0.695444
Si Si4 0.819614 0.346392 0.879229
Si Si5 0.732575 0.310703 0.286022
Si Si6 0.282418 0.383539 0.237523
Si Si7 0.381553 0.594463 0.303061
O O1 0.536888 0.606315 0.312774
O O2 0.629089 0.762062 0.212710
O O3 0.816574 0.663701 0.125141
O O4 0.842522 0.658633 0.945678
O O5 0.718057 0.145814 0.684583
O O6 0.768440 0.127665 0.483199
O O7 0.742926 0.000000 0.597822
O O8 0.411237 0.071960 0.759596
O O9 0.352478 0.071354 0.690948
O O10 0.581578 0.356254 0.096760
O O11 0.500000 0.325576 0.500000
O O12 0.762021 0.213564 0.261216
O O13 0.264577 0.412402 0.339103
O O14 0.500000 0.403905 0.000000
O O15 0.438334 0.500000 0.266037
#
# Coordination Sequence:
#
# PCOD9169953 Si02
#       7
#     8   8   4   8   8   8   8
#     4   9  18  30  49  72 107 137 170 222 261 307
#     4   9  20  35  54  73 100 142 184 227 262 314
#     4  12  19  30  53  84 108 142 169 222 265 328
#     4  10  17  29  48  78 109 137 167 219 271 310
#     4  10  21  37  52  77 113 141 179 219 268 315
#     4  12  20  32  57  84 109 138 177 221 264 322
#     4  10  17  30  51  80 105 135 182 222 262 313
#
# _framework density 25.835552
#
# number of rings (size 3 to 8) (size 9 to 14) (size 15 to 20)
#    0.000    1.846    4.615    0.231    1.077    3.385 
#    0.000    0.385    0.000    0.462    0.000    1.077 
#    0.000    0.000    0.000    0.000    0.000    0.000 
#
# Total GULP energy -145093.275729 kJ/mol
# GULP energy per Si atom -5580.510605 kJ/mol
# Density = 2.577675 g / cm^3
# Si number density = 25.835552 Si / 1000 Ang^3
#
#
#
# Elastic Constant Matrix: (Units=GPa)
#
#
# Indices 1 2 3 4 5 6 
#
# 1 172.9383 40.9391 33.9694 -0.0980 51.2365 -0.0078
# 2 40.9391 106.2446 25.3391 -0.2729 27.0187 0.0384
# 3 33.9694 25.3391 115.4639 -0.2661 24.7821 0.0367
# 4 -0.0980 -0.2729 -0.2661 311.5947 -0.0545 -1.5158
# 5 51.2365 27.0187 24.7821 -0.0545 54.0697 0.0117
# 6 -0.0078 0.0384 0.0367 -1.5158 0.0117 42.9635
#
#
#
# Elastic Compliance Matrix: (Units=1/GPa)
#
#
# Indices 1 2 3 4 5 6 
#
# 1 0.008253 -0.001271 -0.000673 0.000000 -0.006877 0.000005
# 2 -0.001271 0.011169 -0.001262 0.000008 -0.003799 -0.000008
# 3 -0.000673 -0.001262 0.009831 0.000006 -0.003237 -0.000006
# 4 0.000000 0.000008 0.000006 0.003210 -0.000003 0.000113
# 5 -0.006877 -0.003799 -0.003237 -0.000003 0.028393 -0.000003
# 6 0.000005 -0.000008 -0.000006 0.000113 -0.000003 0.023280
#
#
# Mechanical properties :
#
#
# Convention : Reuss Voigt Hill
#
# Bulk Modulus (GPa) = 43.78130 66.12689 54.95410
# Shear Modulus (GPa) = 50.93731 101.35220 76.14475
#
# Velocity S-wave (km/s) = 4.44508 6.27016 5.43478
# Velocity P-wave (km/s) = 6.58240 8.83577 7.79098
#
# Compressibility (1/GPa) = 0.02284080
#
# Stress axis : x y z
#
# Youngs Moduli (GPa) = 121.16991 89.53458 101.72416
#
# Poissons Ratio (x) = 0.11377 0.06847
# Poissons Ratio (y) = 0.15397 0.12837
# Poissons Ratio (z) = 0.08156 0.11299
#
# Static dielectric constant tensor:
#      x y z
#    x 2.129950 -0.000010 -0.057100 
#    y -0.000010 1.944140 0.000100 
#    z -0.057100 0.000100 2.184910 
# 
# From -- ./inp_files/87408.got.cif
#   From: 2010.05.17/outbox.cif.g08.bks.cpg/sg12_44_cif.got.tgz:87408.got - 2010.06.03 13:09:07.
