data_PCOD9169511
_publ_section_title
;
Structure prediction by ZEFSAII (Michael W. Deem and Ramdas Pophale) SiO2 
 PCOD9169511
Probable space group: C 2/M
;
_chemical_formula_sum "Si O2"
_cell_formula_units_Z 64
_cell_length_a 17.688807
_cell_length_b 24.388802
_cell_length_c 15.606931
_cell_angle_alpha 90.000000
_cell_angle_beta 146.675555
_cell_angle_gamma 90.000000
_cell_volume 3698.953417
_symmetry_space_group_name_H-M "C 2/M"
_symmetry_group_IT_number 12
_symmetry_cell_setting 'monoclinic'
loop_
_space_group_symop_operation_xyz
x,y,z
-x,y,-z
-x,-y,-z
x,-y,z
1/2+x,1/2+y,z
1/2-x,1/2+y,-z
1/2-x,1/2-y,-z
1/2+x,1/2-y,z
loop_
_atom_site_type_symbol
_atom_site_label
_atom_site_fract_x
_atom_site_fract_y
_atom_site_fract_z
Si Si1 0.893175 0.438440 0.605697
Si Si2 0.088089 0.731174 0.918909
Si Si3 0.420099 0.680714 0.838449
Si Si4 0.837156 0.329469 0.645862
Si Si5 0.615018 0.897069 0.683423
Si Si6 0.345157 0.220977 0.217137
Si Si7 0.349248 0.238238 0.477081
Si Si8 0.828580 0.059731 0.757654
O O1 0.907557 0.500000 0.653480
O O2 0.847770 0.392538 0.630538
O O3 0.776357 0.439050 0.421664
O O4 0.031658 0.421183 0.685259
O O5 0.135617 0.717828 0.867766
O O6 0.006031 0.789305 0.844776
O O7 0.970051 0.687498 0.827366
O O8 0.218009 0.737637 0.104022
O O9 0.264899 0.705059 0.685787
O O10 0.416185 0.615014 0.831156
O O11 0.500000 0.696834 0.000000
O O12 0.706154 0.299928 0.563672
O O13 0.847263 0.296142 0.564767
O O14 0.500000 0.887725 0.500000
O O15 0.681981 0.839998 0.775397
O O16 0.732521 0.933442 0.750814
O O17 0.490889 0.237993 0.395016
O O18 0.897673 0.000000 0.823625
#
# Coordination Sequence:
#
# PCOD9169511 Si02
#       8
#     8   8   8   8   8   8   8   8
#     4  10  17  27  44  65  90 124 166 202 231 270
#     4   9  19  29  46  69  89 112 154 200 252 286
#     4  11  20  32  45  65  93 127 160 200 237 282
#     4   9  15  29  46  67  88 114 151 200 243 288
#     4  10  17  28  43  65  94 126 164 203 232 267
#     4  10  17  30  47  68  85 115 153 202 242 290
#     4   9  16  28  48  64  87 113 153 193 245 290
#     4  10  20  30  42  62  93 134 175 200 224 267
#
# _framework density 17.302191000000001
#
# number of rings (size 3 to 8) (size 9 to 14) (size 15 to 20)
#    0.000    2.250    3.750    2.625    0.000    1.750 
#    0.000    0.000    0.000    0.000    0.000    0.875 
#    0.000    8.000    0.000    0.000    0.000   30.875 
#
# Total GULP energy -178240.555331 kJ/mol
# GULP energy per Si atom -5570.017354 kJ/mol
# Density = 1.726281 g / cm^3
# Si number density = 17.302191 Si / 1000 Ang^3
#
#
#
# Elastic Constant Matrix: (Units=GPa)
#
#
# Indices 1 2 3 4 5 6 
#
# 1 20.0085 30.6202 4.7982 0.0000 1.0635 0.0000
# 2 30.6202 130.4825 24.4555 0.0000 0.0138 0.0000
# 3 4.7982 24.4555 89.5337 0.0000 10.4916 0.0000
# 4 0.0000 0.0000 0.0000 17.6527 0.0000 -0.1427
# 5 1.0635 0.0138 10.4916 0.0000 14.0802 0.0000
# 6 0.0000 0.0000 0.0000 -0.1427 0.0000 23.1205
#
#
#
# Elastic Compliance Matrix: (Units=1/GPa)
#
#
# Indices 1 2 3 4 5 6 
#
# 1 0.078714 -0.018802 0.001766 0.000000 -0.007243 0.000000
# 2 -0.018802 0.012610 -0.002851 0.000000 0.003532 0.000000
# 3 0.001766 -0.002851 0.013004 0.000000 -0.009820 0.000000
# 4 0.000000 0.000000 0.000000 0.056651 0.000000 0.000350
# 5 -0.007243 0.003532 -0.009820 0.000000 0.078882 0.000000
# 6 0.000000 0.000000 0.000000 0.000350 0.000000 0.043254
#
#
# Mechanical properties :
#
#
# Convention : Reuss Voigt Hill
#
# Bulk Modulus (GPa) = 15.49083 39.97473 27.73278
# Shear Modulus (GPa) = 14.51775 22.98073 18.74924
#
# Velocity S-wave (km/s) = 2.89981 3.64840 3.29543
# Velocity P-wave (km/s) = 4.49271 6.39545 5.52658
#
# Compressibility (1/GPa) = 0.06455434
#
# Stress axis : x y z
#
# Youngs Moduli (GPa) = 12.70427 79.30233 76.90142
#
# Poissons Ratio (x) = 1.49103 -0.13580
# Poissons Ratio (y) = 0.23886 0.21921
# Poissons Ratio (z) = -0.02244 0.22606
#
# Static dielectric constant tensor:
#      x y z
#    x 1.641070 0.000000 0.022220 
#    y 0.000000 1.591710 0.000000 
#    z 0.022220 0.000000 1.641760 
# 
# From -- ./inp_files/286221.got.cif
#   From: 2010.05.17/outbox.cif.g08.bks.cpg/sg12_144_cif.got.tgz:286221.got - 2010.06.03 13:09:07.
