data_PCOD9169969
_publ_section_title
;
Structure prediction by ZEFSAII (Michael W. Deem and Ramdas Pophale) SiO2 
 PCOD9169969
Probable space group: C 2/M
;
_chemical_formula_sum "Si O2"
_cell_formula_units_Z 40
_cell_length_a 22.179256
_cell_length_b 15.674036
_cell_length_c 18.625066
_cell_angle_alpha 90.000000
_cell_angle_beta 160.696138
_cell_angle_gamma 90.000000
_cell_volume 2140.422921
_symmetry_space_group_name_H-M "C 2/M"
_symmetry_group_IT_number 12
_symmetry_cell_setting 'monoclinic'
loop_
_space_group_symop_operation_xyz
x,y,z
-x,y,-z
-x,-y,-z
x,-y,z
1/2+x,1/2+y,z
1/2-x,1/2+y,-z
1/2-x,1/2-y,-z
1/2+x,1/2-y,z
loop_
_atom_site_type_symbol
_atom_site_label
_atom_site_fract_x
_atom_site_fract_y
_atom_site_fract_z
Si Si1 0.232802 0.766863 0.153941
Si Si2 0.110374 0.722175 0.512828
Si Si3 0.348369 0.324706 0.656837
Si Si4 0.324199 0.594434 0.487162
Si Si5 0.920844 0.595387 0.989792
O O1 0.281387 0.788873 0.290775
O O2 0.399366 0.795961 0.291631
O O3 0.219787 0.664029 0.140470
O O4 0.037093 0.797621 0.906397
O O5 0.203758 0.662779 0.558112
O O6 0.123629 0.821519 0.500451
O O7 0.250000 0.250000 0.500000
O O8 0.389176 0.394116 0.641941
O O9 0.375585 0.500000 0.516359
O O10 0.103545 0.595737 0.242300
O O11 0.846934 0.500000 0.901731
O O12 0.000000 0.619319 0.000000
#
# Coordination Sequence:
#
# PCOD9169969 Si02
#       5
#     8   8   8   8   8
#     4  11  19  33  53  79 102 133 172 209 255 295
#     4  10  21  32  55  78 100 133 173 213 248 299
#     4  10  19  34  52  73 104 137 168 209 251 298
#     4  10  20  34  51  75 106 137 166 203 254 306
#     4  10  17  29  49  72 107 142 166 199 245 300
#
# _framework density 18.687895000000001
#
# number of rings (size 3 to 8) (size 9 to 14) (size 15 to 20)
#    0.000    1.800    6.000    0.600    0.000    4.000 
#    0.000    2.000    0.000    2.400    0.000    2.800 
#    0.000    0.000    0.000    0.000    0.000    0.000 
#
# Total GULP energy -111363.714252 kJ/mol
# GULP energy per Si atom -5568.185713 kJ/mol
# Density = 1.864536 g / cm^3
# Si number density = 18.687895 Si / 1000 Ang^3
#
#
#
# Elastic Constant Matrix: (Units=GPa)
#
#
# Indices 1 2 3 4 5 6 
#
# 1 88.8403 0.7266 48.9156 -0.0004 -4.8565 -0.0004
# 2 0.7266 15.1811 -0.4001 0.0008 -8.8023 0.0000
# 3 48.9156 -0.4001 75.1455 0.0048 -1.1663 0.0001
# 4 -0.0004 0.0008 0.0048 11.8445 0.0010 -0.9172
# 5 -4.8565 -8.8023 -1.1663 0.0010 16.7262 -0.0001
# 6 -0.0004 0.0000 0.0001 -0.9172 -0.0001 18.9710
#
#
#
# Elastic Compliance Matrix: (Units=1/GPa)
#
#
# Indices 1 2 3 4 5 6 
#
# 1 0.017901 0.001993 -0.011557 0.000005 0.005441 0.000001
# 2 0.001993 0.095142 -0.000005 -0.000011 0.050648 0.000000
# 3 -0.011557 -0.000005 0.020801 -0.000009 -0.001908 -0.000001
# 4 0.000005 -0.000011 -0.000009 0.084744 -0.000010 0.004097
# 5 0.005441 0.050648 -0.001908 -0.000010 0.087887 0.000000
# 6 0.000001 0.000000 -0.000001 0.004097 0.000000 0.052910
#
#
# Mechanical properties :
#
#
# Convention : Reuss Voigt Hill
#
# Bulk Modulus (GPa) = 8.71793 30.85012 19.78402
# Shear Modulus (GPa) = 11.99735 18.17001 15.08368
#
# Velocity S-wave (km/s) = 2.53649 3.12154 2.84410
# Velocity P-wave (km/s) = 3.64054 5.43469 4.62544
#
# Compressibility (1/GPa) = 0.11470618
#
# Stress axis : x y z
#
# Youngs Moduli (GPa) = 55.86355 10.51058 48.07439
#
# Poissons Ratio (x) = -0.02095 0.55561
# Poissons Ratio (y) = -0.11134 0.00023
# Poissons Ratio (z) = 0.64564 0.00005
#
# Static dielectric constant tensor:
#      x y z
#    x 1.696340 0.000000 -0.025490 
#    y 0.000000 1.690890 0.000000 
#    z -0.025490 0.000000 1.654340 
# 
# From -- ./inp_files/60236.got.cif
#   From: 2010.05.17/outbox.cif.g08.bks.cpg/sg12_31_cif.got.tgz:60236.got - 2010.06.03 13:09:07.
