data_PCOD9169439
_publ_section_title
;
Structure prediction by ZEFSAII (Michael W. Deem and Ramdas Pophale) SiO2 
 PCOD9169439
Probable space group: C 2/M
;
_chemical_formula_sum "Si O2"
_cell_formula_units_Z 40
_cell_length_a 19.796688
_cell_length_b 22.836937
_cell_length_c 9.146395
_cell_angle_alpha 90.000000
_cell_angle_beta 29.307807
_cell_angle_gamma 90.000000
_cell_volume 2024.110284
_symmetry_space_group_name_H-M "C 2/M"
_symmetry_group_IT_number 12
_symmetry_cell_setting 'monoclinic'
loop_
_space_group_symop_operation_xyz
x,y,z
-x,y,-z
-x,-y,-z
x,-y,z
1/2+x,1/2+y,z
1/2-x,1/2+y,-z
1/2-x,1/2-y,-z
1/2+x,1/2-y,z
loop_
_atom_site_type_symbol
_atom_site_label
_atom_site_fract_x
_atom_site_fract_y
_atom_site_fract_z
Si Si1 0.234654 0.821334 0.839864
Si Si2 0.982872 0.246818 0.318433
Si Si3 0.908900 0.434289 0.526456
Si Si4 0.909208 0.639237 0.028947
Si Si5 0.358927 0.338544 0.312917
O O1 0.359222 0.776824 0.640795
O O2 0.288664 0.886238 0.770338
O O3 0.211742 0.819742 0.706150
O O4 0.089223 0.801029 0.179500
O O5 0.912415 0.215496 0.310762
O O6 0.078253 0.301531 0.089314
O O7 0.859023 0.500000 0.590823
O O8 0.000000 0.434334 0.500000
O O9 0.012701 0.411533 0.205144
O O10 0.754154 0.628713 0.375753
O O11 0.000000 0.651028 0.000000
O O12 0.500000 0.371127 0.000000
#
# Coordination Sequence:
#
# PCOD9169439 Si02
#       5
#     8   8   8   8   8
#     4  10  18  30  52  85 110 145 177 216 267 329
#     4  10  17  26  53  86 123 142 167 213 276 334
#     4  10  23  41  58  74 103 148 193 231 269 320
#     4  11  18  32  55  88 109 140 183 224 268 318
#     4  10  18  26  49  87 122 145 167 211 276 328
#
# _framework density 19.761769000000001
#
# number of rings (size 3 to 8) (size 9 to 14) (size 15 to 20)
#    0.000    1.800    6.000    2.400    0.000    0.400 
#    0.000    4.000    0.000   14.400    0.000   11.200 
#    0.000    0.000    0.000    0.000    0.000    0.000 
#
# Total GULP energy -111534.382036 kJ/mol
# GULP energy per Si atom -5576.719102 kJ/mol
# Density = 1.971679 g / cm^3
# Si number density = 19.761769 Si / 1000 Ang^3
#
#
#
# Elastic Constant Matrix: (Units=GPa)
#
#
# Indices 1 2 3 4 5 6 
#
# 1 33.3399 38.3040 32.6366 0.0001 -13.9898 0.0000
# 2 38.3040 122.0582 28.4230 0.0003 -20.2531 -0.0002
# 3 32.6366 28.4230 77.7011 0.0004 -26.1669 -0.0001
# 4 0.0001 0.0003 0.0004 12.5673 -0.0002 -0.9740
# 5 -13.9898 -20.2531 -26.1669 -0.0002 28.6190 0.0000
# 6 0.0000 -0.0002 -0.0001 -0.9740 0.0000 28.1150
#
#
#
# Elastic Compliance Matrix: (Units=1/GPa)
#
#
# Indices 1 2 3 4 5 6 
#
# 1 0.074660 -0.017448 -0.024339 0.000000 0.001895 0.000000
# 2 -0.017448 0.013520 0.003948 0.000000 0.004649 0.000000
# 3 -0.024339 0.003948 0.026850 0.000000 0.015446 0.000000
# 4 0.000000 0.000000 0.000000 0.079786 0.000000 0.002764
# 5 0.001895 0.004649 0.015446 0.000000 0.053282 0.000000
# 6 0.000000 0.000000 0.000000 0.002764 0.000000 0.035664
#
#
# Mechanical properties :
#
#
# Convention : Reuss Voigt Hill
#
# Bulk Modulus (GPa) = 25.40975 47.98072 36.69523
# Shear Modulus (GPa) = 13.42081 22.77597 18.09839
#
# Velocity S-wave (km/s) = 2.60884 3.39857 3.02955
# Velocity P-wave (km/s) = 4.68622 6.30338 5.55398
#
# Compressibility (1/GPa) = 0.03935497
#
# Stress axis : x y z
#
# Youngs Moduli (GPa) = 13.39402 73.96368 37.24361
#
# Poissons Ratio (x) = 1.29048 0.90646
# Poissons Ratio (y) = 0.23369 -0.14706
# Poissons Ratio (z) = 0.32599 -0.29205
#
# Static dielectric constant tensor:
#      x y z
#    x 1.740340 0.000000 0.006250 
#    y 0.000000 1.675810 0.000000 
#    z 0.006250 0.000000 1.755160 
# 
# From -- ./inp_files/90559.got.cif
#   From: 2010.05.17/outbox.cif.g08.bks.cpg/sg12_46_cif.got.tgz:90559.got - 2010.06.03 13:09:07.
