data_PCOD9169980
_publ_section_title
;
Structure prediction by ZEFSAII (Michael W. Deem and Ramdas Pophale) SiO2 
 PCOD9169980
Probable space group: C 2/M
;
_chemical_formula_sum "Si O2"
_cell_formula_units_Z 40
_cell_length_a 13.384970
_cell_length_b 24.383813
_cell_length_c 7.657822
_cell_angle_alpha 90.000000
_cell_angle_beta 138.574627
_cell_angle_gamma 90.000000
_cell_volume 1653.669266
_symmetry_space_group_name_H-M "C 2/M"
_symmetry_group_IT_number 12
_symmetry_cell_setting 'monoclinic'
loop_
_space_group_symop_operation_xyz
x,y,z
-x,y,-z
-x,-y,-z
x,-y,z
1/2+x,1/2+y,z
1/2-x,1/2+y,-z
1/2-x,1/2-y,-z
1/2+x,1/2-y,z
loop_
_atom_site_type_symbol
_atom_site_label
_atom_site_fract_x
_atom_site_fract_y
_atom_site_fract_z
Si Si1 0.084441 0.674527 0.293510
Si Si2 0.824620 0.564846 0.422619
Si Si3 0.062749 0.790541 0.278601
Si Si4 0.724041 0.559674 0.904537
Si Si5 0.586228 0.404587 0.392166
O O1 0.077281 0.615599 0.374932
O O2 0.028041 0.730953 0.312520
O O3 0.259961 0.692301 0.493821
O O4 0.000000 0.670614 0.000000
O O5 0.863584 0.500000 0.501383
O O6 0.667995 0.576869 0.322213
O O7 0.807592 0.573681 0.193429
O O8 0.000512 0.845908 0.279625
O O9 0.000000 0.788473 0.000000
O O10 0.779696 0.500000 0.919816
O O11 0.550578 0.556225 0.741160
O O12 0.710659 0.594554 0.710195
#
# Coordination Sequence:
#
# PCOD9169980 Si02
#       5
#     8   8   8   8   8
#     4   9  18  32  51  76 103 133 171 212 254 300
#     4  10  19  31  49  71  99 137 175 208 249 301
#     4   9  17  31  53  77 101 132 169 211 257 302
#     4  10  19  29  46  77 110 134 165 211 255 300
#     4  10  17  29  49  75 104 136 169 206 257 307
#
# _framework density 24.188635000000001
#
# number of rings (size 3 to 8) (size 9 to 14) (size 15 to 20)
#    0.000    2.400    0.000    5.400    0.000    2.000 
#    0.000    1.000    0.000    9.600    0.000   12.600 
#    0.000    0.000    0.000    0.000    0.000    0.000 
#
# Total GULP energy -111430.170156 kJ/mol
# GULP energy per Si atom -5571.508508 kJ/mol
# Density = 2.413358 g / cm^3
# Si number density = 24.188635 Si / 1000 Ang^3
#
#
#
# Elastic Constant Matrix: (Units=GPa)
#
#
# Indices 1 2 3 4 5 6 
#
# 1 59.5518 13.0118 10.2770 0.0000 0.6927 0.0000
# 2 13.0118 254.4933 83.0907 0.0000 -23.5817 0.0000
# 3 10.2770 83.0907 152.8078 0.0000 -15.0598 0.0000
# 4 0.0000 0.0000 0.0000 34.7787 0.0000 -11.6606
# 5 0.6927 -23.5817 -15.0598 0.0000 31.7073 0.0000
# 6 0.0000 0.0000 0.0000 -11.6606 0.0000 6.1249
#
#
#
# Elastic Compliance Matrix: (Units=1/GPa)
#
#
# Indices 1 2 3 4 5 6 
#
# 1 0.017117 -0.000704 -0.000899 0.000000 -0.001325 0.000000
# 2 -0.000704 0.004992 -0.002413 0.000000 0.002582 0.000000
# 3 -0.000899 -0.002413 0.008122 0.000000 0.002083 0.000000
# 4 0.000000 0.000000 0.000000 0.079496 0.000000 0.151344
# 5 -0.001325 0.002582 0.002083 0.000000 0.034477 0.000000
# 6 0.000000 0.000000 0.000000 0.151344 0.000000 0.451395
#
#
# Mechanical properties :
#
#
# Convention : Reuss Voigt Hill
#
# Bulk Modulus (GPa) = 45.04715 75.51242 60.27978
# Shear Modulus (GPa) = 8.18289 38.55375 23.36832
#
# Velocity S-wave (km/s) = 1.84127 3.99667 3.11157
# Velocity P-wave (km/s) = 4.81499 7.25147 6.15499
#
# Compressibility (1/GPa) = 0.02219896
#
# Stress axis : x y z
#
# Youngs Moduli (GPa) = 58.42304 200.30223 123.12456
#
# Poissons Ratio (x) = 0.14111 0.11065
# Poissons Ratio (y) = 0.04116 0.29708
# Poissons Ratio (z) = 0.05250 0.48329
#
# Static dielectric constant tensor:
#      x y z
#    x 1.934150 0.000000 0.039800 
#    y 0.000000 2.130950 0.000000 
#    z 0.039800 0.000000 1.980630 
# 
# From -- ./inp_files/90748.got.cif
#   From: 2010.05.17/outbox.cif.g08.bks.cpg/sg12_46_cif.got.tgz:90748.got - 2010.06.03 13:09:07.
