data_PCOD9169645
_publ_section_title
;
Structure prediction by ZEFSAII (Michael W. Deem and Ramdas Pophale) SiO2 
 PCOD9169645
Probable space group: C 2/M
;
_chemical_formula_sum "Si O2"
_cell_formula_units_Z 44
_cell_length_a 19.029505
_cell_length_b 22.047751
_cell_length_c 11.907169
_cell_angle_alpha 90.000000
_cell_angle_beta 146.590034
_cell_angle_gamma 90.000000
_cell_volume 2750.787078
_symmetry_space_group_name_H-M "C 2/M"
_symmetry_group_IT_number 12
_symmetry_cell_setting 'monoclinic'
loop_
_space_group_symop_operation_xyz
x,y,z
-x,y,-z
-x,-y,-z
x,-y,z
1/2+x,1/2+y,z
1/2-x,1/2+y,-z
1/2-x,1/2-y,-z
1/2+x,1/2-y,z
loop_
_atom_site_type_symbol
_atom_site_label
_atom_site_fract_x
_atom_site_fract_y
_atom_site_fract_z
Si Si1 0.049566 0.738065 0.188783
Si Si2 0.241941 0.344926 0.564620
Si Si3 0.890987 0.170223 0.123250
Si Si4 0.542141 0.570917 0.186252
Si Si5 0.000000 0.209773 0.500000
Si Si6 0.359006 0.172123 0.331416
O O1 0.117202 0.681145 0.337428
O O2 0.154362 0.790916 0.308042
O O3 0.944474 0.770434 0.127713
O O4 0.000000 0.721605 0.000000
O O5 0.314270 0.403002 0.612116
O O6 0.208430 0.354702 0.649752
O O7 0.953099 0.112216 0.145480
O O8 0.940794 0.174466 0.316687
O O9 0.738942 0.168631 0.902211
O O10 0.533279 0.500000 0.199636
O O11 0.500000 0.580497 0.000000
O O12 0.108373 0.256911 0.600828
O O13 0.500000 0.145218 0.500000
#
# Coordination Sequence:
#
# PCOD9169645 Si02
#       6
#     8   8   8   8   4   8
#     4  10  17  27  51  75 101 131 159 208 260 299
#     4  10  17  30  48  77 104 123 167 208 255 299
#     4  11  18  34  48  75 106 133 171 201 247 309
#     4  10  20  34  57  75  91 126 172 225 255 277
#     4  10  22  28  47  76 109 142 154 190 258 310
#     4  10  19  30  45  74 110 138 158 194 249 308
#
# _framework density 15.995421
#
# number of rings (size 3 to 8) (size 9 to 14) (size 15 to 20)
#    0.545    1.273    5.455    1.636    0.000    0.000 
#    0.000    0.455    0.000    2.727    0.000    0.000 
#    0.000    0.000    0.000    0.000    0.000    0.000 
#
# Total GULP energy -122541.292745 kJ/mol
# GULP energy per Si atom -5570.058761 kJ/mol
# Density = 1.595901 g / cm^3
# Si number density = 15.995421 Si / 1000 Ang^3
#
#
#
# Elastic Constant Matrix: (Units=GPa)
#
#
# Indices 1 2 3 4 5 6 
#
# 1 44.6432 5.0356 32.0227 0.0000 5.6424 0.0000
# 2 5.0356 60.3473 29.5822 0.0000 2.9805 0.0000
# 3 32.0227 29.5822 116.2851 0.0000 -7.4742 0.0000
# 4 0.0000 0.0000 0.0000 10.9664 0.0000 -4.0879
# 5 5.6424 2.9805 -7.4742 0.0000 30.6416 0.0000
# 6 0.0000 0.0000 0.0000 -4.0879 0.0000 9.5611
#
#
#
# Elastic Compliance Matrix: (Units=1/GPa)
#
#
# Indices 1 2 3 4 5 6 
#
# 1 0.029856 0.002500 -0.009374 0.000000 -0.008028 0.000000
# 2 0.002500 0.019428 -0.005874 0.000000 -0.003783 0.000000
# 3 -0.009374 -0.005874 0.013027 0.000000 0.005475 0.000000
# 4 0.000000 0.000000 0.000000 0.108476 0.000000 0.046379
# 5 -0.008028 -0.003783 0.005475 0.000000 0.035817 0.000000
# 6 0.000000 0.000000 0.000000 0.046379 0.000000 0.124421
#
#
# Mechanical properties :
#
#
# Convention : Reuss Voigt Hill
#
# Bulk Modulus (GPa) = 27.16183 39.39519 33.27851
# Shear Modulus (GPa) = 13.55774 20.54282 17.05028
#
# Velocity S-wave (km/s) = 2.91452 3.58759 3.26843
# Velocity P-wave (km/s) = 5.32388 6.46866 5.92399
#
# Compressibility (1/GPa) = 0.03681637
#
# Stress axis : x y z
#
# Youngs Moduli (GPa) = 33.49378 51.47089 76.76243
#
# Poissons Ratio (x) = -0.12869 0.71956
# Poissons Ratio (y) = -0.08374 0.45091
# Poissons Ratio (z) = 0.31397 0.30235
#
# Static dielectric constant tensor:
#      x y z
#    x 1.548460 0.000000 0.011040 
#    y 0.000000 1.509350 0.000000 
#    z 0.011040 0.000000 1.567780 
# 
# From -- ./inp_files/170081.got.cif
#   From: 2010.05.17/outbox.cif.g08.bks.cpg/sg12_86_cif.got.tgz:170081.got - 2010.06.03 13:09:07.
