data_PCOD9169147
_publ_section_title
;
Structure prediction by ZEFSAII (Michael W. Deem and Ramdas Pophale) SiO2 
 PCOD9169147
Probable space group: C 2/M
;
_chemical_formula_sum "Si O2"
_cell_formula_units_Z 48
_cell_length_a 15.846884
_cell_length_b 7.655217
_cell_length_c 14.644126
_cell_angle_alpha 90.000000
_cell_angle_beta 83.230811
_cell_angle_gamma 90.000000
_cell_volume 1764.114581
_symmetry_space_group_name_H-M "C 2/M"
_symmetry_group_IT_number 12
_symmetry_cell_setting 'monoclinic'
loop_
_space_group_symop_operation_xyz
x,y,z
-x,y,-z
-x,-y,-z
x,-y,z
1/2+x,1/2+y,z
1/2-x,1/2+y,-z
1/2-x,1/2-y,-z
1/2+x,1/2-y,z
loop_
_atom_site_type_symbol
_atom_site_label
_atom_site_fract_x
_atom_site_fract_y
_atom_site_fract_z
Si Si1 0.054537 0.794187 0.779218
Si Si2 0.203802 0.295647 0.902897
Si Si3 0.669239 0.204354 0.608949
Si Si4 0.586681 0.210788 0.443971
Si Si5 0.809386 0.791097 0.730519
Si Si6 0.924905 0.289631 0.939555
O O1 0.124199 0.715862 0.841165
O O2 0.081526 0.716982 0.678327
O O3 0.962214 0.764891 0.836837
O O4 0.067462 0.000000 0.772444
O O5 0.217765 0.500000 0.917261
O O6 0.280974 0.216928 0.832606
O O7 0.161826 0.221351 0.001360
O O8 0.655710 0.276744 0.509616
O O9 0.739759 0.282497 0.666961
O O10 0.688540 0.000000 0.597815
O O11 0.500000 0.273494 0.500000
O O12 0.606224 0.264729 0.338723
O O13 0.586587 0.000000 0.445795
O O14 0.798918 0.000000 0.741475
O O15 0.922419 0.500000 0.940837
O O16 0.000000 0.232618 0.000000
#
# Coordination Sequence:
#
# PCOD9169147 Si02
#       6
#     8   8   8   8   8   8
#     4  10  17  23  37  64  93 118 150 190 228 264
#     4   8  15  27  41  60  89 124 156 182 218 272
#     4   9  18  33  49  65  91 125 157 187 224 276
#     4  10  21  35  50  69  92 119 152 190 233 279
#     4   9  17  30  49  71  93 120 154 189 225 267
#     4   8  13  23  38  56  86 125 154 178 217 270
#
# _framework density 27.209118
#
# number of rings (size 3 to 8) (size 9 to 14) (size 15 to 20)
#    0.000    3.000    0.000    4.000    0.000    6.667 
#    0.000    0.000    0.000    0.000    0.000    1.167 
#    0.000    0.000    0.000    0.000    0.000    0.000 
#
# Total GULP energy -134172.488521 kJ/mol
# GULP energy per Si atom -5590.520355 kJ/mol
# Density = 2.714719 g / cm^3
# Si number density = 27.209118 Si / 1000 Ang^3
#
#
#
# Elastic Constant Matrix: (Units=GPa)
#
#
# Indices 1 2 3 4 5 6 
#
# 1 79.3385 8.8026 53.2810 0.0000 -27.5114 0.0000
# 2 8.8026 94.4436 0.2851 0.0000 -1.5873 0.0000
# 3 53.2810 0.2851 279.5834 0.0000 -16.6946 0.0000
# 4 0.0000 0.0000 0.0000 46.3526 0.0000 -20.9577
# 5 -27.5114 -1.5873 -16.6946 0.0000 64.9374 0.0000
# 6 0.0000 0.0000 0.0000 -20.9577 0.0000 23.7150
#
#
#
# Elastic Compliance Matrix: (Units=1/GPa)
#
#
# Indices 1 2 3 4 5 6 
#
# 1 0.016885 -0.001458 -0.002835 0.000000 0.006389 0.000000
# 2 -0.001458 0.010719 0.000249 0.000000 -0.000291 0.000000
# 3 -0.002835 0.000249 0.004108 0.000000 -0.000139 0.000000
# 4 0.000000 0.000000 0.000000 0.035930 0.000000 0.031753
# 5 0.006389 -0.000291 -0.000139 0.000000 0.018064 0.000000
# 6 0.000000 0.000000 0.000000 0.031753 0.000000 0.070228
#
#
# Mechanical properties :
#
#
# Convention : Reuss Voigt Hill
#
# Bulk Modulus (GPa) = 42.32655 64.23366 53.28011
# Shear Modulus (GPa) = 29.08734 53.06746 41.07740
#
# Velocity S-wave (km/s) = 3.27315 4.42107 3.88969
# Velocity P-wave (km/s) = 5.46575 7.05123 6.30850
#
# Compressibility (1/GPa) = 0.02362583
#
# Stress axis : x y z
#
# Youngs Moduli (GPa) = 59.22317 93.29618 243.39991
#
# Poissons Ratio (x) = 0.13601 0.69001
# Poissons Ratio (y) = 0.08634 -0.06073
# Poissons Ratio (z) = 0.16789 -0.02328
#
# Static dielectric constant tensor:
#      x y z
#    x 2.301990 0.000000 -0.032600 
#    y 0.000000 1.957000 0.000000 
#    z -0.032600 0.000000 2.155330 
# 
# From -- ./inp_files/230399.got.cif
#   From: 2010.05.17/outbox.cif.g08.bks.cpg/sg12_116_cif.got.tgz:230399.got - 2010.06.03 13:09:07.
