data_PCOD9169291
_publ_section_title
;
Structure prediction by ZEFSAII (Michael W. Deem and Ramdas Pophale) SiO2 
 PCOD9169291
Probable space group: C 2/M
;
_chemical_formula_sum "Si O2"
_cell_formula_units_Z 64
_cell_length_a 23.109515
_cell_length_b 9.176934
_cell_length_c 15.823731
_cell_angle_alpha 90.000000
_cell_angle_beta 115.213927
_cell_angle_gamma 90.000000
_cell_volume 3036.080040
_symmetry_space_group_name_H-M "C 2/M"
_symmetry_group_IT_number 12
_symmetry_cell_setting 'monoclinic'
loop_
_space_group_symop_operation_xyz
x,y,z
-x,y,-z
-x,-y,-z
x,-y,z
1/2+x,1/2+y,z
1/2-x,1/2+y,-z
1/2-x,1/2-y,-z
1/2+x,1/2-y,z
loop_
_atom_site_type_symbol
_atom_site_label
_atom_site_fract_x
_atom_site_fract_y
_atom_site_fract_z
Si Si1 0.528828 0.167998 0.663324
Si Si2 0.970068 0.826417 0.071254
Si Si3 0.708280 0.163060 0.541719
Si Si4 0.679225 0.338492 0.253650
Si Si5 0.780684 0.676484 0.194869
Si Si6 0.127923 0.667982 0.885943
Si Si7 0.623876 0.673012 0.612797
Si Si8 0.934679 0.673174 0.740187
O O1 0.578219 0.174914 0.774553
O O2 0.556922 0.268376 0.607705
O O3 0.460768 0.206816 0.662531
O O4 0.528366 0.000000 0.634472
O O5 0.019260 0.760445 0.168795
O O6 0.901791 0.762955 0.057882
O O7 0.967512 0.000000 0.073699
O O8 0.000000 0.783414 0.000000
O O9 0.750000 0.250000 0.500000
O O10 0.757702 0.147712 0.650049
O O11 0.648603 0.250387 0.542809
O O12 0.690441 0.000000 0.501199
O O13 0.648522 0.500000 0.229180
O O14 0.708033 0.297299 0.180080
O O15 0.634539 0.226404 0.274449
O O16 0.792286 0.500000 0.213885
O O17 0.804754 0.709603 0.115378
O O18 0.825602 0.772347 0.284174
O O19 0.129970 0.500000 0.914309
O O20 0.624776 0.500000 0.605331
O O21 0.941871 0.500000 0.755644
#
# Coordination Sequence:
#
# PCOD9169291 Si02
#       8
#     8   8   8   8   8   8   8   8
#     4   8  15  28  43  63  92 122 152 191 237 278
#     4  10  20  32  47  69  97 127 158 195 240 286
#     4  10  20  34  51  72  99 130 160 194 237 282
#     4   9  18  32  50  71  98 128 155 189 236 284
#     4   8  15  28  44  65  93 123 153 190 237 280
#     4   8  14  26  45  67  91 119 154 195 236 279
#     4  10  17  25  43  70  94 120 156 196 234 274
#     4  10  20  32  49  72  97 126 160 197 236 280
#
# _framework density 21.079813000000001
#
# number of rings (size 3 to 8) (size 9 to 14) (size 15 to 20)
#    0.000    2.875    0.000    4.500    0.000    8.500 
#    0.000    0.000    0.000    1.500    0.000    5.250 
#    0.000    0.000    0.000    0.000    0.000    0.000 
#
# Total GULP energy -178347.860968 kJ/mol
# GULP energy per Si atom -5573.370655 kJ/mol
# Density = 2.103183 g / cm^3
# Si number density = 21.079813 Si / 1000 Ang^3
#
#
#
# Elastic Constant Matrix: (Units=GPa)
#
#
# Indices 1 2 3 4 5 6 
#
# 1 90.9459 51.2154 49.8813 0.0000 -64.6969 0.0000
# 2 51.2154 104.3086 53.1492 0.0000 -51.6201 0.0000
# 3 49.8813 53.1492 69.5847 0.0000 -43.7395 0.0000
# 4 0.0000 0.0000 0.0000 12.9963 0.0000 -22.5716
# 5 -64.6969 -51.6201 -43.7395 0.0000 54.6661 0.0000
# 6 0.0000 0.0000 0.0000 -22.5716 0.0000 24.0222
#
#
#
# Elastic Compliance Matrix: (Units=1/GPa)
#
#
# Indices 1 2 3 4 5 6 
#
# 1 0.079235 0.014201 -0.000548 0.000000 0.106744 0.000000
# 2 0.014201 0.021960 -0.006748 0.000000 0.032143 0.000000
# 3 -0.000548 -0.006748 0.031193 0.000000 0.017938 0.000000
# 4 0.000000 0.000000 0.000000 -0.121769 0.000000 -0.114416
# 5 0.106744 0.032143 0.017938 0.000000 0.189328 0.000000
# 6 0.000000 0.000000 0.000000 -0.114416 0.000000 -0.065878
#
#
# Mechanical properties :
#
#
# Convention : Reuss Voigt Hill
#
# Bulk Modulus (GPa) = 6.84010 63.70344 35.27177
# Shear Modulus (GPa) = 29.58717 25.70981 27.64849
#
# Velocity S-wave (km/s) = 3.75050 3.49613 3.62554
# Velocity P-wave (km/s) = 4.69115 6.82517 5.85619
#
# Compressibility (1/GPa) = 0.14619660
#
# Stress axis : x y z
#
# Youngs Moduli (GPa) = 12.62074 45.53758 32.05812
#
# Poissons Ratio (x) = -0.64666 0.01757
# Poissons Ratio (y) = -0.17922 0.21633
# Poissons Ratio (z) = 0.00692 0.30729
#
# Static dielectric constant tensor:
#      x y z
#    x 1.863710 0.000000 0.003890 
#    y 0.000000 1.716850 0.000000 
#    z 0.003890 0.000000 1.819300 
# 
# From -- ./inp_files/287550.got.cif
#   From: 2010.05.17/outbox.cif.g08.bks.cpg/sg12_144_cif.got.tgz:287550.got - 2010.06.03 13:09:07.
