data_PCOD9169525
_publ_section_title
;
Structure prediction by ZEFSAII (Michael W. Deem and Ramdas Pophale) SiO2 
 PCOD9169525
Probable space group: C 2/M
;
_chemical_formula_sum "Si O2"
_cell_formula_units_Z 48
_cell_length_a 15.861208
_cell_length_b 29.394489
_cell_length_c 7.631402
_cell_angle_alpha 90.000000
_cell_angle_beta 144.493921
_cell_angle_gamma 90.000000
_cell_volume 2066.451111
_symmetry_space_group_name_H-M "C 2/M"
_symmetry_group_IT_number 12
_symmetry_cell_setting 'monoclinic'
loop_
_space_group_symop_operation_xyz
x,y,z
-x,y,-z
-x,-y,-z
x,-y,z
1/2+x,1/2+y,z
1/2-x,1/2+y,-z
1/2-x,1/2-y,-z
1/2+x,1/2-y,z
loop_
_atom_site_type_symbol
_atom_site_label
_atom_site_fract_x
_atom_site_fract_y
_atom_site_fract_z
Si Si1 0.536517 0.208873 0.852760
Si Si2 0.928183 0.387973 0.682594
Si Si3 0.919348 0.948719 0.171972
Si Si4 0.845764 0.889480 0.577572
Si Si5 0.880943 0.797803 0.441794
Si Si6 0.329719 0.053717 0.014099
O O1 0.472925 0.160706 0.679871
O O2 0.451577 0.251009 0.626361
O O3 0.500000 0.210983 0.000000
O O4 0.710058 0.210163 0.106296
O O5 0.758773 0.392286 0.433178
O O6 0.007142 0.428923 0.718816
O O7 0.000000 0.387237 0.000000
O O8 0.000000 0.948893 0.500000
O O9 0.002897 0.914849 0.188485
O O10 0.928180 0.000000 0.116828
O O11 0.755957 0.938062 0.951523
O O12 0.869750 0.836977 0.569383
O O13 0.753235 0.915295 0.268850
O O14 0.000000 0.815031 0.500000
O O15 0.318414 0.000000 0.954044
#
# Coordination Sequence:
#
# PCOD9169525 Si02
#       6
#     8   8   8   8   8   8
#     4  11  22  40  57  78 110 151 185 229 276 330
#     4   9  17  29  43  68  98 137 174 213 268 321
#     4   8  14  23  37  61  94 133 165 202 264 328
#     4  10  17  27  44  68 101 138 169 217 270 322
#     4  12  23  37  57  82 110 146 188 232 277 324
#     4   9  15  25  42  66 101 136 170 214 278 326
#
# _framework density 23.22823
#
# number of rings (size 3 to 8) (size 9 to 14) (size 15 to 20)
#    0.000    2.167    5.000    4.000    0.000    3.667 
#    0.000    0.000    0.000    0.000    0.000    0.000 
#    0.000    6.000    0.000    0.833    0.000    0.167 
#
# Total GULP energy -134008.547845 kJ/mol
# GULP energy per Si atom -5583.689494 kJ/mol
# Density = 2.317536 g / cm^3
# Si number density = 23.228230 Si / 1000 Ang^3
#
#
#
# Elastic Constant Matrix: (Units=GPa)
#
#
# Indices 1 2 3 4 5 6 
#
# 1 96.4789 41.8309 50.5001 0.0000 47.3920 0.0000
# 2 41.8309 91.3452 28.8648 0.0000 32.8318 0.0000
# 3 50.5001 28.8648 116.8363 0.0000 45.9169 0.0000
# 4 0.0000 0.0000 0.0000 -33.9658 0.0000 37.8993
# 5 47.3920 32.8318 45.9169 0.0000 54.8234 0.0000
# 6 0.0000 0.0000 0.0000 37.8993 0.0000 30.4764
#
#
#
# Elastic Compliance Matrix: (Units=1/GPa)
#
#
# Indices 1 2 3 4 5 6 
#
# 1 0.019392 -0.003589 -0.002611 0.000000 -0.012427 0.000000
# 2 -0.003589 0.014619 0.000240 0.000000 -0.005854 0.000000
# 3 -0.002611 0.000240 0.013114 0.000000 -0.008870 0.000000
# 4 0.000000 0.000000 0.000000 -0.012331 0.000000 0.015334
# 5 -0.012427 -0.005854 -0.008870 0.000000 0.039918 0.000000
# 6 0.000000 0.000000 0.000000 0.015334 0.000000 0.013743
#
#
# Mechanical properties :
#
#
# Convention : Reuss Voigt Hill
#
# Bulk Modulus (GPa) = 28.40468 60.78356 44.59412
# Shear Modulus (GPa) = 44.59873 22.49776 33.54825
#
# Velocity S-wave (km/s) = 4.38656 3.11553 3.80450
# Velocity P-wave (km/s) = 6.15719 6.25834 6.20797
#
# Compressibility (1/GPa) = 0.03520547
#
# Stress axis : x y z
#
# Youngs Moduli (GPa) = 51.56675 68.40422 76.25208
#
# Poissons Ratio (x) = 0.24548 0.19912
# Poissons Ratio (y) = 0.18506 -0.01829
# Poissons Ratio (z) = 0.13466 -0.01641
#
# Static dielectric constant tensor:
#      x y z
#    x 1.911020 0.000000 -0.004090 
#    y 0.000000 1.811400 0.000000 
#    z -0.004090 0.000000 2.018110 
# 
# From -- ./inp_files/68360.got.cif
#   From: 2010.05.17/outbox.cif.g08.bks.cpg/sg12_35_cif.got.tgz:68360.got - 2010.06.03 13:09:07.
