data_PCOD9169039
_publ_section_title
;
Structure prediction by ZEFSAII (Michael W. Deem and Ramdas Pophale) SiO2 
 PCOD9169039
Probable space group: C 2/M
;
_chemical_formula_sum "Si O2"
_cell_formula_units_Z 34
_cell_length_a 10.928089
_cell_length_b 20.769222
_cell_length_c 9.741688
_cell_angle_alpha 90.000000
_cell_angle_beta 39.799236
_cell_angle_gamma 90.000000
_cell_volume 1415.292240
_symmetry_space_group_name_H-M "C 2/M"
_symmetry_group_IT_number 12
_symmetry_cell_setting 'monoclinic'
loop_
_space_group_symop_operation_xyz
x,y,z
-x,y,-z
-x,-y,-z
x,-y,z
1/2+x,1/2+y,z
1/2-x,1/2+y,-z
1/2-x,1/2-y,-z
1/2+x,1/2-y,z
loop_
_atom_site_type_symbol
_atom_site_label
_atom_site_fract_x
_atom_site_fract_y
_atom_site_fract_z
Si Si1 0.971611 0.747836 0.359931
Si Si2 0.584731 0.500000 0.198744
Si Si3 0.444434 0.892389 0.340589
Si Si4 0.500000 0.000000 0.500000
Si Si5 0.304081 0.000000 0.281077
Si Si6 0.017988 0.866226 0.825907
O O1 0.750000 0.750000 0.500000
O O2 0.040094 0.677239 0.253137
O O3 0.055203 0.810022 0.211670
O O4 0.000000 0.752496 0.500000
O O5 0.746761 0.500000 0.173397
O O6 0.386687 0.500000 0.458227
O O7 0.580326 0.434793 0.116462
O O8 0.546497 0.943942 0.347582
O O9 0.401311 0.932617 0.240562
O O10 0.239116 0.879343 0.592341
O O11 0.000000 0.847168 0.000000
#
# Coordination Sequence:
#
# PCOD9169039 Si02
#       6
#     8   4   8   2   4   8
#     4  10  21  36  59  83 115 149 194 236 277 341
#     4   9  17  29  54  75 109 133 187 227 286 325
#     4   9  18  33  56  81 110 142 196 230 277 337
#     4  10  16  32  58  82 104 144 196 228 276 332
#     4   8  16  28  52  83  96 140 179 238 267 328
#     4  10  21  35  54  83 116 146 185 241 297 332
#
# _framework density 24.023308
#
# number of rings (size 3 to 8) (size 9 to 14) (size 15 to 20)
#    0.000    2.588    1.176    1.059    9.882    0.000 
#    0.000    4.706    0.000    0.000    0.000    8.235 
#    0.000    0.000    0.000    0.000    0.000    0.000 
#
# Total GULP energy -94737.083586 kJ/mol
# GULP energy per Si atom -5572.769623 kJ/mol
# Density = 2.396863 g / cm^3
# Si number density = 24.023308 Si / 1000 Ang^3
#
#
#
# Elastic Constant Matrix: (Units=GPa)
#
#
# Indices 1 2 3 4 5 6 
#
# 1 88.1739 58.0368 59.2585 0.0000 28.6461 0.0000
# 2 58.0368 269.8619 51.0650 0.0000 28.0153 0.0000
# 3 59.2585 51.0650 105.2064 0.0000 -4.7948 0.0000
# 4 0.0000 0.0000 0.0000 2.0987 0.0000 2.3373
# 5 28.6461 28.0153 -4.7948 0.0000 50.3811 0.0000
# 6 0.0000 0.0000 0.0000 2.3373 0.0000 -32.1692
#
#
#
# Elastic Compliance Matrix: (Units=1/GPa)
#
#
# Indices 1 2 3 4 5 6 
#
# 1 0.028787 -0.001309 -0.016363 0.000000 -0.017197 0.000000
# 2 -0.001309 0.004470 -0.001518 0.000000 -0.001886 0.000000
# 3 -0.016363 -0.001518 0.020008 0.000000 0.012052 0.000000
# 4 0.000000 0.000000 0.000000 0.440824 0.000000 0.032029
# 5 -0.017197 -0.001886 0.012052 0.000000 0.031822 0.000000
# 6 0.000000 0.000000 0.000000 0.032029 0.000000 -0.028758
#
#
# Mechanical properties :
#
#
# Convention : Reuss Voigt Hill
#
# Bulk Modulus (GPa) = 67.18480 88.88475 78.03477
# Shear Modulus (GPa) = 9.25080 23.72089 16.48584
#
# Velocity S-wave (km/s) = 1.96446 3.14572 2.62247
# Velocity P-wave (km/s) = 5.75958 7.09040 6.45935
#
# Compressibility (1/GPa) = 0.01488432
#
# Stress axis : x y z
#
# Youngs Moduli (GPa) = 34.73817 223.70143 49.98077
#
# Poissons Ratio (x) = 0.29291 0.81782
# Poissons Ratio (y) = 0.04549 0.07588
# Poissons Ratio (z) = 0.56841 0.33962
#
# Static dielectric constant tensor:
#      x y z
#    x 2.100410 0.000000 -0.127230 
#    y 0.000000 1.880870 0.000000 
#    z -0.127230 0.000000 1.910970 
# 
# From -- ./inp_files/47883.got.cif
#   From: 2010.05.17/outbox.cif.g08.bks.cpg/sg12_24_cif.got.tgz:47883.got - 2010.06.03 13:09:07.
