data_PCOD9169498
_publ_section_title
;
Structure prediction by ZEFSAII (Michael W. Deem and Ramdas Pophale) SiO2 
 PCOD9169498
Probable space group: C 2/M
;
_chemical_formula_sum "Si O2"
_cell_formula_units_Z 56
_cell_length_a 9.708247
_cell_length_b 22.060891
_cell_length_c 14.200499
_cell_angle_alpha 90.000000
_cell_angle_beta 111.262053
_cell_angle_gamma 90.000000
_cell_volume 2834.337168
_symmetry_space_group_name_H-M "C 2/M"
_symmetry_group_IT_number 12
_symmetry_cell_setting 'monoclinic'
loop_
_space_group_symop_operation_xyz
x,y,z
-x,y,-z
-x,-y,-z
x,-y,z
1/2+x,1/2+y,z
1/2-x,1/2+y,-z
1/2-x,1/2-y,-z
1/2+x,1/2-y,z
loop_
_atom_site_type_symbol
_atom_site_label
_atom_site_fract_x
_atom_site_fract_y
_atom_site_fract_z
Si Si1 0.186096 0.762390 0.216713
Si Si2 0.527065 0.069687 0.611069
Si Si3 0.163859 0.100457 0.231069
Si Si4 0.888873 0.372135 0.760377
Si Si5 0.669884 0.069399 0.913467
Si Si6 0.128041 0.768952 0.897048
Si Si7 0.831266 0.091303 0.146197
O O1 0.166901 0.827821 0.259817
O O2 0.170313 0.697101 0.262181
O O3 0.334113 0.764559 0.191867
O O4 0.039616 0.759782 0.115119
O O5 0.500000 0.094761 0.500000
O O6 0.700941 0.071579 0.679048
O O7 0.442668 0.104791 0.672869
O O8 0.476607 0.000000 0.599672
O O9 0.208833 0.092590 0.131989
O O10 0.001380 0.072423 0.201414
O O11 0.760537 0.410504 0.780264
O O12 0.030446 0.385665 0.864580
O O13 0.625924 0.000000 0.876227
O O14 0.739373 0.066348 0.034633
O O15 0.153983 0.838560 0.879577
O O16 0.250000 0.750000 0.000000
#
# Coordination Sequence:
#
# PCOD9169498 Si02
#       7
#     8   8   8   8   8   8   8
#     4  10  19  30  51  76 108 144 178 222 274 326
#     4  10  22  43  67  83 101 141 192 233 276 339
#     4  10  20  36  55  82 114 147 186 231 277 329
#     4  10  20  36  55  82 114 147 186 231 277 329
#     4  11  22  35  52  77 116 163 201 224 257 322
#     4  10  17  27  43  69 105 149 191 219 250 309
#     4  10  21  31  48  81 116 147 181 229 282 319
#
# _framework density 19.757705999999999
#
# number of rings (size 3 to 8) (size 9 to 14) (size 15 to 20)
#    0.000    1.857    0.000    6.429    0.000    8.000 
#    0.000    1.429    0.000    1.714    0.000    0.000 
#    0.000    0.000    0.000    0.000    0.000    0.000 
#
# Total GULP energy -156063.517836 kJ/mol
# GULP energy per Si atom -5573.697066 kJ/mol
# Density = 1.971274 g / cm^3
# Si number density = 19.757706 Si / 1000 Ang^3
#
#
#
# Elastic Constant Matrix: (Units=GPa)
#
#
# Indices 1 2 3 4 5 6 
#
# 1 114.6081 7.8853 27.8932 0.0000 -7.9726 0.0000
# 2 7.8853 90.4919 8.6655 0.0000 -8.8195 0.0000
# 3 27.8932 8.6655 88.7330 0.0000 -16.7788 0.0000
# 4 0.0000 0.0000 0.0000 70.8665 0.0000 1.4950
# 5 -7.9726 -8.8195 -16.7788 0.0000 13.6574 0.0000
# 6 0.0000 0.0000 0.0000 1.4950 0.0000 9.0105
#
#
#
# Elastic Compliance Matrix: (Units=1/GPa)
#
#
# Indices 1 2 3 4 5 6 
#
# 1 0.009522 -0.000372 -0.002542 0.000000 0.002196 0.000000
# 2 -0.000372 0.011817 0.000475 0.000000 0.007998 0.000000
# 3 -0.002542 0.000475 0.015371 0.000000 0.017707 0.000000
# 4 0.000000 0.000000 0.000000 0.014161 0.000000 -0.002349
# 5 0.002196 0.007998 0.017707 0.000000 0.101420 0.000000
# 6 0.000000 0.000000 0.000000 -0.002349 0.000000 0.111372
#
#
# Mechanical properties :
#
#
# Convention : Reuss Voigt Hill
#
# Bulk Modulus (GPa) = 31.41464 42.52456 36.96960
# Shear Modulus (GPa) = 17.91147 35.33281 26.62214
#
# Velocity S-wave (km/s) = 3.01417 4.23342 3.67472
# Velocity P-wave (km/s) = 5.29605 6.74282 6.06274
#
# Compressibility (1/GPa) = 0.03183230
#
# Stress axis : x y z
#
# Youngs Moduli (GPa) = 105.01594 84.62304 65.05935
#
# Poissons Ratio (x) = 0.03151 0.16537
# Poissons Ratio (y) = 0.03911 -0.03092
# Poissons Ratio (z) = 0.26693 -0.04022
#
# Static dielectric constant tensor:
#      x y z
#    x 1.715440 0.000000 0.003120 
#    y 0.000000 1.775890 0.000000 
#    z 0.003120 0.000000 1.666290 
# 
# From -- ./inp_files/198504.got.cif
#   From: 2010.05.17/outbox.cif.g08.bks.cpg/sg12_100_cif.got.tgz:198504.got - 2010.06.03 13:09:07.
