data_PCOD9169793
_publ_section_title
;
Structure prediction by ZEFSAII (Michael W. Deem and Ramdas Pophale) SiO2 
 PCOD9169793
Probable space group: C 2/M
;
_chemical_formula_sum "Si O2"
_cell_formula_units_Z 40
_cell_length_a 10.477899
_cell_length_b 24.791729
_cell_length_c 7.424744
_cell_angle_alpha 90.000000
_cell_angle_beta 56.586087
_cell_angle_gamma 90.000000
_cell_volume 1609.905159
_symmetry_space_group_name_H-M "C 2/M"
_symmetry_group_IT_number 12
_symmetry_cell_setting 'monoclinic'
loop_
_space_group_symop_operation_xyz
x,y,z
-x,y,-z
-x,-y,-z
x,-y,z
1/2+x,1/2+y,z
1/2-x,1/2+y,-z
1/2-x,1/2-y,-z
1/2+x,1/2-y,z
loop_
_atom_site_type_symbol
_atom_site_label
_atom_site_fract_x
_atom_site_fract_y
_atom_site_fract_z
Si Si1 0.061790 0.599449 0.745177
Si Si2 0.105097 0.000000 0.129718
Si Si3 0.678849 0.672558 0.342864
Si Si4 0.729067 0.614428 0.917409
Si Si5 0.822444 0.228731 0.132930
Si Si6 0.770698 0.000000 0.557110
O O1 0.183000 0.647381 0.651176
O O2 0.165132 0.550493 0.601543
O O3 0.000000 0.589793 0.000000
O O4 0.908889 0.607005 0.752088
O O5 0.151492 0.944478 0.991927
O O6 0.189869 0.000000 0.258982
O O7 0.927510 0.000000 0.324523
O O8 0.500000 0.661121 0.500000
O O9 0.708507 0.642896 0.128165
O O10 0.709795 0.735942 0.341163
O O11 0.674740 0.664458 0.836588
O O12 0.750000 0.250000 0.000000
O O13 0.000000 0.246853 0.000000
#
# Coordination Sequence:
#
# PCOD9169793 Si02
#       6
#     8   4   8   8   8   4
#     4  10  17  28  48  77 111 146 179 226 280 335
#     4  11  19  30  50  83 114 147 189 235 288 332
#     4  10  18  31  52  81 111 143 184 237 286 330
#     4  10  20  33  52  78 112 148 191 226 282 343
#     4  10  21  40  60  82 112 153 195 236 280 341
#     4  11  18  27  50  84 118 143 181 243 288 326
#
# _framework density 24.846185999999999
#
# number of rings (size 3 to 8) (size 9 to 14) (size 15 to 20)
#    0.000    1.800    4.000    5.100    0.000    0.000 
#    0.000   11.500    0.000    0.000    0.000    2.100 
#    0.000    0.000    0.000    0.000    0.000    0.000 
#
# Total GULP energy -111624.621502 kJ/mol
# GULP energy per Si atom -5581.231075 kJ/mol
# Density = 2.478963 g / cm^3
# Si number density = 24.846186 Si / 1000 Ang^3
#
#
#
# Elastic Constant Matrix: (Units=GPa)
#
#
# Indices 1 2 3 4 5 6 
#
# 1 82.6963 10.4916 47.0562 0.0000 -32.9864 0.0000
# 2 10.4916 200.7456 55.6666 0.0000 -25.0347 0.0000
# 3 47.0562 55.6666 139.6777 0.0000 -51.9194 0.0000
# 4 0.0000 0.0000 0.0000 11.1927 0.0000 0.9120
# 5 -32.9864 -25.0347 -51.9194 0.0000 60.7743 0.0000
# 6 0.0000 0.0000 0.0000 0.9120 0.0000 40.6496
#
#
#
# Elastic Compliance Matrix: (Units=1/GPa)
#
#
# Indices 1 2 3 4 5 6 
#
# 1 0.016527 0.000917 -0.003603 0.000000 0.006271 0.000000
# 2 0.000917 0.005666 -0.002219 0.000000 0.000936 0.000000
# 3 -0.003603 -0.002219 0.012002 0.000000 0.007384 0.000000
# 4 0.000000 0.000000 0.000000 0.089507 0.000000 -0.002008
# 5 0.006271 0.000936 0.007384 0.000000 0.026551 0.000000
# 6 0.000000 0.000000 0.000000 -0.002008 0.000000 0.024646
#
#
# Mechanical properties :
#
#
# Convention : Reuss Voigt Hill
#
# Bulk Modulus (GPa) = 41.00701 72.17206 56.58954
# Shear Modulus (GPa) = 25.92867 43.18367 34.55617
#
# Velocity S-wave (km/s) = 3.23393 4.17350 3.73339
# Velocity P-wave (km/s) = 5.52129 7.23428 6.43504
#
# Compressibility (1/GPa) = 0.02438607
#
# Stress axis : x y z
#
# Youngs Moduli (GPa) = 60.50589 176.50538 83.31920
#
# Poissons Ratio (x) = -0.16190 0.30017
# Poissons Ratio (y) = -0.05550 0.18489
# Poissons Ratio (z) = 0.21798 0.39167
#
# Static dielectric constant tensor:
#      x y z
#    x 1.890840 0.000000 0.053910 
#    y 0.000000 1.864810 0.000000 
#    z 0.053910 0.000000 1.962250 
# 
# From -- ./inp_files/50131.got.cif
#   From: 2010.05.17/outbox.cif.g08.bks.cpg/sg12_26_cif.got.tgz:50131.got - 2010.06.03 13:09:07.
