data_PCOD9169873
_publ_section_title
;
Structure prediction by ZEFSAII (Michael W. Deem and Ramdas Pophale) SiO2 
 PCOD9169873
Probable space group: C 2/M
;
_chemical_formula_sum "Si O2"
_cell_formula_units_Z 40
_cell_length_a 25.269476
_cell_length_b 9.923049
_cell_length_c 13.759962
_cell_angle_alpha 90.000000
_cell_angle_beta 47.358409
_cell_angle_gamma 90.000000
_cell_volume 2538.070045
_symmetry_space_group_name_H-M "C 2/M"
_symmetry_group_IT_number 12
_symmetry_cell_setting 'monoclinic'
loop_
_space_group_symop_operation_xyz
x,y,z
-x,y,-z
-x,-y,-z
x,-y,z
1/2+x,1/2+y,z
1/2-x,1/2+y,-z
1/2-x,1/2-y,-z
1/2+x,1/2-y,z
loop_
_atom_site_type_symbol
_atom_site_label
_atom_site_fract_x
_atom_site_fract_y
_atom_site_fract_z
Si Si1 0.202360 0.500000 0.442053
Si Si2 0.925473 0.800580 0.217334
Si Si3 0.226538 0.500000 0.647557
Si Si4 0.455853 0.500000 0.859813
Si Si5 0.640946 0.500000 0.849144
Si Si6 0.068218 0.500000 0.846934
Si Si7 0.966049 0.000000 0.436493
Si Si8 0.151307 0.796859 0.491419
O O1 0.215697 0.500000 0.543104
O O2 0.276817 0.500000 0.288659
O O3 0.160171 0.637520 0.469592
O O4 0.934861 0.641384 0.204234
O O5 0.867513 0.830065 0.373010
O O6 0.896758 0.870292 0.155380
O O7 0.998787 0.872926 0.156503
O O8 0.148149 0.500000 0.792411
O O9 0.273135 0.370917 0.620355
O O10 0.471896 0.500000 0.724419
O O11 0.379979 0.500000 0.010764
O O12 0.000000 0.500000 0.000000
O O13 0.913058 0.128631 0.485670
O O14 0.000000 0.000000 0.500000
#
# Coordination Sequence:
#
# PCOD9169873 Si02
#       8
#     4   8   4   4   4   4   4   8
#     4  12  18  28  48  72 109 130 157 192 228 286
#     4  10  17  29  42  65 101 132 162 187 221 279
#     4  11  18  30  44  66 108 137 163 185 218 287
#     4   9  19  31  47  68  90 120 165 199 238 288
#     4  11  18  27  45  67 100 134 154 183 231 283
#     4  12  21  25  38  64 104 145 159 177 223 270
#     4   9  20  39  58  68  87 119 167 218 252 285
#     4  10  19  31  50  76  93 133 168 195 234 279
#
# _framework density 15.760007
#
# number of rings (size 3 to 8) (size 9 to 14) (size 15 to 20)
#    0.000    1.600    4.000    5.400    0.000    0.000 
#    0.000    0.500    0.000    1.200    0.000    0.000 
#    0.000    0.000    0.000    0.000    0.000    0.000 
#
# Total GULP energy -111409.363813 kJ/mol
# GULP energy per Si atom -5570.468191 kJ/mol
# Density = 1.572414 g / cm^3
# Si number density = 15.760007 Si / 1000 Ang^3
#
#
#
# Elastic Constant Matrix: (Units=GPa)
#
#
# Indices 1 2 3 4 5 6 
#
# 1 57.5170 33.0526 44.4048 0.0000 7.3722 0.0000
# 2 33.0526 133.1477 13.1188 0.0000 5.3180 0.0000
# 3 44.4048 13.1188 108.0649 0.0000 -12.8516 0.0000
# 4 0.0000 0.0000 0.0000 10.5729 0.0000 -2.8445
# 5 7.3722 5.3180 -12.8516 0.0000 21.5590 0.0000
# 6 0.0000 0.0000 0.0000 -2.8445 0.0000 -2.1424
#
#
#
# Elastic Compliance Matrix: (Units=1/GPa)
#
#
# Indices 1 2 3 4 5 6 
#
# 1 0.036942 -0.006667 -0.016873 0.000000 -0.021046 0.000000
# 2 -0.006667 0.008944 0.001790 0.000000 0.001141 0.000000
# 3 -0.016873 0.001790 0.017870 0.000000 0.015981 0.000000
# 4 0.000000 0.000000 0.000000 0.069689 0.000000 -0.092527
# 5 -0.021046 0.001141 0.015981 0.000000 0.062827 0.000000
# 6 0.000000 0.000000 0.000000 -0.092527 0.000000 -0.343915
#
#
# Mechanical properties :
#
#
# Convention : Reuss Voigt Hill
#
# Bulk Modulus (GPa) = 49.37330 53.32021 51.34676
# Shear Modulus (GPa) = -51.33972 19.87477 -15.73248
#
# Velocity S-wave (km/s) = -5.71373 3.55503 -3.16294
# Velocity P-wave (km/s) = 3.48320 7.12440 4.39457
#
# Compressibility (1/GPa) = 0.02025386
#
# Stress axis : x y z
#
# Youngs Moduli (GPa) = 27.06948 111.81074 55.95832
#
# Poissons Ratio (x) = 0.74549 0.94420
# Poissons Ratio (y) = 0.18048 -0.10014
# Poissons Ratio (z) = 0.45675 -0.20010
#
# Static dielectric constant tensor:
#      x y z
#    x 1.495890 0.000000 -0.030590 
#    y 0.000000 1.495390 0.000000 
#    z -0.030590 0.000000 1.578080 
# 
# From -- ./inp_files/179706.got.cif
#   From: 2010.05.17/outbox.cif.g08.bks.cpg/sg12_90_cif.got.tgz:179706.got - 2010.06.03 13:09:07.
