data_PCOD9169346
_publ_section_title
;
Structure prediction by ZEFSAII (Michael W. Deem and Ramdas Pophale) SiO2 
 PCOD9169346
Probable space group: C 2/M
;
_chemical_formula_sum "Si O2"
_cell_formula_units_Z 64
_cell_length_a 19.643684
_cell_length_b 18.774482
_cell_length_c 8.843084
_cell_angle_alpha 90.000000
_cell_angle_beta 44.398921
_cell_angle_gamma 90.000000
_cell_volume 2281.788675
_symmetry_space_group_name_H-M "C 2/M"
_symmetry_group_IT_number 12
_symmetry_cell_setting 'monoclinic'
loop_
_space_group_symop_operation_xyz
x,y,z
-x,y,-z
-x,-y,-z
x,-y,z
1/2+x,1/2+y,z
1/2-x,1/2+y,-z
1/2-x,1/2-y,-z
1/2+x,1/2-y,z
loop_
_atom_site_type_symbol
_atom_site_label
_atom_site_fract_x
_atom_site_fract_y
_atom_site_fract_z
Si Si1 0.343847 0.578834 0.270610
Si Si2 0.949626 0.918123 0.401594
Si Si3 0.878308 0.765953 0.448487
Si Si4 0.835172 0.578056 0.831153
Si Si5 0.353422 0.351693 0.931890
Si Si6 0.350820 0.761790 0.142639
Si Si7 0.356512 0.919798 0.223859
Si Si8 0.043866 0.387221 0.634895
O O1 0.434053 0.581068 0.243149
O O2 0.342755 0.626121 0.125313
O O3 0.235019 0.751979 0.342900
O O4 0.249747 0.590114 0.527283
O O5 0.901314 0.839437 0.499834
O O6 0.920554 0.000000 0.490022
O O7 0.061484 0.901932 0.266408
O O8 0.936107 0.696787 0.410249
O O9 0.892585 0.765574 0.241098
O O10 0.117950 0.771346 0.069430
O O11 0.795323 0.500000 0.931190
O O12 0.747946 0.633899 0.989016
O O13 0.938840 0.590136 0.744453
O O14 0.870045 0.579667 0.602591
O O15 0.337724 0.500000 0.217360
O O16 0.368949 0.846707 0.112988
O O17 0.434928 0.915039 0.232337
O O18 0.356072 0.000000 0.159718
#
# Coordination Sequence:
#
# PCOD9169346 Si02
#       8
#     8   8   8   8   8   8   8   8
#     4  10  17  26  42  67 101 132 157 191 245 308
#     4  11  22  32  49  77 109 140 166 202 259 320
#     4  10  18  34  47  69 102 141 171 208 247 310
#     4  11  20  31  49  77 105 131 170 215 258 303
#     4  12  20  32  46  74 109 137 165 205 262 312
#     4  10  18  30  47  70 104 138 171 205 257 307
#     4  10  17  29  50  74 100 129 169 216 254 298
#     4  10  19  31  49  70  99 137 173 212 255 293
#
# _framework density 28.048172999999998
#
# number of rings (size 3 to 8) (size 9 to 14) (size 15 to 20)
#    0.000    1.500    5.000    3.750    0.000    1.000 
#    0.000    0.625    0.000    0.000    0.000   11.375 
#    0.000    0.000    0.000    0.000    0.000    0.000 
#
# Total GULP energy -179156.682284 kJ/mol
# GULP energy per Si atom -5598.646321 kJ/mol
# Density = 2.798433 g / cm^3
# Si number density = 28.048173 Si / 1000 Ang^3
#
#
#
# Elastic Constant Matrix: (Units=GPa)
#
#
# Indices 1 2 3 4 5 6 
#
# 1 110.4570 36.4242 15.9541 0.0000 -25.3772 0.0000
# 2 36.4242 206.1518 24.7821 0.0000 -8.6581 0.0000
# 3 15.9541 24.7821 76.0299 0.0000 -7.4234 0.0000
# 4 0.0000 0.0000 0.0000 29.9762 0.0000 -8.5179
# 5 -25.3772 -8.6581 -7.4234 0.0000 37.7054 0.0000
# 6 0.0000 0.0000 0.0000 -8.5179 0.0000 30.1989
#
#
#
# Elastic Compliance Matrix: (Units=1/GPa)
#
#
# Indices 1 2 3 4 5 6 
#
# 1 0.011362 -0.001569 -0.001184 0.000000 0.007054 0.000000
# 2 -0.001569 0.005292 -0.001407 0.000000 -0.000118 0.000000
# 3 -0.001184 -0.001407 0.014020 0.000000 0.001640 0.000000
# 4 0.000000 0.000000 0.000000 0.036266 0.000000 0.010229
# 5 0.007054 -0.000118 0.001640 0.000000 0.031565 0.000000
# 6 0.000000 0.000000 0.000000 0.010229 0.000000 0.035999
#
#
# Mechanical properties :
#
#
# Convention : Reuss Voigt Hill
#
# Bulk Modulus (GPa) = 44.73507 60.77330 52.75418
# Shear Modulus (GPa) = 33.27193 40.60800 36.93996
#
# Velocity S-wave (km/s) = 3.44792 3.80912 3.63301
# Velocity P-wave (km/s) = 5.64224 6.40784 6.03719
#
# Compressibility (1/GPa) = 0.02235383
#
# Stress axis : x y z
#
# Youngs Moduli (GPa) = 88.01020 188.95612 71.32647
#
# Poissons Ratio (x) = 0.29647 0.08446
# Poissons Ratio (y) = 0.13808 0.10038
# Poissons Ratio (z) = 0.10422 0.26591
#
# Static dielectric constant tensor:
#      x y z
#    x 2.170160 0.000000 0.073260 
#    y 0.000000 2.299020 0.000000 
#    z 0.073260 0.000000 2.290250 
# 
# From -- ./inp_files/168750.got.cif
#   From: 2010.05.17/outbox.cif.g08.bks.cpg/sg12_85_cif.got.tgz:168750.got - 2010.06.03 13:09:07.
