data_PCOD9169060
_publ_section_title
;
Structure prediction by ZEFSAII (Michael W. Deem and Ramdas Pophale) SiO2 
 PCOD9169060
Probable space group: C 2/M
;
_chemical_formula_sum "Si O2"
_cell_formula_units_Z 60
_cell_length_a 28.713775
_cell_length_b 15.428253
_cell_length_c 16.783959
_cell_angle_alpha 90.000000
_cell_angle_beta 26.626365
_cell_angle_gamma 90.000000
_cell_volume 3332.304753
_symmetry_space_group_name_H-M "C 2/M"
_symmetry_group_IT_number 12
_symmetry_cell_setting 'monoclinic'
loop_
_space_group_symop_operation_xyz
x,y,z
-x,y,-z
-x,-y,-z
x,-y,z
1/2+x,1/2+y,z
1/2-x,1/2+y,-z
1/2-x,1/2-y,-z
1/2+x,1/2-y,z
loop_
_atom_site_type_symbol
_atom_site_label
_atom_site_fract_x
_atom_site_fract_y
_atom_site_fract_z
Si Si1 0.169853 0.603343 0.254785
Si Si2 0.124573 0.896604 0.797951
Si Si3 0.821764 0.158791 0.460308
Si Si4 0.528054 0.102897 0.327438
Si Si5 0.132266 0.155556 0.958495
Si Si6 0.594277 0.897676 0.799563
Si Si7 0.477995 0.195172 0.241604
Si Si8 0.530413 0.500000 0.747253
O O1 0.192917 0.500000 0.218419
O O2 0.076289 0.615644 0.460742
O O3 0.123622 0.627405 0.239265
O O4 0.271310 0.652724 0.128915
O O5 0.159144 0.849350 0.664810
O O6 0.144427 0.000000 0.755681
O O7 0.171000 0.862655 0.809313
O O8 0.000000 0.887542 0.000000
O O9 0.699599 0.151798 0.659760
O O10 0.877960 0.243490 0.406879
O O11 0.882159 0.075983 0.402250
O O12 0.519348 0.155419 0.259830
O O13 0.536153 0.000000 0.298943
O O14 0.065473 0.242810 0.068737
O O15 0.055011 0.076163 0.098129
O O16 0.558961 0.876985 0.764049
O O17 0.612876 0.000000 0.780436
O O18 0.500000 0.870335 0.000000
#
# Coordination Sequence:
#
# PCOD9169060 Si02
#       8
#     8   8   8   8   8   8   8   4
#     4   9  18  36  62  86 110 144 183 235 296 345
#     4  11  16  29  52  84 117 145 173 228 294 344
#     4  11  21  36  57  80 113 152 190 237 285 325
#     4   9  20  39  58  81 115 150 188 228 282 354
#     4  11  20  30  55  89 118 140 179 234 293 339
#     4  11  25  42  54  71 111 164 205 226 260 332
#     4  11  24  35  55  85 115 148 188 237 281 337
#     4  10  16  33  51  83 114 137 180 224 292 337
#
# _framework density 18.005555000000001
#
# number of rings (size 3 to 8) (size 9 to 14) (size 15 to 20)
#    0.000    1.600    5.333    1.600    3.733    1.600 
#    0.000    0.000    0.000    0.000    0.000    0.000 
#    0.000    6.933    0.000    0.000    0.000    0.000 
#
# Total GULP energy -167048.509951 kJ/mol
# GULP energy per Si atom -5568.283665 kJ/mol
# Density = 1.796457 g / cm^3
# Si number density = 18.005555 Si / 1000 Ang^3
#
#
#
# Elastic Constant Matrix: (Units=GPa)
#
#
# Indices 1 2 3 4 5 6 
#
# 1 89.2350 22.9027 17.4784 0.0000 -9.3283 0.0000
# 2 22.9027 41.7133 18.1647 0.0000 1.3476 0.0000
# 3 17.4784 18.1647 52.9200 0.0000 -17.5766 0.0000
# 4 0.0000 0.0000 0.0000 7.6095 0.0000 0.0005
# 5 -9.3283 1.3476 -17.5766 0.0000 26.2505 0.0000
# 6 0.0000 0.0000 0.0000 0.0005 0.0000 22.0291
#
#
#
# Elastic Compliance Matrix: (Units=1/GPa)
#
#
# Indices 1 2 3 4 5 6 
#
# 1 0.013739 -0.007612 -0.000223 0.000000 0.005124 0.000000
# 2 -0.007612 0.034696 -0.013998 0.000000 -0.013859 0.000000
# 3 -0.000223 -0.013998 0.030848 0.000000 0.021294 0.000000
# 4 0.000000 0.000000 0.000000 0.131415 0.000000 -0.000003
# 5 0.005124 -0.013859 0.021294 0.000000 0.054885 0.000000
# 6 0.000000 0.000000 0.000000 -0.000003 0.000000 0.045394
#
#
# Mechanical properties :
#
#
# Convention : Reuss Voigt Hill
#
# Bulk Modulus (GPa) = 28.07743 33.44000 30.75871
# Shear Modulus (GPa) = 13.64196 19.53265 16.58730
#
# Velocity S-wave (km/s) = 2.75554 3.29722 3.03847
# Velocity P-wave (km/s) = 5.07460 5.75395 5.42492
#
# Compressibility (1/GPa) = 0.03561580
#
# Stress axis : x y z
#
# Youngs Moduli (GPa) = 72.78368 28.82175 32.41736
#
# Poissons Ratio (x) = 0.21939 0.00724
# Poissons Ratio (y) = 0.55402 0.45379
# Poissons Ratio (z) = 0.01626 0.40346
#
# Static dielectric constant tensor:
#      x y z
#    x 1.626690 0.000000 -0.010360 
#    y 0.000000 1.615850 0.000000 
#    z -0.010360 0.000000 1.626980 
# 
# From -- ./inp_files/246719.got.cif
#   From: 2010.05.17/outbox.cif.g08.bks.cpg/sg12_124_cif.got.tgz:246719.got - 2010.06.03 13:09:07.
