data_PCOD9169273
_publ_section_title
;
Structure prediction by ZEFSAII (Michael W. Deem and Ramdas Pophale) SiO2 
 PCOD9169273
Probable space group: C 2/M
;
_chemical_formula_sum "Si O2"
_cell_formula_units_Z 64
_cell_length_a 16.945372
_cell_length_b 14.684735
_cell_length_c 14.804621
_cell_angle_alpha 90.000000
_cell_angle_beta 101.239785
_cell_angle_gamma 90.000000
_cell_volume 3613.298564
_symmetry_space_group_name_H-M "C 2/M"
_symmetry_group_IT_number 12
_symmetry_cell_setting 'monoclinic'
loop_
_space_group_symop_operation_xyz
x,y,z
-x,y,-z
-x,-y,-z
x,-y,z
1/2+x,1/2+y,z
1/2-x,1/2+y,-z
1/2-x,1/2-y,-z
1/2+x,1/2-y,z
loop_
_atom_site_type_symbol
_atom_site_label
_atom_site_fract_x
_atom_site_fract_y
_atom_site_fract_z
Si Si1 0.615146 0.602970 0.103413
Si Si2 0.716854 0.391169 0.451468
Si Si3 0.075827 0.895756 0.892624
Si Si4 0.019377 0.602671 0.607162
Si Si5 0.086113 0.896390 0.566827
Si Si6 0.146849 0.220737 0.275336
Si Si7 0.162500 0.600835 0.371447
Si Si8 0.046097 0.227190 0.724127
O O1 0.644309 0.500000 0.130330
O O2 0.519572 0.602868 0.104851
O O3 0.652489 0.678344 0.177267
O O4 0.621259 0.618931 0.997653
O O5 0.709553 0.500000 0.435867
O O6 0.649788 0.360617 0.508960
O O7 0.698142 0.340615 0.355369
O O8 0.798959 0.372529 0.523312
O O9 0.085114 0.813061 0.824236
O O10 0.094060 0.000000 0.863943
O O11 0.054930 0.500000 0.608011
O O12 0.063415 0.673907 0.683176
O O13 0.000000 0.635585 0.500000
O O14 0.932018 0.594652 0.633031
O O15 0.076436 0.840491 0.654341
O O16 0.000000 0.896524 0.500000
O O17 0.108655 0.000000 0.592850
O O18 0.176678 0.323261 0.299312
O O19 0.051549 0.218498 0.283496
O O20 0.193797 0.500000 0.355678
#
# Coordination Sequence:
#
# PCOD9169273 Si02
#       8
#     8   8   8   8   8   8   8   8
#     4   8  14  24  39  61  86 110 140 171 209 258
#     4  10  19  29  41  61  91 117 140 172 210 254
#     4   8  14  24  38  60  89 114 134 168 213 258
#     4   9  18  31  46  61  81 113 151 187 217 245
#     4  10  18  26  38  61  91 117 139 165 202 258
#     4  10  17  26  43  61  81 116 145 173 211 252
#     4   9  19  32  43  59  85 114 147 183 213 247
#     4  10  17  25  42  61  86 113 143 172 208 253
#
# _framework density 17.712347999999999
#
# number of rings (size 3 to 8) (size 9 to 14) (size 15 to 20)
#    0.000    2.750    1.250    2.250    1.750    1.000 
#    0.000    0.000    0.000    0.750    0.000    6.125 
#    0.000    0.000    0.000    0.000    0.000    0.000 
#
# Total GULP energy -178146.078644 kJ/mol
# GULP energy per Si atom -5567.064958 kJ/mol
# Density = 1.767203 g / cm^3
# Si number density = 17.712348 Si / 1000 Ang^3
#
#
#
# Elastic Constant Matrix: (Units=GPa)
#
#
# Indices 1 2 3 4 5 6 
#
# 1 4.1825 3.2364 -1.4528 0.0000 1.2278 0.0000
# 2 3.2364 110.8689 82.1969 0.0000 0.8469 0.0000
# 3 -1.4528 82.1969 112.3208 0.0000 0.7120 0.0000
# 4 0.0000 0.0000 0.0000 33.8520 0.0000 -0.3423
# 5 1.2278 0.8469 0.7120 0.0000 13.6879 0.0000
# 6 0.0000 0.0000 0.0000 -0.3423 0.0000 4.0054
#
#
#
# Elastic Compliance Matrix: (Units=1/GPa)
#
#
# Indices 1 2 3 4 5 6 
#
# 1 0.270834 -0.022806 0.020344 0.000000 -0.023941 0.000000
# 2 -0.022806 0.021641 -0.016142 0.000000 0.001546 0.000000
# 3 0.020344 -0.016142 0.020991 0.000000 -0.001918 0.000000
# 4 0.000000 0.000000 0.000000 0.029566 0.000000 0.002527
# 5 -0.023941 0.001546 -0.001918 0.000000 0.075209 0.000000
# 6 0.000000 0.000000 0.000000 0.002527 0.000000 0.249881
#
#
# Mechanical properties :
#
#
# Convention : Reuss Voigt Hill
#
# Bulk Modulus (GPa) = 3.61980 43.92593 23.77286
# Shear Modulus (GPa) = 6.27027 19.86849 13.06938
#
# Velocity S-wave (km/s) = 1.88354 3.35286 2.71932
# Velocity P-wave (km/s) = 2.60354 6.31208 4.82808
#
# Compressibility (1/GPa) = 0.27625861
#
# Stress axis : x y z
#
# Youngs Moduli (GPa) = 3.69230 46.20894 47.63970
#
# Poissons Ratio (x) = 1.05386 -0.96921
# Poissons Ratio (y) = 0.08421 0.76898
# Poissons Ratio (z) = -0.07512 0.74589
#
# Static dielectric constant tensor:
#      x y z
#    x 1.476420 0.000000 0.017430 
#    y 0.000000 1.671410 0.000000 
#    z 0.017430 0.000000 1.596600 
# 
# From -- ./inp_files/233172.got.cif
#   From: 2010.05.17/outbox.cif.g08.bks.cpg/sg12_117_cif.got.tgz:233172.got - 2010.06.03 13:09:07.
