data_PCOD9169333
_publ_section_title
;
Structure prediction by ZEFSAII (Michael W. Deem and Ramdas Pophale) SiO2 
 PCOD9169333
Probable space group: C 2/M
;
_chemical_formula_sum "Si O2"
_cell_formula_units_Z 56
_cell_length_a 29.832632
_cell_length_b 7.646345
_cell_length_c 14.489127
_cell_angle_alpha 90.000000
_cell_angle_beta 105.599895
_cell_angle_gamma 90.000000
_cell_volume 3183.372769
_symmetry_space_group_name_H-M "C 2/M"
_symmetry_group_IT_number 12
_symmetry_cell_setting 'monoclinic'
loop_
_space_group_symop_operation_xyz
x,y,z
-x,y,-z
-x,-y,-z
x,-y,z
1/2+x,1/2+y,z
1/2-x,1/2+y,-z
1/2-x,1/2-y,-z
1/2+x,1/2-y,z
loop_
_atom_site_type_symbol
_atom_site_label
_atom_site_fract_x
_atom_site_fract_y
_atom_site_fract_z
Si Si1 0.352689 0.215268 0.618560
Si Si2 0.261729 0.290049 0.111364
Si Si3 0.794011 0.700894 0.413136
Si Si4 0.205573 0.700305 0.250929
Si Si5 0.649965 0.293551 0.728825
Si Si6 0.052549 0.286527 0.422413
Si Si7 0.449505 0.210209 0.365206
O O1 0.315544 0.270240 0.519671
O O2 0.335388 0.276886 0.708937
O O3 0.403755 0.271179 0.614041
O O4 0.351911 0.000000 0.617777
O O5 0.261198 0.500000 0.120071
O O6 0.224432 0.219890 0.165911
O O7 0.312961 0.232011 0.173957
O O8 0.250000 0.250000 0.000000
O O9 0.779718 0.500000 0.418925
O O10 0.750742 0.798343 0.343233
O O11 0.834751 0.705714 0.358836
O O12 0.192415 0.500000 0.223757
O O13 0.656823 0.500000 0.719471
O O14 0.595797 0.263062 0.716808
O O15 0.053434 0.500000 0.423011
O O16 0.057323 0.230879 0.532085
O O17 0.000840 0.231268 0.362559
O O18 0.450505 0.000000 0.367698
#
# Coordination Sequence:
#
# PCOD9169333 Si02
#       7
#     8   8   8   8   8   8   8
#     4   9  15  25  42  62  87 120 149 172 206 249
#     4   9  19  33  47  64  84 108 138 179 226 265
#     4  10  17  26  42  62  85 118 153 174 200 249
#     4   9  18  30  43  62  88 113 140 177 220 259
#     4  10  19  30  44  64  91 116 142 180 224 259
#     4   8  14  24  41  64  89 118 152 183 203 235
#     4   9  15  26  44  64  87 117 154 183 204 242
#
# _framework density 17.591405999999999
#
# number of rings (size 3 to 8) (size 9 to 14) (size 15 to 20)
#    0.000    2.857    1.429    3.000    0.000    2.857 
#    0.000    2.143    0.000    0.000    0.000    1.000 
#    0.000    8.000    0.000    0.000    0.000    0.000 
#
# Total GULP energy -156019.108975 kJ/mol
# GULP energy per Si atom -5572.111035 kJ/mol
# Density = 1.755137 g / cm^3
# Si number density = 17.591406 Si / 1000 Ang^3
#
#
#
# Elastic Constant Matrix: (Units=GPa)
#
#
# Indices 1 2 3 4 5 6 
#
# 1 117.8336 0.7343 60.4438 0.0000 -17.9089 0.0000
# 2 0.7343 37.2675 2.4151 0.0000 -1.5240 0.0000
# 3 60.4438 2.4151 106.2800 0.0000 -10.6119 0.0000
# 4 0.0000 0.0000 0.0000 -11.1306 0.0000 5.0228
# 5 -17.9089 -1.5240 -10.6119 0.0000 17.4186 0.0000
# 6 0.0000 0.0000 0.0000 5.0228 0.0000 13.2426
#
#
#
# Elastic Compliance Matrix: (Units=1/GPa)
#
#
# Indices 1 2 3 4 5 6 
#
# 1 0.013374 0.000566 -0.006645 0.000000 0.009751 0.000000
# 2 0.000566 0.026969 -0.000683 0.000000 0.002526 0.000000
# 3 -0.006645 -0.000683 0.013326 0.000000 0.001227 0.000000
# 4 0.000000 0.000000 0.000000 -0.076712 0.000000 0.029096
# 5 0.009751 0.002526 0.001227 0.000000 0.068404 0.000000
# 6 0.000000 0.000000 0.000000 0.029096 0.000000 0.064478
#
#
# Mechanical properties :
#
#
# Convention : Reuss Voigt Hill
#
# Bulk Modulus (GPa) = 24.90909 43.17416 34.04162
# Shear Modulus (GPa) = 36.56439 17.09197 26.82818
#
# Velocity S-wave (km/s) = 4.56404 3.12045 3.90946
# Velocity P-wave (km/s) = 6.47800 6.13017 6.30648
#
# Compressibility (1/GPa) = 0.04014599
#
# Stress axis : x y z
#
# Youngs Moduli (GPa) = 74.77318 37.07905 75.03918
#
# Poissons Ratio (x) = -0.02098 0.49865
# Poissons Ratio (y) = -0.04231 0.05122
# Poissons Ratio (z) = 0.49688 0.02531
#
# Static dielectric constant tensor:
#      x y z
#    x 1.649890 0.000000 -0.010810 
#    y 0.000000 1.661240 0.000000 
#    z -0.010810 0.000000 1.577520 
# 
# From -- ./inp_files/247895.got.cif
#   From: 2010.05.17/outbox.cif.g08.bks.cpg/sg12_124_cif.got.tgz:247895.got - 2010.06.03 13:09:07.
