data_PCOD9169470
_publ_section_title
;
Structure prediction by ZEFSAII (Michael W. Deem and Ramdas Pophale) SiO2 
 PCOD9169470
Probable space group: C 2/M
;
_chemical_formula_sum "Si O2"
_cell_formula_units_Z 56
_cell_length_a 28.979181
_cell_length_b 8.782796
_cell_length_c 14.744617
_cell_angle_alpha 90.000000
_cell_angle_beta 77.492263
_cell_angle_gamma 90.000000
_cell_volume 3663.708452
_symmetry_space_group_name_H-M "C 2/M"
_symmetry_group_IT_number 12
_symmetry_cell_setting 'monoclinic'
loop_
_space_group_symop_operation_xyz
x,y,z
-x,y,-z
-x,-y,-z
x,-y,z
1/2+x,1/2+y,z
1/2-x,1/2+y,-z
1/2-x,1/2-y,-z
1/2+x,1/2-y,z
loop_
_atom_site_type_symbol
_atom_site_label
_atom_site_fract_x
_atom_site_fract_y
_atom_site_fract_z
Si Si1 0.763721 0.315656 0.275317
Si Si2 0.431489 0.318215 0.204324
Si Si3 0.782860 0.683014 0.063983
Si Si4 0.476806 0.824014 0.909122
Si Si5 0.886318 0.818387 0.026722
Si Si6 0.853591 0.317341 0.360826
Si Si7 0.794775 0.183173 0.535820
O O1 0.764979 0.500000 0.273252
O O2 0.765685 0.263312 0.171195
O O3 0.811081 0.268470 0.309923
O O4 0.718068 0.273615 0.355180
O O5 0.432586 0.500000 0.211967
O O6 0.484348 0.254045 0.171209
O O7 0.401703 0.245112 0.298032
O O8 0.404210 0.280529 0.121361
O O9 0.781246 0.500000 0.062422
O O10 0.750000 0.750000 0.000000
O O11 0.836659 0.738217 0.030465
O O12 0.427268 0.738204 0.941564
O O13 0.469707 0.000000 0.887737
O O14 0.500000 0.819456 0.000000
O O15 0.881323 0.000000 0.023002
O O16 0.853877 0.500000 0.363868
O O17 0.839673 0.251580 0.465032
O O18 0.750000 0.250000 0.500000
O O19 0.795301 0.000000 0.528565
#
# Coordination Sequence:
#
# PCOD9169470 Si02
#       7
#     8   8   8   8   8   8   8
#     4   8  16  29  44  58  82 115 147 182 225 266
#     4  10  18  27  42  65  91 118 149 185 218 262
#     4  11  21  34  48  65  87 117 155 194 229 267
#     4   9  17  28  43  62  85 117 149 179 219 269
#     4  10  19  31  45  63  86 115 150 189 228 264
#     4  10  17  27  42  63  88 119 149 179 218 267
#     4   9  16  27  41  61  83 112 146 180 219 266
#
# _framework density 15.285057999999999
#
# number of rings (size 3 to 8) (size 9 to 14) (size 15 to 20)
#    0.000    2.429    1.429    3.429    0.000    2.857 
#    0.000    2.143    0.000    0.000    0.000    0.000 
#    0.000    1.143    0.000   12.286    0.000    5.429 
#
# Total GULP energy -155997.410253 kJ/mol
# GULP energy per Si atom -5571.336080 kJ/mol
# Density = 1.525027 g / cm^3
# Si number density = 15.285058 Si / 1000 Ang^3
#
#
#
# Elastic Constant Matrix: (Units=GPa)
#
#
# Indices 1 2 3 4 5 6 
#
# 1 65.2210 34.9534 61.5362 0.0000 -21.3623 0.0000
# 2 34.9534 56.9878 36.6757 0.0000 -15.5591 0.0000
# 3 61.5362 36.6757 117.9520 0.0000 -36.6289 0.0000
# 4 0.0000 0.0000 0.0000 22.4435 0.0000 -7.8137
# 5 -21.3623 -15.5591 -36.6289 0.0000 31.1605 0.0000
# 6 0.0000 0.0000 0.0000 -7.8137 0.0000 23.3434
#
#
#
# Elastic Compliance Matrix: (Units=1/GPa)
#
#
# Indices 1 2 3 4 5 6 
#
# 1 0.036240 -0.012439 -0.014572 0.000000 0.001505 0.000000
# 2 -0.012439 0.026638 -0.000490 0.000000 0.004198 0.000000
# 3 -0.014572 -0.000490 0.020559 0.000000 0.013933 0.000000
# 4 0.000000 0.000000 0.000000 0.050434 0.000000 0.016882
# 5 0.001505 0.004198 0.013933 0.000000 0.051598 0.000000
# 6 0.000000 0.000000 0.000000 0.016882 0.000000 0.048490
#
#
# Mechanical properties :
#
#
# Convention : Reuss Voigt Hill
#
# Bulk Modulus (GPa) = 35.16585 56.27682 45.72134
# Shear Modulus (GPa) = 16.75390 22.52251 19.63820
#
# Velocity S-wave (km/s) = 3.31433 3.84278 3.58830
# Velocity P-wave (km/s) = 6.14028 7.52246 6.86624
#
# Compressibility (1/GPa) = 0.02843668
#
# Stress axis : x y z
#
# Youngs Moduli (GPa) = 27.59384 37.53978 48.64032
#
# Poissons Ratio (x) = 0.46696 0.70876
# Poissons Ratio (y) = 0.34324 0.02382
# Poissons Ratio (z) = 0.40208 0.01839
#
# Static dielectric constant tensor:
#      x y z
#    x 1.482530 0.000000 -0.025500 
#    y 0.000000 1.509610 0.000000 
#    z -0.025500 0.000000 1.530610 
# 
# From -- ./inp_files/243248.got.cif
#   From: 2010.05.17/outbox.cif.g08.bks.cpg/sg12_122_cif.got.tgz:243248.got - 2010.06.03 13:09:07.
