data_PCOD9169859
_publ_section_title
;
Structure prediction by ZEFSAII (Michael W. Deem and Ramdas Pophale) SiO2 
 PCOD9169859
Probable space group: C 2/M
;
_chemical_formula_sum "Si O2"
_cell_formula_units_Z 44
_cell_length_a 16.326021
_cell_length_b 24.782974
_cell_length_c 11.892383
_cell_angle_alpha 90.000000
_cell_angle_beta 155.847775
_cell_angle_gamma 90.000000
_cell_volume 1968.785084
_symmetry_space_group_name_H-M "C 2/M"
_symmetry_group_IT_number 12
_symmetry_cell_setting 'monoclinic'
loop_
_space_group_symop_operation_xyz
x,y,z
-x,y,-z
-x,-y,-z
x,-y,z
1/2+x,1/2+y,z
1/2-x,1/2+y,-z
1/2-x,1/2-y,-z
1/2+x,1/2-y,z
loop_
_atom_site_type_symbol
_atom_site_label
_atom_site_fract_x
_atom_site_fract_y
_atom_site_fract_z
Si Si1 0.298639 0.328592 0.631384
Si Si2 0.206435 0.209583 0.115398
Si Si3 0.889584 0.323902 0.982459
Si Si4 0.627903 0.941935 0.045087
Si Si5 0.500000 0.877662 0.500000
Si Si6 0.285326 0.940044 0.426830
O O1 0.288588 0.305061 0.744817
O O2 0.357252 0.392094 0.709566
O O3 0.082695 0.325694 0.305572
O O4 0.477248 0.299065 0.790996
O O5 0.353479 0.164292 0.251058
O O6 0.246118 0.272843 0.154733
O O7 0.779858 0.381979 0.844523
O O8 0.000000 0.314842 0.000000
O O9 0.468814 0.943092 0.744336
O O10 0.739327 0.000000 0.181892
O O11 0.500000 0.941557 0.000000
O O12 0.375436 0.916116 0.425268
O O13 0.201868 0.000000 0.312521
#
# Coordination Sequence:
#
# PCOD9169859 Si02
#       6
#     8   8   8   8   4   8
#     4   9  18  32  50  75  99 126 171 217 249 290
#     4  10  19  32  48  70 106 136 165 207 252 299
#     4  10  17  28  54  76  98 130 166 209 260 293
#     4   8  15  28  48  77  99 119 162 212 249 291
#     4  10  21  34  46  72 109 138 168 198 250 312
#     4   9  17  32  52  73 100 133 168 206 254 301
#
# _framework density 22.348807000000001
#
# number of rings (size 3 to 8) (size 9 to 14) (size 15 to 20)
#    0.000    2.727    1.818    0.818    0.000    0.000 
#    0.000   16.364    0.000    0.000    0.000    0.636 
#    0.000    1.818    0.000    0.000    0.000    0.000 
#
# Total GULP energy -122571.427111 kJ/mol
# GULP energy per Si atom -5571.428505 kJ/mol
# Density = 2.229794 g / cm^3
# Si number density = 22.348807 Si / 1000 Ang^3
#
#
#
# Elastic Constant Matrix: (Units=GPa)
#
#
# Indices 1 2 3 4 5 6 
#
# 1 24.2683 -0.7955 15.5204 0.0000 -4.8363 0.0000
# 2 -0.7955 234.0310 4.7035 0.0000 -1.6465 0.0000
# 3 15.5204 4.7035 41.5196 0.0000 -7.3548 0.0000
# 4 0.0000 0.0000 0.0000 21.8181 0.0000 -2.7451
# 5 -4.8363 -1.6465 -7.3548 0.0000 17.8305 0.0000
# 6 0.0000 0.0000 0.0000 -2.7451 0.0000 17.1530
#
#
#
# Elastic Compliance Matrix: (Units=1/GPa)
#
#
# Indices 1 2 3 4 5 6 
#
# 1 0.055027 0.000626 -0.019404 0.000000 0.006979 0.000000
# 2 0.000626 0.004291 -0.000669 0.000000 0.000290 0.000000
# 3 -0.019404 -0.000669 0.032873 0.000000 0.008235 0.000000
# 4 0.000000 0.000000 0.000000 0.046775 0.000000 0.007486
# 5 0.006979 0.000290 0.008235 0.000000 0.061400 0.000000
# 6 0.000000 0.000000 0.000000 0.007486 0.000000 0.059497
#
#
# Mechanical properties :
#
#
# Convention : Reuss Voigt Hill
#
# Bulk Modulus (GPa) = 18.76278 37.63064 28.19671
# Shear Modulus (GPa) = 15.79667 30.05301 22.92484
#
# Velocity S-wave (km/s) = 2.66150 3.67103 3.20625
# Velocity P-wave (km/s) = 4.22592 5.90280 5.13330
#
# Compressibility (1/GPa) = 0.05329699
#
# Stress axis : x y z
#
# Youngs Moduli (GPa) = 18.17285 233.07050 30.42019
#
# Poissons Ratio (x) = -0.14593 0.59028
# Poissons Ratio (y) = -0.01138 0.02034
# Poissons Ratio (z) = 0.35263 0.15585
#
# Static dielectric constant tensor:
#      x y z
#    x 1.694490 0.000000 -0.040990 
#    y 0.000000 1.913870 0.000000 
#    z -0.040990 0.000000 1.826760 
# 
# From -- ./inp_files/160378.got.cif
#   From: 2010.05.17/outbox.cif.g08.bks.cpg/sg12_81_cif.got.tgz:160378.got - 2010.06.03 13:09:07.
