data_PCOD9169546
_publ_section_title
;
Structure prediction by ZEFSAII (Michael W. Deem and Ramdas Pophale) SiO2 
 PCOD9169546
Probable space group: C 2/M
;
_chemical_formula_sum "Si O2"
_cell_formula_units_Z 56
_cell_length_a 7.655561
_cell_length_b 20.404961
_cell_length_c 21.729881
_cell_angle_alpha 90.000000
_cell_angle_beta 118.655412
_cell_angle_gamma 90.000000
_cell_volume 2978.701400
_symmetry_space_group_name_H-M "C 2/M"
_symmetry_group_IT_number 12
_symmetry_cell_setting 'monoclinic'
loop_
_space_group_symop_operation_xyz
x,y,z
-x,y,-z
-x,-y,-z
x,-y,z
1/2+x,1/2+y,z
1/2-x,1/2+y,-z
1/2-x,1/2-y,-z
1/2+x,1/2-y,z
loop_
_atom_site_type_symbol
_atom_site_label
_atom_site_fract_x
_atom_site_fract_y
_atom_site_fract_z
Si Si1 0.866308 0.076879 0.567229
Si Si2 0.835297 0.079422 0.924367
Si Si3 0.360920 0.816569 0.534304
Si Si4 0.145122 0.614187 0.656379
Si Si5 0.964925 0.079033 0.806695
Si Si6 0.102184 0.420359 0.166232
Si Si7 0.706196 0.925154 0.319186
O O1 0.781273 0.120450 0.497173
O O2 0.733482 0.085049 0.607477
O O3 0.086702 0.103356 0.621269
O O4 0.868351 0.000000 0.550953
O O5 0.895728 0.092829 0.864150
O O6 0.608786 0.102827 0.895903
O O7 0.833506 0.000000 0.929964
O O8 0.000000 0.104298 0.000000
O O9 0.500000 0.825083 0.500000
O O10 0.250000 0.750000 0.500000
O O11 0.513467 0.821447 0.616867
O O12 0.328899 0.616505 0.734195
O O13 0.974239 0.574207 0.663334
O O14 0.196695 0.095054 0.836207
O O15 0.939255 0.000000 0.791142
O O16 0.088512 0.500000 0.165457
O O17 0.131334 0.396938 0.241633
O O18 0.763821 0.000000 0.314746
#
# Coordination Sequence:
#
# PCOD9169546 Si02
#       7
#     8   8   8   8   8   8   8
#     4  10  21  36  54  80 104 130 178 232 272 316
#     4   9  17  27  39  61  95 138 182 215 257 320
#     4  10  25  42  57  74 107 147 176 218 280 335
#     4  11  20  32  53  75  97 136 178 223 265 321
#     4  10  17  27  45  67  97 131 172 226 269 308
#     4   9  16  26  41  63  96 133 170 216 269 311
#     4  10  18  28  49  76  99 126 166 226 279 311
#
# _framework density 18.800139000000001
#
# number of rings (size 3 to 8) (size 9 to 14) (size 15 to 20)
#    0.000    2.143    2.857    1.286    2.000    4.286 
#    0.000    4.286    0.000    0.000    0.000    0.000 
#    0.000    0.000    0.000   11.571    1.429    4.571 
#
# Total GULP energy -155876.706102 kJ/mol
# GULP energy per Si atom -5567.025218 kJ/mol
# Density = 1.875735 g / cm^3
# Si number density = 18.800139 Si / 1000 Ang^3
#
#
#
# Elastic Constant Matrix: (Units=GPa)
#
#
# Indices 1 2 3 4 5 6 
#
# 1 98.9745 10.1710 44.6309 0.0000 33.9906 0.0000
# 2 10.1710 32.9930 34.7202 0.0000 9.6706 0.0000
# 3 44.6309 34.7202 136.8235 0.0000 35.4592 0.0000
# 4 0.0000 0.0000 0.0000 14.6637 0.0000 6.8995
# 5 33.9906 9.6706 35.4592 0.0000 31.8843 0.0000
# 6 0.0000 0.0000 0.0000 6.8995 0.0000 6.4991
#
#
#
# Elastic Compliance Matrix: (Units=1/GPa)
#
#
# Indices 1 2 3 4 5 6 
#
# 1 0.016097 0.001212 -0.001427 0.000000 -0.015941 0.000000
# 2 0.001212 0.041478 -0.010292 0.000000 -0.002426 0.000000
# 3 -0.001427 -0.010292 0.012901 0.000000 -0.009704 0.000000
# 4 0.000000 0.000000 0.000000 0.136255 0.000000 -0.144649
# 5 -0.015941 -0.002426 -0.009704 0.000000 0.059886 0.000000
# 6 0.000000 0.000000 0.000000 -0.144649 0.000000 0.307428
#
#
# Mechanical properties :
#
#
# Convention : Reuss Voigt Hill
#
# Bulk Modulus (GPa) = 20.21765 49.75948 34.98856
# Shear Modulus (GPa) = 8.17600 22.56067 15.36833
#
# Velocity S-wave (km/s) = 2.08766 3.46790 2.86222
# Velocity P-wave (km/s) = 4.07289 6.52382 5.43823
#
# Compressibility (1/GPa) = 0.04946173
#
# Stress axis : x y z
#
# Youngs Moduli (GPa) = 62.12254 24.10940 77.51453
#
# Poissons Ratio (x) = -0.02922 0.11061
# Poissons Ratio (y) = -0.07528 0.79776
# Poissons Ratio (z) = 0.08865 0.24813
#
# Static dielectric constant tensor:
#      x y z
#    x 1.707290 0.000000 0.047520 
#    y 0.000000 1.596790 0.000000 
#    z 0.047520 0.000000 1.728350 
# 
# From -- ./inp_files/356977.got.cif
#   From: 2010.05.17/outbox.cif.g08.bks.cpg/sg12_179_cif.got.tgz:356977.got - 2010.06.03 13:09:07.
