data_PCOD9169246
_publ_section_title
;
Structure prediction by ZEFSAII (Michael W. Deem and Ramdas Pophale) SiO2 
 PCOD9169246
Probable space group: C 2/M
;
_chemical_formula_sum "Si O2"
_cell_formula_units_Z 48
_cell_length_a 15.889462
_cell_length_b 7.704325
_cell_length_c 23.887645
_cell_angle_alpha 90.000000
_cell_angle_beta 142.875861
_cell_angle_gamma 90.000000
_cell_volume 1764.924095
_symmetry_space_group_name_H-M "C 2/M"
_symmetry_group_IT_number 12
_symmetry_cell_setting 'monoclinic'
loop_
_space_group_symop_operation_xyz
x,y,z
-x,y,-z
-x,-y,-z
x,-y,z
1/2+x,1/2+y,z
1/2-x,1/2+y,-z
1/2-x,1/2-y,-z
1/2+x,1/2-y,z
loop_
_atom_site_type_symbol
_atom_site_label
_atom_site_fract_x
_atom_site_fract_y
_atom_site_fract_z
Si Si1 0.990567 0.291954 0.687312
Si Si2 0.073979 0.194032 0.463817
Si Si3 0.702156 0.712430 0.194785
Si Si4 0.101759 0.287507 0.859767
Si Si5 0.784197 0.696941 0.355318
Si Si6 0.411432 0.299539 0.018218
O O1 0.976645 0.500000 0.678684
O O2 0.899983 0.220629 0.587994
O O3 0.148928 0.245467 0.752190
O O4 0.992530 0.238010 0.753312
O O5 0.943415 0.308654 0.414343
O O6 0.197517 0.218011 0.574114
O O7 0.021603 0.000000 0.443575
O O8 0.695689 0.500000 0.193562
O O9 0.704238 0.779230 0.260074
O O10 0.566575 0.771924 0.088295
O O11 0.103093 0.500000 0.864818
O O12 0.082279 0.207812 0.910312
O O13 0.258130 0.228846 0.924489
O O14 0.740702 0.500000 0.340593
O O15 0.405927 0.500000 0.997265
#
# Coordination Sequence:
#
# PCOD9169246 Si02
#       6
#     8   8   8   8   8   8
#     4   9  17  30  46  66  92 120 153 188 223 264
#     4  10  17  25  40  65  93 119 149 184 225 267
#     4   8  15  27  46  70  91 116 150 187 224 260
#     4   9  18  31  48  68  90 120 153 184 222 270
#     4   9  15  26  43  63  90 122 152 181 219 267
#     4   9  17  31  49  68  91 118 150 186 224 269
#
# _framework density 27.196635000000001
#
# number of rings (size 3 to 8) (size 9 to 14) (size 15 to 20)
#    0.000    3.000    0.000    4.000    0.000    1.333 
#    0.000    7.500    0.000    1.000    0.000    9.333 
#    0.000    0.000    0.000    0.000    0.000    0.000 
#
# Total GULP energy -134154.578246 kJ/mol
# GULP energy per Si atom -5589.774094 kJ/mol
# Density = 2.713473 g / cm^3
# Si number density = 27.196635 Si / 1000 Ang^3
#
#
#
# Elastic Constant Matrix: (Units=GPa)
#
#
# Indices 1 2 3 4 5 6 
#
# 1 81.4072 9.0258 5.0222 0.0000 -13.1013 0.0000
# 2 9.0258 90.0933 9.5248 0.0000 -3.9696 0.0000
# 3 5.0222 9.5248 206.4196 0.0000 -14.7550 0.0000
# 4 0.0000 0.0000 0.0000 15.7868 0.0000 -7.7473
# 5 -13.1013 -3.9696 -14.7550 0.0000 68.8391 0.0000
# 6 0.0000 0.0000 0.0000 -7.7473 0.0000 -1.1485
#
#
#
# Elastic Compliance Matrix: (Units=1/GPa)
#
#
# Indices 1 2 3 4 5 6 
#
# 1 0.012797 -0.001169 -0.000090 0.000000 0.002349 0.000000
# 2 -0.001169 0.011281 -0.000469 0.000000 0.000328 0.000000
# 3 -0.000090 -0.000469 0.004941 0.000000 0.001015 0.000000
# 4 0.000000 0.000000 0.000000 0.014696 0.000000 -0.099131
# 5 0.002349 0.000328 0.001015 0.000000 0.015210 0.000000
# 6 0.000000 0.000000 0.000000 -0.099131 0.000000 -0.202001
#
#
# Mechanical properties :
#
#
# Convention : Reuss Voigt Hill
#
# Bulk Modulus (GPa) = 39.11728 47.22949 43.17338
# Shear Modulus (GPa) = -38.13875 40.31863 1.08994
#
# Velocity S-wave (km/s) = -3.74884 3.85448 0.63375
# Velocity P-wave (km/s) = 2.07943 6.10025 4.05518
#
# Compressibility (1/GPa) = 0.02556415
#
# Stress axis : x y z
#
# Youngs Moduli (GPa) = 78.14273 88.64693 202.39409
#
# Poissons Ratio (x) = 0.10364 0.01812
# Poissons Ratio (y) = 0.09136 0.09486
# Poissons Ratio (z) = 0.00699 0.04155
#
# Static dielectric constant tensor:
#      x y z
#    x 2.277540 0.000000 0.006650 
#    y 0.000000 1.973520 0.000000 
#    z 0.006650 0.000000 2.143080 
# 
# From -- ./inp_files/273658.got.cif
#   From: 2010.05.17/outbox.cif.g08.bks.cpg/sg12_137_cif.got.tgz:273658.got - 2010.06.03 13:09:07.
