data_PCOD9169133
_publ_section_title
;
Structure prediction by ZEFSAII (Michael W. Deem and Ramdas Pophale) SiO2 
 PCOD9169133
Probable space group: C 2/M
;
_chemical_formula_sum "Si O2"
_cell_formula_units_Z 40
_cell_length_a 25.427361
_cell_length_b 16.315447
_cell_length_c 14.432289
_cell_angle_alpha 90.000000
_cell_angle_beta 165.037818
_cell_angle_gamma 90.000000
_cell_volume 1545.825566
_symmetry_space_group_name_H-M "C 2/M"
_symmetry_group_IT_number 12
_symmetry_cell_setting 'monoclinic'
loop_
_space_group_symop_operation_xyz
x,y,z
-x,y,-z
-x,-y,-z
x,-y,z
1/2+x,1/2+y,z
1/2-x,1/2+y,-z
1/2-x,1/2-y,-z
1/2+x,1/2-y,z
loop_
_atom_site_type_symbol
_atom_site_label
_atom_site_fract_x
_atom_site_fract_y
_atom_site_fract_z
Si Si1 0.246668 0.902100 0.917492
Si Si2 0.254239 0.597915 0.882210
Si Si3 0.736144 0.344842 0.496402
Si Si4 0.253055 0.597545 0.284675
Si Si5 0.732547 0.402760 0.294874
O O1 0.311795 0.868878 0.129381
O O2 0.309824 0.868985 0.923853
O O3 0.000000 0.897539 0.500000
O O4 0.295484 0.000000 0.997640
O O5 0.213803 0.500000 0.817727
O O6 0.499680 0.606139 0.295838
O O7 0.180545 0.628843 0.655878
O O8 0.750000 0.250000 0.500000
O O9 0.814046 0.363496 0.732345
O O10 0.822566 0.386658 0.550023
O O11 0.498856 0.370883 0.095189
O O12 0.212468 0.500000 0.219932
O O13 0.724160 0.500000 0.270755
#
# Coordination Sequence:
#
# PCOD9169133 Si02
#       5
#     8   8   8   8   8
#     4   7   9  14  27  48  69  86 109 145 182 211
#     4   7  10  17  32  52  69  85 112 151 182 206
#     4  10  17  23  34  54  77  99 125 156 186 213
#     4   8  12  19  31  48  70  94 120 146 177 220
#     4   9  16  28  43  57  73  97 130 156 179 221
#
# _framework density 25.876141000000001
#
# number of rings (size 3 to 8) (size 9 to 14) (size 15 to 20)
#    0.000    3.800    0.000    6.000    0.000    0.000 
#    0.000    0.000    0.000    1.200    0.000   25.200 
#    0.000    0.000    0.000    0.000    0.000  293.000 
#
# Total GULP energy -111702.859019 kJ/mol
# GULP energy per Si atom -5585.142951 kJ/mol
# Density = 2.581725 g / cm^3
# Si number density = 25.876141 Si / 1000 Ang^3
#
#
#
# Elastic Constant Matrix: (Units=GPa)
#
#
# Indices 1 2 3 4 5 6 
#
# 1 361.2907 52.3389 92.9059 0.0000 -56.3132 -0.0001
# 2 52.3389 43.1253 12.2539 0.0000 -15.2191 0.0000
# 3 92.9059 12.2539 147.8314 -0.0001 -55.3262 -0.0002
# 4 0.0000 0.0000 -0.0001 -3.9163 0.0000 -10.0438
# 5 -56.3132 -15.2191 -55.3262 0.0000 77.4656 -0.0001
# 6 -0.0001 0.0000 -0.0002 -10.0438 -0.0001 32.2196
#
#
#
# Elastic Compliance Matrix: (Units=1/GPa)
#
#
# Indices 1 2 3 4 5 6 
#
# 1 0.003943 -0.003990 -0.001867 0.000000 0.000749 0.000000
# 2 -0.003990 0.028965 0.001571 0.000000 0.003912 0.000000
# 3 -0.001867 0.001571 0.010120 0.000000 0.006179 0.000000
# 4 0.000000 0.000000 0.000000 -0.141899 0.000000 -0.044234
# 5 0.000749 0.003912 0.006179 0.000000 0.018635 0.000000
# 6 0.000000 0.000000 0.000000 -0.044234 0.000000 0.017248
#
#
# Mechanical properties :
#
#
# Convention : Reuss Voigt Hill
#
# Bulk Modulus (GPa) = 29.02312 96.36052 62.69182
# Shear Modulus (GPa) = -116.46721 47.47038 -34.49841
#
# Velocity S-wave (km/s) = -6.71619 4.28778 -3.65528
# Velocity P-wave (km/s) = 6.99303 7.86342 2.54273
#
# Compressibility (1/GPa) = 0.03445529
#
# Stress axis : x y z
#
# Youngs Moduli (GPa) = 253.63427 34.52422 98.81347
#
# Poissons Ratio (x) = 0.13776 0.18446
# Poissons Ratio (y) = 1.01208 -0.15521
# Poissons Ratio (z) = 0.47348 -0.05423
#
# Static dielectric constant tensor:
#      x y z
#    x 2.106100 0.000000 -0.022300 
#    y 0.000000 1.894900 0.000000 
#    z -0.022300 0.000000 2.198820 
# 
# From -- ./inp_files/245437.got.cif
#   From: 2010.05.17/outbox.cif.g08.bks.cpg/sg12_123_cif.got.tgz:245437.got - 2010.06.03 13:09:07.
