data_PCOD9169860
_publ_section_title
;
Structure prediction by ZEFSAII (Michael W. Deem and Ramdas Pophale) SiO2 
 PCOD9169860
Probable space group: C 2/M
;
_chemical_formula_sum "Si O2"
_cell_formula_units_Z 56
_cell_length_a 24.449201
_cell_length_b 18.468812
_cell_length_c 8.556873
_cell_angle_alpha 90.000000
_cell_angle_beta 42.628812
_cell_angle_gamma 90.000000
_cell_volume 2616.767834
_symmetry_space_group_name_H-M "C 2/M"
_symmetry_group_IT_number 12
_symmetry_cell_setting 'monoclinic'
loop_
_space_group_symop_operation_xyz
x,y,z
-x,y,-z
-x,-y,-z
x,-y,z
1/2+x,1/2+y,z
1/2-x,1/2+y,-z
1/2-x,1/2-y,-z
1/2+x,1/2-y,z
loop_
_atom_site_type_symbol
_atom_site_label
_atom_site_fract_x
_atom_site_fract_y
_atom_site_fract_z
Si Si1 0.902926 0.916712 0.984201
Si Si2 0.095425 0.916450 0.377657
Si Si3 0.284993 0.789893 0.213514
Si Si4 0.587334 0.818538 0.803505
Si Si5 0.224142 0.372524 0.314743
Si Si6 0.605258 0.666311 0.677614
Si Si7 0.290245 0.079981 0.979949
O O1 0.927593 0.892427 0.752989
O O2 0.928581 0.000000 0.951899
O O3 0.804960 0.915146 0.185116
O O4 0.919836 0.870849 0.105899
O O5 0.079187 0.876655 0.576603
O O6 0.072065 0.000000 0.440754
O O7 0.193107 0.916520 0.169960
O O8 0.364194 0.783149 0.153486
O O9 0.255594 0.710708 0.218608
O O10 0.203882 0.822855 0.466523
O O11 0.311244 0.849880 0.034646
O O12 0.656446 0.868807 0.588268
O O13 0.572001 0.747520 0.730122
O O14 0.500000 0.853886 0.000000
O O15 0.181759 0.406736 0.254072
O O16 0.312570 0.000000 0.992982
#
# Coordination Sequence:
#
# PCOD9169860 Si02
#       7
#     8   8   8   8   8   8   8
#     4  10  17  28  54  87 113 138 177 227 279 335
#     4   8  16  27  46  83 112 130 168 220 275 333
#     4  10  18  34  56  80 108 139 181 231 279 323
#     4  11  22  36  52  75 108 147 193 230 264 325
#     4  10  17  34  55  81 110 139 177 229 279 324
#     4  10  17  33  54  78 108 142 180 232 285 319
#     4   9  18  31  54  87 111 133 174 230 284 336
#
# _framework density 21.400447
#
# number of rings (size 3 to 8) (size 9 to 14) (size 15 to 20)
#    0.000    2.286    2.857    3.000    0.000    1.714 
#    0.000    0.714    0.000    6.429    0.000    2.000 
#    0.000    0.000    0.000    0.000    0.000    0.000 
#
# Total GULP energy -156017.186546 kJ/mol
# GULP energy per Si atom -5572.042377 kJ/mol
# Density = 2.135174 g / cm^3
# Si number density = 21.400447 Si / 1000 Ang^3
#
#
#
# Elastic Constant Matrix: (Units=GPa)
#
#
# Indices 1 2 3 4 5 6 
#
# 1 83.2788 25.8894 31.3448 0.0000 -2.7988 0.0000
# 2 25.8894 53.9854 7.2126 0.0000 6.0387 0.0000
# 3 31.3448 7.2126 78.2508 0.0000 3.8812 0.0000
# 4 0.0000 0.0000 0.0000 22.6323 0.0000 8.5641
# 5 -2.7988 6.0387 3.8812 0.0000 26.5907 0.0000
# 6 0.0000 0.0000 0.0000 8.5641 0.0000 24.4860
#
#
#
# Elastic Compliance Matrix: (Units=1/GPa)
#
#
# Indices 1 2 3 4 5 6 
#
# 1 0.016947 -0.007787 -0.006293 0.000000 0.004471 0.000000
# 2 -0.007787 0.022772 0.001327 0.000000 -0.006185 0.000000
# 3 -0.006293 0.001327 0.015337 0.000000 -0.003202 0.000000
# 4 0.000000 0.000000 0.000000 0.050924 0.000000 -0.017811
# 5 0.004471 -0.006185 -0.003202 0.000000 0.039950 0.000000
# 6 0.000000 0.000000 0.000000 -0.017811 0.000000 0.047069
#
#
# Mechanical properties :
#
#
# Convention : Reuss Voigt Hill
#
# Bulk Modulus (GPa) = 33.83937 38.26763 36.05350
# Shear Modulus (GPa) = 21.89580 24.81302 23.35441
#
# Velocity S-wave (km/s) = 3.20214 3.40878 3.30707
# Velocity P-wave (km/s) = 5.43308 5.78045 5.60945
#
# Compressibility (1/GPa) = 0.02955138
#
# Stress axis : x y z
#
# Youngs Moduli (GPa) = 59.00682 43.91305 65.20378
#
# Poissons Ratio (x) = 0.34193 0.41030
# Poissons Ratio (y) = 0.45946 -0.08652
# Poissons Ratio (z) = 0.37130 -0.05827
#
# Static dielectric constant tensor:
#      x y z
#    x 1.818100 0.000000 0.018680 
#    y 0.000000 1.777450 0.000000 
#    z 0.018680 0.000000 1.881120 
# 
# From -- ./inp_files/105932.got.cif
#   From: 2010.05.17/outbox.cif.g08.bks.cpg/sg12_53_cif.got.tgz:105932.got - 2010.06.03 13:09:07.
