data_PCOD9169907
_publ_section_title
;
Structure prediction by ZEFSAII (Michael W. Deem and Ramdas Pophale) SiO2 
 PCOD9169907
Probable space group: C 2/M
;
_chemical_formula_sum "Si O2"
_cell_formula_units_Z 48
_cell_length_a 21.355632
_cell_length_b 18.984019
_cell_length_c 12.585936
_cell_angle_alpha 90.000000
_cell_angle_beta 34.934988
_cell_angle_gamma 90.000000
_cell_volume 2921.950079
_symmetry_space_group_name_H-M "C 2/M"
_symmetry_group_IT_number 12
_symmetry_cell_setting 'monoclinic'
loop_
_space_group_symop_operation_xyz
x,y,z
-x,y,-z
-x,-y,-z
x,-y,z
1/2+x,1/2+y,z
1/2-x,1/2+y,-z
1/2-x,1/2-y,-z
1/2+x,1/2-y,z
loop_
_atom_site_type_symbol
_atom_site_label
_atom_site_fract_x
_atom_site_fract_y
_atom_site_fract_z
Si Si1 0.210731 0.198129 0.460545
Si Si2 0.579485 0.080379 0.557379
Si Si3 0.572475 0.127678 0.804575
Si Si4 0.521377 0.274558 0.157873
Si Si5 0.749472 0.812480 0.229142
Si Si6 0.922908 0.701347 0.701060
O O1 0.250000 0.250000 0.500000
O O2 0.303036 0.138875 0.330262
O O3 0.215712 0.244722 0.346942
O O4 0.086320 0.180454 0.663863
O O5 0.572125 0.086256 0.694890
O O6 0.688897 0.121716 0.368491
O O7 0.479226 0.126314 0.650425
O O8 0.578158 0.000000 0.524387
O O9 0.520251 0.204942 0.847725
O O10 0.500000 0.097415 0.000000
O O11 0.568742 0.245709 0.203614
O O12 0.619816 0.312552 0.960152
O O13 0.694519 0.806391 0.189551
O O14 0.000000 0.731967 0.500000
#
# Coordination Sequence:
#
# PCOD9169907 Si02
#       6
#     8   8   8   8   8   8
#     4  10  17  29  46  75 101 126 158 204 256 300
#     4  10  21  35  49  72 104 136 171 204 238 292
#     4  10  18  31  52  75  99 129 166 208 253 293
#     4  10  18  28  47  75 102 127 159 202 255 307
#     4  11  18  29  51  72 100 132 159 205 252 296
#     4   9  17  31  46  71 102 127 159 203 251 291
#
# _framework density 16.427385000000001
#
# number of rings (size 3 to 8) (size 9 to 14) (size 15 to 20)
#    0.000    2.000    8.333    0.500    0.000    3.333 
#    0.000    0.000    0.000    2.000    0.000    0.000 
#    0.000    2.000    0.000    0.000    0.000    0.000 
#
# Total GULP energy -133667.799551 kJ/mol
# GULP energy per Si atom -5569.491648 kJ/mol
# Density = 1.639000 g / cm^3
# Si number density = 16.427385 Si / 1000 Ang^3
#
#
#
# Elastic Constant Matrix: (Units=GPa)
#
#
# Indices 1 2 3 4 5 6 
#
# 1 75.3746 13.3236 31.2364 0.0000 -0.1210 0.0000
# 2 13.3236 19.9912 4.1008 0.0000 -5.9500 0.0000
# 3 31.2364 4.1008 103.3806 0.0000 -21.1968 0.0000
# 4 0.0000 0.0000 0.0000 4.0159 0.0000 -0.6363
# 5 -0.1210 -5.9500 -21.1968 0.0000 34.4788 0.0000
# 6 0.0000 0.0000 0.0000 -0.6363 0.0000 5.4629
#
#
#
# Elastic Compliance Matrix: (Units=1/GPa)
#
#
# Indices 1 2 3 4 5 6 
#
# 1 0.018016 -0.012494 -0.006153 0.000000 -0.005875 0.000000
# 2 -0.012494 0.061400 0.004008 0.000000 0.013016 0.000000
# 3 -0.006153 0.004008 0.013171 0.000000 0.008767 0.000000
# 4 0.000000 0.000000 0.000000 0.253689 0.000000 0.029548
# 5 -0.005875 0.013016 0.008767 0.000000 0.036619 0.000000
# 6 0.000000 0.000000 0.000000 0.029548 0.000000 0.186495
#
#
# Mechanical properties :
#
#
# Convention : Reuss Voigt Hill
#
# Bulk Modulus (GPa) = 15.79511 32.89646 24.34578
# Shear Modulus (GPa) = 8.06753 18.79724 13.43238
#
# Velocity S-wave (km/s) = 2.21849 3.38636 2.86262
# Velocity P-wave (km/s) = 4.02470 5.94633 5.07725
#
# Compressibility (1/GPa) = 0.06331075
#
# Stress axis : x y z
#
# Youngs Moduli (GPa) = 55.50699 16.28656 75.92700
#
# Poissons Ratio (x) = 0.20348 0.46714
# Poissons Ratio (y) = 0.69348 -0.30433
# Poissons Ratio (z) = 0.34151 -0.06528
#
# Static dielectric constant tensor:
#      x y z
#    x 1.588380 0.000000 0.000460 
#    y 0.000000 1.530130 0.000000 
#    z 0.000460 0.000000 1.589080 
# 
# From -- ./inp_files/146546.got.cif
#   From: 2010.05.17/outbox.cif.g08.bks.cpg/sg12_74_cif.got.tgz:146546.got - 2010.06.03 13:09:07.
