data_PCOD9169919
_publ_section_title
;
Structure prediction by ZEFSAII (Michael W. Deem and Ramdas Pophale) SiO2 
 PCOD9169919
Probable space group: C 2/M
;
_chemical_formula_sum "Si O2"
_cell_formula_units_Z 56
_cell_length_a 20.068801
_cell_length_b 18.399393
_cell_length_c 26.004522
_cell_angle_alpha 90.000000
_cell_angle_beta 161.039305
_cell_angle_gamma 90.000000
_cell_volume 3119.963460
_symmetry_space_group_name_H-M "C 2/M"
_symmetry_group_IT_number 12
_symmetry_cell_setting 'monoclinic'
loop_
_space_group_symop_operation_xyz
x,y,z
-x,y,-z
-x,-y,-z
x,-y,z
1/2+x,1/2+y,z
1/2-x,1/2+y,-z
1/2-x,1/2-y,-z
1/2+x,1/2-y,z
loop_
_atom_site_type_symbol
_atom_site_label
_atom_site_fract_x
_atom_site_fract_y
_atom_site_fract_z
Si Si1 0.512795 0.081564 0.826203
Si Si2 0.108921 0.723164 0.946660
Si Si3 0.337336 0.854033 0.596376
Si Si4 0.991956 0.921483 0.805772
Si Si5 0.190724 0.413193 0.785722
Si Si6 0.430012 0.366844 0.865295
Si Si7 0.485163 0.310886 0.711662
O O1 0.396032 0.096727 0.687688
O O2 0.463728 0.000000 0.809224
O O3 0.476622 0.153473 0.833719
O O4 0.762402 0.083627 0.002771
O O5 0.271217 0.697209 0.107867
O O6 0.250000 0.750000 0.000000
O O7 0.982967 0.789063 0.878907
O O8 0.481030 0.882711 0.655351
O O9 0.399549 0.770766 0.654020
O O10 0.109203 0.848603 0.407369
O O11 0.885177 0.914921 0.782690
O O12 0.931767 0.858934 0.722490
O O13 0.954390 0.000000 0.754383
O O14 0.186110 0.500000 0.774605
O O15 0.255796 0.372929 0.780944
O O16 0.367024 0.395387 0.956668
#
# Coordination Sequence:
#
# PCOD9169919 Si02
#       7
#     8   8   8   8   8   8   8
#     4  10  18  29  50  74  95 125 167 214 256 296
#     4  11  16  33  53  73  95 132 172 221 256 291
#     4  11  19  32  48  69 105 137 165 209 248 309
#     4  10  17  29  47  68  94 126 164 211 252 288
#     4  11  21  31  47  77 108 143 173 198 242 309
#     4  11  18  30  51  73 101 135 173 213 241 296
#     4  10  20  31  48  72  97 132 174 212 259 292
#
# _framework density 17.948927999999999
#
# number of rings (size 3 to 8) (size 9 to 14) (size 15 to 20)
#    0.000    1.429    7.143    2.143    0.000    1.143 
#    0.000    0.714    0.000    1.714    0.000    3.000 
#    0.000    4.571    0.000    0.143    0.000    0.000 
#
# Total GULP energy -156020.072050 kJ/mol
# GULP energy per Si atom -5572.145430 kJ/mol
# Density = 1.790808 g / cm^3
# Si number density = 17.948928 Si / 1000 Ang^3
#
#
#
# Elastic Constant Matrix: (Units=GPa)
#
#
# Indices 1 2 3 4 5 6 
#
# 1 57.3518 59.9677 11.7270 -0.0141 -8.8509 0.0012
# 2 59.9677 149.9584 20.3644 0.0167 -4.5235 -0.0223
# 3 11.7270 20.3644 52.7652 -0.0498 -16.3653 -0.0398
# 4 -0.0141 0.0167 -0.0498 4.8640 -0.0199 -11.0531
# 5 -8.8509 -4.5235 -16.3653 -0.0199 18.0970 -0.0083
# 6 0.0012 -0.0223 -0.0398 -11.0531 -0.0083 23.3892
#
#
#
# Elastic Compliance Matrix: (Units=1/GPa)
#
#
# Indices 1 2 3 4 5 6 
#
# 1 0.032865 -0.013011 0.002347 -0.002903 0.014940 -0.001376
# 2 -0.013011 0.012200 -0.003949 0.001910 -0.006882 0.000906
# 3 0.002347 -0.003949 0.027785 -0.007138 0.025278 -0.003321
# 4 -0.002903 0.001910 -0.007138 -2.780117 -0.011065 -1.313824
# 5 0.014940 -0.006882 0.025278 -0.011065 0.083689 -0.005164
# 6 -0.001376 0.000906 -0.003321 -1.313824 -0.005164 -0.578131
#
#
# Mechanical properties :
#
#
# Convention : Reuss Voigt Hill
#
# Bulk Modulus (GPa) = 22.92245 49.35484 36.13864
# Shear Modulus (GPa) = -1.58331 20.47115 9.44392
#
# Velocity S-wave (km/s) = -0.94023 3.38083 2.29630
# Velocity P-wave (km/s) = 3.40880 6.54194 5.21618
#
# Compressibility (1/GPa) = 0.04362536
#
# Stress axis : x y z
#
# Youngs Moduli (GPa) = 30.42714 81.96713 35.99054
#
# Poissons Ratio (x) = 1.06645 -0.08447
# Poissons Ratio (y) = 0.39588 0.14213
# Poissons Ratio (z) = -0.07142 0.32369
#
# Static dielectric constant tensor:
#      x y z
#    x 1.611570 -0.000010 -0.023430 
#    y -0.000010 1.665050 -0.000060 
#    z -0.023430 -0.000060 1.636070 
# 
# From -- ./inp_files/366754.got.cif
#   From: 2010.05.17/outbox.cif.g08.bks.cpg/sg12_184_cif.got.tgz:366754.got - 2010.06.03 13:09:07.
