data_PCOD9169448
_publ_section_title
;
Structure prediction by ZEFSAII (Michael W. Deem and Ramdas Pophale) SiO2 
 PCOD9169448
Probable space group: C 2/M
;
_chemical_formula_sum "Si O2"
_cell_formula_units_Z 50
_cell_length_a 14.469990
_cell_length_b 26.988671
_cell_length_c 18.309687
_cell_angle_alpha 90.000000
_cell_angle_beta 156.716919
_cell_angle_gamma 90.000000
_cell_volume 2826.371215
_symmetry_space_group_name_H-M "C 2/M"
_symmetry_group_IT_number 12
_symmetry_cell_setting 'monoclinic'
loop_
_space_group_symop_operation_xyz
x,y,z
-x,y,-z
-x,-y,-z
x,-y,z
1/2+x,1/2+y,z
1/2-x,1/2+y,-z
1/2-x,1/2-y,-z
1/2+x,1/2-y,z
loop_
_atom_site_type_symbol
_atom_site_label
_atom_site_fract_x
_atom_site_fract_y
_atom_site_fract_z
Si Si1 0.618203 0.252153 0.658171
Si Si2 0.500000 0.000000 0.000000
Si Si3 0.949411 0.191774 0.176576
Si Si4 0.680507 0.658353 0.482462
Si Si5 0.866705 0.078858 0.334931
Si Si6 0.331792 0.799287 0.156013
Si Si7 0.964114 0.336233 0.888215
O O1 0.500000 0.230179 0.500000
O O2 0.449128 0.294826 0.571435
O O3 0.686359 0.215764 0.772734
O O4 0.838862 0.283594 0.790828
O O5 0.308208 0.956894 0.834972
O O6 0.924172 0.248828 0.183658
O O7 0.148570 0.168515 0.372140
O O8 0.908374 0.187332 0.060132
O O9 0.714268 0.165031 0.034307
O O10 0.542826 0.609554 0.409547
O O11 0.955538 0.661989 0.698681
O O12 0.710856 0.121202 0.261914
O O13 0.000000 0.054738 0.500000
O O14 0.000000 0.343733 0.000000
#
# Coordination Sequence:
#
# PCOD9169448 Si02
#       7
#     8   2   8   8   8   8   8
#     4  10  18  27  40  59  85 119 156 193 221 250
#     4  12  22  36  48  70  92 108 148 188 234 280
#     4  10  17  27  41  59  84 114 149 194 225 251
#     4  10  18  31  44  61  83 114 152 188 227 263
#     4  11  21  33  50  67  87 115 148 190 229 271
#     4  10  19  27  39  60  85 113 153 191 225 258
#     4  11  16  30  44  63  86 117 157 190 221 260
#
# _framework density 17.690529000000002
#
# number of rings (size 3 to 8) (size 9 to 14) (size 15 to 20)
#    0.000    1.600    5.600    6.000    0.000    1.280 
#    0.000    0.000    0.000    0.000    0.000    0.000 
#    0.000    0.000    0.000    0.720    0.000   19.680 
#
# Total GULP energy -139175.400479 kJ/mol
# GULP energy per Si atom -5567.016019 kJ/mol
# Density = 1.765026 g / cm^3
# Si number density = 17.690529 Si / 1000 Ang^3
#
#
#
# Elastic Constant Matrix: (Units=GPa)
#
#
# Indices 1 2 3 4 5 6 
#
# 1 59.7735 22.4925 28.3697 0.0009 -27.4631 0.0009
# 2 22.4925 65.4561 32.9215 0.0010 -4.2735 0.0004
# 3 28.3697 32.9215 125.8923 0.0019 -37.4333 0.0004
# 4 0.0009 0.0010 0.0019 23.2828 0.0012 1.0641
# 5 -27.4631 -4.2735 -37.4333 0.0012 37.5098 0.0007
# 6 0.0009 0.0004 0.0004 1.0641 0.0007 -3.8311
#
#
#
# Elastic Compliance Matrix: (Units=1/GPa)
#
#
# Indices 1 2 3 4 5 6 
#
# 1 0.030177 -0.010323 0.003013 -0.000003 0.023925 0.000010
# 2 -0.010323 0.021487 -0.006842 0.000001 -0.011939 -0.000003
# 3 0.003013 -0.006842 0.013477 -0.000002 0.014876 0.000004
# 4 -0.000003 0.000001 -0.000002 0.042412 -0.000005 0.011779
# 5 0.023925 -0.011939 0.014876 -0.000005 0.057662 0.000016
# 6 0.000010 -0.000003 0.000004 0.011779 0.000016 -0.257748
#
#
# Mechanical properties :
#
#
# Convention : Reuss Voigt Hill
#
# Bulk Modulus (GPa) = 27.14762 46.52104 36.83433
# Shear Modulus (GPa) = -96.24600 22.54817 -36.84891
#
# Velocity S-wave (km/s) = -7.38400 3.57401 -4.56891
# Velocity P-wave (km/s) = 7.57092 6.58678 2.63943
#
# Compressibility (1/GPa) = 0.03683564
#
# Stress axis : x y z
#
# Youngs Moduli (GPa) = 33.13819 46.54039 74.20105
#
# Poissons Ratio (x) = 0.48044 -0.22358
# Poissons Ratio (y) = 0.34209 0.50772
# Poissons Ratio (z) = -0.09985 0.31845
#
# Static dielectric constant tensor:
#      x y z
#    x 1.684030 0.000000 -0.029250 
#    y 0.000000 1.573470 0.000000 
#    z -0.029250 0.000000 1.734080 
# 
# From -- ./inp_files/318242.got.cif
#   From: 2010.05.17/outbox.cif.g08.bks.cpg/sg12_160_cif.got.tgz:318242.got - 2010.06.03 13:09:07.
