data_PCOD9169234
_publ_section_title
;
Structure prediction by ZEFSAII (Michael W. Deem and Ramdas Pophale) SiO2 
 PCOD9169234
Probable space group: C 2/M
;
_chemical_formula_sum "Si O2"
_cell_formula_units_Z 56
_cell_length_a 33.539580
_cell_length_b 7.305139
_cell_length_c 33.113600
_cell_angle_alpha 90.000000
_cell_angle_beta 162.089405
_cell_angle_gamma 90.000000
_cell_volume 2495.075161
_symmetry_space_group_name_H-M "C 2/M"
_symmetry_group_IT_number 12
_symmetry_cell_setting 'monoclinic'
loop_
_space_group_symop_operation_xyz
x,y,z
-x,y,-z
-x,-y,-z
x,-y,z
1/2+x,1/2+y,z
1/2-x,1/2+y,-z
1/2-x,1/2-y,-z
1/2+x,1/2-y,z
loop_
_atom_site_type_symbol
_atom_site_label
_atom_site_fract_x
_atom_site_fract_y
_atom_site_fract_z
Si Si1 0.549614 0.776372 0.504191
Si Si2 0.044481 0.218413 0.831267
Si Si3 0.201499 0.221527 0.300596
Si Si4 0.754129 0.778372 0.564798
Si Si5 0.411751 0.723307 0.036893
Si Si6 0.522375 0.782571 0.722862
Si Si7 0.362277 0.223419 0.251064
O O1 0.500000 0.717333 0.500000
O O2 0.695279 0.717531 0.633044
O O3 0.452861 0.718404 0.375111
O O4 0.549946 0.000000 0.504501
O O5 0.095785 0.255028 0.835848
O O6 0.895396 0.288539 0.687862
O O7 0.041427 0.000000 0.831698
O O8 0.104074 0.281244 0.931234
O O9 0.257696 0.265600 0.399116
O O10 0.196683 0.000000 0.294082
O O11 0.052423 0.283903 0.156671
O O12 0.625960 0.711162 0.418798
O O13 0.758035 0.000000 0.565306
O O14 0.413731 0.500000 0.038904
O O15 0.287764 0.779249 0.891674
O O16 0.586294 0.715403 0.743225
O O17 0.513554 0.000000 0.709525
O O18 0.365820 0.000000 0.254568
#
# Coordination Sequence:
#
# PCOD9169234 Si02
#       7
#     8   8   8   8   8   8   8
#     4   9  15  23  37  56  77 101 132 170 207 244
#     4   9  17  27  39  57  81 110 144 176 203 237
#     4   8  12  22  37  52  72 103 136 163 198 247
#     4   8  13  23  38  55  76 105 140 172 203 244
#     4   8  15  26  39  52  74 107 138 164 199 247
#     4  10  17  25  40  59  81 109 142 175 208 242
#     4   9  16  26  38  55  77 103 134 168 205 247
#
# _framework density 22.444213999999999
#
# number of rings (size 3 to 8) (size 9 to 14) (size 15 to 20)
#    0.000    3.286    1.429    2.143    0.000    0.571 
#    0.000    0.714    0.000    4.286    0.000    0.000 
#    0.000    0.571    0.000    0.286    0.000    6.571 
#
# Total GULP energy -156237.847152 kJ/mol
# GULP energy per Si atom -5579.923113 kJ/mol
# Density = 2.239313 g / cm^3
# Si number density = 22.444214 Si / 1000 Ang^3
#
#
#
# Elastic Constant Matrix: (Units=GPa)
#
#
# Indices 1 2 3 4 5 6 
#
# 1 145.2813 -0.5068 52.3262 -0.0040 -12.2110 -0.0021
# 2 -0.5068 91.1918 1.8105 -0.0004 -0.8291 0.0022
# 3 52.3262 1.8105 119.5969 -0.0087 1.2869 -0.0049
# 4 -0.0040 -0.0004 -0.0087 -24.0612 -0.0034 -19.1619
# 5 -12.2110 -0.8291 1.2869 -0.0034 7.0273 -0.0016
# 6 -0.0021 0.0022 -0.0049 -19.1619 -0.0016 -6.0272
#
#
#
# Elastic Compliance Matrix: (Units=1/GPa)
#
#
# Indices 1 2 3 4 5 6 
#
# 1 0.010098 0.000315 -0.004621 -0.000001 0.018430 -0.000002
# 2 0.000315 0.010991 -0.000325 0.000002 0.001904 -0.000003
# 3 -0.004621 -0.000325 0.010496 -0.000001 -0.009990 -0.000001
# 4 -0.000001 0.000002 -0.000001 0.027131 -0.000007 -0.086254
# 5 0.018430 0.001904 -0.009990 -0.000007 0.176381 -0.000021
# 6 -0.000002 -0.000003 -0.000001 -0.086254 -0.000021 0.108307
#
#
# Mechanical properties :
#
#
# Convention : Reuss Voigt Hill
#
# Bulk Modulus (GPa) = 44.79535 51.48109 48.13822
# Shear Modulus (GPa) = 13.88480 15.55044 14.71762
#
# Velocity S-wave (km/s) = 2.48994 2.63506 2.56352
# Velocity P-wave (km/s) = 5.31679 5.67848 5.50061
#
# Compressibility (1/GPa) = 0.02232375
#
# Stress axis : x y z
#
# Youngs Moduli (GPa) = 99.03234 90.98007 95.27762
#
# Poissons Ratio (x) = -0.02870 0.44028
# Poissons Ratio (y) = -0.03124 0.03095
# Poissons Ratio (z) = 0.45763 0.02956
#
# Static dielectric constant tensor:
#      x y z
#    x 1.822510 0.000000 0.033800 
#    y 0.000000 1.794910 0.000000 
#    z 0.033800 0.000000 1.812670 
# 
# From -- ./inp_files/370803.got.cif
#   From: 2010.05.17/outbox.cif.g08.bks.cpg/sg12_186_cif.got.tgz:370803.got - 2010.06.03 13:09:07.
