data_PCOD9169674
_publ_section_title
;
Structure prediction by ZEFSAII (Michael W. Deem and Ramdas Pophale) SiO2 
 PCOD9169674
Probable space group: C 2/M
;
_chemical_formula_sum "Si O2"
_cell_formula_units_Z 48
_cell_length_a 14.327750
_cell_length_b 22.841040
_cell_length_c 16.697845
_cell_angle_alpha 90.000000
_cell_angle_beta 27.599088
_cell_angle_gamma 90.000000
_cell_volume 2531.626628
_symmetry_space_group_name_H-M "C 2/M"
_symmetry_group_IT_number 12
_symmetry_cell_setting 'monoclinic'
loop_
_space_group_symop_operation_xyz
x,y,z
-x,y,-z
-x,-y,-z
x,-y,z
1/2+x,1/2+y,z
1/2-x,1/2+y,-z
1/2-x,1/2-y,-z
1/2+x,1/2-y,z
loop_
_atom_site_type_symbol
_atom_site_label
_atom_site_fract_x
_atom_site_fract_y
_atom_site_fract_z
Si Si1 0.845854 0.789898 0.231820
Si Si2 0.847444 0.839389 0.812679
Si Si3 0.236704 0.161493 0.305755
Si Si4 0.715795 0.204895 0.144561
Si Si5 0.288158 0.182630 0.497464
Si Si6 0.033081 0.566479 0.072145
O O1 0.844862 0.720384 0.252554
O O2 0.756547 0.793576 0.210117
O O3 0.720941 0.818569 0.398687
O O4 0.073565 0.814273 0.054569
O O5 0.747000 0.837216 0.802006
O O6 0.822024 0.771557 0.857810
O O7 0.086521 0.850788 0.623823
O O8 0.723312 0.891612 0.947245
O O9 0.341808 0.101911 0.252188
O O10 0.000000 0.165898 0.500000
O O11 0.508609 0.168851 0.295485
O O12 0.250000 0.250000 0.500000
O O13 0.053443 0.500000 0.085139
O O14 0.000000 0.562644 0.000000
#
# Coordination Sequence:
#
# PCOD9169674 Si02
#       6
#     8   8   8   8   8   8
#     4  10  17  29  44  61  88 121 151 172 214 259
#     4   9  17  30  40  61  87 111 147 179 217 256
#     4  10  17  28  44  60  83 117 152 185 212 250
#     4   9  17  29  44  60  87 119 148 179 207 257
#     4  10  19  27  40  66  91 115 149 177 213 265
#     4   9  17  30  46  59  78 113 153 186 217 254
#
# _framework density 18.960142000000001
#
# number of rings (size 3 to 8) (size 9 to 14) (size 15 to 20)
#    0.000    2.500    1.667    3.500    0.000    3.000 
#    3.000    0.000    0.000    0.000    0.000    0.000 
#    0.000    2.667    0.000    3.667    0.000    0.000 
#
# Total GULP energy -133649.174616 kJ/mol
# GULP energy per Si atom -5568.715609 kJ/mol
# Density = 1.891699 g / cm^3
# Si number density = 18.960142 Si / 1000 Ang^3
#
#
#
# Elastic Constant Matrix: (Units=GPa)
#
#
# Indices 1 2 3 4 5 6 
#
# 1 68.2542 5.9878 12.5176 0.0041 1.6361 -0.0061
# 2 5.9878 44.8862 27.3739 0.0035 -11.5607 -0.0055
# 3 12.5176 27.3739 135.6680 -0.0350 -32.1783 -0.0112
# 4 0.0041 0.0035 -0.0350 13.2299 -0.0097 -1.3559
# 5 1.6361 -11.5607 -32.1783 -0.0097 35.9539 0.0112
# 6 -0.0061 -0.0055 -0.0112 -1.3559 0.0112 8.1380
#
#
#
# Elastic Compliance Matrix: (Units=1/GPa)
#
#
# Indices 1 2 3 4 5 6 
#
# 1 0.015181 -0.001692 -0.001717 -0.000010 -0.002771 0.000010
# 2 -0.001692 0.026192 -0.003952 -0.000013 0.004962 0.000002
# 3 -0.001717 -0.003952 0.010212 0.000035 0.007947 0.000005
# 4 -0.000010 -0.000013 0.000035 0.076900 0.000044 0.012813
# 5 -0.002771 0.004962 0.007947 0.000044 0.036647 -0.000031
# 6 0.000010 0.000002 0.000005 0.012813 -0.000031 0.125015
#
#
# Mechanical properties :
#
#
# Convention : Reuss Voigt Hill
#
# Bulk Modulus (GPa) = 27.12684 37.84079 32.48381
# Shear Modulus (GPa) = 15.76515 24.99295 20.37905
#
# Velocity S-wave (km/s) = 2.88668 3.63462 3.28203
# Velocity P-wave (km/s) = 5.04469 6.13313 5.61535
#
# Compressibility (1/GPa) = 0.03686386
#
# Stress axis : x y z
#
# Youngs Moduli (GPa) = 65.87272 38.17915 97.92873
#
# Poissons Ratio (x) = 0.06460 0.16810
# Poissons Ratio (y) = 0.11146 0.38700
# Poissons Ratio (z) = 0.11307 0.15088
#
# Static dielectric constant tensor:
#      x y z
#    x 1.757780 -0.000020 0.018080 
#    y -0.000020 1.620260 0.000040 
#    z 0.018080 0.000040 1.733840 
# 
# From -- ./inp_files/272036.got.cif
#   From: 2010.05.17/outbox.cif.g08.bks.cpg/sg12_137_cif.got.tgz:272036.got - 2010.06.03 13:09:07.
