data_PCOD9169007
_publ_section_title
;
Structure prediction by ZEFSAII (Michael W. Deem and Ramdas Pophale) SiO2 
 PCOD9169007
Probable space group: C 2/M
;
_chemical_formula_sum "Si O2"
_cell_formula_units_Z 56
_cell_length_a 13.827676
_cell_length_b 19.644202
_cell_length_c 13.504106
_cell_angle_alpha 90.000000
_cell_angle_beta 138.620227
_cell_angle_gamma 90.000000
_cell_volume 2424.832657
_symmetry_space_group_name_H-M "C 2/M"
_symmetry_group_IT_number 12
_symmetry_cell_setting 'monoclinic'
loop_
_space_group_symop_operation_xyz
x,y,z
-x,y,-z
-x,-y,-z
x,-y,z
1/2+x,1/2+y,z
1/2-x,1/2+y,-z
1/2-x,1/2-y,-z
1/2+x,1/2-y,z
loop_
_atom_site_type_symbol
_atom_site_label
_atom_site_fract_x
_atom_site_fract_y
_atom_site_fract_z
Si Si1 0.660149 0.833110 0.256174
Si Si2 0.407129 0.575186 0.539063
Si Si3 0.854139 0.922491 0.730398
Si Si4 0.814117 0.287728 0.445725
Si Si5 0.421098 0.215148 0.222149
Si Si6 0.141727 0.852787 0.944480
Si Si7 0.737432 0.579118 0.827085
O O1 0.776708 0.876285 0.409301
O O2 0.739299 0.760562 0.307409
O O3 0.514602 0.824501 0.208950
O O4 0.654437 0.871532 0.148023
O O5 0.376786 0.500000 0.476397
O O6 0.401609 0.569697 0.652815
O O7 0.576845 0.593887 0.653398
O O8 0.731172 0.863910 0.622125
O O9 0.001835 0.887905 0.886883
O O10 0.820156 0.000000 0.741024
O O11 0.750000 0.250000 0.500000
O O12 0.984049 0.285363 0.605189
O O13 0.408086 0.290897 0.166619
O O14 0.263505 0.180204 0.108279
O O15 0.220509 0.904581 0.929545
O O16 0.772366 0.500000 0.841317
#
# Coordination Sequence:
#
# PCOD9169007 Si02
#       7
#     8   8   8   8   8   8   8
#     4  11  18  30  50  75 106 144 184 233 270 322
#     4   9  16  27  45  71 104 140 174 211 262 324
#     4  10  17  30  51  72 100 135 175 226 273 320
#     4  10  16  32  50  76  99 135 183 244 271 308
#     4  10  20  32  54  72 101 146 191 243 267 310
#     4  10  19  36  50  73 107 151 190 220 274 334
#     4  10  21  34  50  78 119 159 181 211 276 353
#
# _framework density 23.094377000000001
#
# number of rings (size 3 to 8) (size 9 to 14) (size 15 to 20)
#    0.000    2.000    5.714    3.000    0.000    1.714 
#    0.000    5.000    0.000    0.000    0.000    0.000 
#    0.000   25.143    0.000    0.000    0.000    0.000 
#
# Total GULP energy -156171.020301 kJ/mol
# GULP energy per Si atom -5577.536439 kJ/mol
# Density = 2.304181 g / cm^3
# Si number density = 23.094377 Si / 1000 Ang^3
#
#
#
# Elastic Constant Matrix: (Units=GPa)
#
#
# Indices 1 2 3 4 5 6 
#
# 1 34.2342 8.9199 7.6743 0.0000 -7.1545 0.0000
# 2 8.9199 137.8371 50.9191 0.0000 12.9336 0.0000
# 3 7.6743 50.9191 114.6864 0.0000 17.4765 0.0000
# 4 0.0000 0.0000 0.0000 16.6261 0.0000 6.8966
# 5 -7.1545 12.9336 17.4765 0.0000 24.2273 0.0000
# 6 0.0000 0.0000 0.0000 6.8966 0.0000 28.6770
#
#
#
# Elastic Compliance Matrix: (Units=1/GPa)
#
#
# Indices 1 2 3 4 5 6 
#
# 1 0.033319 -0.002195 -0.003295 0.000000 0.013388 0.000000
# 2 -0.002195 0.008917 -0.003357 0.000000 -0.002987 0.000000
# 3 -0.003295 -0.003357 0.011578 0.000000 -0.007533 0.000000
# 4 0.000000 0.000000 0.000000 0.066811 0.000000 -0.016067
# 5 0.013388 -0.002987 -0.007533 0.000000 0.052258 0.000000
# 6 0.000000 0.000000 0.000000 -0.016067 0.000000 0.038735
#
#
# Mechanical properties :
#
#
# Convention : Reuss Voigt Hill
#
# Bulk Modulus (GPa) = 27.68538 46.86491 37.27515
# Shear Modulus (GPa) = 20.71640 28.52237 24.61939
#
# Velocity S-wave (km/s) = 2.99830 3.51812 3.26856
# Velocity P-wave (km/s) = 4.89902 6.06957 5.51544
#
# Compressibility (1/GPa) = 0.03612015
#
# Stress axis : x y z
#
# Youngs Moduli (GPa) = 30.01270 112.13950 86.36794
#
# Poissons Ratio (x) = 0.24617 0.28459
# Poissons Ratio (y) = 0.06588 0.28995
# Poissons Ratio (z) = 0.09890 0.37647
#
# Static dielectric constant tensor:
#      x y z
#    x 2.010520 0.000000 -0.027260 
#    y 0.000000 1.905750 0.000000 
#    z -0.027260 0.000000 1.924910 
# 
# From -- ./inp_files/322341.got.cif
#   From: 2010.05.17/outbox.cif.g08.bks.cpg/sg12_162_cif.got.tgz:322341.got - 2010.06.03 13:09:07.
