data_PCOD9169970
_publ_section_title
;
Structure prediction by ZEFSAII (Michael W. Deem and Ramdas Pophale) SiO2 
 PCOD9169970
Probable space group: C 2/M
;
_chemical_formula_sum "Si O2"
_cell_formula_units_Z 56
_cell_length_a 31.354454
_cell_length_b 13.561873
_cell_length_c 16.568414
_cell_angle_alpha 90.000000
_cell_angle_beta 152.162915
_cell_angle_gamma 90.000000
_cell_volume 3289.869641
_symmetry_space_group_name_H-M "C 2/M"
_symmetry_group_IT_number 12
_symmetry_cell_setting 'monoclinic'
loop_
_space_group_symop_operation_xyz
x,y,z
-x,y,-z
-x,-y,-z
x,-y,z
1/2+x,1/2+y,z
1/2-x,1/2+y,-z
1/2-x,1/2-y,-z
1/2+x,1/2-y,z
loop_
_atom_site_type_symbol
_atom_site_label
_atom_site_fract_x
_atom_site_fract_y
_atom_site_fract_z
Si Si1 0.455103 0.618733 0.152195
Si Si2 0.836951 0.611600 0.737040
Si Si3 0.372971 0.616416 0.357176
Si Si4 0.408388 0.615850 0.244143
Si Si5 0.340253 0.691708 0.472066
Si Si6 0.411116 0.316580 0.900399
Si Si7 0.212262 0.387607 0.531902
O O1 0.454855 0.500000 0.154072
O O2 0.399337 0.655375 0.138092
O O3 0.559736 0.653745 0.336058
O O4 0.417018 0.653876 0.003405
O O5 0.866430 0.500000 0.804074
O O6 0.737824 0.632300 0.610643
O O7 0.900546 0.698572 0.875819
O O8 0.826594 0.623672 0.623354
O O9 0.348252 0.500000 0.320320
O O10 0.359941 0.655380 0.243965
O O11 0.482380 0.620541 0.556521
O O12 0.328064 0.673463 0.356212
O O13 0.384221 0.500000 0.201900
O O14 0.329937 0.805125 0.480769
O O15 0.320228 0.363922 0.710501
O O16 0.500000 0.349024 0.000000
O O17 0.197929 0.500000 0.534403
#
# Coordination Sequence:
#
# PCOD9169970 Si02
#       7
#     8   8   8   8   8   8   8
#     4  10  18  28  46  72  99 121 145 185 233 271
#     4  10  20  34  49  64  89 123 155 187 220 262
#     4   8  12  21  41  68  94 116 143 181 221 261
#     4   7  12  22  37  64  97 120 140 175 224 269
#     4  10  17  29  49  72  91 115 153 190 225 266
#     4  11  21  32  47  70  93 117 150 187 228 274
#     4  10  21  35  48  63  89 123 155 188 225 268
#
# _framework density 17.021951000000001
#
# number of rings (size 3 to 8) (size 9 to 14) (size 15 to 20)
#    0.000    2.571    0.000    6.857    0.000    2.571 
#    0.000    0.714    0.000    3.429    0.000   11.000 
#    0.000    0.000    0.000    0.000    0.000    0.000 
#
# Total GULP energy -155987.241604 kJ/mol
# GULP energy per Si atom -5570.972914 kJ/mol
# Density = 1.698321 g / cm^3
# Si number density = 17.021951 Si / 1000 Ang^3
#
#
#
# Elastic Constant Matrix: (Units=GPa)
#
#
# Indices 1 2 3 4 5 6 
#
# 1 106.5668 49.6096 8.2942 0.0000 -25.0140 0.0000
# 2 49.6096 98.0661 15.1257 0.0000 -14.3046 0.0000
# 3 8.2942 15.1257 24.4468 0.0000 -8.4455 0.0000
# 4 0.0000 0.0000 0.0000 7.8017 0.0000 -7.7380
# 5 -25.0140 -14.3046 -8.4455 0.0000 18.7377 0.0000
# 6 0.0000 0.0000 0.0000 -7.7380 0.0000 21.9909
#
#
#
# Elastic Compliance Matrix: (Units=1/GPa)
#
#
# Indices 1 2 3 4 5 6 
#
# 1 0.016486 -0.006272 0.005017 0.000000 0.019481 0.000000
# 2 -0.006272 0.014363 -0.006944 0.000000 -0.000538 0.000000
# 3 0.005017 -0.006944 0.052093 0.000000 0.024876 0.000000
# 4 0.000000 0.000000 0.000000 0.196892 0.000000 0.069281
# 5 0.019481 -0.000538 0.024876 0.000000 0.090176 0.000000
# 6 0.000000 0.000000 0.000000 0.069281 0.000000 0.069851
#
#
# Mechanical properties :
#
#
# Convention : Reuss Voigt Hill
#
# Bulk Modulus (GPa) = 15.02772 41.68209 28.35490
# Shear Modulus (GPa) = 10.45062 20.10941 15.28002
#
# Velocity S-wave (km/s) = 2.48049 3.44085 2.99936
# Velocity P-wave (km/s) = 4.12933 6.35030 5.35620
#
# Compressibility (1/GPa) = 0.06654371
#
# Stress axis : x y z
#
# Youngs Moduli (GPa) = 60.65832 69.62468 19.19627
#
# Poissons Ratio (x) = 0.43669 -0.09632
# Poissons Ratio (y) = 0.38045 0.13331
# Poissons Ratio (z) = -0.30435 0.48351
#
# Static dielectric constant tensor:
#      x y z
#    x 1.610730 0.000000 -0.016900 
#    y 0.000000 1.574500 0.000000 
#    z -0.016900 0.000000 1.585800 
# 
# From -- ./inp_files/251192.got.cif
#   From: 2010.05.17/outbox.cif.g08.bks.cpg/sg12_126_cif.got.tgz:251192.got - 2010.06.03 13:09:07.
