data_PCOD9169929
_publ_section_title
;
Structure prediction by ZEFSAII (Michael W. Deem and Ramdas Pophale) SiO2 
 PCOD9169929
Probable space group: C 2/M
;
_chemical_formula_sum "Si O2"
_cell_formula_units_Z 56
_cell_length_a 25.796324
_cell_length_b 7.491882
_cell_length_c 17.537641
_cell_angle_alpha 90.000000
_cell_angle_beta 119.994136
_cell_angle_gamma 90.000000
_cell_volume 2935.460346
_symmetry_space_group_name_H-M "C 2/M"
_symmetry_group_IT_number 12
_symmetry_cell_setting 'monoclinic'
loop_
_space_group_symop_operation_xyz
x,y,z
-x,y,-z
-x,-y,-z
x,-y,z
1/2+x,1/2+y,z
1/2-x,1/2+y,-z
1/2-x,1/2-y,-z
1/2+x,1/2-y,z
loop_
_atom_site_type_symbol
_atom_site_label
_atom_site_fract_x
_atom_site_fract_y
_atom_site_fract_z
Si Si1 0.512127 0.781873 0.720920
Si Si2 0.942584 0.282217 0.407821
Si Si3 0.673752 0.781066 0.584289
Si Si4 0.411624 0.790170 0.903978
Si Si5 0.304420 0.292561 0.719419
Si Si6 0.029244 0.718234 0.901951
Si Si7 0.873292 0.715479 0.613905
O O1 0.547507 0.724094 0.671806
O O2 0.537174 0.722157 0.821054
O O3 0.442513 0.726779 0.664006
O O4 0.512192 0.000000 0.720155
O O5 0.942420 0.500000 0.408275
O O6 0.881290 0.225538 0.402726
O O7 0.000000 0.227336 0.500000
O O8 0.738068 0.715550 0.660340
O O9 0.660012 0.724996 0.487380
O O10 0.674378 0.000000 0.583880
O O11 0.347417 0.770840 0.818611
O O12 0.464039 0.723144 0.885942
O O13 0.423400 0.000000 0.917588
O O14 0.424004 0.722257 0.998591
O O15 0.296132 0.500000 0.727872
O O16 0.339698 0.270179 0.665867
O O17 0.029619 0.500000 0.898771
O O18 0.874104 0.500000 0.614212
#
# Coordination Sequence:
#
# PCOD9169929 Si02
#       7
#     8   8   8   8   8   8   8
#     4   9  14  22  44  72  92 108 140 190 233 259
#     4   9  14  23  41  67  93 115 143 186 230 260
#     4   9  18  29  41  63  95 125 150 181 221 264
#     4   9  16  29  48  65  88 117 149 187 227 265
#     4  11  21  30  41  64  99 127 148 177 219 273
#     4   8  14  25  44  70  90 109 143 193 233 257
#     4  10  17  29  48  67  90 120 152 183 218 264
#
# _framework density 19.077076999999999
#
# number of rings (size 3 to 8) (size 9 to 14) (size 15 to 20)
#    0.000    2.714    2.857    1.714    0.000    0.000 
#    0.000    2.143    0.000    0.857    0.000    4.000 
#    0.000    0.000    0.000    0.000    0.000    0.143 
#
# Total GULP energy -156178.298314 kJ/mol
# GULP energy per Si atom -5577.796368 kJ/mol
# Density = 1.903366 g / cm^3
# Si number density = 19.077077 Si / 1000 Ang^3
#
#
#
# Elastic Constant Matrix: (Units=GPa)
#
#
# Indices 1 2 3 4 5 6 
#
# 1 81.0588 -8.0315 71.8971 0.0000 6.6304 0.0000
# 2 -8.0315 43.9673 -0.0933 0.0000 -1.1820 0.0000
# 3 71.8971 -0.0933 192.9334 0.0000 -4.5586 0.0000
# 4 0.0000 0.0000 0.0000 16.7765 0.0000 2.0177
# 5 6.6304 -1.1820 -4.5586 0.0000 29.5548 0.0000
# 6 0.0000 0.0000 0.0000 2.0177 0.0000 6.2090
#
#
#
# Elastic Compliance Matrix: (Units=1/GPa)
#
#
# Indices 1 2 3 4 5 6 
#
# 1 0.019773 0.003449 -0.007496 0.000000 -0.005454 0.000000
# 2 0.003449 0.023371 -0.001275 0.000000 -0.000036 0.000000
# 3 -0.007496 -0.001275 0.008044 0.000000 0.002871 0.000000
# 4 0.000000 0.000000 0.000000 0.062031 0.000000 -0.020158
# 5 -0.005454 -0.000036 0.002871 0.000000 0.035501 0.000000
# 6 0.000000 0.000000 0.000000 -0.020158 0.000000 0.167607
#
#
# Mechanical properties :
#
#
# Convention : Reuss Voigt Hill
#
# Bulk Modulus (GPa) = 24.66403 49.50046 37.08224
# Shear Modulus (GPa) = 14.68501 27.45388 21.06945
#
# Velocity S-wave (km/s) = 2.77749 3.79767 3.32691
# Velocity P-wave (km/s) = 4.82106 6.72560 5.85133
#
# Compressibility (1/GPa) = 0.04054487
#
# Stress axis : x y z
#
# Youngs Moduli (GPa) = 50.57368 42.78877 124.32159
#
# Poissons Ratio (x) = -0.14760 0.93188
# Poissons Ratio (y) = -0.17445 0.15851
# Poissons Ratio (z) = 0.37909 0.05455
#
# Static dielectric constant tensor:
#      x y z
#    x 1.631710 0.000000 0.007400 
#    y 0.000000 1.728950 0.000000 
#    z 0.007400 0.000000 1.689230 
# 
# From -- ./inp_files/287899.got.cif
#   From: 2010.05.17/outbox.cif.g08.bks.cpg/sg12_144_cif.got.tgz:287899.got - 2010.06.03 13:09:07.
