data_PCOD9169995
_publ_section_title
;
Structure prediction by ZEFSAII (Michael W. Deem and Ramdas Pophale) SiO2 
 PCOD9169995
Probable space group: C 2/M
;
_chemical_formula_sum "Si O2"
_cell_formula_units_Z 56
_cell_length_a 24.321560
_cell_length_b 16.249243
_cell_length_c 12.728953
_cell_angle_alpha 90.000000
_cell_angle_beta 41.319389
_cell_angle_gamma 90.000000
_cell_volume 3321.463679
_symmetry_space_group_name_H-M "C 2/M"
_symmetry_group_IT_number 12
_symmetry_cell_setting 'monoclinic'
loop_
_space_group_symop_operation_xyz
x,y,z
-x,y,-z
-x,-y,-z
x,-y,z
1/2+x,1/2+y,z
1/2-x,1/2+y,-z
1/2-x,1/2-y,-z
1/2+x,1/2-y,z
loop_
_atom_site_type_symbol
_atom_site_label
_atom_site_fract_x
_atom_site_fract_y
_atom_site_fract_z
Si Si1 0.736855 0.336151 0.578409
Si Si2 0.057463 0.715932 0.200649
Si Si3 0.709578 0.408659 0.400531
Si Si4 0.147278 0.692831 0.284139
Si Si5 0.096940 0.596325 0.549709
Si Si6 0.190600 0.253852 0.841016
Si Si7 0.046359 0.154145 0.531262
O O1 0.750000 0.250000 0.500000
O O2 0.704873 0.395184 0.532795
O O3 0.823871 0.369881 0.499003
O O4 0.682178 0.311413 0.757960
O O5 0.121339 0.687564 0.200771
O O6 0.983240 0.649797 0.303721
O O7 0.017004 0.802445 0.296870
O O8 0.106905 0.725968 0.022196
O O9 0.741557 0.500000 0.331299
O O10 0.766908 0.336623 0.267918
O O11 0.617459 0.397275 0.485601
O O12 0.118374 0.616245 0.396926
O O13 0.242561 0.714698 0.173192
O O14 0.094033 0.768383 0.409096
O O15 0.085185 0.500000 0.583455
O O16 0.000000 0.111854 0.500000
#
# Coordination Sequence:
#
# PCOD9169995 Si02
#       7
#     8   8   8   8   8   8   8
#     4   9  18  35  52  65  87 127 174 202 229 288
#     4  10  17  29  50  73 100 128 158 202 243 278
#     4  10  19  33  52  70  92 124 159 196 243 297
#     4   8  16  30  48  69  96 136 172 190 220 283
#     4  10  19  30  47  74 104 131 160 197 244 296
#     4   9  18  31  50  74  95 122 164 206 238 275
#     4   8  16  31  50  72  95 125 165 197 229 283
#
# _framework density 16.860036999999998
#
# number of rings (size 3 to 8) (size 9 to 14) (size 15 to 20)
#    0.000    2.857    0.000    4.714    0.000    2.000 
#    0.000    6.429    0.000    9.429    0.000    0.000 
#    0.000    0.000    0.000    0.000    0.000    0.000 
#
# Total GULP energy -155917.376810 kJ/mol
# GULP energy per Si atom -5568.477743 kJ/mol
# Density = 1.682166 g / cm^3
# Si number density = 16.860037 Si / 1000 Ang^3
#
#
#
# Elastic Constant Matrix: (Units=GPa)
#
#
# Indices 1 2 3 4 5 6 
#
# 1 67.4705 22.0699 27.6366 0.0000 18.0911 0.0000
# 2 22.0699 65.1279 35.2361 0.0000 0.2473 0.0000
# 3 27.6366 35.2361 96.7092 0.0000 7.9245 0.0000
# 4 0.0000 0.0000 0.0000 12.9836 0.0000 -0.3280
# 5 18.0911 0.2473 7.9245 0.0000 14.0310 0.0000
# 6 0.0000 0.0000 0.0000 -0.3280 0.0000 0.9619
#
#
#
# Elastic Compliance Matrix: (Units=1/GPa)
#
#
# Indices 1 2 3 4 5 6 
#
# 1 0.027445 -0.008017 -0.002132 0.000000 -0.034040 0.000000
# 2 -0.008017 0.021659 -0.006727 0.000000 0.013755 0.000000
# 3 -0.002132 -0.006727 0.013805 0.000000 -0.004928 0.000000
# 4 0.000000 0.000000 0.000000 0.077690 0.000000 0.026495
# 5 -0.034040 0.013755 -0.004928 0.000000 0.117702 0.000000
# 6 0.000000 0.000000 0.000000 0.026495 0.000000 1.048682
#
#
# Mechanical properties :
#
#
# Convention : Reuss Voigt Hill
#
# Bulk Modulus (GPa) = 34.30080 44.35476 39.32778
# Shear Modulus (GPa) = 3.70246 15.21963 9.46104
#
# Velocity S-wave (km/s) = 1.48350 3.00776 2.37143
# Velocity P-wave (km/s) = 4.82938 6.19895 5.55652
#
# Compressibility (1/GPa) = 0.02915384
#
# Stress axis : x y z
#
# Youngs Moduli (GPa) = 36.43703 46.17094 72.43944
#
# Poissons Ratio (x) = 0.37016 0.15448
# Poissons Ratio (y) = 0.29212 0.48733
# Poissons Ratio (z) = 0.07770 0.31061
#
# Static dielectric constant tensor:
#      x y z
#    x 1.606340 0.000000 0.008020 
#    y 0.000000 1.565180 0.000000 
#    z 0.008020 0.000000 1.553630 
# 
# From -- ./inp_files/177084.got.cif
#   From: 2010.05.17/outbox.cif.g08.bks.cpg/sg12_89_cif.got.tgz:177084.got - 2010.06.03 13:09:07.
