data_PCOD9169574
_publ_section_title
;
Structure prediction by ZEFSAII (Michael W. Deem and Ramdas Pophale) SiO2 
 PCOD9169574
Probable space group: C 2/M
;
_chemical_formula_sum "Si O2"
_cell_formula_units_Z 56
_cell_length_a 15.843642
_cell_length_b 21.449888
_cell_length_c 12.019498
_cell_angle_alpha 90.000000
_cell_angle_beta 129.675361
_cell_angle_gamma 90.000000
_cell_volume 3143.933081
_symmetry_space_group_name_H-M "C 2/M"
_symmetry_group_IT_number 12
_symmetry_cell_setting 'monoclinic'
loop_
_space_group_symop_operation_xyz
x,y,z
-x,y,-z
-x,-y,-z
x,-y,z
1/2+x,1/2+y,z
1/2-x,1/2+y,-z
1/2-x,1/2-y,-z
1/2+x,1/2-y,z
loop_
_atom_site_type_symbol
_atom_site_label
_atom_site_fract_x
_atom_site_fract_y
_atom_site_fract_z
Si Si1 0.604049 0.280348 0.510548
Si Si2 0.995146 0.572772 0.654817
Si Si3 0.617795 0.145588 0.920438
Si Si4 0.191182 0.828542 0.078174
Si Si5 0.339891 0.863103 0.383119
Si Si6 0.309498 0.796212 0.810027
Si Si7 0.012997 0.229684 0.195671
O O1 0.500000 0.294215 0.500000
O O2 0.632735 0.206801 0.552787
O O3 0.711152 0.314896 0.647194
O O4 0.574361 0.292486 0.357833
O O5 0.010839 0.500000 0.648282
O O6 0.034050 0.593056 0.809183
O O7 0.077817 0.612889 0.645330
O O8 0.873644 0.593347 0.514603
O O9 0.733930 0.141805 0.954683
O O10 0.562223 0.210901 0.835634
O O11 0.639187 0.151265 0.069315
O O12 0.222787 0.862306 0.221555
O O13 0.231476 0.757329 0.137776
O O14 0.067465 0.819692 0.931405
O O15 0.401150 0.759667 0.817568
#
# Coordination Sequence:
#
# PCOD9169574 Si02
#       7
#     8   8   8   8   8   8   8
#     4  11  17  29  46  66  93 127 152 180 223 278
#     4  10  17  27  46  68  89 113 151 200 241 272
#     4  10  17  30  44  62  90 128 152 187 233 265
#     4   9  17  27  44  61  87 127 158 176 218 276
#     4   9  15  27  41  65  89 114 141 186 239 260
#     4  10  20  27  42  65  94 131 154 179 218 272
#     4  11  18  29  42  64  98 126 157 178 215 273
#
# _framework density 17.812083999999999
#
# number of rings (size 3 to 8) (size 9 to 14) (size 15 to 20)
#    0.000    2.000    2.857    7.286    0.000    0.000 
#    0.000    0.000    0.000    1.714    0.000    0.000 
#    0.000  162.857    0.857    0.000    0.000    0.000 
#
# Total GULP energy -155892.224704 kJ/mol
# GULP energy per Si atom -5567.579454 kJ/mol
# Density = 1.777154 g / cm^3
# Si number density = 17.812084 Si / 1000 Ang^3
#
#
#
# Elastic Constant Matrix: (Units=GPa)
#
#
# Indices 1 2 3 4 5 6 
#
# 1 65.0384 0.7817 44.9661 0.0000 2.6741 0.0000
# 2 0.7817 33.9932 31.5718 0.0000 -0.4317 0.0000
# 3 44.9661 31.5718 215.4937 0.0000 9.9923 0.0000
# 4 0.0000 0.0000 0.0000 8.2635 0.0000 5.3807
# 5 2.6741 -0.4317 9.9923 0.0000 19.5806 0.0000
# 6 0.0000 0.0000 0.0000 5.3807 0.0000 0.9737
#
#
#
# Elastic Compliance Matrix: (Units=1/GPa)
#
#
# Indices 1 2 3 4 5 6 
#
# 1 0.018347 0.003614 -0.004348 0.000000 -0.000207 0.000000
# 2 0.003614 0.034982 -0.006035 0.000000 0.003358 0.000000
# 3 -0.004348 -0.006035 0.006566 0.000000 -0.002890 0.000000
# 4 0.000000 0.000000 0.000000 -0.046573 0.000000 0.257374
# 5 -0.000207 0.003358 -0.002890 0.000000 0.052648 0.000000
# 6 0.000000 0.000000 0.000000 0.257374 0.000000 -0.395264
#
#
# Mechanical properties :
#
#
# Convention : Reuss Voigt Hill
#
# Bulk Modulus (GPa) = 21.57189 52.12938 36.85063
# Shear Modulus (GPa) = -16.64986 21.57727 2.46370
#
# Velocity S-wave (km/s) = -3.06069 3.48427 1.17736
# Velocity P-wave (km/s) = 0.59438 6.74661 4.75202
#
# Compressibility (1/GPa) = 0.04635663
#
# Stress axis : x y z
#
# Youngs Moduli (GPa) = 54.50520 28.58590 152.29913
#
# Poissons Ratio (x) = -0.10331 0.66223
# Poissons Ratio (y) = -0.19698 0.91913
# Poissons Ratio (z) = 0.23700 0.17252
#
# Static dielectric constant tensor:
#      x y z
#    x 1.670470 0.000000 -0.004380 
#    y 0.000000 1.584770 0.000000 
#    z -0.004380 0.000000 1.721440 
# 
# From -- ./inp_files/160119.got.cif
#   From: 2010.05.17/outbox.cif.g08.bks.cpg/sg12_81_cif.got.tgz:160119.got - 2010.06.03 13:09:07.
