data_PCOD9169803
_publ_section_title
;
Structure prediction by ZEFSAII (Michael W. Deem and Ramdas Pophale) SiO2 
 PCOD9169803
Probable space group: C 2/M
;
_chemical_formula_sum "Si O2"
_cell_formula_units_Z 44
_cell_length_a 22.966653
_cell_length_b 7.635942
_cell_length_c 13.726144
_cell_angle_alpha 90.000000
_cell_angle_beta 56.086024
_cell_angle_gamma 90.000000
_cell_volume 1997.662863
_symmetry_space_group_name_H-M "C 2/M"
_symmetry_group_IT_number 12
_symmetry_cell_setting 'monoclinic'
loop_
_space_group_symop_operation_xyz
x,y,z
-x,y,-z
-x,-y,-z
x,-y,z
1/2+x,1/2+y,z
1/2-x,1/2+y,-z
1/2-x,1/2-y,-z
1/2+x,1/2-y,z
loop_
_atom_site_type_symbol
_atom_site_label
_atom_site_fract_x
_atom_site_fract_y
_atom_site_fract_z
Si Si1 0.825275 0.789451 0.975934
Si Si2 0.031701 0.800127 0.245457
Si Si3 0.881124 0.786482 0.327961
Si Si4 0.854396 0.792014 0.568982
Si Si5 0.500000 0.756823 0.500000
Si Si6 0.202826 0.788259 0.782366
O O1 0.893148 0.722209 0.853438
O O2 0.828945 0.000000 0.973342
O O3 0.750000 0.750000 0.000000
O O4 0.826035 0.727010 0.086922
O O5 0.019303 0.810064 0.372933
O O6 0.961210 0.721184 0.264493
O O7 0.032893 0.000000 0.208294
O O8 0.843501 0.744999 0.465643
O O9 0.841053 0.724070 0.269870
O O10 0.882895 0.000000 0.322068
O O11 0.783599 0.764481 0.693736
O O12 0.920819 0.685307 0.546508
O O13 0.874200 0.000000 0.556256
O O14 0.200210 0.000000 0.784058
#
# Coordination Sequence:
#
# PCOD9169803 Si02
#       6
#     8   8   8   8   4   8
#     4  10  21  34  50  72  98 127 160 197 240 288
#     4   9  16  28  47  71  95 122 159 201 238 277
#     4   8  16  30  49  73  98 124 161 203 238 274
#     4  10  18  30  51  75  97 127 164 199 233 278
#     4  10  17  28  49  74  95 118 159 208 241 268
#     4  10  20  33  48  71 102 130 155 194 244 288
#
# _framework density 22.025736999999999
#
# number of rings (size 3 to 8) (size 9 to 14) (size 15 to 20)
#    0.000    2.545    0.000    4.364    0.000    2.909 
#    0.000    4.091    0.000    5.455    0.000    2.545 
#    0.000    0.000    0.000    0.000    0.000    0.000 
#
# Total GULP energy -122512.328506 kJ/mol
# GULP energy per Si atom -5568.742205 kJ/mol
# Density = 2.197561 g / cm^3
# Si number density = 22.025737 Si / 1000 Ang^3
#
#
#
# Elastic Constant Matrix: (Units=GPa)
#
#
# Indices 1 2 3 4 5 6 
#
# 1 116.2710 9.2816 68.0036 0.0000 -3.3632 0.0001
# 2 9.2816 52.9990 13.9055 0.0000 3.4441 0.0002
# 3 68.0036 13.9055 141.1153 0.0000 -28.0631 0.0000
# 4 0.0000 0.0000 0.0000 -5.7428 0.0000 16.6306
# 5 -3.3632 3.4441 -28.0631 0.0000 43.9786 0.0000
# 6 0.0001 0.0002 0.0000 16.6306 0.0000 -59.6244
#
#
#
# Elastic Compliance Matrix: (Units=1/GPa)
#
#
# Indices 1 2 3 4 5 6 
#
# 1 0.012377 -0.000229 -0.006586 0.000000 -0.003238 0.000000
# 2 -0.000229 0.019757 -0.002460 0.000000 -0.003134 0.000000
# 3 -0.006586 -0.002460 0.011958 0.000000 0.007320 0.000000
# 4 0.000000 0.000000 0.000000 -0.905681 0.000000 -0.252615
# 5 -0.003238 -0.003134 0.007320 0.000000 0.027407 0.000000
# 6 0.000000 0.000000 0.000000 -0.252615 0.000000 -0.087232
#
#
# Mechanical properties :
#
#
# Convention : Reuss Voigt Hill
#
# Bulk Modulus (GPa) = 39.14964 54.75186 46.95075
# Shear Modulus (GPa) = -5.59066 10.33524 2.37229
#
# Velocity S-wave (km/s) = -1.59491 2.16853 1.03894
# Velocity P-wave (km/s) = 3.79755 5.58410 4.77512
#
# Compressibility (1/GPa) = 0.02554302
#
# Stress axis : x y z
#
# Youngs Moduli (GPa) = 80.79412 50.61376 83.62489
#
# Poissons Ratio (x) = 0.01160 0.55075
# Poissons Ratio (y) = 0.01852 0.20570
# Poissons Ratio (z) = 0.53210 0.12450
#
# Static dielectric constant tensor:
#      x y z
#    x 1.792080 0.000000 -0.008860 
#    y 0.000000 1.885160 0.000000 
#    z -0.008860 0.000000 1.774570 
# 
# From -- ./inp_files/172773.got.cif
#   From: 2010.05.17/outbox.cif.g08.bks.cpg/sg12_87_cif.got.tgz:172773.got - 2010.06.03 13:09:07.
