data_PCOD9169071
_publ_section_title
;
Structure prediction by ZEFSAII (Michael W. Deem and Ramdas Pophale) SiO2 
 PCOD9169071
Probable space group: C 2/M
;
_chemical_formula_sum "Si O2"
_cell_formula_units_Z 40
_cell_length_a 15.157935
_cell_length_b 15.767788
_cell_length_c 16.267068
_cell_angle_alpha 90.000000
_cell_angle_beta 34.842651
_cell_angle_gamma 90.000000
_cell_volume 2221.278815
_symmetry_space_group_name_H-M "C 2/M"
_symmetry_group_IT_number 12
_symmetry_cell_setting 'monoclinic'
loop_
_space_group_symop_operation_xyz
x,y,z
-x,y,-z
-x,-y,-z
x,-y,z
1/2+x,1/2+y,z
1/2-x,1/2+y,-z
1/2-x,1/2-y,-z
1/2+x,1/2-y,z
loop_
_atom_site_type_symbol
_atom_site_label
_atom_site_fract_x
_atom_site_fract_y
_atom_site_fract_z
Si Si1 0.432718 0.874398 0.920414
Si Si2 0.716452 0.092412 0.135482
Si Si3 0.508891 0.692899 0.896310
Si Si4 0.348650 0.216347 0.667082
Si Si5 0.751227 0.594156 0.225875
O O1 0.381422 0.909284 0.872691
O O2 0.438008 0.772991 0.904894
O O3 0.600369 0.901064 0.826633
O O4 0.316714 0.898348 0.082811
O O5 0.658760 0.165053 0.241607
O O6 0.711155 0.000000 0.180082
O O7 0.894105 0.114558 0.975970
O O8 0.690745 0.687174 0.741400
O O9 0.500000 0.717748 0.000000
O O10 0.500000 0.195830 0.500000
O O11 0.339744 0.318327 0.688018
O O12 0.679400 0.500000 0.290499
#
# Coordination Sequence:
#
# PCOD9169071 Si02
#       5
#     8   8   8   8   8
#     4  10  16  33  56  86 108 130 171 225 269 309
#     4  11  21  33  57  83 105 137 180 223 260 307
#     4   9  17  34  55  78 106 137 173 218 264 306
#     4  10  22  38  52  77 108 147 179 211 264 314
#     4  10  18  32  56  83 111 135 168 219 271 318
#
# _framework density 18.007645
#
# number of rings (size 3 to 8) (size 9 to 14) (size 15 to 20)
#    0.000    2.000    6.000    3.000    0.000    4.400 
#    0.000    4.000    0.000    0.000    0.000    0.000 
#    0.000    0.000    0.000    0.000    0.000    0.000 
#
# Total GULP energy -111384.485456 kJ/mol
# GULP energy per Si atom -5569.224273 kJ/mol
# Density = 1.796666 g / cm^3
# Si number density = 18.007645 Si / 1000 Ang^3
#
#
#
# Elastic Constant Matrix: (Units=GPa)
#
#
# Indices 1 2 3 4 5 6 
#
# 1 69.7359 40.4963 26.6365 -0.0001 1.1717 0.0001
# 2 40.4963 108.7447 31.5161 -0.0001 -1.8727 0.0001
# 3 26.6365 31.5161 100.8416 0.0005 -6.9105 0.0000
# 4 -0.0001 -0.0001 0.0005 0.6493 0.0001 -0.8019
# 5 1.1717 -1.8727 -6.9105 0.0001 6.5655 -0.0002
# 6 0.0001 0.0001 0.0000 -0.8019 -0.0002 5.9010
#
#
#
# Elastic Compliance Matrix: (Units=1/GPa)
#
#
# Indices 1 2 3 4 5 6 
#
# 1 0.019666 -0.006370 -0.003846 0.000006 -0.009375 0.000000
# 2 -0.006370 0.012177 -0.001947 0.000002 0.002560 0.000000
# 3 -0.003846 -0.001947 0.012448 -0.000014 0.013233 -0.000001
# 4 0.000006 0.000002 -0.000014 1.850817 -0.000032 0.251499
# 5 -0.009375 0.002560 0.013233 -0.000032 0.168641 0.000001
# 6 0.000000 0.000000 -0.000001 0.251499 0.000001 0.203638
#
#
# Mechanical properties :
#
#
# Convention : Reuss Voigt Hill
#
# Bulk Modulus (GPa) = 50.09361 52.95778 51.52570
# Shear Modulus (GPa) = 2.17546 14.66805 8.42175
#
# Velocity S-wave (km/s) = 1.10032 2.85712 2.16493
# Velocity P-wave (km/s) = 5.43071 6.35268 5.90970
#
# Compressibility (1/GPa) = 0.01996263
#
# Stress axis : x y z
#
# Youngs Moduli (GPa) = 50.85008 82.12465 80.33482
#
# Poissons Ratio (x) = 0.52315 0.30897
# Poissons Ratio (y) = 0.32393 0.15645
# Poissons Ratio (z) = 0.19557 0.15993
#
# Static dielectric constant tensor:
#      x y z
#    x 1.603870 0.000000 -0.024800 
#    y 0.000000 1.675130 0.000000 
#    z -0.024800 0.000000 1.601190 
# 
# From -- ./inp_files/270504.got.cif
#   From: 2010.05.17/outbox.cif.g08.bks.cpg/sg12_136_cif.got.tgz:270504.got - 2010.06.03 13:09:07.
