data_PCOD9169106
_publ_section_title
;
Structure prediction by ZEFSAII (Michael W. Deem and Ramdas Pophale) SiO2 
 PCOD9169106
Probable space group: C 2/M
;
_chemical_formula_sum "Si O2"
_cell_formula_units_Z 48
_cell_length_a 18.641945
_cell_length_b 14.652253
_cell_length_c 12.113674
_cell_angle_alpha 90.000000
_cell_angle_beta 140.110409
_cell_angle_gamma 90.000000
_cell_volume 2121.972219
_symmetry_space_group_name_H-M "C 2/M"
_symmetry_group_IT_number 12
_symmetry_cell_setting 'monoclinic'
loop_
_space_group_symop_operation_xyz
x,y,z
-x,y,-z
-x,-y,-z
x,-y,z
1/2+x,1/2+y,z
1/2-x,1/2+y,-z
1/2-x,1/2-y,-z
1/2+x,1/2-y,z
loop_
_atom_site_type_symbol
_atom_site_label
_atom_site_fract_x
_atom_site_fract_y
_atom_site_fract_z
Si Si1 0.774829 0.356425 0.515404
Si Si2 0.508680 0.206714 0.756018
Si Si3 0.500000 0.851254 0.500000
Si Si4 0.748726 0.840392 0.140792
Si Si5 0.234350 0.000000 0.655793
Si Si6 0.920082 0.898315 0.149378
Si Si7 0.240326 0.634683 0.756225
O O1 0.750000 0.250000 0.500000
O O2 0.725945 0.420684 0.549850
O O3 0.741606 0.381439 0.351405
O O4 0.910953 0.357905 0.685844
O O5 0.496117 0.204092 0.609304
O O6 0.498436 0.313120 0.777466
O O7 0.629571 0.171465 0.938020
O O8 0.382139 0.902117 0.357524
O O9 0.749581 0.920121 0.230409
O O10 0.842766 0.864832 0.160707
O O11 0.767448 0.743019 0.222800
O O12 0.965521 0.000000 0.226682
O O13 0.837986 0.902252 0.947907
#
# Coordination Sequence:
#
# PCOD9169106 Si02
#       7
#     8   8   4   8   4   8   8
#     4  11  25  45  63  92 133 180 218 269 318 387
#     4  10  22  39  65  92 130 176 213 265 336 380
#     4  10  16  34  64  90 122 164 212 254 332 392
#     4  11  20  40  66  95 131 168 214 276 317 397
#     4  12  26  43  66  97 129 178 229 254 325 385
#     4  11  21  39  65 102 128 163 216 276 336 393
#     4  10  20  39  64  87 132 176 205 265 331 382
#
# _framework density 22.620463999999998
#
# number of rings (size 3 to 8) (size 9 to 14) (size 15 to 20)
#    0.000    1.333    5.833    1.000    1.167    2.000 
#    1.500    0.833    0.000    1.000    0.000    0.000 
#    0.000    0.000    0.000    0.000    0.000    0.000 
#
# Total GULP energy -133639.717278 kJ/mol
# GULP energy per Si atom -5568.321553 kJ/mol
# Density = 2.256898 g / cm^3
# Si number density = 22.620464 Si / 1000 Ang^3
#
#
#
# Elastic Constant Matrix: (Units=GPa)
#
#
# Indices 1 2 3 4 5 6 
#
# 1 28.3839 16.2607 46.2133 0.0000 -13.1793 0.0000
# 2 16.2607 159.8254 29.8731 0.0000 -18.9399 0.0000
# 3 46.2133 29.8731 105.1934 0.0000 -21.4969 0.0000
# 4 0.0000 0.0000 0.0000 12.6224 0.0000 -28.8390
# 5 -13.1793 -18.9399 -21.4969 0.0000 33.2672 0.0000
# 6 0.0000 0.0000 0.0000 -28.8390 0.0000 5.7309
#
#
#
# Elastic Compliance Matrix: (Units=1/GPa)
#
#
# Indices 1 2 3 4 5 6 
#
# 1 0.131868 -0.001337 -0.054187 0.000000 0.016465 0.000000
# 2 -0.001337 0.006880 -0.000777 0.000000 0.002885 0.000000
# 3 -0.054187 -0.000777 0.033476 0.000000 -0.000278 0.000000
# 4 0.000000 0.000000 0.000000 -0.007547 0.000000 -0.037978
# 5 0.016465 0.002885 -0.000278 0.000000 0.038046 0.000000
# 6 0.000000 0.000000 0.000000 -0.037978 0.000000 -0.016623
#
#
# Mechanical properties :
#
#
# Convention : Reuss Voigt Hill
#
# Bulk Modulus (GPa) = 16.77266 53.12188 34.94727
# Shear Modulus (GPa) = 15.69489 23.72780 19.71134
#
# Velocity S-wave (km/s) = 2.63693 3.24227 2.95514
# Velocity P-wave (km/s) = 4.08683 6.12792 5.20834
#
# Compressibility (1/GPa) = 0.05962082
#
# Stress axis : x y z
#
# Youngs Moduli (GPa) = 7.58336 145.34961 29.87245
#
# Poissons Ratio (x) = 0.19432 1.61871
# Poissons Ratio (y) = 0.01014 0.02321
# Poissons Ratio (z) = 0.41092 0.11291
#
# Static dielectric constant tensor:
#      x y z
#    x 1.877660 0.000000 0.067970 
#    y 0.000000 1.831580 0.000000 
#    z 0.067970 0.000000 1.822540 
# 
# From -- ./inp_files/167681.got.cif
#   From: 2010.05.17/outbox.cif.g08.bks.cpg/sg12_84_cif.got.tgz:167681.got - 2010.06.03 13:09:07.
