data_PCOD9169692
_publ_section_title
;
Structure prediction by ZEFSAII (Michael W. Deem and Ramdas Pophale) SiO2 
 PCOD9169692
Probable space group: C 2/M
;
_chemical_formula_sum "Si O2"
_cell_formula_units_Z 64
_cell_length_a 14.983256
_cell_length_b 20.243882
_cell_length_c 12.334154
_cell_angle_alpha 90.000000
_cell_angle_beta 64.292063
_cell_angle_gamma 90.000000
_cell_volume 3370.872449
_symmetry_space_group_name_H-M "C 2/M"
_symmetry_group_IT_number 12
_symmetry_cell_setting 'monoclinic'
loop_
_space_group_symop_operation_xyz
x,y,z
-x,y,-z
-x,-y,-z
x,-y,z
1/2+x,1/2+y,z
1/2-x,1/2+y,-z
1/2-x,1/2-y,-z
1/2+x,1/2-y,z
loop_
_atom_site_type_symbol
_atom_site_label
_atom_site_fract_x
_atom_site_fract_y
_atom_site_fract_z
Si Si1 0.016728 0.747752 0.197203
Si Si2 0.016780 0.403332 0.152350
Si Si3 0.301689 0.224103 0.283207
Si Si4 0.433700 0.070662 0.641628
Si Si5 0.601748 0.785117 0.378177
Si Si6 0.324615 0.707462 0.035631
Si Si7 0.696252 0.925386 0.786778
Si Si8 0.754960 0.427665 0.996686
O O1 0.025458 0.675168 0.139144
O O2 0.079013 0.749209 0.274936
O O3 0.068587 0.792949 0.080329
O O4 0.901046 0.749800 0.289082
O O5 0.996987 0.420262 0.289406
O O6 0.923309 0.426599 0.133421
O O7 0.126287 0.429716 0.078443
O O8 0.197900 0.252430 0.379187
O O9 0.293437 0.143999 0.283298
O O10 0.320592 0.255173 0.152584
O O11 0.500000 0.067940 0.500000
O O12 0.373991 0.138331 0.662106
O O13 0.380397 0.000000 0.679886
O O14 0.500000 0.783158 0.500000
O O15 0.285983 0.632520 0.051756
O O16 0.250000 0.750000 0.000000
O O17 0.754838 0.915969 0.868695
O O18 0.721264 0.000000 0.731758
O O19 0.714207 0.500000 0.991063
#
# Coordination Sequence:
#
# PCOD9169692 Si02
#       8
#     8   8   8   8   8   8   8   8
#     4  10  20  33  53  77 101 134 173 209 251 302
#     4  10  17  28  44  70 101 129 158 202 254 306
#     4  11  21  34  54  77 101 135 171 207 256 304
#     4   9  17  29  46  68  94 127 163 200 249 299
#     4  10  20  35  53  75 104 134 169 213 252 299
#     4  12  18  34  53  72 103 137 168 205 246 300
#     4  10  19  29  44  71 103 127 155 202 258 309
#     4  11  20  28  45  72 101 134 167 200 247 301
#
# _framework density 18.986181999999999
#
# number of rings (size 3 to 8) (size 9 to 14) (size 15 to 20)
#    0.000    1.625    3.750    2.625    0.000    3.500 
#    0.000    0.000    0.000    2.625    0.000    0.000 
#    0.000    0.000    0.000    0.000    0.000    0.000 
#
# Total GULP energy -178243.434504 kJ/mol
# GULP energy per Si atom -5570.107328 kJ/mol
# Density = 1.894297 g / cm^3
# Si number density = 18.986182 Si / 1000 Ang^3
#
#
#
# Elastic Constant Matrix: (Units=GPa)
#
#
# Indices 1 2 3 4 5 6 
#
# 1 51.9090 27.1167 9.5550 0.0000 -16.2076 0.0000
# 2 27.1167 114.0362 11.9233 0.0000 -13.8150 0.0000
# 3 9.5550 11.9233 53.6724 0.0000 -9.9160 0.0000
# 4 0.0000 0.0000 0.0000 8.0321 0.0000 2.4686
# 5 -16.2076 -13.8150 -9.9160 0.0000 30.2269 0.0000
# 6 0.0000 0.0000 0.0000 2.4686 0.0000 8.8366
#
#
#
# Elastic Compliance Matrix: (Units=1/GPa)
#
#
# Indices 1 2 3 4 5 6 
#
# 1 0.025351 -0.004538 -0.001466 0.000000 0.011039 0.000000
# 2 -0.004538 0.010190 -0.001112 0.000000 0.001859 0.000000
# 3 -0.001466 -0.001112 0.020120 0.000000 0.005306 0.000000
# 4 0.000000 0.000000 0.000000 0.136194 0.000000 -0.038047
# 5 0.011039 0.001859 0.005306 0.000000 0.041592 0.000000
# 6 0.000000 0.000000 0.000000 -0.038047 0.000000 0.123795
#
#
# Mechanical properties :
#
#
# Convention : Reuss Voigt Hill
#
# Bulk Modulus (GPa) = 24.13753 35.20087 29.66920
# Shear Modulus (GPa) = 12.97746 20.82061 16.89904
#
# Velocity S-wave (km/s) = 2.61726 3.31512 2.98664
# Velocity P-wave (km/s) = 4.67699 5.76488 5.24919
#
# Compressibility (1/GPa) = 0.04142927
#
# Stress axis : x y z
#
# Youngs Moduli (GPa) = 39.44555 98.13820 49.70211
#
# Poissons Ratio (x) = 0.44533 0.07285
# Poissons Ratio (y) = 0.17900 0.05529
# Poissons Ratio (z) = 0.05782 0.10916
#
# Static dielectric constant tensor:
#      x y z
#    x 1.684190 0.000000 0.002070 
#    y 0.000000 1.703060 0.000000 
#    z 0.002070 0.000000 1.730770 
# 
# From -- ./inp_files/216365.got.cif
#   From: 2010.05.17/outbox.cif.g08.bks.cpg/sg12_109_cif.got.tgz:216365.got - 2010.06.03 13:09:07.
