data_PCOD9169818
_publ_section_title
;
Structure prediction by ZEFSAII (Michael W. Deem and Ramdas Pophale) SiO2 
 PCOD9169818
Probable space group: C 2/M
;
_chemical_formula_sum "Si O2"
_cell_formula_units_Z 64
_cell_length_a 27.469477
_cell_length_b 12.739343
_cell_length_c 12.362713
_cell_angle_alpha 90.000000
_cell_angle_beta 110.761795
_cell_angle_gamma 90.000000
_cell_volume 4045.309324
_symmetry_space_group_name_H-M "C 2/M"
_symmetry_group_IT_number 12
_symmetry_cell_setting 'monoclinic'
loop_
_space_group_symop_operation_xyz
x,y,z
-x,y,-z
-x,-y,-z
x,-y,z
1/2+x,1/2+y,z
1/2-x,1/2+y,-z
1/2-x,1/2-y,-z
1/2+x,1/2-y,z
loop_
_atom_site_type_symbol
_atom_site_label
_atom_site_fract_x
_atom_site_fract_y
_atom_site_fract_z
Si Si1 0.814730 0.624370 0.068689
Si Si2 0.003138 0.122785 0.632364
Si Si3 0.058660 0.875179 0.016661
Si Si4 0.670608 0.623050 0.705320
Si Si5 0.400805 0.716866 0.175738
Si Si6 0.235095 0.238508 0.160546
Si Si7 0.846181 0.875300 0.750596
Si Si8 0.113971 0.127275 0.442752
O O1 0.816013 0.500000 0.052361
O O2 0.870699 0.672147 0.148249
O O3 0.770509 0.655503 0.121739
O O4 0.797251 0.690583 0.949605
O O5 0.945885 0.155943 0.625176
O O6 0.000000 0.123141 0.500000
O O7 0.047288 0.198465 0.713127
O O8 0.013879 0.000000 0.673042
O O9 0.097995 0.860355 0.147282
O O10 0.056184 0.000000 0.990990
O O11 0.083294 0.819473 0.931517
O O12 0.000000 0.840831 0.000000
O O13 0.679838 0.500000 0.700644
O O14 0.641487 0.643723 0.796084
O O15 0.723811 0.686326 0.748376
O O16 0.634780 0.659666 0.576664
O O17 0.196804 0.182797 0.213144
O O18 0.850921 0.839039 0.630296
O O19 0.835606 0.000000 0.743081
O O20 0.113537 0.000000 0.443832
#
# Coordination Sequence:
#
# PCOD9169818 Si02
#       8
#     8   8   8   8   8   8   8   8
#     4  10  21  36  52  74 103 131 169 218 259 301
#     4  10  17  28  49  79 110 133 161 203 251 302
#     4  10  19  30  47  75 107 133 163 203 251 308
#     4  10  19  31  50  77 105 133 170 208 248 301
#     4  11  19  31  52  77 102 136 168 202 256 308
#     4  10  20  34  52  76  96 133 173 209 259 300
#     4  10  19  32  48  70 105 137 163 200 251 307
#     4   9  18  31  47  74 108 137 162 201 253 300
#
# _framework density 15.820793
#
# number of rings (size 3 to 8) (size 9 to 14) (size 15 to 20)
#    0.000    2.000    2.500    2.625    0.000    2.500 
#    0.000    0.000    0.000    0.750    0.000    0.875 
#    0.000    0.000    0.000    0.000    0.000    0.000 
#
# Total GULP energy -178363.724367 kJ/mol
# GULP energy per Si atom -5573.866386 kJ/mol
# Density = 1.578478 g / cm^3
# Si number density = 15.820793 Si / 1000 Ang^3
#
#
#
# Elastic Constant Matrix: (Units=GPa)
#
#
# Indices 1 2 3 4 5 6 
#
# 1 112.4042 40.1121 31.9674 0.0000 -5.6695 0.0000
# 2 40.1121 56.6238 27.3063 0.0000 1.0661 0.0000
# 3 31.9674 27.3063 53.3541 0.0000 -1.7984 0.0000
# 4 0.0000 0.0000 0.0000 17.8108 0.0000 1.0066
# 5 -5.6695 1.0661 -1.7984 0.0000 32.6957 0.0000
# 6 0.0000 0.0000 0.0000 1.0066 0.0000 22.2940
#
#
#
# Elastic Compliance Matrix: (Units=1/GPa)
#
#
# Indices 1 2 3 4 5 6 
#
# 1 0.012654 -0.007150 -0.003848 0.000000 0.002216 0.000000
# 2 -0.007150 0.027555 -0.009909 0.000000 -0.002683 0.000000
# 3 -0.003848 -0.009909 0.026156 0.000000 0.001095 0.000000
# 4 0.000000 0.000000 0.000000 0.056289 0.000000 -0.002542
# 5 0.002216 -0.002683 0.001095 0.000000 0.031117 0.000000
# 6 0.000000 0.000000 0.000000 -0.002542 0.000000 0.044970
#
#
# Mechanical properties :
#
#
# Convention : Reuss Voigt Hill
#
# Bulk Modulus (GPa) = 40.73034 46.79485 43.76259
# Shear Modulus (GPa) = 20.10150 22.75986 21.43068
#
# Velocity S-wave (km/s) = 3.56838 3.79701 3.68447
# Velocity P-wave (km/s) = 6.54053 6.99037 6.76919
#
# Compressibility (1/GPa) = 0.02455173
#
# Stress axis : x y z
#
# Youngs Moduli (GPa) = 79.02564 36.29159 38.23216
#
# Poissons Ratio (x) = 0.25950 0.14710
# Poissons Ratio (y) = 0.56507 0.37882
# Poissons Ratio (z) = 0.30405 0.35960
#
# Static dielectric constant tensor:
#      x y z
#    x 1.541180 0.000000 0.002530 
#    y 0.000000 1.494300 0.000000 
#    z 0.002530 0.000000 1.554040 
# 
# From -- ./inp_files/175296.got.cif
#   From: 2010.05.17/outbox.cif.g08.bks.cpg/sg12_88_cif.got.tgz:175296.got - 2010.06.03 13:09:07.
