data_PCOD9169205
_publ_section_title
;
Structure prediction by ZEFSAII (Michael W. Deem and Ramdas Pophale) SiO2 
 PCOD9169205
Probable space group: C 2/M
;
_chemical_formula_sum "Si O2"
_cell_formula_units_Z 56
_cell_length_a 13.762200
_cell_length_b 8.236092
_cell_length_c 19.564896
_cell_angle_alpha 90.000000
_cell_angle_beta 91.273790
_cell_angle_gamma 90.000000
_cell_volume 2217.069273
_symmetry_space_group_name_H-M "C 2/M"
_symmetry_group_IT_number 12
_symmetry_cell_setting 'monoclinic'
loop_
_space_group_symop_operation_xyz
x,y,z
-x,y,-z
-x,-y,-z
x,-y,z
1/2+x,1/2+y,z
1/2-x,1/2+y,-z
1/2-x,1/2-y,-z
1/2+x,1/2-y,z
loop_
_atom_site_type_symbol
_atom_site_label
_atom_site_fract_x
_atom_site_fract_y
_atom_site_fract_z
Si Si1 0.254076 0.317182 0.289315
Si Si2 0.585915 0.804381 0.869859
Si Si3 0.011570 0.315638 0.576558
Si Si4 0.241730 0.321848 0.574074
Si Si5 0.683401 0.690896 0.158758
Si Si6 0.639696 0.805357 0.014635
Si Si7 0.534451 0.809121 0.725217
O O1 0.288785 0.500000 0.280630
O O2 0.218771 0.290782 0.365525
O O3 0.173860 0.278285 0.231416
O O4 0.347183 0.201676 0.280940
O O5 0.701691 0.778739 0.857249
O O6 0.527702 0.737997 0.802748
O O7 0.569866 0.000000 0.869617
O O8 0.577126 0.746126 0.948346
O O9 0.968683 0.500000 0.572094
O O10 0.127065 0.333814 0.582099
O O11 0.992476 0.240414 0.652339
O O12 0.000000 0.238460 0.500000
O O13 0.286764 0.500000 0.579366
O O14 0.250000 0.250000 0.500000
O O15 0.624155 0.751818 0.092394
O O16 0.170529 0.000000 0.166439
O O17 0.634753 0.000000 0.013430
O O18 0.750000 0.750000 0.000000
O O19 0.508028 0.000000 0.725414
#
# Coordination Sequence:
#
# PCOD9169205 Si02
#       7
#     8   8   8   8   8   8   8
#     4  10  17  25  38  55  74  98 131 166 203 247
#     4   7  11  18  28  42  62  90 123 158 194 232
#     4   8  14  25  43  65  85 108 140 176 212 250
#     4  10  19  31  46  63  85 111 141 176 212 251
#     4   9  15  23  32  44  65  93 126 162 200 240
#     4   9  14  19  27  41  62  90 125 162 199 238
#     4   8  13  23  37  52  73 101 132 166 203 243
#
# _framework density 25.258571
#
# number of rings (size 3 to 8) (size 9 to 14) (size 15 to 20)
#    0.000    3.286    0.000    5.143    0.000    0.000 
#    0.000    0.714    0.000   10.714    0.000    0.000 
#    0.000    0.000    0.000    1.286    0.000   31.714 
#
# Total GULP energy -156108.492968 kJ/mol
# GULP energy per Si atom -5575.303320 kJ/mol
# Density = 2.520108 g / cm^3
# Si number density = 25.258571 Si / 1000 Ang^3
#
#
#
# Elastic Constant Matrix: (Units=GPa)
#
#
# Indices 1 2 3 4 5 6 
#
# 1 73.1735 -2.4013 22.3916 0.0000 19.7611 0.0000
# 2 -2.4013 53.7347 28.8787 0.0000 -2.5820 0.0000
# 3 22.3916 28.8787 324.1472 0.0000 16.4430 0.0000
# 4 0.0000 0.0000 0.0000 28.8377 0.0000 -1.3637
# 5 19.7611 -2.5820 16.4430 0.0000 37.3997 0.0000
# 6 0.0000 0.0000 0.0000 -1.3637 0.0000 4.3740
#
#
#
# Elastic Compliance Matrix: (Units=1/GPa)
#
#
# Indices 1 2 3 4 5 6 
#
# 1 0.016121 0.000742 -0.000767 0.000000 -0.008129 0.000000
# 2 0.000742 0.019753 -0.001903 0.000000 0.001808 0.000000
# 3 -0.000767 -0.001903 0.003369 0.000000 -0.001207 0.000000
# 4 0.000000 0.000000 0.000000 0.035196 0.000000 0.010973
# 5 -0.008129 0.001808 -0.001207 0.000000 0.031689 0.000000
# 6 0.000000 0.000000 0.000000 0.010973 0.000000 0.232043
#
#
# Mechanical properties :
#
#
# Convention : Reuss Voigt Hill
#
# Bulk Modulus (GPa) = 28.25965 60.97705 44.61835
# Shear Modulus (GPa) = 14.13146 40.93472 27.53309
#
# Velocity S-wave (km/s) = 2.36788 4.03007 3.30517
# Velocity P-wave (km/s) = 4.32299 6.77117 5.68054
#
# Compressibility (1/GPa) = 0.03538615
#
# Stress axis : x y z
#
# Youngs Moduli (GPa) = 62.03220 50.62619 296.84382
#
# Poissons Ratio (x) = -0.03757 0.22778
# Poissons Ratio (y) = -0.04604 0.56483
# Poissons Ratio (z) = 0.04760 0.09633
#
# Static dielectric constant tensor:
#      x y z
#    x 2.019230 0.000000 -0.005680 
#    y 0.000000 1.905380 0.000000 
#    z -0.005680 0.000000 2.077110 
# 
# From -- ./inp_files/318840.got.cif
#   From: 2010.05.17/outbox.cif.g08.bks.cpg/sg12_160_cif.got.tgz:318840.got - 2010.06.03 13:09:07.
