data_PCOD9169350
_publ_section_title
;
Structure prediction by ZEFSAII (Michael W. Deem and Ramdas Pophale) SiO2 
 PCOD9169350
Probable space group: C 2/M
;
_chemical_formula_sum "Si O2"
_cell_formula_units_Z 52
_cell_length_a 17.636704
_cell_length_b 17.188912
_cell_length_c 8.656692
_cell_angle_alpha 90.000000
_cell_angle_beta 85.498960
_cell_angle_gamma 90.000000
_cell_volume 2616.232323
_symmetry_space_group_name_H-M "C 2/M"
_symmetry_group_IT_number 12
_symmetry_cell_setting 'monoclinic'
loop_
_space_group_symop_operation_xyz
x,y,z
-x,y,-z
-x,-y,-z
x,-y,z
1/2+x,1/2+y,z
1/2-x,1/2+y,-z
1/2-x,1/2-y,-z
1/2+x,1/2-y,z
loop_
_atom_site_type_symbol
_atom_site_label
_atom_site_fract_x
_atom_site_fract_y
_atom_site_fract_z
Si Si1 0.755932 0.661572 0.193932
Si Si2 0.587486 0.500000 0.432118
Si Si3 0.323791 0.500000 0.878325
Si Si4 0.416701 0.328532 0.211848
Si Si5 0.955486 0.275600 0.647699
Si Si6 0.567720 0.500000 0.870624
Si Si7 0.831934 0.163717 0.506082
Si Si8 0.632670 0.228772 0.050825
O O1 0.722990 0.577533 0.151653
O O2 0.745564 0.666285 0.381930
O O3 0.700106 0.726721 0.129834
O O4 0.834690 0.674850 0.091482
O O5 0.500000 0.500000 0.500000
O O6 0.602398 0.500000 0.245608
O O7 0.631733 0.577898 0.477605
O O8 0.353045 0.500000 0.047741
O O9 0.481940 0.282184 0.289902
O O10 0.436056 0.418724 0.213866
O O11 0.338266 0.318909 0.322659
O O12 0.409437 0.296726 0.039647
O O13 0.889642 0.223878 0.579170
O O14 0.917596 0.311943 0.807948
O O15 0.000000 0.318622 0.500000
O O16 0.500000 0.500000 0.000000
#
# Coordination Sequence:
#
# PCOD9169350 Si02
#       8
#     8   4   4   8   8   4   8   8
#     4   9  19  34  48  64  91 129 167 190 224 279
#     4  10  17  26  43  60  92 133 162 176 217 273
#     4  10  20  34  46  67  92 130 167 190 225 276
#     4  11  20  29  45  71  99 125 157 195 235 273
#     4   9  18  31  45  68  96 120 154 191 236 286
#     4  12  23  26  42  72 103 126 157 197 229 265
#     4   9  19  29  43  64  96 130 157 187 223 274
#     4  10  18  31  49  68  93 124 158 198 231 268
#
# _framework density 19.875910000000001
#
# number of rings (size 3 to 8) (size 9 to 14) (size 15 to 20)
#    0.000    2.154    1.538    3.231    6.462    0.615 
#    0.000    0.385    0.000    0.000    0.000    2.692 
#    0.000    0.000    0.000    0.538    0.000    0.000 
#
# Total GULP energy -144850.048745 kJ/mol
# GULP energy per Si atom -5571.155721 kJ/mol
# Density = 1.983067 g / cm^3
# Si number density = 19.875910 Si / 1000 Ang^3
#
#
#
# Elastic Constant Matrix: (Units=GPa)
#
#
# Indices 1 2 3 4 5 6 
#
# 1 34.9238 15.4723 25.7216 0.0000 -27.3432 0.0000
# 2 15.4723 31.3216 4.3263 0.0000 -23.0506 0.0000
# 3 25.7216 4.3263 137.0399 0.0000 -47.7458 0.0000
# 4 0.0000 0.0000 0.0000 -9.9656 0.0000 1.2021
# 5 -27.3432 -23.0506 -47.7458 0.0000 48.3110 0.0000
# 6 0.0000 0.0000 0.0000 1.2021 0.0000 10.1063
#
#
#
# Elastic Compliance Matrix: (Units=1/GPa)
#
#
# Indices 1 2 3 4 5 6 
#
# 1 0.052227 -0.006819 -0.000644 0.000000 0.025669 0.000000
# 2 -0.006819 0.061375 0.012507 0.000000 0.037785 0.000000
# 3 -0.000644 0.012507 0.013689 0.000000 0.019132 0.000000
# 4 0.000000 0.000000 0.000000 -0.098926 0.000000 0.011767
# 5 0.025669 0.037785 0.019132 0.000000 0.072164 0.000000
# 6 0.000000 0.000000 0.000000 0.011767 0.000000 0.097549
#
#
# Mechanical properties :
#
#
# Convention : Reuss Voigt Hill
#
# Bulk Modulus (GPa) = 7.27919 32.70286 19.99103
# Shear Modulus (GPa) = 21.38740 20.20800 20.79770
#
# Velocity S-wave (km/s) = 3.28387 3.19205 3.23828
# Velocity P-wave (km/s) = 4.24838 5.48405 4.90528
#
# Compressibility (1/GPa) = 0.13737792
#
# Stress axis : x y z
#
# Youngs Moduli (GPa) = 19.14728 16.29324 73.05250
#
# Poissons Ratio (x) = 0.11111 0.04705
# Poissons Ratio (y) = 0.13057 -0.91366
# Poissons Ratio (z) = 0.01233 -0.20378
#
# Static dielectric constant tensor:
#      x y z
#    x 1.740120 0.000000 -0.053130 
#    y 0.000000 1.665250 0.000000 
#    z -0.053130 0.000000 1.836950 
# 
# From -- ./inp_files/75258.got.cif
#   From: 2010.05.17/outbox.cif.g08.bks.cpg/sg12_38_cif.got.tgz:75258.got - 2010.06.03 13:09:07.
