data_PCOD9169307
_publ_section_title
;
Structure prediction by ZEFSAII (Michael W. Deem and Ramdas Pophale) SiO2 
 PCOD9169307
Probable space group: C 2/M
;
_chemical_formula_sum "Si O2"
_cell_formula_units_Z 64
_cell_length_a 29.302094
_cell_length_b 8.697596
_cell_length_c 16.922278
_cell_angle_alpha 90.000000
_cell_angle_beta 96.449125
_cell_angle_gamma 90.000000
_cell_volume 4285.482813
_symmetry_space_group_name_H-M "C 2/M"
_symmetry_group_IT_number 12
_symmetry_cell_setting 'monoclinic'
loop_
_space_group_symop_operation_xyz
x,y,z
-x,y,-z
-x,-y,-z
x,-y,z
1/2+x,1/2+y,z
1/2-x,1/2+y,-z
1/2-x,1/2-y,-z
1/2+x,1/2-y,z
loop_
_atom_site_type_symbol
_atom_site_label
_atom_site_fract_x
_atom_site_fract_y
_atom_site_fract_z
Si Si1 0.973745 0.817435 0.077002
Si Si2 0.942039 0.315124 0.828404
Si Si3 0.367129 0.184949 0.690471
Si Si4 0.779016 0.817024 0.767413
Si Si5 0.109614 0.315173 0.020210
Si Si6 0.317318 0.684269 0.543177
Si Si7 0.715074 0.185104 0.057450
Si Si8 0.729532 0.682470 0.618838
O O1 0.007150 0.751624 0.150569
O O2 0.971389 0.000000 0.082695
O O3 0.923191 0.749739 0.054543
O O4 0.000000 0.776549 0.000000
O O5 0.944809 0.500000 0.831483
O O6 0.913772 0.271579 0.744914
O O7 0.911540 0.265890 0.898859
O O8 0.324760 0.244115 0.736455
O O9 0.360208 0.257746 0.602603
O O10 0.364268 0.000000 0.685400
O O11 0.774044 0.750703 0.853835
O O12 0.736674 0.769467 0.702356
O O13 0.783814 0.000000 0.769491
O O14 0.107356 0.500000 0.017553
O O15 0.162619 0.269041 0.026472
O O16 0.311978 0.500000 0.551633
O O17 0.312425 0.718590 0.448951
O O18 0.274588 0.769270 0.577216
O O19 0.717036 0.000000 0.060077
O O20 0.750000 0.250000 0.000000
O O21 0.730380 0.500000 0.632967
#
# Coordination Sequence:
#
# PCOD9169307 Si02
#       8
#     8   8   8   8   8   8   8   8
#     4   9  17  26  39  61  82 101 132 172 208 242
#     4   9  16  27  41  58  80 111 142 167 204 250
#     4  10  17  26  40  58  82 112 142 173 206 246
#     4  11  20  29  43  60  78 105 139 176 215 251
#     4   9  17  31  46  57  77 107 137 169 208 255
#     4   9  16  24  35  55  78 104 136 170 206 242
#     4  11  22  36  49  64  83 107 141 179 220 256
#     4   9  16  26  39  53  75 104 136 171 205 246
#
# _framework density 14.934139999999999
#
# number of rings (size 3 to 8) (size 9 to 14) (size 15 to 20)
#    0.000    2.375    1.250    4.500    0.000    5.000 
#    0.000    0.000    0.000    0.000    0.000    0.000 
#    0.000    0.000    0.000    1.125    0.000   21.000 
#
# Total GULP energy -178210.479022 kJ/mol
# GULP energy per Si atom -5569.077469 kJ/mol
# Density = 1.490015 g / cm^3
# Si number density = 14.934140 Si / 1000 Ang^3
#
#
#
# Elastic Constant Matrix: (Units=GPa)
#
#
# Indices 1 2 3 4 5 6 
#
# 1 68.2220 20.3353 55.5250 0.0000 26.2736 0.0000
# 2 20.3353 35.5196 26.7738 0.0000 8.9910 0.0000
# 3 55.5250 26.7738 91.6582 0.0000 34.2042 0.0000
# 4 0.0000 0.0000 0.0000 22.9157 0.0000 5.9177
# 5 26.2736 8.9910 34.2042 0.0000 28.9920 0.0000
# 6 0.0000 0.0000 0.0000 5.9177 0.0000 16.8413
#
#
#
# Elastic Compliance Matrix: (Units=1/GPa)
#
#
# Indices 1 2 3 4 5 6 
#
# 1 0.031283 -0.005047 -0.013366 0.000000 -0.011016 0.000000
# 2 -0.005047 0.036997 -0.009245 0.000000 0.004007 0.000000
# 3 -0.013366 -0.009245 0.028795 0.000000 -0.018992 0.000000
# 4 0.000000 0.000000 0.000000 0.047993 0.000000 -0.016864
# 5 -0.011016 0.004007 -0.018992 0.000000 0.065639 0.000000
# 6 0.000000 0.000000 0.000000 -0.016864 0.000000 0.065304
#
#
# Mechanical properties :
#
#
# Convention : Reuss Voigt Hill
#
# Bulk Modulus (GPa) = 23.94661 44.51865 34.23263
# Shear Modulus (GPa) = 14.48248 19.93419 17.20833
#
# Velocity S-wave (km/s) = 3.11747 3.65746 3.39821
# Velocity P-wave (km/s) = 5.38774 6.90730 6.19429
#
# Compressibility (1/GPa) = 0.04175957
#
# Stress axis : x y z
#
# Youngs Moduli (GPa) = 31.96637 27.02906 34.72885
#
# Poissons Ratio (x) = 0.13640 0.46417
# Poissons Ratio (y) = 0.16132 0.32108
# Poissons Ratio (z) = 0.42725 0.24989
#
# Static dielectric constant tensor:
#      x y z
#    x 1.490500 0.000000 0.051790 
#    y 0.000000 1.498110 0.000000 
#    z 0.051790 0.000000 1.519200 
# 
# From -- ./inp_files/287659.got.cif
#   From: 2010.05.17/outbox.cif.g08.bks.cpg/sg12_144_cif.got.tgz:287659.got - 2010.06.03 13:09:07.
