data_PCOD9169297
_publ_section_title
;
Structure prediction by ZEFSAII (Michael W. Deem and Ramdas Pophale) SiO2 
 PCOD9169297
Probable space group: C 2/M
;
_chemical_formula_sum "Si O2"
_cell_formula_units_Z 44
_cell_length_a 30.027276
_cell_length_b 8.335174
_cell_length_c 16.743532
_cell_angle_alpha 90.000000
_cell_angle_beta 29.399679
_cell_angle_gamma 90.000000
_cell_volume 2057.167798
_symmetry_space_group_name_H-M "C 2/M"
_symmetry_group_IT_number 12
_symmetry_cell_setting 'monoclinic'
loop_
_space_group_symop_operation_xyz
x,y,z
-x,y,-z
-x,-y,-z
x,-y,z
1/2+x,1/2+y,z
1/2-x,1/2+y,-z
1/2-x,1/2-y,-z
1/2+x,1/2-y,z
loop_
_atom_site_type_symbol
_atom_site_label
_atom_site_fract_x
_atom_site_fract_y
_atom_site_fract_z
Si Si1 0.660339 0.500000 0.267340
Si Si2 0.032045 0.195802 0.065739
Si Si3 0.302547 0.179728 0.579177
Si Si4 0.120186 0.000000 0.146994
Si Si5 0.804949 0.760188 0.089410
Si Si6 0.640797 0.808234 0.737961
Si Si7 0.085613 0.000000 0.552393
O O1 0.621729 0.500000 0.239384
O O2 0.728453 0.642833 0.179239
O O3 0.589674 0.500000 0.449738
O O4 0.926562 0.246470 0.226258
O O5 0.038456 0.000000 0.056975
O O6 0.093224 0.277663 0.038577
O O7 0.081524 0.262648 0.909175
O O8 0.241063 0.172102 0.756887
O O9 0.234769 0.218053 0.611145
O O10 0.365216 0.337310 0.494224
O O11 0.342597 0.000000 0.507111
O O12 0.174211 0.856278 0.022882
O O13 0.020170 0.000000 0.265055
O O14 0.653859 0.000000 0.713686
#
# Coordination Sequence:
#
# PCOD9169297 Si02
#       7
#     4   8   8   4   8   8   4
#     4  10  23  38  63  85 112 151 197 238 296 360
#     4  10  17  27  44  78 115 150 189 235 291 327
#     4  10  18  37  59  86 119 154 201 233 285 343
#     4  12  21  42  58  86 118 147 189 250 303 346
#     4  10  20  35  59  85 112 154 189 240 295 347
#     4  10  17  25  48  82 116 148 192 238 278 330
#     4  10  23  38  63  86 118 156 194 240 293 348
#
# _framework density 21.388631
#
# number of rings (size 3 to 8) (size 9 to 14) (size 15 to 20)
#    0.000    1.818    2.727    5.182    5.091    0.000 
#    1.636    0.000    0.000    3.273    0.000    0.000 
#    0.000    0.000    0.000    0.000    0.000    0.000 
#
# Total GULP energy -122550.885823 kJ/mol
# GULP energy per Si atom -5570.494810 kJ/mol
# Density = 2.133995 g / cm^3
# Si number density = 21.388631 Si / 1000 Ang^3
#
#
#
# Elastic Constant Matrix: (Units=GPa)
#
#
# Indices 1 2 3 4 5 6 
#
# 1 117.8690 25.9806 17.4399 0.0000 0.2176 0.0000
# 2 25.9806 122.4773 40.0280 -0.0003 -13.9325 0.0000
# 3 17.4399 40.0280 65.0749 -0.0001 -2.6207 0.0000
# 4 0.0000 -0.0003 -0.0001 17.8352 0.0000 -5.6584
# 5 0.2176 -13.9325 -2.6207 0.0000 41.3383 0.0000
# 6 0.0000 0.0000 0.0000 -5.6584 0.0000 24.8579
#
#
#
# Elastic Compliance Matrix: (Units=1/GPa)
#
#
# Indices 1 2 3 4 5 6 
#
# 1 0.009040 -0.001491 -0.001532 0.000000 -0.000647 0.000000
# 2 -0.001491 0.010864 -0.006151 0.000000 0.003280 0.000000
# 3 -0.001532 -0.006151 0.019528 0.000000 -0.000827 0.000000
# 4 0.000000 0.000000 0.000000 0.060433 0.000000 0.013756
# 5 -0.000647 0.003280 -0.000827 0.000000 0.025247 0.000000
# 6 0.000000 0.000000 0.000000 0.013756 0.000000 0.043360
#
#
# Mechanical properties :
#
#
# Convention : Reuss Voigt Hill
#
# Bulk Modulus (GPa) = 47.42706 52.47979 49.95342
# Shear Modulus (GPa) = 25.79331 31.60447 28.69889
#
# Velocity S-wave (km/s) = 3.47643 3.84816 3.66701
# Velocity P-wave (km/s) = 6.19162 6.65838 6.42924
#
# Compressibility (1/GPa) = 0.02108501
#
# Stress axis : x y z
#
# Youngs Moduli (GPa) = 110.61428 92.04386 51.20908
#
# Poissons Ratio (x) = 0.13720 0.07845
# Poissons Ratio (y) = 0.16489 0.31500
# Poissons Ratio (z) = 0.16946 0.56618
#
# Static dielectric constant tensor:
#      x y z
#    x 1.780920 0.000000 0.026760 
#    y 0.000000 1.713120 0.000000 
#    z 0.026760 0.000000 1.795200 
# 
# From -- ./inp_files/295035.got.cif
#   From: 2010.05.17/outbox.cif.g08.bks.cpg/sg12_148_cif.got.tgz:295035.got - 2010.06.03 13:09:07.
