data_PCOD9169819
_publ_section_title
;
Structure prediction by ZEFSAII (Michael W. Deem and Ramdas Pophale) SiO2 
 PCOD9169819
Probable space group: C 2/M
;
_chemical_formula_sum "Si O2"
_cell_formula_units_Z 48
_cell_length_a 11.715870
_cell_length_b 19.184794
_cell_length_c 12.231131
_cell_angle_alpha 90.000000
_cell_angle_beta 90.528126
_cell_angle_gamma 90.000000
_cell_volume 2749.032361
_symmetry_space_group_name_H-M "C 2/M"
_symmetry_group_IT_number 12
_symmetry_cell_setting 'monoclinic'
loop_
_space_group_symop_operation_xyz
x,y,z
-x,y,-z
-x,-y,-z
x,-y,z
1/2+x,1/2+y,z
1/2-x,1/2+y,-z
1/2-x,1/2-y,-z
1/2+x,1/2-y,z
loop_
_atom_site_type_symbol
_atom_site_label
_atom_site_fract_x
_atom_site_fract_y
_atom_site_fract_z
Si Si1 0.716962 0.831461 0.233289
Si Si2 0.592920 0.417210 0.344471
Si Si3 0.388593 0.675439 0.046924
Si Si4 0.232797 0.174582 0.184009
Si Si5 0.666042 0.583015 0.587403
Si Si6 0.026362 0.328932 0.879520
O O1 0.805928 0.855607 0.138595
O O2 0.738098 0.748718 0.244964
O O3 0.744309 0.873351 0.342513
O O4 0.587188 0.837737 0.191464
O O5 0.602020 0.500000 0.326475
O O6 0.645972 0.374582 0.246310
O O7 0.459836 0.401477 0.364488
O O8 0.658119 0.400692 0.458624
O O9 0.440569 0.747020 0.098855
O O10 0.500000 0.636010 0.000000
O O11 0.311690 0.689861 0.939333
O O12 0.358779 0.142297 0.173689
O O13 0.684787 0.500000 0.598323
O O14 0.000000 0.357744 0.000000
#
# Coordination Sequence:
#
# PCOD9169819 Si02
#       6
#     8   8   8   8   8   8
#     4  11  19  31  55  82 112 141 181 221 262 324
#     4   9  20  40  59  77 105 142 183 228 279 316
#     4  10  17  28  49  81 109 143 175 215 270 315
#     4  11  19  30  56  83 108 145 181 220 262 321
#     4   9  20  39  60  77 103 144 183 228 277 317
#     4  10  17  31  47  80 112 149 172 203 271 326
#
# _framework density 17.460688999999999
#
# number of rings (size 3 to 8) (size 9 to 14) (size 15 to 20)
#    0.000    2.000    5.000    3.000    2.333    0.667 
#    0.000    2.500    0.000    6.000    0.000    0.000 
#    0.000    0.000    0.000    0.000    0.000    0.000 
#
# Total GULP energy -133736.786358 kJ/mol
# GULP energy per Si atom -5572.366098 kJ/mol
# Density = 1.742095 g / cm^3
# Si number density = 17.460689 Si / 1000 Ang^3
#
#
#
# Elastic Constant Matrix: (Units=GPa)
#
#
# Indices 1 2 3 4 5 6 
#
# 1 82.5170 12.4219 24.4103 0.0000 18.0076 0.0000
# 2 12.4219 17.8246 27.6917 0.0000 10.9772 0.0000
# 3 24.4103 27.6917 70.9547 0.0000 20.8221 0.0000
# 4 0.0000 0.0000 0.0000 67.5382 0.0000 48.9474
# 5 18.0076 10.9772 20.8221 0.0000 36.0309 0.0000
# 6 0.0000 0.0000 0.0000 48.9474 0.0000 78.9368
#
#
#
# Elastic Compliance Matrix: (Units=1/GPa)
#
#
# Indices 1 2 3 4 5 6 
#
# 1 0.014352 -0.003962 -0.001976 0.000000 -0.004824 0.000000
# 2 -0.003962 0.149338 -0.053165 0.000000 -0.012793 0.000000
# 3 -0.001976 -0.053165 0.036704 0.000000 -0.004026 0.000000
# 4 0.000000 0.000000 0.000000 0.026891 0.000000 -0.016675
# 5 -0.004824 -0.012793 -0.004026 0.000000 0.036389 0.000000
# 6 0.000000 0.000000 0.000000 -0.016675 0.000000 0.023008
#
#
# Mechanical properties :
#
#
# Convention : Reuss Voigt Hill
#
# Bulk Modulus (GPa) = 12.16714 33.37155 22.76935
# Shear Modulus (GPa) = 11.56648 43.61936 27.59292
#
# Velocity S-wave (km/s) = 2.57656 5.00357 3.97960
# Velocity P-wave (km/s) = 3.97932 7.24809 5.84679
#
# Compressibility (1/GPa) = 0.08218856
#
# Stress axis : x y z
#
# Youngs Moduli (GPa) = 69.67487 6.69624 27.24530
#
# Poissons Ratio (x) = 0.02653 0.05383
# Poissons Ratio (y) = 0.27602 1.44850
# Poissons Ratio (z) = 0.13766 0.35601
#
# Static dielectric constant tensor:
#      x y z
#    x 1.640490 0.000000 -0.012450 
#    y 0.000000 1.583850 0.000000 
#    z -0.012450 0.000000 1.597280 
# 
# From -- ./inp_files/131013.got.cif
#   From: 2010.05.17/outbox.cif.g08.bks.cpg/sg12_66_cif.got.tgz:131013.got - 2010.06.03 13:09:07.
