data_PCOD9169222
_publ_section_title
;
Structure prediction by ZEFSAII (Michael W. Deem and Ramdas Pophale) SiO2 
 PCOD9169222
Probable space group: C 2/M
;
_chemical_formula_sum "Si O2"
_cell_formula_units_Z 64
_cell_length_a 24.321900
_cell_length_b 7.409484
_cell_length_c 17.570279
_cell_angle_alpha 90.000000
_cell_angle_beta 82.895129
_cell_angle_gamma 90.000000
_cell_volume 3142.074583
_symmetry_space_group_name_H-M "C 2/M"
_symmetry_group_IT_number 12
_symmetry_cell_setting 'monoclinic'
loop_
_space_group_symop_operation_xyz
x,y,z
-x,y,-z
-x,-y,-z
x,-y,z
1/2+x,1/2+y,z
1/2-x,1/2+y,-z
1/2-x,1/2-y,-z
1/2+x,1/2-y,z
loop_
_atom_site_type_symbol
_atom_site_label
_atom_site_fract_x
_atom_site_fract_y
_atom_site_fract_z
Si Si1 0.687280 0.716239 0.038234
Si Si2 0.311837 0.208343 0.220149
Si Si3 0.604364 0.294086 0.926924
Si Si4 0.398162 0.716192 0.320300
Si Si5 0.070934 0.220301 0.269997
Si Si6 0.310619 0.720404 0.788456
Si Si7 0.986954 0.220601 0.417267
Si Si8 0.516360 0.718641 0.830592
O O1 0.680814 0.500000 0.039613
O O2 0.682817 0.778478 0.125314
O O3 0.750000 0.750000 0.000000
O O4 0.639754 0.788039 0.989751
O O5 0.352005 0.299633 0.151260
O O6 0.340059 0.217291 0.298002
O O7 0.249535 0.279833 0.229691
O O8 0.310266 0.000000 0.195783
O O9 0.590640 0.500000 0.951331
O O10 0.547679 0.214363 0.901013
O O11 0.394528 0.500000 0.323375
O O12 0.427489 0.777124 0.392734
O O13 0.441789 0.762594 0.245881
O O14 0.134267 0.278559 0.264457
O O15 0.033384 0.276124 0.347821
O O16 0.042371 0.276196 0.194485
O O17 0.069561 0.000000 0.269683
O O18 0.310307 0.500000 0.786617
O O19 0.000000 0.281250 0.500000
O O20 0.987004 0.000000 0.417758
O O21 0.514492 0.500000 0.837784
#
# Coordination Sequence:
#
# PCOD9169222 Si02
#       8
#     8   8   8   8   8   8   8   8
#     4  10  18  28  40  57  83 110 143 181 214 249
#     4  10  17  25  39  59  83 110 144 176 202 243
#     4   9  16  26  41  59  79 104 138 182 222 248
#     4   8  14  25  41  63  88 107 132 171 208 244
#     4   8  13  23  38  57  86 113 132 166 213 254
#     4   9  17  26  36  55  83 113 141 172 211 254
#     4   8  13  23  44  71  90 106 134 172 210 248
#     4   7  11  21  37  56  76 101 130 161 205 249
#
# _framework density 20.36871
#
# number of rings (size 3 to 8) (size 9 to 14) (size 15 to 20)
#    0.000    3.375    1.250    2.625    0.000    0.000 
#    0.000    0.625    0.000    4.875    0.000   23.625 
#    0.000   10.000    0.000    0.000    0.000    0.125 
#
# Total GULP energy -178234.334281 kJ/mol
# GULP energy per Si atom -5569.822946 kJ/mol
# Density = 2.032235 g / cm^3
# Si number density = 20.368710 Si / 1000 Ang^3
#
#
#
# Elastic Constant Matrix: (Units=GPa)
#
#
# Indices 1 2 3 4 5 6 
#
# 1 113.1385 -6.0402 48.4110 0.0000 24.7970 0.0000
# 2 -6.0402 62.9315 -2.0268 0.0000 2.6400 0.0000
# 3 48.4110 -2.0268 74.6451 0.0000 26.2880 0.0000
# 4 0.0000 0.0000 0.0000 0.8187 0.0000 0.4582
# 5 24.7970 2.6400 26.2880 0.0000 33.1847 0.0000
# 6 0.0000 0.0000 0.0000 0.4582 0.0000 7.4215
#
#
#
# Elastic Compliance Matrix: (Units=1/GPa)
#
#
# Indices 1 2 3 4 5 6 
#
# 1 0.012708 0.001183 -0.006702 0.000000 -0.004281 0.000000
# 2 0.001183 0.016134 0.000602 0.000000 -0.002645 0.000000
# 3 -0.006702 0.000602 0.022209 0.000000 -0.012633 0.000000
# 4 0.000000 0.000000 0.000000 1.265123 0.000000 -0.078114
# 5 -0.004281 -0.002645 -0.012633 0.000000 0.043551 0.000000
# 6 0.000000 0.000000 0.000000 -0.078114 0.000000 0.139567
#
#
# Mechanical properties :
#
#
# Convention : Reuss Voigt Hill
#
# Bulk Modulus (GPa) = 24.26145 36.82256 30.54201
# Shear Modulus (GPa) = 3.28329 22.30974 12.79651
#
# Velocity S-wave (km/s) = 1.27099 3.31311 2.50920
# Velocity P-wave (km/s) = 3.75378 5.72301 4.83962
#
# Compressibility (1/GPa) = 0.04121765
#
# Stress axis : x y z
#
# Youngs Moduli (GPa) = 78.69150 61.98012 45.02761
#
# Poissons Ratio (x) = -0.07335 0.30177
# Poissons Ratio (y) = -0.09313 -0.02710
# Poissons Ratio (z) = 0.52738 -0.03731
#
# Static dielectric constant tensor:
#      x y z
#    x 1.764220 0.000000 0.038290 
#    y 0.000000 1.805680 0.000000 
#    z 0.038290 0.000000 1.703490 
# 
# From -- ./inp_files/287525.got.cif
#   From: 2010.05.17/outbox.cif.g08.bks.cpg/sg12_144_cif.got.tgz:287525.got - 2010.06.03 13:09:07.
