data_PCOD9169876
_publ_section_title
;
Structure prediction by ZEFSAII (Michael W. Deem and Ramdas Pophale) SiO2 
 PCOD9169876
Probable space group: C 2/M
;
_chemical_formula_sum "Si O2"
_cell_formula_units_Z 64
_cell_length_a 14.635648
_cell_length_b 31.647330
_cell_length_c 8.182564
_cell_angle_alpha 90.000000
_cell_angle_beta 67.948227
_cell_angle_gamma 90.000000
_cell_volume 3512.736257
_symmetry_space_group_name_H-M "C 2/M"
_symmetry_group_IT_number 12
_symmetry_cell_setting 'monoclinic'
loop_
_space_group_symop_operation_xyz
x,y,z
-x,y,-z
-x,-y,-z
x,-y,z
1/2+x,1/2+y,z
1/2-x,1/2+y,-z
1/2-x,1/2-y,-z
1/2+x,1/2-y,z
loop_
_atom_site_type_symbol
_atom_site_label
_atom_site_fract_x
_atom_site_fract_y
_atom_site_fract_z
Si Si1 0.394870 0.548060 0.281929
Si Si2 0.703032 0.371118 0.538489
Si Si3 0.878275 0.951241 0.899248
Si Si4 0.496191 0.318720 0.311063
Si Si5 0.297739 0.635320 0.843363
Si Si6 0.318774 0.799899 0.604605
Si Si7 0.828552 0.288764 0.950389
Si Si8 0.886846 0.745623 0.243102
O O1 0.375445 0.500000 0.344256
O O2 0.319326 0.580278 0.413014
O O3 0.510412 0.556842 0.242280
O O4 0.385202 0.550983 0.091719
O O5 0.597531 0.349146 0.644456
O O6 0.725434 0.362538 0.333855
O O7 0.783084 0.347705 0.596052
O O8 0.808376 0.913470 0.887366
O O9 0.851995 0.000000 0.874793
O O10 0.500000 0.306219 0.500000
O O11 0.595322 0.343099 0.202633
O O12 0.474344 0.278563 0.214667
O O13 0.224642 0.666155 0.987463
O O14 0.216007 0.772894 0.683656
O O15 0.376655 0.783938 0.408000
O O16 0.372655 0.791367 0.739344
O O17 0.889220 0.279447 0.072783
O O18 0.750000 0.250000 0.000000
#
# Coordination Sequence:
#
# PCOD9169876 Si02
#       8
#     8   8   8   8   8   8   8   8
#     4   9  17  29  41  57  86 118 151 192 238 273
#     4  10  17  29  43  64  81 113 153 191 234 265
#     4   9  18  30  43  59  86 120 153 195 235 270
#     4   9  19  28  46  62  87 118 145 201 238 259
#     4  11  19  31  46  67  90 115 160 200 232 276
#     4   9  17  29  48  58  82 112 143 193 225 272
#     4  10  20  31  47  65  84 118 154 188 232 282
#     4   9  17  33  45  61  84 111 149 187 233 272
#
# _framework density 18.219414
#
# number of rings (size 3 to 8) (size 9 to 14) (size 15 to 20)
#    0.000    2.500    2.500    1.500    5.250    0.500 
#    0.000    1.250    0.000    0.000    0.000    0.000 
#    0.000    0.000    0.000    0.000    0.000    6.250 
#
# Total GULP energy -178567.638804 kJ/mol
# GULP energy per Si atom -5580.238713 kJ/mol
# Density = 1.817795 g / cm^3
# Si number density = 18.219414 Si / 1000 Ang^3
#
#
#
# Elastic Constant Matrix: (Units=GPa)
#
#
# Indices 1 2 3 4 5 6 
#
# 1 29.8679 26.1777 22.2842 0.0000 9.4583 0.0000
# 2 26.1777 115.4663 35.4771 0.0000 9.4681 0.0000
# 3 22.2842 35.4771 71.0936 0.0000 15.0146 0.0000
# 4 0.0000 0.0000 0.0000 28.3074 0.0000 3.1338
# 5 9.4583 9.4681 15.0146 0.0000 13.0759 0.0000
# 6 0.0000 0.0000 0.0000 3.1338 0.0000 27.1939
#
#
#
# Elastic Compliance Matrix: (Units=1/GPa)
#
#
# Indices 1 2 3 4 5 6 
#
# 1 0.053884 -0.007808 -0.007863 0.000000 -0.024294 0.000000
# 2 -0.007808 0.011402 -0.003553 0.000000 0.001472 0.000000
# 3 -0.007863 -0.003553 0.021860 0.000000 -0.016841 0.000000
# 4 0.000000 0.000000 0.000000 0.035783 0.000000 -0.004124
# 5 -0.024294 0.001472 -0.016841 0.000000 0.112322 0.000000
# 6 0.000000 0.000000 0.000000 -0.004124 0.000000 0.037248
#
#
# Mechanical properties :
#
#
# Convention : Reuss Voigt Hill
#
# Bulk Modulus (GPa) = 20.53472 42.70067 31.61769
# Shear Modulus (GPa) = 15.28214 22.54803 18.91509
#
# Velocity S-wave (km/s) = 2.89932 3.52175 3.22558
# Velocity P-wave (km/s) = 4.74377 6.32651 5.59142
#
# Compressibility (1/GPa) = 0.04869802
#
# Stress axis : x y z
#
# Youngs Moduli (GPa) = 18.55850 87.70583 45.74490
#
# Poissons Ratio (x) = 0.68483 0.35967
# Poissons Ratio (y) = 0.14491 0.16254
# Poissons Ratio (z) = 0.14592 0.31163
#
# Static dielectric constant tensor:
#      x y z
#    x 1.627150 0.000000 0.022640 
#    y 0.000000 1.644210 0.000000 
#    z 0.022640 0.000000 1.655300 
# 
# From -- ./inp_files/67845.got.cif
#   From: 2010.05.17/outbox.cif.g08.bks.cpg/sg12_34_cif.got.tgz:67845.got - 2010.06.03 13:09:07.
