data_PCOD9169749
_publ_section_title
;
Structure prediction by ZEFSAII (Michael W. Deem and Ramdas Pophale) SiO2 
 PCOD9169749
Probable space group: C 2/M
;
_chemical_formula_sum "Si O2"
_cell_formula_units_Z 60
_cell_length_a 22.222901
_cell_length_b 22.499848
_cell_length_c 15.120296
_cell_angle_alpha 90.000000
_cell_angle_beta 158.112756
_cell_angle_gamma 90.000000
_cell_volume 2818.348128
_symmetry_space_group_name_H-M "C 2/M"
_symmetry_group_IT_number 12
_symmetry_cell_setting 'monoclinic'
loop_
_space_group_symop_operation_xyz
x,y,z
-x,y,-z
-x,-y,-z
x,-y,z
1/2+x,1/2+y,z
1/2-x,1/2+y,-z
1/2-x,1/2-y,-z
1/2+x,1/2-y,z
loop_
_atom_site_type_symbol
_atom_site_label
_atom_site_fract_x
_atom_site_fract_y
_atom_site_fract_z
Si Si1 0.000000 0.135765 0.000000
Si Si2 0.714884 0.571402 0.950510
Si Si3 0.760544 0.067586 0.208180
Si Si4 0.195136 0.352507 0.278942
Si Si5 0.826858 0.928921 0.913886
Si Si6 0.278923 0.773844 0.439096
Si Si7 0.632215 0.065253 0.350437
Si Si8 0.428939 0.878936 0.558447
O O1 0.960135 0.093864 0.028004
O O2 0.861960 0.181550 0.782047
O O3 0.732391 0.500000 0.967757
O O4 0.623551 0.584123 0.917119
O O5 0.890322 0.599313 0.206343
O O6 0.664940 0.589504 0.783135
O O7 0.777250 0.107277 0.316744
O O8 0.813583 0.000000 0.297889
O O9 0.563948 0.066436 0.926905
O O10 0.268664 0.287517 0.373039
O O11 0.206603 0.384773 0.389417
O O12 0.000000 0.347834 0.000000
O O13 0.672511 0.890165 0.669124
O O14 0.794952 0.000000 0.863884
O O15 0.250000 0.750000 0.500000
O O16 0.426894 0.815093 0.606886
O O17 0.656589 0.077379 0.486632
O O18 0.688492 0.000000 0.399777
#
# Coordination Sequence:
#
# PCOD9169749 Si02
#       8
#     4   8   8   8   8   8   8   8
#     4  10  23  36  54  78 103 136 184 220 258 328
#     4   9  17  30  51  79 105 134 171 215 276 328
#     4   8  15  26  44  72 101 125 157 210 267 315
#     4  10  17  28  47  69 100 138 174 211 259 308
#     4  10  19  33  53  76 106 137 169 217 270 320
#     4  11  21  35  51  73 105 150 185 216 259 306
#     4   9  15  24  41  71 101 125 160 211 266 312
#     4  10  18  28  47  74 107 138 174 219 257 315
#
# _framework density 21.289065999999998
#
# number of rings (size 3 to 8) (size 9 to 14) (size 15 to 20)
#    0.000    2.400    2.000    3.000    0.000    2.667 
#    0.000    0.000    0.000   10.400    0.000    0.000 
#    0.000    3.200    0.000    0.000    0.000    0.000 
#
# Total GULP energy -167260.461547 kJ/mol
# GULP energy per Si atom -5575.348718 kJ/mol
# Density = 2.124061 g / cm^3
# Si number density = 21.289066 Si / 1000 Ang^3
#
#
#
# Elastic Constant Matrix: (Units=GPa)
#
#
# Indices 1 2 3 4 5 6 
#
# 1 150.2059 39.5636 9.5894 0.0000 -17.3976 0.0000
# 2 39.5636 78.5900 -2.1596 0.0000 -7.6920 0.0000
# 3 9.5894 -2.1596 25.5855 0.0000 -6.9201 0.0000
# 4 0.0000 0.0000 0.0000 14.3168 0.0000 -2.3859
# 5 -17.3976 -7.6920 -6.9201 0.0000 26.1342 0.0000
# 6 0.0000 0.0000 0.0000 -2.3859 0.0000 22.1796
#
#
#
# Elastic Compliance Matrix: (Units=1/GPa)
#
#
# Indices 1 2 3 4 5 6 
#
# 1 0.008260 -0.003860 -0.002415 0.000000 0.003723 0.000000
# 2 -0.003860 0.015034 0.003466 0.000000 0.002773 0.000000
# 3 -0.002415 0.003466 0.043218 0.000000 0.010857 0.000000
# 4 0.000000 0.000000 0.000000 0.071123 0.000000 0.007651
# 5 0.003723 0.002773 0.010857 0.000000 0.044433 0.000000
# 6 0.000000 0.000000 0.000000 0.007651 0.000000 0.045909
#
#
# Mechanical properties :
#
#
# Convention : Reuss Voigt Hill
#
# Bulk Modulus (GPa) = 16.42184 38.70759 27.56472
# Shear Modulus (GPa) = 19.69329 26.35199 23.02264
#
# Velocity S-wave (km/s) = 3.04475 3.52208 3.29208
# Velocity P-wave (km/s) = 4.48232 5.89588 5.23701
#
# Compressibility (1/GPa) = 0.06089450
#
# Stress axis : x y z
#
# Youngs Moduli (GPa) = 121.07136 66.51541 23.13828
#
# Poissons Ratio (x) = 0.25675 0.05587
# Poissons Ratio (y) = 0.46733 -0.08019
# Poissons Ratio (z) = 0.29233 -0.23052
#
# Static dielectric constant tensor:
#      x y z
#    x 1.799460 0.000000 0.025320 
#    y 0.000000 1.743520 0.000000 
#    z 0.025320 0.000000 1.872570 
# 
# From -- ./inp_files/235195.got.cif
#   From: 2010.05.17/outbox.cif.g08.bks.cpg/sg12_118_cif.got.tgz:235195.got - 2010.06.03 13:09:07.
