data_PCOD9169397
_publ_section_title
;
Structure prediction by ZEFSAII (Michael W. Deem and Ramdas Pophale) SiO2 
 PCOD9169397
Probable space group: C 2/M
;
_chemical_formula_sum "Si O2"
_cell_formula_units_Z 64
_cell_length_a 23.287225
_cell_length_b 8.759706
_cell_length_c 20.632764
_cell_angle_alpha 90.000000
_cell_angle_beta 61.632767
_cell_angle_gamma 90.000000
_cell_volume 3703.463629
_symmetry_space_group_name_H-M "C 2/M"
_symmetry_group_IT_number 12
_symmetry_cell_setting 'monoclinic'
loop_
_space_group_symop_operation_xyz
x,y,z
-x,y,-z
-x,-y,-z
x,-y,z
1/2+x,1/2+y,z
1/2-x,1/2+y,-z
1/2-x,1/2-y,-z
1/2+x,1/2-y,z
loop_
_atom_site_type_symbol
_atom_site_label
_atom_site_fract_x
_atom_site_fract_y
_atom_site_fract_z
Si Si1 0.536953 0.183878 0.414729
Si Si2 0.584688 0.817552 0.749665
Si Si3 0.688281 0.183397 0.340358
Si Si4 0.489691 0.182858 0.910428
Si Si5 0.305256 0.816895 0.202703
Si Si6 0.568772 0.681377 0.617639
Si Si7 0.799089 0.182973 0.526523
Si Si8 0.101158 0.182264 0.945808
O O1 0.500000 0.237416 0.500000
O O2 0.612578 0.230368 0.373635
O O3 0.496317 0.243512 0.375600
O O4 0.535208 0.000000 0.415790
O O5 0.516967 0.784479 0.824147
O O6 0.643857 0.774259 0.766425
O O7 0.586488 0.737604 0.679805
O O8 0.588900 0.000000 0.738166
O O9 0.735298 0.254703 0.261298
O O10 0.711619 0.243733 0.397745
O O11 0.692217 0.000000 0.336533
O O12 0.545776 0.253315 0.926487
O O13 0.488860 0.000000 0.919544
O O14 0.422165 0.253045 0.972219
O O15 0.332855 0.745230 0.121557
O O16 0.305992 0.000000 0.197364
O O17 0.561869 0.500000 0.621659
O O18 0.628265 0.721127 0.537514
O O19 0.750000 0.250000 0.500000
O O20 0.792103 0.000000 0.534131
O O21 0.100164 0.000000 0.946807
#
# Coordination Sequence:
#
# PCOD9169397 Si02
#       8
#     8   8   8   8   8   8   8   8
#     4  10  21  39  59  75  95 130 170 213 262 310
#     4   9  19  33  50  72 103 140 173 206 251 307
#     4  11  22  36  55  77  99 129 171 215 258 306
#     4   9  16  28  45  68 100 139 176 209 250 304
#     4  10  20  34  51  74 106 142 172 208 257 308
#     4  11  23  35  52  76 101 130 169 216 258 298
#     4  11  23  36  51  74 103 136 169 206 253 307
#     4  10  17  26  44  71 102 137 173 211 250 298
#
# _framework density 17.281119
#
# number of rings (size 3 to 8) (size 9 to 14) (size 15 to 20)
#    0.000    1.875    1.250    5.250    0.000    7.750 
#    0.000    0.000    0.000    0.000    0.000    0.875 
#    0.000    0.000    0.000    0.000    0.000    0.000 
#
# Total GULP energy -178562.439362 kJ/mol
# GULP energy per Si atom -5580.076230 kJ/mol
# Density = 1.724179 g / cm^3
# Si number density = 17.281119 Si / 1000 Ang^3
#
#
#
# Elastic Constant Matrix: (Units=GPa)
#
#
# Indices 1 2 3 4 5 6 
#
# 1 52.6100 12.9778 8.0099 0.0000 -20.5281 -0.0002
# 2 12.9778 53.5656 34.9208 -0.0001 -15.3193 -0.0006
# 3 8.0099 34.9208 96.6534 0.0001 -34.7837 0.0000
# 4 0.0000 -0.0001 0.0001 33.7342 0.0000 -0.6521
# 5 -20.5281 -15.3193 -34.7837 0.0000 23.5040 0.0000
# 6 -0.0002 -0.0006 0.0000 -0.6521 0.0000 24.0193
#
#
#
# Elastic Compliance Matrix: (Units=1/GPa)
#
#
# Indices 1 2 3 4 5 6 
#
# 1 0.043845 -0.006168 0.023383 0.000000 0.068878 0.000000
# 2 -0.006168 0.025707 -0.010025 0.000000 -0.003468 0.000001
# 3 0.023383 -0.010025 0.036432 0.000000 0.067805 0.000000
# 4 0.000000 0.000000 0.000000 0.029659 0.000000 0.000805
# 5 0.068878 -0.003468 0.067805 0.000000 0.200788 0.000001
# 6 0.000000 0.000001 0.000000 0.000805 0.000001 0.041655
#
#
# Mechanical properties :
#
#
# Convention : Reuss Voigt Hill
#
# Bulk Modulus (GPa) = 8.30810 34.96066 21.63438
# Shear Modulus (GPa) = 12.38155 26.04619 19.21387
#
# Velocity S-wave (km/s) = 2.67962 3.88649 3.33805
# Velocity P-wave (km/s) = 3.79366 6.35721 5.23479
#
# Compressibility (1/GPa) = 0.12036440
#
# Stress axis : x y z
#
# Youngs Moduli (GPa) = 22.80749 38.90037 27.44846
#
# Poissons Ratio (x) = 0.23994 -0.64183
# Poissons Ratio (y) = 0.14068 0.27516
# Poissons Ratio (z) = -0.53331 0.38996
#
# Static dielectric constant tensor:
#      x y z
#    x 1.567000 0.000000 -0.033270 
#    y 0.000000 1.573480 0.000000 
#    z -0.033270 0.000000 1.623850 
# 
# From -- ./inp_files/319800.got.cif
#   From: 2010.05.17/outbox.cif.g08.bks.cpg/sg12_160_cif.got.tgz:319800.got - 2010.06.03 13:09:07.
