data_PCOD9169207
_publ_section_title
;
Structure prediction by ZEFSAII (Michael W. Deem and Ramdas Pophale) SiO2 
 PCOD9169207
Probable space group: C 2/M
;
_chemical_formula_sum "Si O2"
_cell_formula_units_Z 48
_cell_length_a 14.124137
_cell_length_b 9.102459
_cell_length_c 20.836758
_cell_angle_alpha 90.000000
_cell_angle_beta 127.807675
_cell_angle_gamma 90.000000
_cell_volume 2116.498516
_symmetry_space_group_name_H-M "C 2/M"
_symmetry_group_IT_number 12
_symmetry_cell_setting 'monoclinic'
loop_
_space_group_symop_operation_xyz
x,y,z
-x,y,-z
-x,-y,-z
x,-y,z
1/2+x,1/2+y,z
1/2-x,1/2+y,-z
1/2-x,1/2-y,-z
1/2+x,1/2-y,z
loop_
_atom_site_type_symbol
_atom_site_label
_atom_site_fract_x
_atom_site_fract_y
_atom_site_fract_z
Si Si1 0.334414 0.835921 0.082808
Si Si2 0.063566 0.331495 0.401282
Si Si3 0.066452 0.664914 0.089318
Si Si4 0.174929 0.168690 0.561146
Si Si5 0.815926 0.319787 0.738409
Si Si6 0.960200 0.174407 0.241989
O O1 0.458816 0.847167 0.095851
O O2 0.356123 0.746440 0.156382
O O3 0.290796 0.000000 0.078290
O O4 0.250000 0.750000 0.000000
O O5 0.024212 0.500000 0.387163
O O6 0.089423 0.266395 0.481923
O O7 0.194005 0.328190 0.419411
O O8 0.977415 0.236844 0.320198
O O9 0.103002 0.500000 0.082488
O O10 0.171666 0.719337 0.181011
O O11 0.000000 0.737783 0.000000
O O12 0.201553 0.211871 0.645795
O O13 0.135027 0.000000 0.542417
O O14 0.833162 0.500000 0.741014
O O15 0.920967 0.229854 0.746425
O O16 0.950884 0.000000 0.238831
#
# Coordination Sequence:
#
# PCOD9169207 Si02
#       6
#     8   8   8   8   8   8
#     4  10  19  31  46  64  87 114 145 179 214 253
#     4   9  15  22  32  48  72 102 135 169 205 247
#     4   8  14  26  45  66  86 111 144 180 215 250
#     4   8  13  20  30  47  72 102 134 166 202 245
#     4   8  14  24  37  54  78 107 138 172 209 250
#     4  10  17  25  38  55  77 106 138 171 210 253
#
# _framework density 22.678967
#
# number of rings (size 3 to 8) (size 9 to 14) (size 15 to 20)
#    0.000    3.167    0.000    4.500    0.000    4.000 
#    0.000    0.000    0.000   12.500    0.000    0.000 
#    0.000    1.333    0.000   15.667    0.000   14.333 
#
# Total GULP energy -133827.949688 kJ/mol
# GULP energy per Si atom -5576.164570 kJ/mol
# Density = 2.262735 g / cm^3
# Si number density = 22.678967 Si / 1000 Ang^3
#
#
#
# Elastic Constant Matrix: (Units=GPa)
#
#
# Indices 1 2 3 4 5 6 
#
# 1 71.1155 14.3060 29.4183 0.0000 -19.1131 0.0000
# 2 14.3060 144.6616 114.3371 0.0000 -7.2707 0.0000
# 3 29.4183 114.3371 280.2888 0.0000 -28.8749 0.0000
# 4 0.0000 0.0000 0.0000 39.6347 0.0000 1.1185
# 5 -19.1131 -7.2707 -28.8749 0.0000 28.0099 0.0000
# 6 0.0000 0.0000 0.0000 1.1185 0.0000 -8.1872
#
#
#
# Elastic Compliance Matrix: (Units=1/GPa)
#
#
# Indices 1 2 3 4 5 6 
#
# 1 0.017416 -0.000932 -0.000278 0.000000 0.011356 0.000000
# 2 -0.000932 0.010337 -0.004372 0.000000 -0.002460 0.000000
# 3 -0.000278 -0.004372 0.005867 0.000000 0.004724 0.000000
# 4 0.000000 0.000000 0.000000 0.025133 0.000000 0.003434
# 5 0.011356 -0.002460 0.004724 0.000000 0.047682 0.000000
# 6 0.000000 0.000000 0.000000 0.003434 0.000000 -0.121672
#
#
# Mechanical properties :
#
#
# Convention : Reuss Voigt Hill
#
# Bulk Modulus (GPa) = 44.53191 90.24321 67.38756
# Shear Modulus (GPa) = 1465.15693 34.42510 749.79102
#
# Velocity S-wave (km/s) = 25.44493 3.90029 18.20243
# Velocity P-wave (km/s) = 29.71427 7.75635 21.71519
#
# Compressibility (1/GPa) = 0.02245581
#
# Stress axis : x y z
#
# Youngs Moduli (GPa) = 57.41828 96.73977 170.44046
#
# Poissons Ratio (x) = 0.09015 0.04737
# Poissons Ratio (y) = 0.05351 0.74523
# Poissons Ratio (z) = 0.01596 0.42298
#
# Static dielectric constant tensor:
#      x y z
#    x 2.062840 0.000000 0.099420 
#    y 0.000000 1.785490 0.000000 
#    z 0.099420 0.000000 1.923390 
# 
# From -- ./inp_files/345695.got.cif
#   From: 2010.05.17/outbox.cif.g08.bks.cpg/sg12_173_cif.got.tgz:345695.got - 2010.06.03 13:09:07.
