data_PCOD9169773
_publ_section_title
;
Structure prediction by ZEFSAII (Michael W. Deem and Ramdas Pophale) SiO2 
 PCOD9169773
Probable space group: C 2/M
;
_chemical_formula_sum "Si O2"
_cell_formula_units_Z 40
_cell_length_a 25.411975
_cell_length_b 8.344969
_cell_length_c 7.938987
_cell_angle_alpha 90.000000
_cell_angle_beta 110.763171
_cell_angle_gamma 90.000000
_cell_volume 1574.217769
_symmetry_space_group_name_H-M "C 2/M"
_symmetry_group_IT_number 12
_symmetry_cell_setting 'monoclinic'
loop_
_space_group_symop_operation_xyz
x,y,z
-x,y,-z
-x,-y,-z
x,-y,z
1/2+x,1/2+y,z
1/2-x,1/2+y,-z
1/2-x,1/2-y,-z
1/2+x,1/2-y,z
loop_
_atom_site_type_symbol
_atom_site_label
_atom_site_fract_x
_atom_site_fract_y
_atom_site_fract_z
Si Si1 0.912091 0.688019 0.328926
Si Si2 0.184324 0.188729 0.572648
Si Si3 0.285815 0.311334 0.883587
Si Si4 0.111200 0.313924 0.177606
Si Si5 0.014948 0.189322 0.271950
O O1 0.899049 0.500000 0.304576
O O2 0.856327 0.787279 0.310261
O O3 0.950543 0.723867 0.538308
O O4 0.952385 0.740299 0.221072
O O5 0.243649 0.268006 0.682512
O O6 0.150982 0.273722 0.384283
O O7 0.189944 0.000000 0.544950
O O8 0.294162 0.500000 0.901355
O O9 0.346038 0.229377 0.923644
O O10 0.250000 0.250000 0.000000
O O11 0.096882 0.500000 0.156376
O O12 0.053990 0.218300 0.153495
O O13 0.012502 0.000000 0.301838
#
# Coordination Sequence:
#
# PCOD9169773 Si02
#       5
#     8   8   8   8   8
#     4  10  17  28  47  76 110 144 178 221 270 322
#     4  11  21  36  57  84 113 146 184 228 273 323
#     4  12  25  42  59  80 108 144 184 228 277 330
#     4  11  21  36  57  84 113 146 184 228 273 323
#     4  10  17  28  47  76 110 144 178 221 270 322
#
# _framework density 25.409444000000001
#
# number of rings (size 3 to 8) (size 9 to 14) (size 15 to 20)
#    0.000    1.200    0.000   13.200    0.000    0.000 
#    0.000    0.000    0.000    1.200    0.000    8.400 
#    0.000    0.000    0.000    0.000    0.000    0.000 
#
# Total GULP energy -112085.050120 kJ/mol
# GULP energy per Si atom -5604.252506 kJ/mol
# Density = 2.535161 g / cm^3
# Si number density = 25.409444 Si / 1000 Ang^3
#
#
#
# Elastic Constant Matrix: (Units=GPa)
#
#
# Indices 1 2 3 4 5 6 
#
# 1 195.5856 8.1129 18.0678 0.0000 -7.1443 0.0000
# 2 8.1129 148.1508 -21.0101 0.0000 -4.2236 0.0000
# 3 18.0678 -21.0101 72.7228 0.0000 -14.1535 0.0000
# 4 0.0000 0.0000 0.0000 9.0187 0.0000 -12.6169
# 5 -7.1443 -4.2236 -14.1535 0.0000 57.4383 0.0000
# 6 0.0000 0.0000 0.0000 -12.6169 0.0000 46.2310
#
#
#
# Elastic Compliance Matrix: (Units=1/GPa)
#
#
# Indices 1 2 3 4 5 6 
#
# 1 0.005272 -0.000478 -0.001394 0.000000 0.000277 0.000000
# 2 -0.000478 0.007145 0.002388 0.000000 0.001054 0.000000
# 3 -0.001394 0.002388 0.015533 0.000000 0.003830 0.000000
# 4 0.000000 0.000000 0.000000 0.179358 0.000000 0.048949
# 5 0.000277 0.001054 0.003830 0.000000 0.018466 0.000000
# 6 0.000000 0.000000 0.000000 0.048949 0.000000 0.034989
#
#
# Mechanical properties :
#
#
# Convention : Reuss Voigt Hill
#
# Bulk Modulus (GPa) = 34.50601 47.42225 40.96413
# Shear Modulus (GPa) = 18.56041 49.95685 34.25863
#
# Velocity S-wave (km/s) = 2.70562 4.43885 3.67585
# Velocity P-wave (km/s) = 4.83425 6.70634 5.84572
#
# Compressibility (1/GPa) = 0.02898046
#
# Stress axis : x y z
#
# Youngs Moduli (GPa) = 189.69592 139.96121 64.38107
#
# Poissons Ratio (x) = 0.06697 0.08975
# Poissons Ratio (y) = 0.09077 -0.15376
# Poissons Ratio (z) = 0.26444 -0.33427
#
# Static dielectric constant tensor:
#      x y z
#    x 1.990260 0.000000 -0.071170 
#    y 0.000000 1.811830 0.000000 
#    z -0.071170 0.000000 2.219850 
# 
# From -- ./inp_files/101193.got.cif
#   From: 2010.05.17/outbox.cif.g08.bks.cpg/sg12_51_cif.got.tgz:101193.got - 2010.06.03 13:09:07.
