data_PCOD9169740
_publ_section_title
;
Structure prediction by ZEFSAII (Michael W. Deem and Ramdas Pophale) SiO2 
 PCOD9169740
Probable space group: C 2/M
;
_chemical_formula_sum "Si O2"
_cell_formula_units_Z 60
_cell_length_a 11.718216
_cell_length_b 25.012411
_cell_length_c 11.169231
_cell_angle_alpha 90.000000
_cell_angle_beta 104.564181
_cell_angle_gamma 90.000000
_cell_volume 3168.515352
_symmetry_space_group_name_H-M "C 2/M"
_symmetry_group_IT_number 12
_symmetry_cell_setting 'monoclinic'
loop_
_space_group_symop_operation_xyz
x,y,z
-x,y,-z
-x,-y,-z
x,-y,z
1/2+x,1/2+y,z
1/2-x,1/2+y,-z
1/2-x,1/2-y,-z
1/2+x,1/2-y,z
loop_
_atom_site_type_symbol
_atom_site_label
_atom_site_fract_x
_atom_site_fract_y
_atom_site_fract_z
Si Si1 0.191584 0.808658 0.979448
Si Si2 0.422564 0.829695 0.683254
Si Si3 0.689728 0.057662 0.736010
Si Si4 0.500000 0.907978 0.500000
Si Si5 0.588887 0.115184 0.917697
Si Si6 0.812533 0.172925 0.763028
Si Si7 0.679354 0.285700 0.718943
Si Si8 0.884928 0.775934 0.550408
O O1 0.297128 0.852215 0.007186
O O2 0.128135 0.818552 0.090547
O O3 0.250000 0.750000 0.000000
O O4 0.131482 0.806735 0.833387
O O5 0.426016 0.872205 0.575915
O O6 0.518179 0.846979 0.805860
O O7 0.300319 0.818329 0.720126
O O8 0.451821 0.774683 0.624313
O O9 0.591552 0.060579 0.606373
O O10 0.628221 0.064911 0.849040
O O11 0.761282 0.113195 0.745600
O O12 0.751199 0.000000 0.745486
O O13 0.500000 0.102065 0.000000
O O14 0.718221 0.222845 0.737998
O O15 0.877163 0.181794 0.654770
O O16 0.598929 0.295456 0.581312
O O17 0.750000 0.750000 0.500000
#
# Coordination Sequence:
#
# PCOD9169740 Si02
#       8
#     8   8   8   4   8   8   8   8
#     4   9  18  30  47  68 101 135 163 202 237 301
#     4  10  18  29  49  71 104 139 160 193 247 303
#     4  10  20  32  50  68  97 134 171 212 244 285
#     4  10  17  28  46  74 100 128 167 198 240 302
#     4  10  19  32  49  74 100 136 171 200 243 294
#     4   9  19  34  46  69  97 129 171 200 247 299
#     4  10  18  31  48  71 102 137 161 198 247 304
#     4  11  21  30  48  74 101 133 167 204 249 300
#
# _framework density 18.936312999999998
#
# number of rings (size 3 to 8) (size 9 to 14) (size 15 to 20)
#    0.000    2.133    2.000    3.400    5.600    0.267 
#    0.000    0.667    0.000    0.400    0.000    0.000 
#    0.000    4.267    0.000    0.000    0.000    0.000 
#
# Total GULP energy -167006.931129 kJ/mol
# GULP energy per Si atom -5566.897704 kJ/mol
# Density = 1.889321 g / cm^3
# Si number density = 18.936313 Si / 1000 Ang^3
#
#
#
# Elastic Constant Matrix: (Units=GPa)
#
#
# Indices 1 2 3 4 5 6 
#
# 1 28.9738 20.0384 29.6593 0.0000 -8.0922 0.0000
# 2 20.0384 105.2097 44.6516 0.0000 -3.1594 0.0000
# 3 29.6593 44.6516 189.8771 0.0000 -15.3166 0.0000
# 4 0.0000 0.0000 0.0000 -5.7016 0.0000 -1.0972
# 5 -8.0922 -3.1594 -15.3166 0.0000 39.6185 0.0000
# 6 0.0000 0.0000 0.0000 -1.0972 0.0000 14.4036
#
#
#
# Elastic Compliance Matrix: (Units=1/GPa)
#
#
# Indices 1 2 3 4 5 6 
#
# 1 0.046137 -0.006396 -0.005144 0.000000 0.006925 0.000000
# 2 -0.006396 0.011446 -0.001780 0.000000 -0.001082 0.000000
# 3 -0.005144 -0.001780 0.006598 0.000000 0.001358 0.000000
# 4 0.000000 0.000000 0.000000 -0.172857 0.000000 -0.013167
# 5 0.006925 -0.001082 0.001358 0.000000 0.027094 0.000000
# 6 0.000000 0.000000 0.000000 -0.013167 0.000000 0.068424
#
#
# Mechanical properties :
#
#
# Convention : Reuss Voigt Hill
#
# Bulk Modulus (GPa) = 26.63730 56.97324 41.80527
# Shear Modulus (GPa) = 192.33113 24.97820 108.65466
#
# Velocity S-wave (km/s) = 10.08900 3.63583 7.58311
# Velocity P-wave (km/s) = 12.23987 6.91215 9.93962
#
# Compressibility (1/GPa) = 0.03754134
#
# Stress axis : x y z
#
# Youngs Moduli (GPa) = 21.67438 87.36730 151.55715
#
# Poissons Ratio (x) = 0.55883 0.77961
# Poissons Ratio (y) = 0.13864 0.26974
# Poissons Ratio (z) = 0.11149 0.15549
#
# Static dielectric constant tensor:
#      x y z
#    x 1.976820 0.000000 -0.050640 
#    y 0.000000 0.516460 0.000000 
#    z -0.050640 0.000000 1.749930 
# 
# From -- ./inp_files/148375.got.cif
#   From: 2010.05.17/outbox.cif.g08.bks.cpg/sg12_75_cif.got.tgz:148375.got - 2010.06.03 13:09:07.
