data_PCOD9169264
_publ_section_title
;
Structure prediction by ZEFSAII (Michael W. Deem and Ramdas Pophale) SiO2 
 PCOD9169264
Probable space group: C 2/M
;
_chemical_formula_sum "Si O2"
_cell_formula_units_Z 64
_cell_length_a 24.027273
_cell_length_b 8.154699
_cell_length_c 18.756531
_cell_angle_alpha 90.000000
_cell_angle_beta 87.365070
_cell_angle_gamma 90.000000
_cell_volume 3671.178722
_symmetry_space_group_name_H-M "C 2/M"
_symmetry_group_IT_number 12
_symmetry_cell_setting 'monoclinic'
loop_
_space_group_symop_operation_xyz
x,y,z
-x,y,-z
-x,-y,-z
x,-y,z
1/2+x,1/2+y,z
1/2-x,1/2+y,-z
1/2-x,1/2-y,-z
1/2+x,1/2-y,z
loop_
_atom_site_type_symbol
_atom_site_label
_atom_site_fract_x
_atom_site_fract_y
_atom_site_fract_z
Si Si1 0.250770 0.801615 0.917232
Si Si2 0.575857 0.196986 0.715704
Si Si3 0.448889 0.309702 0.584610
Si Si4 0.637407 0.305200 0.851275
Si Si5 0.447442 0.198614 0.736362
Si Si6 0.373170 0.799811 0.874013
Si Si7 0.563678 0.801488 0.986443
Si Si8 0.572967 0.810145 0.561039
O O1 0.196222 0.740776 0.878583
O O2 0.308906 0.747293 0.878529
O O3 0.249823 0.000000 0.916257
O O4 0.250000 0.750000 0.000000
O O5 0.617304 0.239704 0.776560
O O6 0.512388 0.253705 0.736920
O O7 0.593871 0.257515 0.635869
O O8 0.572541 0.000000 0.710165
O O9 0.464857 0.500000 0.584899
O O10 0.423924 0.260318 0.662033
O O11 0.414575 0.276954 0.514530
O O12 0.505835 0.205343 0.574858
O O13 0.641912 0.500000 0.845248
O O14 0.591106 0.262092 0.912851
O O15 0.410532 0.254739 0.805212
O O16 0.447443 0.000000 0.736135
O O17 0.400822 0.748523 0.947022
O O18 0.373956 0.000000 0.873135
O O19 0.564561 0.000000 0.983595
O O20 0.500000 0.749357 0.000000
O O21 0.588367 0.000000 0.552796
#
# Coordination Sequence:
#
# PCOD9169264 Si02
#       8
#     8   8   8   8   8   8   8   8
#     4  10  20  35  52  70  90 120 161 202 243 286
#     4   9  18  31  48  69  95 126 161 195 231 278
#     4  10  17  25  41  68 100 130 154 184 234 286
#     4  11  22  32  46  70  98 124 153 194 247 292
#     4   9  17  31  49  69  93 124 162 199 231 275
#     4   9  17  31  51  69  88 119 160 202 235 271
#     4  10  19  32  51  70  89 121 162 195 229 281
#     4   9  16  28  45  65  91 127 167 197 220 266
#
# _framework density 17.433094000000001
#
# number of rings (size 3 to 8) (size 9 to 14) (size 15 to 20)
#    0.000    2.375    1.250    4.125    0.000    5.250 
#    0.000    1.250    0.000    0.000    0.000    0.875 
#    0.000    0.000    0.000    0.000    0.000    0.000 
#
# Total GULP energy -178370.633787 kJ/mol
# GULP energy per Si atom -5574.082306 kJ/mol
# Density = 1.739342 g / cm^3
# Si number density = 17.433094 Si / 1000 Ang^3
#
#
#
# Elastic Constant Matrix: (Units=GPa)
#
#
# Indices 1 2 3 4 5 6 
#
# 1 66.0722 4.7825 31.6781 0.0000 23.8903 0.0000
# 2 4.7825 14.3122 6.3954 0.0000 2.2697 0.0000
# 3 31.6781 6.3954 144.0958 0.0000 25.8854 0.0000
# 4 0.0000 0.0000 0.0000 13.5693 0.0000 6.5684
# 5 23.8903 2.2697 25.8854 0.0000 14.5870 0.0000
# 6 0.0000 0.0000 0.0000 6.5684 0.0000 2.6381
#
#
#
# Elastic Compliance Matrix: (Units=1/GPa)
#
#
# Indices 1 2 3 4 5 6 
#
# 1 0.038988 -0.003713 0.004346 0.000000 -0.070988 0.000000
# 2 -0.003713 0.072286 -0.002149 0.000000 -0.001354 0.000000
# 3 0.004346 -0.002149 0.010714 0.000000 -0.025796 0.000000
# 4 0.000000 0.000000 0.000000 -0.359131 0.000000 0.894161
# 5 -0.070988 -0.001354 -0.025796 0.000000 0.230804 0.000000
# 6 0.000000 0.000000 0.000000 0.894161 0.000000 -1.847213
#
#
# Mechanical properties :
#
#
# Convention : Reuss Voigt Hill
#
# Bulk Modulus (GPa) = 8.40642 34.46581 21.43611
# Shear Modulus (GPa) = -2.76111 18.26716 7.75302
#
# Velocity S-wave (km/s) = -1.25987 3.24055 2.11115
# Velocity P-wave (km/s) = 1.64809 5.81505 4.27382
#
# Compressibility (1/GPa) = 0.11895675
#
# Stress axis : x y z
#
# Youngs Moduli (GPa) = 25.64895 13.83390 93.33858
#
# Poissons Ratio (x) = 0.05136 -0.40565
# Poissons Ratio (y) = 0.09522 0.20058
# Poissons Ratio (z) = -0.11147 0.02973
#
# Static dielectric constant tensor:
#      x y z
#    x 1.576850 0.000000 0.013520 
#    y 0.000000 1.613440 0.000000 
#    z 0.013520 0.000000 1.624460 
# 
# From -- ./inp_files/287713.got.cif
#   From: 2010.05.17/outbox.cif.g08.bks.cpg/sg12_144_cif.got.tgz:287713.got - 2010.06.03 13:09:07.
