data_PCOD9169489
_publ_section_title
;
Structure prediction by ZEFSAII (Michael W. Deem and Ramdas Pophale) SiO2 
 PCOD9169489
Probable space group: C 2/M
;
_chemical_formula_sum "Si O2"
_cell_formula_units_Z 56
_cell_length_a 29.107869
_cell_length_b 9.074854
_cell_length_c 29.534340
_cell_angle_alpha 90.000000
_cell_angle_beta 28.378628
_cell_angle_gamma 90.000000
_cell_volume 3708.015490
_symmetry_space_group_name_H-M "C 2/M"
_symmetry_group_IT_number 12
_symmetry_cell_setting 'monoclinic'
loop_
_space_group_symop_operation_xyz
x,y,z
-x,y,-z
-x,-y,-z
x,-y,z
1/2+x,1/2+y,z
1/2-x,1/2+y,-z
1/2-x,1/2-y,-z
1/2+x,1/2-y,z
loop_
_atom_site_type_symbol
_atom_site_label
_atom_site_fract_x
_atom_site_fract_y
_atom_site_fract_z
Si Si1 0.828897 0.823664 0.464646
Si Si2 0.654064 0.176336 0.063885
Si Si3 0.968998 0.174313 0.266196
Si Si4 0.862568 0.324504 0.206631
Si Si5 0.617019 0.669818 0.903556
Si Si6 0.091906 0.675591 0.016978
Si Si7 0.217906 0.175622 0.636083
O O1 0.750000 0.750000 0.500000
O O2 0.929196 0.795928 0.351362
O O3 0.805949 0.751864 0.532809
O O4 0.814665 0.000000 0.478555
O O5 0.560782 0.232311 0.172193
O O6 0.636828 0.217197 0.026173
O O7 0.660554 0.000000 0.060773
O O8 0.750000 0.250000 0.000000
O O9 0.879627 0.203527 0.309201
O O10 0.991055 0.000000 0.243690
O O11 0.848759 0.500000 0.220023
O O12 0.843275 0.261190 0.173364
O O13 0.800891 0.244631 0.298674
O O14 0.976419 0.294455 0.118232
O O15 0.647452 0.500000 0.874969
O O16 0.500000 0.673829 0.000000
O O17 0.636473 0.740786 0.935483
O O18 0.102596 0.500000 0.001021
O O19 0.231068 0.000000 0.626607
#
# Coordination Sequence:
#
# PCOD9169489 Si02
#       7
#     8   8   8   8   8   8   8
#     4   9  17  28  42  62  86 115 148 181 220 267
#     4  11  22  34  48  66  87 116 155 194 230 267
#     4   9  18  31  45  61  85 116 149 187 226 264
#     4  10  17  27  43  63  89 119 150 182 218 265
#     4   9  17  27  41  62  85 113 146 180 220 266
#     4   9  18  31  44  60  83 115 150 185 225 266
#     4  10  18  27  42  65  91 119 150 183 219 265
#
# _framework density 15.102418
#
# number of rings (size 3 to 8) (size 9 to 14) (size 15 to 20)
#    0.000    2.429    1.429    3.000    0.000    6.286 
#    0.000    0.000    0.000    0.000    0.000    0.000 
#    0.000    1.143    0.000   12.000    0.000    5.714 
#
# Total GULP energy -156031.171587 kJ/mol
# GULP energy per Si atom -5572.541842 kJ/mol
# Density = 1.506804 g / cm^3
# Si number density = 15.102418 Si / 1000 Ang^3
#
#
#
# Elastic Constant Matrix: (Units=GPa)
#
#
# Indices 1 2 3 4 5 6 
#
# 1 78.0683 51.3166 60.4419 0.0019 23.9441 0.0001
# 2 51.3166 72.6424 61.3928 0.0121 21.6183 -0.0077
# 3 60.4419 61.3928 91.0757 0.0107 35.1352 -0.0102
# 4 0.0019 0.0121 0.0107 28.1188 -0.0057 7.9046
# 5 23.9441 21.6183 35.1352 -0.0057 29.4489 0.0039
# 6 0.0001 -0.0077 -0.0102 7.9046 0.0039 22.2810
#
#
#
# Elastic Compliance Matrix: (Units=1/GPa)
#
#
# Indices 1 2 3 4 5 6 
#
# 1 0.029182 -0.010033 -0.011656 0.000010 -0.002455 -0.000012
# 2 -0.010033 0.035718 -0.019362 -0.000008 0.005038 0.000006
# 3 -0.011656 -0.019362 0.041924 -0.000019 -0.026328 0.000024
# 4 0.000010 -0.000008 -0.000019 0.039503 0.000030 -0.014014
# 5 -0.002455 0.005038 -0.026328 0.000030 0.063667 -0.000032
# 6 -0.000012 0.000006 0.000024 -0.014014 -0.000032 0.049853
#
#
# Mechanical properties :
#
#
# Convention : Reuss Voigt Hill
#
# Bulk Modulus (GPa) = 40.45136 65.34324 52.89730
# Shear Modulus (GPa) = 14.27797 20.54541 17.41169
#
# Velocity S-wave (km/s) = 3.07809 3.69237 3.39913
# Velocity P-wave (km/s) = 6.28297 7.84467 7.10684
#
# Compressibility (1/GPa) = 0.02472105
#
# Stress axis : x y z
#
# Youngs Moduli (GPa) = 34.26815 27.99691 23.85275
#
# Poissons Ratio (x) = 0.28090 0.27803
# Poissons Ratio (y) = 0.34382 0.46184
# Poissons Ratio (z) = 0.39943 0.54208
#
# Static dielectric constant tensor:
#      x y z
#    x 1.485280 0.000000 0.026970 
#    y 0.000000 1.509930 0.000000 
#    z 0.026970 0.000000 1.501230 
# 
# From -- ./inp_files/237347.got.cif
#   From: 2010.05.17/outbox.cif.g08.bks.cpg/sg12_119_cif.got.tgz:237347.got - 2010.06.03 13:09:07.
