data_PCOD9169609
_publ_section_title
;
Structure prediction by ZEFSAII (Michael W. Deem and Ramdas Pophale) SiO2 
 PCOD9169609
Probable space group: C 2/M
;
_chemical_formula_sum "Si O2"
_cell_formula_units_Z 64
_cell_length_a 24.859915
_cell_length_b 17.918056
_cell_length_c 26.160389
_cell_angle_alpha 90.000000
_cell_angle_beta 158.535723
_cell_angle_gamma 90.000000
_cell_volume 4264.048404
_symmetry_space_group_name_H-M "C 2/M"
_symmetry_group_IT_number 12
_symmetry_cell_setting 'monoclinic'
loop_
_space_group_symop_operation_xyz
x,y,z
-x,y,-z
-x,-y,-z
x,-y,z
1/2+x,1/2+y,z
1/2-x,1/2+y,-z
1/2-x,1/2-y,-z
1/2+x,1/2-y,z
loop_
_atom_site_type_symbol
_atom_site_label
_atom_site_fract_x
_atom_site_fract_y
_atom_site_fract_z
Si Si1 0.622658 0.774661 0.816690
Si Si2 0.699929 0.915228 0.941132
Si Si3 0.119198 0.762793 0.310229
Si Si4 0.576889 0.322291 0.416345
Si Si5 0.368420 0.087609 0.923671
Si Si6 0.539272 0.412968 0.278809
Si Si7 0.409155 0.174897 0.064386
Si Si8 0.461801 0.588721 0.407864
O O1 0.667485 0.859494 0.865832
O O2 0.502472 0.756842 0.754185
O O3 0.545061 0.742891 0.697718
O O4 0.768305 0.726086 0.952207
O O5 0.670435 0.000000 0.901485
O O6 0.599613 0.889382 0.900238
O O7 0.869407 0.908950 0.109856
O O8 0.268008 0.718780 0.452820
O O9 0.128601 0.852467 0.323667
O O10 0.049376 0.727762 0.197322
O O11 0.550570 0.381778 0.346969
O O12 0.557259 0.364895 0.451957
O O13 0.392532 0.138331 0.994577
O O14 0.209584 0.101830 0.757633
O O15 0.369828 0.000000 0.940303
O O16 0.500000 0.098965 0.000000
O O17 0.584138 0.500000 0.315756
O O18 0.500000 0.607901 0.500000
O O19 0.489271 0.500000 0.425705
#
# Coordination Sequence:
#
# PCOD9169609 Si02
#       8
#     8   8   8   8   8   8   8   8
#     4  10  17  32  47  67  96 126 163 199 238 283
#     4  10  17  27  47  72  95 125 163 197 233 283
#     4  10  20  31  45  72  97 127 164 201 237 283
#     4  11  20  32  49  69  96 135 166 193 239 292
#     4  10  21  35  51  73  98 128 167 209 244 276
#     4  10  17  29  47  69  96 127 163 193 233 289
#     4  11  17  32  50  67  96 131 166 196 240 285
#     4  10  21  36  51  70  98 131 167 205 244 284
#
# _framework density 15.009209999999999
#
# number of rings (size 3 to 8) (size 9 to 14) (size 15 to 20)
#    0.000    1.750    5.000    3.000    1.750    2.000 
#    0.000    8.750    0.000    0.000    0.000    0.000 
#    0.000    6.000    0.000    0.000    0.000    0.000 
#
# Total GULP energy -178254.078747 kJ/mol
# GULP energy per Si atom -5570.439961 kJ/mol
# Density = 1.497505 g / cm^3
# Si number density = 15.009210 Si / 1000 Ang^3
#
#
#
# Elastic Constant Matrix: (Units=GPa)
#
#
# Indices 1 2 3 4 5 6 
#
# 1 57.3814 46.3462 23.8404 -0.0001 -14.6677 -0.0003
# 2 46.3462 131.2424 44.7031 0.0008 -9.5145 0.0002
# 3 23.8404 44.7031 62.9992 0.0018 -8.5729 0.0008
# 4 -0.0001 0.0008 0.0018 24.2869 0.0002 -2.3304
# 5 -14.6677 -9.5145 -8.5729 0.0002 24.4555 0.0000
# 6 -0.0003 0.0002 0.0008 -2.3304 0.0000 21.6123
#
#
#
# Elastic Compliance Matrix: (Units=1/GPa)
#
#
# Indices 1 2 3 4 5 6 
#
# 1 0.028587 -0.008011 -0.003386 0.000001 0.012842 0.000001
# 2 -0.008011 0.012344 -0.006015 0.000000 -0.002111 0.000000
# 3 -0.003386 -0.006015 0.021871 -0.000002 0.003296 -0.000001
# 4 0.000001 0.000000 -0.000002 0.041605 -0.000001 0.004486
# 5 0.012842 -0.002111 0.003296 -0.000001 0.048927 0.000000
# 6 0.000001 0.000000 -0.000001 0.004486 0.000000 0.046754
#
#
# Mechanical properties :
#
#
# Convention : Reuss Voigt Hill
#
# Bulk Modulus (GPa) = 35.74155 53.48913 44.61534
# Shear Modulus (GPa) = 20.47187 23.18650 21.82919
#
# Velocity S-wave (km/s) = 3.69718 3.93468 3.81778
# Velocity P-wave (km/s) = 6.48770 7.50714 7.01596
#
# Compressibility (1/GPa) = 0.02797864
#
# Stress axis : x y z
#
# Youngs Moduli (GPa) = 34.98112 81.01040 45.72210
#
# Poissons Ratio (x) = 0.64894 0.15482
# Poissons Ratio (y) = 0.28022 0.27502
# Poissons Ratio (z) = 0.11845 0.48727
#
# Static dielectric constant tensor:
#      x y z
#    x 1.482460 0.000000 -0.011870 
#    y 0.000000 1.520240 0.000000 
#    z -0.011870 0.000000 1.537930 
# 
# From -- ./inp_files/97756.got.cif
#   From: 2010.05.17/outbox.cif.g08.bks.cpg/sg12_49_cif.got.tgz:97756.got - 2010.06.03 13:09:07.
