data_PCOD9169976
_publ_section_title
;
Structure prediction by ZEFSAII (Michael W. Deem and Ramdas Pophale) SiO2 
 PCOD9169976
Probable space group: C 2/M
;
_chemical_formula_sum "Si O2"
_cell_formula_units_Z 56
_cell_length_a 21.112131
_cell_length_b 8.445423
_cell_length_c 20.375526
_cell_angle_alpha 90.000000
_cell_angle_beta 58.876677
_cell_angle_gamma 90.000000
_cell_volume 3110.032051
_symmetry_space_group_name_H-M "C 2/M"
_symmetry_group_IT_number 12
_symmetry_cell_setting 'monoclinic'
loop_
_space_group_symop_operation_xyz
x,y,z
-x,y,-z
-x,-y,-z
x,-y,z
1/2+x,1/2+y,z
1/2-x,1/2+y,-z
1/2-x,1/2-y,-z
1/2+x,1/2-y,z
loop_
_atom_site_type_symbol
_atom_site_label
_atom_site_fract_x
_atom_site_fract_y
_atom_site_fract_z
Si Si1 0.295774 0.307792 0.912464
Si Si2 0.178133 0.688174 0.498831
Si Si3 0.548661 0.691360 0.911391
Si Si4 0.403895 0.689969 0.339173
Si Si5 0.259756 0.809958 0.336970
Si Si6 0.215456 0.690394 0.822826
Si Si7 0.533848 0.307121 0.177185
O O1 0.295126 0.500000 0.913902
O O2 0.258273 0.252961 0.864548
O O3 0.381298 0.254483 0.867994
O O4 0.250000 0.250000 0.000000
O O5 0.250000 0.750000 0.500000
O O6 0.110857 0.747750 0.579622
O O7 0.192036 0.752674 0.418566
O O8 0.320906 0.000000 0.502590
O O9 0.554242 0.500000 0.907281
O O10 0.630206 0.760453 0.872262
O O11 0.507476 0.742506 0.867191
O O12 0.500000 0.737157 0.000000
O O13 0.400767 0.500000 0.341809
O O14 0.336225 0.747628 0.328773
O O15 0.481332 0.741596 0.265602
O O16 0.255061 0.755424 0.264119
O O17 0.262568 0.000000 0.337695
O O18 0.220398 0.500000 0.820170
O O19 0.535157 0.500000 0.176804
#
# Coordination Sequence:
#
# PCOD9169976 Si02
#       7
#     8   8   8   8   8   8   8
#     4  10  21  39  56  75 102 136 177 215 257 307
#     4  10  18  28  45  72 104 136 165 204 251 302
#     4  10  19  32  52  76 100 130 169 212 258 307
#     4  10  17  29  49  74 101 133 169 209 253 299
#     4  10  18  30  47  73 104 135 167 205 253 304
#     4  10  21  34  52  76 105 135 167 214 261 303
#     4   9  18  32  52  75 101 134 172 213 253 302
#
# _framework density 18.006245
#
# number of rings (size 3 to 8) (size 9 to 14) (size 15 to 20)
#    0.000    2.143    1.429    4.714    0.000    2.571 
#    0.000    2.143    0.000    0.857    0.000    6.000 
#    0.000    0.000    0.000    0.000    0.000    0.000 
#
# Total GULP energy -156187.397369 kJ/mol
# GULP energy per Si atom -5578.121335 kJ/mol
# Density = 1.796526 g / cm^3
# Si number density = 18.006245 Si / 1000 Ang^3
#
#
#
# Elastic Constant Matrix: (Units=GPa)
#
#
# Indices 1 2 3 4 5 6 
#
# 1 98.3273 4.9476 58.0666 0.0001 -5.2993 -0.0003
# 2 4.9476 34.7183 20.2235 -0.0004 1.1413 0.0008
# 3 58.0666 20.2235 180.8649 0.0002 -5.9697 -0.0005
# 4 0.0001 -0.0004 0.0002 17.9580 0.0001 -1.8397
# 5 -5.2993 1.1413 -5.9697 0.0001 25.4987 -0.0002
# 6 -0.0003 0.0008 -0.0005 -1.8397 -0.0002 16.7242
#
#
#
# Elastic Compliance Matrix: (Units=1/GPa)
#
#
# Indices 1 2 3 4 5 6 
#
# 1 0.012629 0.000509 -0.004057 0.000000 0.001652 0.000000
# 2 0.000509 0.030954 -0.003695 0.000001 -0.002145 -0.000002
# 3 -0.004057 -0.003695 0.007279 0.000000 0.001026 0.000000
# 4 0.000000 0.000001 0.000000 0.056320 0.000000 0.006195
# 5 0.001652 -0.002145 0.001026 0.000000 0.039897 0.000001
# 6 0.000000 -0.000002 0.000000 0.006195 0.000001 0.060475
#
#
# Mechanical properties :
#
#
# Convention : Reuss Voigt Hill
#
# Bulk Modulus (GPa) = 27.49127 53.37622 40.43375
# Shear Modulus (GPa) = 21.35240 27.41439 24.38339
#
# Velocity S-wave (km/s) = 3.44733 3.90615 3.68389
# Velocity P-wave (km/s) = 5.58088 7.07471 6.37172
#
# Compressibility (1/GPa) = 0.03637518
#
# Stress axis : x y z
#
# Youngs Moduli (GPa) = 79.18028 32.30626 137.38946
#
# Poissons Ratio (x) = -0.01645 0.55740
# Poissons Ratio (y) = -0.04031 0.50770
# Poissons Ratio (z) = 0.32124 0.11938
#
# Static dielectric constant tensor:
#      x y z
#    x 1.590020 0.000000 0.009030 
#    y 0.000000 1.622440 0.000000 
#    z 0.009030 0.000000 1.649560 
# 
# From -- ./inp_files/276688.got.cif
#   From: 2010.05.17/outbox.cif.g08.bks.cpg/sg12_139_cif.got.tgz:276688.got - 2010.06.03 13:09:07.
