data_PCOD9169330
_publ_section_title
;
Structure prediction by ZEFSAII (Michael W. Deem and Ramdas Pophale) SiO2 
 PCOD9169330
Probable space group: C 2/M
;
_chemical_formula_sum "Si O2"
_cell_formula_units_Z 56
_cell_length_a 20.917898
_cell_length_b 14.270665
_cell_length_c 16.648272
_cell_angle_alpha 90.000000
_cell_angle_beta 28.243647
_cell_angle_gamma 90.000000
_cell_volume 2351.778052
_symmetry_space_group_name_H-M "C 2/M"
_symmetry_group_IT_number 12
_symmetry_cell_setting 'monoclinic'
loop_
_space_group_symop_operation_xyz
x,y,z
-x,y,-z
-x,-y,-z
x,-y,z
1/2+x,1/2+y,z
1/2-x,1/2+y,-z
1/2-x,1/2-y,-z
1/2+x,1/2-y,z
loop_
_atom_site_type_symbol
_atom_site_label
_atom_site_fract_x
_atom_site_fract_y
_atom_site_fract_z
Si Si1 0.237936 0.640488 0.537694
Si Si2 0.768233 0.369788 0.856535
Si Si3 0.660987 0.600839 0.803379
Si Si4 0.031688 0.635899 0.235107
Si Si5 0.737700 0.644505 0.147771
Si Si6 0.037514 0.136168 0.236010
Si Si7 0.343551 0.182175 0.199225
O O1 0.250000 0.750000 0.500000
O O2 0.389628 0.603700 0.374844
O O3 0.179962 0.631403 0.691519
O O4 0.119471 0.603527 0.612388
O O5 0.742375 0.403695 0.796551
O O6 0.903115 0.396337 0.753933
O O7 0.764208 0.257136 0.857513
O O8 0.644288 0.395506 0.051409
O O9 0.682854 0.500000 0.736350
O O10 0.692613 0.707738 0.741109
O O11 0.500000 0.603834 0.000000
O O12 0.032147 0.749928 0.238137
O O13 0.134823 0.612010 0.047845
O O14 0.602469 0.611580 0.250938
O O15 0.761275 0.634579 0.216798
O O16 0.500000 0.181398 0.000000
#
# Coordination Sequence:
#
# PCOD9169330 Si02
#       7
#     8   8   8   8   8   8   8
#     4  10  18  24  37  64  85 109 148 181 215 272
#     4   8  14  26  43  57  82 111 141 182 223 253
#     4   9  18  28  43  65  85 115 164 197 212 239
#     4   8  13  24  38  57  78 108 138 170 220 271
#     4   8  13  24  38  55  79 115 142 167 214 265
#     4   8  15  23  37  60  85 103 137 180 218 266
#     4  10  17  26  42  58  90 125 149 182 221 257
#
# _framework density 23.811771
#
# number of rings (size 3 to 8) (size 9 to 14) (size 15 to 20)
#    0.000    3.286    1.429    1.714    6.000    0.571 
#    0.000    0.000    0.000    0.000    0.000   33.000 
#    0.000    0.000    0.000   25.714    0.000    3.429 
#
# Total GULP energy -156169.289652 kJ/mol
# GULP energy per Si atom -5577.474630 kJ/mol
# Density = 2.375757 g / cm^3
# Si number density = 23.811771 Si / 1000 Ang^3
#
#
#
# Elastic Constant Matrix: (Units=GPa)
#
#
# Indices 1 2 3 4 5 6 
#
# 1 146.0837 -4.1569 66.6587 0.0001 -37.2245 0.0000
# 2 -4.1569 86.9953 -1.8505 0.0001 -8.0834 0.0000
# 3 66.6587 -1.8505 76.4925 0.0002 -35.2663 -0.0001
# 4 0.0001 0.0001 0.0002 -15.3598 -0.0001 1.1459
# 5 -37.2245 -8.0834 -35.2663 -0.0001 49.1074 0.0001
# 6 0.0000 0.0000 -0.0001 1.1459 0.0001 -16.9000
#
#
#
# Elastic Compliance Matrix: (Units=1/GPa)
#
#
# Indices 1 2 3 4 5 6 
#
# 1 0.011562 0.000590 -0.008934 0.000000 0.002445 0.000000
# 2 0.000590 0.011862 0.001315 0.000000 0.003344 0.000000
# 3 -0.008934 0.001315 0.026712 0.000000 0.012628 0.000000
# 4 0.000000 0.000000 0.000000 -0.065436 0.000000 -0.004437
# 5 0.002445 0.003344 0.012628 0.000000 0.031836 0.000000
# 6 0.000000 0.000000 0.000000 -0.004437 0.000000 -0.059472
#
#
# Mechanical properties :
#
#
# Convention : Reuss Voigt Hill
#
# Bulk Modulus (GPa) = 27.71868 47.87491 37.79679
# Shear Modulus (GPa) = -296.69279 19.96419 -138.36430
#
# Velocity S-wave (km/s) = -11.17451 2.89868 -7.63110
# Velocity P-wave (km/s) = 12.44295 5.59932 7.85731
#
# Compressibility (1/GPa) = 0.03607675
#
# Stress axis : x y z
#
# Youngs Moduli (GPa) = 86.49166 84.30497 37.43632
#
# Poissons Ratio (x) = -0.04971 0.33444
# Poissons Ratio (y) = -0.05100 -0.04922
# Poissons Ratio (z) = 0.77269 -0.11083
#
# Static dielectric constant tensor:
#      x y z
#    x 1.900140 0.000000 -0.015480 
#    y 0.000000 1.932240 0.000000 
#    z -0.015480 0.000000 1.876820 
# 
# From -- ./inp_files/285629.got.cif
#   From: 2010.05.17/outbox.cif.g08.bks.cpg/sg12_143_cif.got.tgz:285629.got - 2010.06.03 13:09:07.
