data_PCOD9169444
_publ_section_title
;
Structure prediction by ZEFSAII (Michael W. Deem and Ramdas Pophale) SiO2 
 PCOD9169444
Probable space group: C 2/M
;
_chemical_formula_sum "Si O2"
_cell_formula_units_Z 64
_cell_length_a 27.675191
_cell_length_b 7.622871
_cell_length_c 18.061448
_cell_angle_alpha 90.000000
_cell_angle_beta 102.130274
_cell_angle_gamma 90.000000
_cell_volume 3725.247154
_symmetry_space_group_name_H-M "C 2/M"
_symmetry_group_IT_number 12
_symmetry_cell_setting 'monoclinic'
loop_
_space_group_symop_operation_xyz
x,y,z
-x,y,-z
-x,-y,-z
x,-y,z
1/2+x,1/2+y,z
1/2-x,1/2+y,-z
1/2-x,1/2-y,-z
1/2+x,1/2-y,z
loop_
_atom_site_type_symbol
_atom_site_label
_atom_site_fract_x
_atom_site_fract_y
_atom_site_fract_z
Si Si1 0.714693 0.205985 0.167091
Si Si2 0.825482 0.785361 0.163176
Si Si3 0.369442 0.709031 0.326745
Si Si4 0.692855 0.291699 0.000890
Si Si5 0.718016 0.797601 0.591404
Si Si6 0.142183 0.284294 0.446356
Si Si7 0.444536 0.789458 0.472986
Si Si8 0.680000 0.800320 0.309102
O O1 0.770332 0.275017 0.170373
O O2 0.685009 0.220685 0.080724
O O3 0.688152 0.282672 0.230944
O O4 0.721803 0.000000 0.185551
O O5 0.863110 0.733597 0.239788
O O6 0.824003 0.000000 0.159892
O O7 0.835153 0.726967 0.081894
O O8 0.362178 0.500000 0.326540
O O9 0.325032 0.789577 0.360625
O O10 0.419772 0.750398 0.385802
O O11 0.686938 0.500000 0.003940
O O12 0.750000 0.250000 0.000000
O O13 0.690689 0.730223 0.508899
O O14 0.765457 0.697754 0.636509
O O15 0.732279 0.000000 0.585464
O O16 0.142880 0.500000 0.446919
O O17 0.094277 0.226484 0.477071
O O18 0.146175 0.222604 0.363244
O O19 0.500000 0.721428 0.500000
O O20 0.446170 0.000000 0.480994
O O21 0.662353 0.000000 0.292253
#
# Coordination Sequence:
#
# PCOD9169444 Si02
#       8
#     8   8   8   8   8   8   8   8
#     4   9  16  26  37  53  78 109 141 170 204 235
#     4   8  14  25  38  54  77 104 135 168 200 234
#     4  10  17  28  45  63  82 108 142 172 203 244
#     4   9  16  26  38  53  75 106 141 170 202 239
#     4  10  18  27  38  58  85 109 140 173 208 243
#     4   8  16  28  42  59  77 106 141 169 203 251
#     4   9  18  33  48  63  86 108 130 170 218 255
#     4  10  17  27  41  55  79 112 145 173 199 239
#
# _framework density 17.180069
#
# number of rings (size 3 to 8) (size 9 to 14) (size 15 to 20)
#    0.000    2.875    1.250    3.000    0.000    0.750 
#    0.000    4.375    0.000    0.000    0.000    0.000 
#    0.000    1.000    0.000   12.500    0.000    1.000 
#
# Total GULP energy -178221.926816 kJ/mol
# GULP energy per Si atom -5569.435213 kJ/mol
# Density = 1.714097 g / cm^3
# Si number density = 17.180069 Si / 1000 Ang^3
#
#
#
# Elastic Constant Matrix: (Units=GPa)
#
#
# Indices 1 2 3 4 5 6 
#
# 1 50.9472 2.2512 54.3658 0.0000 0.7955 0.0000
# 2 2.2512 38.7334 -4.3764 0.0000 -2.3082 0.0000
# 3 54.3658 -4.3764 165.9859 0.0000 -19.9714 0.0000
# 4 0.0000 0.0000 0.0000 14.2615 0.0000 1.3933
# 5 0.7955 -2.3082 -19.9714 0.0000 20.9218 0.0000
# 6 0.0000 0.0000 0.0000 1.3933 0.0000 5.9864
#
#
#
# Elastic Compliance Matrix: (Units=1/GPa)
#
#
# Indices 1 2 3 4 5 6 
#
# 1 0.033751 -0.004250 -0.012854 0.000000 -0.014022 0.000000
# 2 -0.004250 0.026724 0.002791 0.000000 0.005774 0.000000
# 3 -0.012854 0.002791 0.011754 0.000000 0.012017 0.000000
# 4 0.000000 0.000000 0.000000 0.071750 0.000000 -0.016700
# 5 -0.014022 0.005774 0.012017 0.000000 0.060438 0.000000
# 6 0.000000 0.000000 0.000000 -0.016700 0.000000 0.170933
#
#
# Mechanical properties :
#
#
# Convention : Reuss Voigt Hill
#
# Bulk Modulus (GPa) = 22.93312 40.01640 31.47476
# Shear Modulus (GPa) = 11.94716 21.79565 16.87141
#
# Velocity S-wave (km/s) = 2.63992 3.56569 3.13714
# Velocity P-wave (km/s) = 4.76129 6.34784 5.61093
#
# Compressibility (1/GPa) = 0.04360505
#
# Stress axis : x y z
#
# Youngs Moduli (GPa) = 29.62866 37.41965 85.07692
#
# Poissons Ratio (x) = 0.15901 1.09356
# Poissons Ratio (y) = 0.12591 -0.23747
# Poissons Ratio (z) = 0.38084 -0.10445
#
# Static dielectric constant tensor:
#      x y z
#    x 1.555470 0.000000 -0.030680 
#    y 0.000000 1.647730 0.000000 
#    z -0.030680 0.000000 1.647690 
# 
# From -- ./inp_files/294599.got.cif
#   From: 2010.05.17/outbox.cif.g08.bks.cpg/sg12_148_cif.got.tgz:294599.got - 2010.06.03 13:09:07.
