data_PCOD9169341
_publ_section_title
;
Structure prediction by ZEFSAII (Michael W. Deem and Ramdas Pophale) SiO2 
 PCOD9169341
Probable space group: C 2/M
;
_chemical_formula_sum "Si O2"
_cell_formula_units_Z 48
_cell_length_a 29.537452
_cell_length_b 8.536301
_cell_length_c 12.627921
_cell_angle_alpha 90.000000
_cell_angle_beta 69.998624
_cell_angle_gamma 90.000000
_cell_volume 2991.965805
_symmetry_space_group_name_H-M "C 2/M"
_symmetry_group_IT_number 12
_symmetry_cell_setting 'monoclinic'
loop_
_space_group_symop_operation_xyz
x,y,z
-x,y,-z
-x,-y,-z
x,-y,z
1/2+x,1/2+y,z
1/2-x,1/2+y,-z
1/2-x,1/2-y,-z
1/2+x,1/2-y,z
loop_
_atom_site_type_symbol
_atom_site_label
_atom_site_fract_x
_atom_site_fract_y
_atom_site_fract_z
Si Si1 0.078144 0.311270 0.432112
Si Si2 0.004822 0.689052 0.667273
Si Si3 0.134631 0.809427 0.040663
Si Si4 0.973427 0.189321 0.915122
Si Si5 0.735720 0.312398 0.895017
Si Si6 0.331866 0.686829 0.750776
O O1 0.080440 0.500000 0.429004
O O2 0.041553 0.263442 0.366645
O O3 0.130473 0.244007 0.366550
O O4 0.051783 0.263626 0.561943
O O5 0.004422 0.500000 0.673045
O O6 0.000142 0.757878 0.787242
O O7 0.082034 0.754514 0.048273
O O8 0.147218 0.758755 0.150943
O O9 0.133581 0.000000 0.043274
O O10 0.179700 0.764190 0.929911
O O11 0.972541 0.000000 0.917632
O O12 0.000000 0.243977 0.000000
O O13 0.737887 0.500000 0.893286
O O14 0.777324 0.248500 0.785680
O O15 0.750000 0.250000 0.000000
O O16 0.330530 0.500000 0.753994
#
# Coordination Sequence:
#
# PCOD9169341 Si02
#       6
#     8   8   8   8   8   8
#     4   9  17  29  45  65  90 120 148 180 225 271
#     4   9  18  31  45  64  90 118 151 186 222 267
#     4   8  15  27  40  59  87 117 147 180 216 258
#     4  10  19  31  47  66  90 121 155 186 218 258
#     4   9  16  26  40  59  87 117 148 182 220 267
#     4  10  17  26  42  65  91 117 147 179 220 274
#
# _framework density 16.042964000000001
#
# number of rings (size 3 to 8) (size 9 to 14) (size 15 to 20)
#    0.000    2.833    1.667    3.000    0.000    1.000 
#    0.000    2.500    0.000    0.000    0.000    1.167 
#    0.000    0.000    0.000    0.000    0.000    0.000 
#
# Total GULP energy -133626.870703 kJ/mol
# GULP energy per Si atom -5567.786279 kJ/mol
# Density = 1.600645 g / cm^3
# Si number density = 16.042964 Si / 1000 Ang^3
#
#
#
# Elastic Constant Matrix: (Units=GPa)
#
#
# Indices 1 2 3 4 5 6 
#
# 1 88.7591 17.7812 72.5428 0.0000 -26.4811 0.0000
# 2 17.7812 18.5269 21.6008 0.0000 -7.9539 0.0000
# 3 72.5428 21.6008 116.4398 0.0000 -27.2197 0.0000
# 4 0.0000 0.0000 0.0000 23.5918 0.0000 -6.9211
# 5 -26.4811 -7.9539 -27.2197 0.0000 35.4247 0.0000
# 6 0.0000 0.0000 0.0000 -6.9211 0.0000 14.6415
#
#
#
# Elastic Compliance Matrix: (Units=1/GPa)
#
#
# Indices 1 2 3 4 5 6 
#
# 1 0.025224 -0.005977 -0.012813 0.000000 0.007668 0.000000
# 2 -0.005977 0.071693 -0.008359 0.000000 0.005206 0.000000
# 3 -0.012813 -0.008359 0.018825 0.000000 0.003010 0.000000
# 4 0.000000 0.000000 0.000000 0.049212 0.000000 0.023263
# 5 0.007668 0.005206 0.003010 0.000000 0.037443 0.000000
# 6 0.000000 0.000000 0.000000 0.023263 0.000000 0.079295
#
#
# Mechanical properties :
#
#
# Convention : Reuss Voigt Hill
#
# Bulk Modulus (GPa) = 16.27522 49.73060 33.00291
# Shear Modulus (GPa) = 14.02632 22.18500 18.10566
#
# Velocity S-wave (km/s) = 2.96006 3.72270 3.36307
# Velocity P-wave (km/s) = 4.67433 7.03873 5.97466
#
# Compressibility (1/GPa) = 0.06144312
#
# Stress axis : x y z
#
# Youngs Moduli (GPa) = 39.64471 13.94834 53.12046
#
# Poissons Ratio (x) = 0.08338 0.68065
# Poissons Ratio (y) = 0.23698 0.44402
# Poissons Ratio (z) = 0.50798 0.11659
#
# Static dielectric constant tensor:
#      x y z
#    x 1.552800 0.000000 -0.035560 
#    y 0.000000 1.544160 0.000000 
#    z -0.035560 0.000000 1.523530 
# 
# From -- ./inp_files/179193.got.cif
#   From: 2010.05.17/outbox.cif.g08.bks.cpg/sg12_90_cif.got.tgz:179193.got - 2010.06.03 13:09:07.
