data_PCOD9169327
_publ_section_title
;
Structure prediction by ZEFSAII (Michael W. Deem and Ramdas Pophale) SiO2 
 PCOD9169327
Probable space group: C 2/M
;
_chemical_formula_sum "Si O2"
_cell_formula_units_Z 56
_cell_length_a 24.532353
_cell_length_b 9.338964
_cell_length_c 16.507950
_cell_angle_alpha 90.000000
_cell_angle_beta 104.496182
_cell_angle_gamma 90.000000
_cell_volume 3661.677791
_symmetry_space_group_name_H-M "C 2/M"
_symmetry_group_IT_number 12
_symmetry_cell_setting 'monoclinic'
loop_
_space_group_symop_operation_xyz
x,y,z
-x,y,-z
-x,-y,-z
x,-y,z
1/2+x,1/2+y,z
1/2-x,1/2+y,-z
1/2-x,1/2-y,-z
1/2+x,1/2-y,z
loop_
_atom_site_type_symbol
_atom_site_label
_atom_site_fract_x
_atom_site_fract_y
_atom_site_fract_z
Si Si1 0.973537 0.169268 0.860663
Si Si2 0.280386 0.835326 0.392488
Si Si3 0.221300 0.667936 0.234699
Si Si4 0.588527 0.330374 0.990628
Si Si5 0.795100 0.328866 0.960898
Si Si6 0.662355 0.334694 0.449138
Si Si7 0.895715 0.669269 0.712346
O O1 0.947729 0.262205 0.779403
O O2 0.037854 0.200532 0.909367
O O3 0.969075 0.000000 0.840157
O O4 0.937200 0.193532 0.929127
O O5 0.264804 0.762606 0.301753
O O6 0.324271 0.745253 0.462103
O O7 0.221645 0.833677 0.421566
O O8 0.297654 0.000000 0.390276
O O9 0.234894 0.500000 0.251004
O O10 0.218640 0.699968 0.138798
O O11 0.159390 0.690068 0.250727
O O12 0.602086 0.500000 0.989679
O O13 0.643251 0.235191 0.999124
O O14 0.794156 0.500000 0.972442
O O15 0.750000 0.250000 0.000000
O O16 0.646404 0.500000 0.454851
O O17 0.618843 0.249865 0.376376
O O18 0.902486 0.500000 0.702117
#
# Coordination Sequence:
#
# PCOD9169327 Si02
#       7
#     8   8   8   8   8   8   8
#     4   9  17  29  46  67  91 119 151 186 228 276
#     4   9  16  25  39  58  80 111 148 183 219 263
#     4   9  18  30  42  59  85 116 150 186 226 271
#     4   9  18  32  48  66  89 118 152 190 230 275
#     4  11  22  35  49  67  90 120 157 197 236 273
#     4   9  16  25  37  56  84 117 147 178 219 265
#     4  10  17  26  41  63  90 118 151 187 221 266
#
# _framework density 15.293535
#
# number of rings (size 3 to 8) (size 9 to 14) (size 15 to 20)
#    0.000    2.571    1.429    2.571    0.000    5.714 
#    0.000    1.429    0.000    0.000    0.000    0.000 
#    0.000    1.143    0.000   12.000    0.000    6.286 
#
# Total GULP energy -156062.442024 kJ/mol
# GULP energy per Si atom -5573.658644 kJ/mol
# Density = 1.525873 g / cm^3
# Si number density = 15.293535 Si / 1000 Ang^3
#
#
#
# Elastic Constant Matrix: (Units=GPa)
#
#
# Indices 1 2 3 4 5 6 
#
# 1 57.6360 53.3118 45.7811 0.0000 10.3542 0.0000
# 2 53.3118 114.7835 91.2248 0.0000 24.3496 0.0000
# 3 45.7811 91.2248 113.6897 0.0000 33.3366 0.0000
# 4 0.0000 0.0000 0.0000 30.8230 0.0000 7.2635
# 5 10.3542 24.3496 33.3366 0.0000 20.4019 0.0000
# 6 0.0000 0.0000 0.0000 7.2635 0.0000 19.9322
#
#
#
# Elastic Compliance Matrix: (Units=1/GPa)
#
#
# Indices 1 2 3 4 5 6 
#
# 1 0.031088 -0.012031 -0.004702 0.000000 0.006264 0.000000
# 2 -0.012031 0.029021 -0.019344 0.000000 0.003078 0.000000
# 3 -0.004702 -0.019344 0.035981 0.000000 -0.033320 0.000000
# 4 0.000000 0.000000 0.000000 0.035491 0.000000 -0.012933
# 5 0.006264 0.003078 -0.033320 0.000000 0.096607 0.000000
# 6 0.000000 0.000000 0.000000 -0.012933 0.000000 0.054883
#
#
# Mechanical properties :
#
#
# Convention : Reuss Voigt Hill
#
# Bulk Modulus (GPa) = 41.77791 74.08274 57.93032
# Shear Modulus (GPa) = 13.76638 20.61752 17.19195
#
# Velocity S-wave (km/s) = 3.00349 3.67566 3.35644
# Velocity P-wave (km/s) = 6.27731 8.15841 7.27888
#
# Compressibility (1/GPa) = 0.02393610
#
# Stress axis : x y z
#
# Youngs Moduli (GPa) = 32.16668 34.45778 27.79239
#
# Poissons Ratio (x) = 0.41457 0.13067
# Poissons Ratio (y) = 0.38701 0.53762
# Poissons Ratio (z) = 0.15123 0.66656
#
# Static dielectric constant tensor:
#      x y z
#    x 1.476740 0.000000 0.010530 
#    y 0.000000 1.508400 0.000000 
#    z 0.010530 0.000000 1.500920 
# 
# From -- ./inp_files/237845.got.cif
#   From: 2010.05.17/outbox.cif.g08.bks.cpg/sg12_119_cif.got.tgz:237845.got - 2010.06.03 13:09:07.
