data_PCOD9169666
_publ_section_title
;
Structure prediction by ZEFSAII (Michael W. Deem and Ramdas Pophale) SiO2 
 PCOD9169666
Probable space group: C 2/M
;
_chemical_formula_sum "Si O2"
_cell_formula_units_Z 64
_cell_length_a 27.621585
_cell_length_b 8.783834
_cell_length_c 17.762786
_cell_angle_alpha 90.000000
_cell_angle_beta 101.547871
_cell_angle_gamma 90.000000
_cell_volume 4222.430639
_symmetry_space_group_name_H-M "C 2/M"
_symmetry_group_IT_number 12
_symmetry_cell_setting 'monoclinic'
loop_
_space_group_symop_operation_xyz
x,y,z
-x,y,-z
-x,-y,-z
x,-y,z
1/2+x,1/2+y,z
1/2-x,1/2+y,-z
1/2-x,1/2-y,-z
1/2+x,1/2-y,z
loop_
_atom_site_type_symbol
_atom_site_label
_atom_site_fract_x
_atom_site_fract_y
_atom_site_fract_z
Si Si1 0.287045 0.177989 0.411787
Si Si2 0.804962 0.682915 0.006266
Si Si3 0.324954 0.317828 0.165348
Si Si4 0.813591 0.682073 0.680419
Si Si5 0.444031 0.683536 0.466844
Si Si6 0.788668 0.315449 0.837653
Si Si7 0.141896 0.818020 0.444862
Si Si8 0.876816 0.322766 0.320944
O O1 0.239315 0.268338 0.369800
O O2 0.312682 0.248442 0.493222
O O3 0.328559 0.188966 0.359693
O O4 0.275095 0.000000 0.420144
O O5 0.803735 0.500000 0.011088
O O6 0.834854 0.750046 0.085646
O O7 0.750000 0.750000 0.000000
O O8 0.816895 0.726104 0.923568
O O9 0.324415 0.500000 0.161036
O O10 0.269066 0.267274 0.172769
O O11 0.363037 0.262016 0.239935
O O12 0.812497 0.736044 0.766872
O O13 0.853960 0.755309 0.638059
O O14 0.681932 0.000000 0.320136
O O15 0.500000 0.732172 0.500000
O O16 0.443052 0.500000 0.460340
O O17 0.407401 0.725500 0.524328
O O18 0.420872 0.752024 0.383768
O O19 0.787365 0.500000 0.834596
O O20 0.145820 0.000000 0.446050
O O21 0.886040 0.500000 0.309127
#
# Coordination Sequence:
#
# PCOD9169666 Si02
#       8
#     8   8   8   8   8   8   8   8
#     4  10  19  30  42  60  85 115 149 182 217 253
#     4   9  16  27  40  58  82 114 153 189 223 256
#     4  10  17  28  43  61  86 118 153 186 219 257
#     4  11  19  29  43  60  86 119 151 181 213 253
#     4   9  19  36  54  67  84 113 145 180 226 275
#     4   8  16  27  40  57  82 118 153 182 215 251
#     4  10  20  32  45  63  84 109 143 182 220 260
#     4  10  19  29  45  69  91 114 146 186 225 262
#
# _framework density 15.157145999999999
#
# number of rings (size 3 to 8) (size 9 to 14) (size 15 to 20)
#    0.000    2.375    1.250    3.375    0.000    1.750 
#    0.000    1.875    0.000    0.000    0.000    0.000 
#    0.000    1.000    0.000   11.500    0.000    3.500 
#
# Total GULP energy -178347.792315 kJ/mol
# GULP energy per Si atom -5573.368510 kJ/mol
# Density = 1.512265 g / cm^3
# Si number density = 15.157146 Si / 1000 Ang^3
#
#
#
# Elastic Constant Matrix: (Units=GPa)
#
#
# Indices 1 2 3 4 5 6 
#
# 1 46.3080 16.9186 46.2549 0.0000 5.7398 0.0000
# 2 16.9186 45.7423 42.2690 0.0000 0.9551 0.0000
# 3 46.2549 42.2690 158.8202 0.0000 -5.5528 0.0000
# 4 0.0000 0.0000 0.0000 25.9131 0.0000 -0.4449
# 5 5.7398 0.9551 -5.5528 0.0000 15.7787 0.0000
# 6 0.0000 0.0000 0.0000 -0.4449 0.0000 13.5721
#
#
#
# Elastic Compliance Matrix: (Units=1/GPa)
#
#
# Indices 1 2 3 4 5 6 
#
# 1 0.034468 -0.003496 -0.009658 0.000000 -0.015725 0.000000
# 2 -0.003496 0.029669 -0.006982 0.000000 -0.002981 0.000000
# 3 -0.009658 -0.006982 0.011243 0.000000 0.007893 0.000000
# 4 0.000000 0.000000 0.000000 0.038612 0.000000 0.001266
# 5 -0.015725 -0.002981 0.007893 0.000000 0.072055 0.000000
# 6 0.000000 0.000000 0.000000 0.001266 0.000000 0.073722
#
#
# Mechanical properties :
#
#
# Convention : Reuss Voigt Hill
#
# Bulk Modulus (GPa) = 28.48329 51.30617 39.89473
# Shear Modulus (GPa) = 16.03881 20.74797 18.39339
#
# Velocity S-wave (km/s) = 3.25648 3.70382 3.48733
# Velocity P-wave (km/s) = 5.74215 7.22593 6.52634
#
# Compressibility (1/GPa) = 0.03510830
#
# Stress axis : x y z
#
# Youngs Moduli (GPa) = 29.01276 33.70526 88.94074
#
# Poissons Ratio (x) = 0.11782 0.85897
# Poissons Ratio (y) = 0.10142 0.62102
# Poissons Ratio (z) = 0.28020 0.23534
#
# Static dielectric constant tensor:
#      x y z
#    x 1.481270 0.000000 -0.020920 
#    y 0.000000 1.508380 0.000000 
#    z -0.020920 0.000000 1.538990 
# 
# From -- ./inp_files/248493.got.cif
#   From: 2010.05.17/outbox.cif.g08.bks.cpg/sg12_125_cif.got.tgz:248493.got - 2010.06.03 13:09:07.
