data_PCOD9169671
_publ_section_title
;
Structure prediction by ZEFSAII (Michael W. Deem and Ramdas Pophale) SiO2 
 PCOD9169671
Probable space group: C 2/M
;
_chemical_formula_sum "Si O2"
_cell_formula_units_Z 56
_cell_length_a 30.350252
_cell_length_b 7.579764
_cell_length_c 30.098297
_cell_angle_alpha 90.000000
_cell_angle_beta 26.680820
_cell_angle_gamma 90.000000
_cell_volume 3109.034281
_symmetry_space_group_name_H-M "C 2/M"
_symmetry_group_IT_number 12
_symmetry_cell_setting 'monoclinic'
loop_
_space_group_symop_operation_xyz
x,y,z
-x,y,-z
-x,-y,-z
x,-y,z
1/2+x,1/2+y,z
1/2-x,1/2+y,-z
1/2-x,1/2-y,-z
1/2+x,1/2-y,z
loop_
_atom_site_type_symbol
_atom_site_label
_atom_site_fract_x
_atom_site_fract_y
_atom_site_fract_z
Si Si1 0.281096 0.701728 0.356222
Si Si2 0.123776 0.296002 0.431073
Si Si3 0.375521 0.287098 0.430562
Si Si4 0.439760 0.716252 0.276092
Si Si5 0.099353 0.797414 0.354878
Si Si6 0.904244 0.785157 0.738488
Si Si7 0.152392 0.211255 0.114978
O O1 0.302730 0.500000 0.323422
O O2 0.215306 0.780752 0.375989
O O3 0.208693 0.703980 0.463966
O O4 0.381555 0.779969 0.285206
O O5 0.112084 0.500000 0.455325
O O6 0.136134 0.290442 0.366901
O O7 0.019807 0.206709 0.535526
O O8 0.364760 0.500000 0.442005
O O9 0.382545 0.232542 0.372829
O O10 0.481564 0.242299 0.355883
O O11 0.438683 0.500000 0.276125
O O12 0.552187 0.773837 0.181425
O O13 0.127522 0.721192 0.281452
O O14 0.131204 0.000000 0.328493
O O15 0.848013 0.724835 0.833464
O O16 0.899202 0.000000 0.741194
O O17 0.142612 0.000000 0.126502
O O18 0.250000 0.250000 0.000000
#
# Coordination Sequence:
#
# PCOD9169671 Si02
#       7
#     8   8   8   8   8   8   8
#     4  10  18  27  39  59  87 119 146 169 207 251
#     4  10  19  27  37  58  90 118 143 181 216 238
#     4   9  15  26  42  59  82 113 148 177 200 238
#     4   8  16  29  44  60  83 116 144 168 208 261
#     4  10  17  28  44  59  79 114 156 180 202 249
#     4   8  15  27  44  63  84 112 142 174 213 253
#     4   9  17  32  50  67  87 108 136 176 219 262
#
# _framework density 18.012022999999999
#
# number of rings (size 3 to 8) (size 9 to 14) (size 15 to 20)
#    0.000    2.857    1.429    3.857    0.000    0.571 
#    0.000    5.000    0.000    0.000    0.000    1.000 
#    0.000    8.000    0.000    0.000    0.000    0.000 
#
# Total GULP energy -156027.890952 kJ/mol
# GULP energy per Si atom -5572.424677 kJ/mol
# Density = 1.797103 g / cm^3
# Si number density = 18.012023 Si / 1000 Ang^3
#
#
#
# Elastic Constant Matrix: (Units=GPa)
#
#
# Indices 1 2 3 4 5 6 
#
# 1 161.4637 -1.1955 52.1255 -0.0081 -0.6143 0.0028
# 2 -1.1955 42.2946 -5.0053 -0.0129 -1.4439 0.0049
# 3 52.1255 -5.0053 75.2953 -0.0122 8.0198 0.0055
# 4 -0.0081 -0.0129 -0.0122 15.5381 0.0183 2.4526
# 5 -0.6143 -1.4439 8.0198 0.0183 13.5691 -0.0023
# 6 0.0028 0.0049 0.0055 2.4526 -0.0023 0.1940
#
#
#
# Elastic Compliance Matrix: (Units=1/GPa)
#
#
# Indices 1 2 3 4 5 6 
#
# 1 0.008176 -0.000357 -0.006103 0.000023 0.003939 -0.000183
# 2 -0.000357 0.023884 0.001671 -0.000119 0.001538 0.000876
# 3 -0.006103 0.001671 0.018812 -0.000125 -0.011217 0.000960
# 4 0.000023 -0.000119 -0.000125 -0.064622 0.000289 0.817132
# 5 0.003939 0.001538 -0.011217 0.000289 0.080667 -0.002467
# 6 -0.000183 0.000876 0.000960 0.817132 -0.002467 -5.176808
#
#
# Mechanical properties :
#
#
# Convention : Reuss Voigt Hill
#
# Bulk Modulus (GPa) = 24.21722 41.21145 32.71434
# Shear Modulus (GPa) = -0.98299 21.40216 10.20959
#
# Velocity S-wave (km/s) = -0.73954 3.45079 2.38338
# Velocity P-wave (km/s) = 3.57001 6.22952 5.07700
#
# Compressibility (1/GPa) = 0.04129293
#
# Stress axis : x y z
#
# Youngs Moduli (GPa) = 122.30819 41.86955 53.15760
#
# Poissons Ratio (x) = 0.01493 0.32444
# Poissons Ratio (y) = 0.04363 -0.08881
# Poissons Ratio (z) = 0.74650 -0.06995
#
# Static dielectric constant tensor:
#      x y z
#    x 1.679360 0.000010 0.003540 
#    y 0.000010 1.584920 0.000020 
#    z 0.003540 0.000020 1.588070 
# 
# From -- ./inp_files/247922.got.cif
#   From: 2010.05.17/outbox.cif.g08.bks.cpg/sg12_124_cif.got.tgz:247922.got - 2010.06.03 13:09:07.
