data_PCOD9169193
_publ_section_title
;
Structure prediction by ZEFSAII (Michael W. Deem and Ramdas Pophale) SiO2 
 PCOD9169193
Probable space group: C 2/M
;
_chemical_formula_sum "Si O2"
_cell_formula_units_Z 64
_cell_length_a 19.994325
_cell_length_b 7.721439
_cell_length_c 24.554212
_cell_angle_alpha 90.000000
_cell_angle_beta 61.010471
_cell_angle_gamma 90.000000
_cell_volume 3315.845123
_symmetry_space_group_name_H-M "C 2/M"
_symmetry_group_IT_number 12
_symmetry_cell_setting 'monoclinic'
loop_
_space_group_symop_operation_xyz
x,y,z
-x,y,-z
-x,-y,-z
x,-y,z
1/2+x,1/2+y,z
1/2-x,1/2+y,-z
1/2-x,1/2-y,-z
1/2+x,1/2-y,z
loop_
_atom_site_type_symbol
_atom_site_label
_atom_site_fract_x
_atom_site_fract_y
_atom_site_fract_z
Si Si1 0.428514 0.708299 0.228017
Si Si2 0.763110 0.791218 0.322843
Si Si3 0.201401 0.203756 0.151360
Si Si4 0.635232 0.292766 0.289808
Si Si5 0.076899 0.704722 0.110723
Si Si6 0.032530 0.211319 0.663970
Si Si7 0.313831 0.792077 0.020383
Si Si8 0.198204 0.207899 0.571800
O O1 0.428077 0.500000 0.227269
O O2 0.340562 0.768476 0.261286
O O3 0.488572 0.765808 0.159071
O O4 0.459961 0.760709 0.275340
O O5 0.687570 0.739789 0.320981
O O6 0.768603 0.729884 0.383195
O O7 0.765918 0.000000 0.322761
O O8 0.176587 0.278689 0.219122
O O9 0.129735 0.217008 0.137893
O O10 0.276072 0.277625 0.090874
O O11 0.216189 0.000000 0.153967
O O12 0.629277 0.500000 0.284979
O O13 0.548301 0.227084 0.327101
O O14 0.091556 0.500000 0.107068
O O15 0.108446 0.768815 0.039692
O O16 0.110151 0.269896 0.603770
O O17 0.032888 0.000000 0.662438
O O18 0.319136 0.000000 0.024655
O O19 0.250000 0.750000 0.000000
O O20 0.250000 0.250000 0.500000
O O21 0.195087 0.000000 0.576577
#
# Coordination Sequence:
#
# PCOD9169193 Si02
#       8
#     8   8   8   8   8   8   8   8
#     4   9  16  31  50  65  89 128 166 195 235 291
#     4   9  20  35  51  72 100 130 156 193 242 284
#     4   9  16  28  45  63  90 131 166 190 234 296
#     4  10  18  30  51  74  96 125 163 202 235 279
#     4  10  17  24  40  69  97 118 153 209 253 277
#     4   8  15  30  51  73  94 123 162 196 227 273
#     4   8  15  25  37  59  91 122 155 197 242 286
#     4   9  18  35  57  76  98 127 159 192 229 277
#
# _framework density 19.301264
#
# number of rings (size 3 to 8) (size 9 to 14) (size 15 to 20)
#    0.000    3.000    1.250    1.875    0.000    2.000 
#    0.000    3.125    0.000    4.500    0.000    5.250 
#    0.000    0.000    0.000    0.000    0.000    0.000 
#
# Total GULP energy -178218.007297 kJ/mol
# GULP energy per Si atom -5569.312728 kJ/mol
# Density = 1.925733 g / cm^3
# Si number density = 19.301264 Si / 1000 Ang^3
#
#
#
# Elastic Constant Matrix: (Units=GPa)
#
#
# Indices 1 2 3 4 5 6 
#
# 1 121.6452 1.5020 75.7539 0.0004 -19.3916 0.0020
# 2 1.5020 25.2578 8.9159 0.0006 -2.5422 0.0036
# 3 75.7539 8.9159 164.8677 -0.0001 -33.0899 0.0001
# 4 0.0004 0.0006 -0.0001 16.8356 -0.0002 -2.2944
# 5 -19.3916 -2.5422 -33.0899 -0.0002 23.5755 0.0002
# 6 0.0020 0.0036 0.0001 -2.2944 0.0002 18.1369
#
#
#
# Elastic Compliance Matrix: (Units=1/GPa)
#
#
# Indices 1 2 3 4 5 6 
#
# 1 0.011697 0.001315 -0.004854 -0.000001 0.002951 -0.000002
# 2 0.001315 0.040565 -0.002371 -0.000003 0.002128 -0.000008
# 3 -0.004854 -0.002371 0.010541 0.000000 0.010547 0.000001
# 4 -0.000001 -0.000003 0.000000 0.060440 0.000000 0.007646
# 5 0.002951 0.002128 0.010547 0.000000 0.059876 -0.000001
# 6 -0.000002 -0.000008 0.000001 0.007646 -0.000001 0.056104
#
#
# Mechanical properties :
#
#
# Convention : Reuss Voigt Hill
#
# Bulk Modulus (GPa) = 19.61426 53.79051 36.70239
# Shear Modulus (GPa) = 18.65420 26.74951 22.70186
#
# Velocity S-wave (km/s) = 3.11219 3.72680 3.43328
# Velocity P-wave (km/s) = 4.80609 6.81529 5.89689
#
# Compressibility (1/GPa) = 0.05098331
#
# Stress axis : x y z
#
# Youngs Moduli (GPa) = 85.48967 24.65209 94.87151
#
# Poissons Ratio (x) = -0.03241 0.46047
# Poissons Ratio (y) = -0.11239 0.22491
# Poissons Ratio (z) = 0.41493 0.05844
#
# Static dielectric constant tensor:
#      x y z
#    x 1.657000 0.000000 -0.036290 
#    y 0.000000 1.727560 0.000000 
#    z -0.036290 0.000000 1.710610 
# 
# From -- ./inp_files/345529.got.cif
#   From: 2010.05.17/outbox.cif.g08.bks.cpg/sg12_173_cif.got.tgz:345529.got - 2010.06.03 13:09:07.
