data_PCOD9169547
_publ_section_title
;
Structure prediction by ZEFSAII (Michael W. Deem and Ramdas Pophale) SiO2 
 PCOD9169547
Probable space group: C 2/M
;
_chemical_formula_sum "Si O2"
_cell_formula_units_Z 64
_cell_length_a 31.628889
_cell_length_b 7.613124
_cell_length_c 15.498131
_cell_angle_alpha 90.000000
_cell_angle_beta 78.680640
_cell_angle_gamma 90.000000
_cell_volume 3659.276280
_symmetry_space_group_name_H-M "C 2/M"
_symmetry_group_IT_number 12
_symmetry_cell_setting 'monoclinic'
loop_
_space_group_symop_operation_xyz
x,y,z
-x,y,-z
-x,-y,-z
x,-y,z
1/2+x,1/2+y,z
1/2-x,1/2+y,-z
1/2-x,1/2-y,-z
1/2+x,1/2-y,z
loop_
_atom_site_type_symbol
_atom_site_label
_atom_site_fract_x
_atom_site_fract_y
_atom_site_fract_z
Si Si1 0.537522 0.292092 0.804628
Si Si2 0.030371 0.287909 0.613208
Si Si3 0.305015 0.709290 0.062595
Si Si4 0.601974 0.714860 0.924067
Si Si5 0.561880 0.210435 0.417983
Si Si6 0.710276 0.711681 0.127056
Si Si7 0.940717 0.785166 0.876829
Si Si8 0.124435 0.209941 0.246205
O O1 0.534981 0.500000 0.822776
O O2 0.546410 0.268659 0.699987
O O3 0.574126 0.222156 0.853957
O O4 0.489504 0.221815 0.843380
O O5 0.029916 0.500000 0.613488
O O6 0.057364 0.228384 0.518611
O O7 0.981010 0.226616 0.615915
O O8 0.310081 0.500000 0.052671
O O9 0.348496 0.775701 0.089770
O O10 0.259555 0.741420 0.127116
O O11 0.300268 0.777110 0.966012
O O12 0.602697 0.500000 0.920893
O O13 0.578269 0.763689 0.022692
O O14 0.604184 0.254322 0.347358
O O15 0.558683 0.000000 0.421873
O O16 0.708810 0.500000 0.125322
O O17 0.672435 0.774783 0.205348
O O18 0.909097 0.723984 0.813110
O O19 0.941054 0.000000 0.873782
O O20 0.125633 0.000000 0.235910
#
# Coordination Sequence:
#
# PCOD9169547 Si02
#       8
#     8   8   8   8   8   8   8   8
#     4  10  18  27  45  68  87 115 156 188 209 247
#     4   9  18  32  45  60  87 120 147 178 221 261
#     4   9  16  28  44  61  85 118 151 180 212 255
#     4   9  16  27  43  64  90 120 152 184 214 248
#     4   9  18  31  46  62  85 118 150 177 215 268
#     4   9  17  28  43  63  89 115 143 181 223 259
#     4   9  15  25  40  63  92 119 147 177 211 250
#     4  10  17  27  45  68  91 115 143 181 223 256
#
# _framework density 17.489796999999999
#
# number of rings (size 3 to 8) (size 9 to 14) (size 15 to 20)
#    0.000    2.750    2.500    1.125    0.000    2.500 
#    0.000    1.875    0.000    3.000    0.000    0.875 
#    0.000    0.000    0.000    0.000    0.000    0.000 
#
# Total GULP energy -178402.649198 kJ/mol
# GULP energy per Si atom -5575.082787 kJ/mol
# Density = 1.744999 g / cm^3
# Si number density = 17.489797 Si / 1000 Ang^3
#
#
#
# Elastic Constant Matrix: (Units=GPa)
#
#
# Indices 1 2 3 4 5 6 
#
# 1 140.9647 4.2162 88.3776 0.0000 -12.7423 0.0000
# 2 4.2162 31.2173 -5.2408 0.0000 1.4068 0.0000
# 3 88.3776 -5.2408 113.4726 0.0000 -14.5942 0.0000
# 4 0.0000 0.0000 0.0000 45.4619 0.0000 -4.7820
# 5 -12.7423 1.4068 -14.5942 0.0000 25.2104 0.0000
# 6 0.0000 0.0000 0.0000 -4.7820 0.0000 11.5425
#
#
#
# Elastic Compliance Matrix: (Units=1/GPa)
#
#
# Indices 1 2 3 4 5 6 
#
# 1 0.014326 -0.003861 -0.011212 0.000000 0.000966 0.000000
# 2 -0.003861 0.033348 0.004383 0.000000 -0.001275 0.000000
# 3 -0.011212 0.004383 0.018354 0.000000 0.004713 0.000000
# 4 0.000000 0.000000 0.000000 0.022999 0.000000 0.009528
# 5 0.000966 -0.001275 0.004713 0.000000 0.042954 0.000000
# 6 0.000000 0.000000 0.000000 0.009528 0.000000 0.090584
#
#
# Mechanical properties :
#
#
# Convention : Reuss Voigt Hill
#
# Bulk Modulus (GPa) = 22.39685 51.15116 36.77401
# Shear Modulus (GPa) = 19.31798 29.66306 24.49052
#
# Velocity S-wave (km/s) = 3.32705 4.12275 3.74608
# Velocity P-wave (km/s) = 5.25285 7.20919 6.30734
#
# Compressibility (1/GPa) = 0.04464913
#
# Stress axis : x y z
#
# Youngs Moduli (GPa) = 69.80337 29.98661 54.48526
#
# Poissons Ratio (x) = 0.11577 0.61088
# Poissons Ratio (y) = 0.26948 -0.23881
# Poissons Ratio (z) = 0.78262 -0.13143
#
# Static dielectric constant tensor:
#      x y z
#    x 1.604430 0.000000 -0.014620 
#    y 0.000000 1.671500 0.000000 
#    z -0.014620 0.000000 1.588170 
# 
# From -- ./inp_files/248257.got.cif
#   From: 2010.05.17/outbox.cif.g08.bks.cpg/sg12_125_cif.got.tgz:248257.got - 2010.06.03 13:09:07.
