data_PCOD9169531
_publ_section_title
;
Structure prediction by ZEFSAII (Michael W. Deem and Ramdas Pophale) SiO2 
 PCOD9169531
Probable space group: C 2/M
;
_chemical_formula_sum "Si O2"
_cell_formula_units_Z 56
_cell_length_a 16.774281
_cell_length_b 22.357299
_cell_length_c 12.197989
_cell_angle_alpha 90.000000
_cell_angle_beta 134.351031
_cell_angle_gamma 90.000000
_cell_volume 3271.148705
_symmetry_space_group_name_H-M "C 2/M"
_symmetry_group_IT_number 12
_symmetry_cell_setting 'monoclinic'
loop_
_space_group_symop_operation_xyz
x,y,z
-x,y,-z
-x,-y,-z
x,-y,z
1/2+x,1/2+y,z
1/2-x,1/2+y,-z
1/2-x,1/2-y,-z
1/2+x,1/2-y,z
loop_
_atom_site_type_symbol
_atom_site_label
_atom_site_fract_x
_atom_site_fract_y
_atom_site_fract_z
Si Si1 0.870183 0.694641 0.849082
Si Si2 0.868545 0.673519 0.594320
Si Si3 0.001647 0.432741 0.627665
Si Si4 0.757303 0.180513 0.742928
Si Si5 0.236821 0.157090 0.916494
Si Si6 0.595986 0.770993 0.761305
Si Si7 0.734355 0.568456 0.096341
O O1 0.841989 0.683347 0.695233
O O2 0.840434 0.764304 0.846020
O O3 0.794467 0.653001 0.853956
O O4 0.000000 0.684424 0.000000
O O5 0.768989 0.675986 0.410962
O O6 0.930302 0.610394 0.633980
O O7 0.966232 0.720051 0.655731
O O8 0.956121 0.500000 0.585457
O O9 0.131031 0.434066 0.782379
O O10 0.000000 0.411989 0.500000
O O11 0.643107 0.202048 0.693282
O O12 0.790900 0.117735 0.832737
O O13 0.135054 0.203126 0.809339
O O14 0.332197 0.191272 0.080397
O O15 0.200795 0.098822 0.948972
O O16 0.695739 0.500000 0.077532
#
# Coordination Sequence:
#
# PCOD9169531 Si02
#       7
#     8   8   8   8   8   8   8
#     4  11  21  32  47  67 102 137 155 190 250 294
#     4  12  18  30  47  74 100 131 158 197 240 297
#     4  10  17  27  44  69  96 124 155 191 234 282
#     4  10  20  31  47  74  99 122 163 208 240 287
#     4   9  17  31  44  70  92 125 165 196 230 292
#     4   9  16  28  50  65  92 124 161 201 238 268
#     4  10  18  30  52  71  93 125 164 206 239 277
#
# _framework density 17.119368999999999
#
# number of rings (size 3 to 8) (size 9 to 14) (size 15 to 20)
#    0.000    1.857    5.714    1.714    0.000    0.000 
#    0.000    0.714    0.000    3.000    0.000    0.000 
#    0.000    9.143    0.000    0.000    0.000    0.000 
#
# Total GULP energy -156029.344959 kJ/mol
# GULP energy per Si atom -5572.476606 kJ/mol
# Density = 1.708040 g / cm^3
# Si number density = 17.119369 Si / 1000 Ang^3
#
#
#
# Elastic Constant Matrix: (Units=GPa)
#
#
# Indices 1 2 3 4 5 6 
#
# 1 45.5452 17.5809 25.7907 0.0000 -23.4881 0.0000
# 2 17.5809 103.5222 29.4317 0.0000 -11.9311 0.0000
# 3 25.7907 29.4317 55.2414 0.0000 -26.5418 0.0000
# 4 0.0000 0.0000 0.0000 10.4400 0.0000 -3.2406
# 5 -23.4881 -11.9311 -26.5418 0.0000 28.2798 0.0000
# 6 0.0000 0.0000 0.0000 -3.2406 0.0000 16.2251
#
#
#
# Elastic Compliance Matrix: (Units=1/GPa)
#
#
# Indices 1 2 3 4 5 6 
#
# 1 0.039622 -0.002453 -0.003419 0.000000 0.028665 0.000000
# 2 -0.002453 0.011577 -0.006657 0.000000 -0.003401 0.000000
# 3 -0.003419 -0.006657 0.037394 0.000000 0.029448 0.000000
# 4 0.000000 0.000000 0.000000 0.102117 0.000000 0.020396
# 5 0.028665 -0.003401 0.029448 0.000000 0.085371 0.000000
# 6 0.000000 0.000000 0.000000 0.020396 0.000000 0.065707
#
#
# Mechanical properties :
#
#
# Convention : Reuss Voigt Hill
#
# Bulk Modulus (GPa) = 15.73938 38.87949 27.30944
# Shear Modulus (GPa) = 12.88584 19.75601 16.32093
#
# Velocity S-wave (km/s) = 2.74652 3.40077 3.09100
# Velocity P-wave (km/s) = 4.38996 6.17903 5.35967
#
# Compressibility (1/GPa) = 0.06353491
#
# Stress axis : x y z
#
# Youngs Moduli (GPa) = 25.23864 86.37857 26.74245
#
# Poissons Ratio (x) = 0.21191 0.09143
# Poissons Ratio (y) = 0.06192 0.17802
# Poissons Ratio (z) = 0.08629 0.57499
#
# Static dielectric constant tensor:
#      x y z
#    x 1.590830 0.000000 -0.022170 
#    y 0.000000 1.610930 0.000000 
#    z -0.022170 0.000000 1.619880 
# 
# From -- ./inp_files/159297.got.cif
#   From: 2010.05.17/outbox.cif.g08.bks.cpg/sg12_80_cif.got.tgz:159297.got - 2010.06.03 13:09:07.
