data_PCOD9169858
_publ_section_title
;
Structure prediction by ZEFSAII (Michael W. Deem and Ramdas Pophale) SiO2 
 PCOD9169858
Probable space group: C 2/M
;
_chemical_formula_sum "Si O2"
_cell_formula_units_Z 48
_cell_length_a 18.818615
_cell_length_b 12.709870
_cell_length_c 14.977567
_cell_angle_alpha 90.000000
_cell_angle_beta 47.155076
_cell_angle_gamma 90.000000
_cell_volume 2626.580174
_symmetry_space_group_name_H-M "C 2/M"
_symmetry_group_IT_number 12
_symmetry_cell_setting 'monoclinic'
loop_
_space_group_symop_operation_xyz
x,y,z
-x,y,-z
-x,-y,-z
x,-y,z
1/2+x,1/2+y,z
1/2-x,1/2+y,-z
1/2-x,1/2-y,-z
1/2+x,1/2-y,z
loop_
_atom_site_type_symbol
_atom_site_label
_atom_site_fract_x
_atom_site_fract_y
_atom_site_fract_z
Si Si1 0.550454 0.120330 0.114764
Si Si2 0.500000 0.249746 0.500000
Si Si3 0.000000 0.772827 0.000000
Si Si4 0.649918 0.887664 0.615490
Si Si5 0.122609 0.375622 0.246239
Si Si6 0.800264 0.876660 0.218477
Si Si7 0.181257 0.782938 0.444086
O O1 0.438375 0.115092 0.240879
O O2 0.605914 0.157070 0.157613
O O3 0.581483 0.000000 0.066098
O O4 0.549827 0.198489 0.032203
O O5 0.449410 0.179886 0.621259
O O6 0.588791 0.313784 0.465435
O O7 0.088513 0.843041 0.887895
O O8 0.751488 0.875340 0.578835
O O9 0.642828 0.787031 0.558774
O O10 0.644844 0.000000 0.570847
O O11 0.099875 0.500000 0.267551
O O12 0.232193 0.362459 0.188671
O O13 0.749743 0.798960 0.332263
O O14 0.793271 0.000000 0.249279
#
# Coordination Sequence:
#
# PCOD9169858 Si02
#       7
#     8   4   4   8   8   8   8
#     4  10  20  35  54  77 102 135 175 217 257 297
#     4  10  17  28  53  80 106 130 162 208 266 312
#     4  12  22  36  52  74 102 146 178 212 242 302
#     4  10  19  33  53  77 106 135 167 212 261 311
#     4   9  18  32  51  77 104 131 166 213 262 306
#     4  10  21  35  52  76 105 136 171 211 258 306
#     4  10  19  33  53  81 105 132 166 211 265 312
#
# _framework density 18.274712999999998
#
# number of rings (size 3 to 8) (size 9 to 14) (size 15 to 20)
#    0.000    2.000    3.333    1.250    0.000    2.000 
#    0.000    0.417    0.000    0.000    0.000    1.167 
#    0.000    0.000    0.000    0.000    0.000    0.000 
#
# Total GULP energy -133717.739263 kJ/mol
# GULP energy per Si atom -5571.572469 kJ/mol
# Density = 1.823312 g / cm^3
# Si number density = 18.274713 Si / 1000 Ang^3
#
#
#
# Elastic Constant Matrix: (Units=GPa)
#
#
# Indices 1 2 3 4 5 6 
#
# 1 78.6502 2.6542 -2.6477 0.0000 -4.0439 0.0000
# 2 2.6542 35.9022 -0.6748 0.0000 2.6559 0.0000
# 3 -2.6477 -0.6748 32.1016 0.0000 -7.1778 0.0000
# 4 0.0000 0.0000 0.0000 17.0354 0.0000 -0.0428
# 5 -4.0439 2.6559 -7.1778 0.0000 32.0883 0.0000
# 6 0.0000 0.0000 0.0000 -0.0428 0.0000 20.5761
#
#
#
# Elastic Compliance Matrix: (Units=1/GPa)
#
#
# Indices 1 2 3 4 5 6 
#
# 1 0.012907 -0.001078 0.001501 0.000000 0.002051 0.000000
# 2 -0.001078 0.028115 -0.000051 0.000000 -0.002474 0.000000
# 3 0.001501 -0.000051 0.032966 0.000000 0.007567 0.000000
# 4 0.000000 0.000000 0.000000 0.058702 0.000000 0.000122
# 5 0.002051 -0.002474 0.007567 0.000000 0.033320 0.000000
# 6 0.000000 0.000000 0.000000 0.000122 0.000000 0.048600
#
#
# Mechanical properties :
#
#
# Convention : Reuss Voigt Hill
#
# Bulk Modulus (GPa) = 13.38126 16.14638 14.76382
# Shear Modulus (GPa) = 20.94002 23.76143 22.35072
#
# Velocity S-wave (km/s) = 3.38871 3.60979 3.50099
# Velocity P-wave (km/s) = 4.75913 5.12139 4.94358
#
# Compressibility (1/GPa) = 0.07473139
#
# Stress axis : x y z
#
# Youngs Moduli (GPa) = 77.47802 35.56795 30.33440
#
# Poissons Ratio (x) = 0.03833 -0.04552
# Poissons Ratio (y) = 0.08350 0.00155
# Poissons Ratio (z) = -0.11626 0.00182
#
# Static dielectric constant tensor:
#      x y z
#    x 1.686620 0.000000 0.012260 
#    y 0.000000 1.597890 0.000000 
#    z 0.012260 0.000000 1.610010 
# 
# From -- ./inp_files/276329.got.cif
#   From: 2010.05.17/outbox.cif.g08.bks.cpg/sg12_139_cif.got.tgz:276329.got - 2010.06.03 13:09:07.
