data_PCOD9169450
_publ_section_title
;
Structure prediction by ZEFSAII (Michael W. Deem and Ramdas Pophale) SiO2 
 PCOD9169450
Probable space group: C 2/M
;
_chemical_formula_sum "Si O2"
_cell_formula_units_Z 64
_cell_length_a 15.102157
_cell_length_b 16.621797
_cell_length_c 14.996663
_cell_angle_alpha 90.000000
_cell_angle_beta 53.051282
_cell_angle_gamma 90.000000
_cell_volume 3008.519603
_symmetry_space_group_name_H-M "C 2/M"
_symmetry_group_IT_number 12
_symmetry_cell_setting 'monoclinic'
loop_
_space_group_symop_operation_xyz
x,y,z
-x,y,-z
-x,-y,-z
x,-y,z
1/2+x,1/2+y,z
1/2-x,1/2+y,-z
1/2-x,1/2-y,-z
1/2+x,1/2-y,z
loop_
_atom_site_type_symbol
_atom_site_label
_atom_site_fract_x
_atom_site_fract_y
_atom_site_fract_z
Si Si1 0.311403 0.705994 0.227631
Si Si2 0.126582 0.763269 0.457339
Si Si3 0.608988 0.132688 0.880315
Si Si4 0.319270 0.347734 0.865941
Si Si5 0.024384 0.375022 0.744065
Si Si6 0.724224 0.154151 0.106401
Si Si7 0.437998 0.315582 0.320312
Si Si8 0.897769 0.417129 0.492808
O O1 0.216545 0.768072 0.324204
O O2 0.392963 0.769335 0.130025
O O3 0.262453 0.644614 0.185187
O O4 0.371781 0.661605 0.271899
O O5 0.127435 0.817382 0.545866
O O6 0.151859 0.670882 0.467844
O O7 0.000000 0.768733 0.500000
O O8 0.720633 0.114003 0.867177
O O9 0.595147 0.102436 0.787637
O O10 0.500000 0.107877 0.000000
O O11 0.295154 0.251245 0.883153
O O12 0.441924 0.357190 0.751840
O O13 0.306777 0.370857 0.977595
O O14 0.894372 0.384993 0.840813
O O15 0.041384 0.280084 0.710271
O O16 0.057562 0.418126 0.634187
O O17 0.832995 0.500000 0.548664
O O18 0.000000 0.416407 0.500000
#
# Coordination Sequence:
#
# PCOD9169450 Si02
#       8
#     8   8   8   8   8   8   8   8
#     4  10  19  24  39  60  86 121 151 175 210 259
#     4  10  17  30  42  58  88 118 147 180 229 261
#     4  10  17  27  41  63  88 123 157 174 206 256
#     4   9  16  25  38  58  83 116 158 177 197 239
#     4   9  16  27  42  63  86 116 144 178 218 259
#     4   9  15  23  37  56  83 112 146 179 204 243
#     4   9  18  27  39  57  89 125 149 175 209 249
#     4   9  17  29  47  65  85 110 143 185 231 277
#
# _framework density 21.272921
#
# number of rings (size 3 to 8) (size 9 to 14) (size 15 to 20)
#    0.000    2.625    1.250    4.125    5.250    0.000 
#    0.000    0.000    0.000    0.375    0.000    0.000 
#    0.000    3.500    0.000    1.250    0.000    0.000 
#
# Total GULP energy -178202.640110 kJ/mol
# GULP energy per Si atom -5568.832503 kJ/mol
# Density = 2.122450 g / cm^3
# Si number density = 21.272921 Si / 1000 Ang^3
#
#
#
# Elastic Constant Matrix: (Units=GPa)
#
#
# Indices 1 2 3 4 5 6 
#
# 1 151.6717 3.6456 56.3287 0.0000 27.2901 0.0000
# 2 3.6456 10.5507 1.6689 0.0000 0.1513 0.0000
# 3 56.3287 1.6689 109.8304 0.0000 16.8223 0.0000
# 4 0.0000 0.0000 0.0000 12.4802 0.0000 14.8759
# 5 27.2901 0.1513 16.8223 0.0000 37.2245 0.0000
# 6 0.0000 0.0000 0.0000 14.8759 0.0000 12.7797
#
#
#
# Elastic Compliance Matrix: (Units=1/GPa)
#
#
# Indices 1 2 3 4 5 6 
#
# 1 0.008932 -0.002415 -0.003806 0.000000 -0.004818 0.000000
# 2 -0.002415 0.095665 -0.000458 0.000000 0.001589 0.000000
# 3 -0.003806 -0.000458 0.011427 0.000000 -0.002372 0.000000
# 4 0.000000 0.000000 0.000000 -0.206794 0.000000 0.240713
# 5 -0.004818 0.001589 -0.002372 0.000000 0.031462 0.000000
# 6 0.000000 0.000000 0.000000 0.240713 0.000000 -0.201947
#
#
# Mechanical properties :
#
#
# Convention : Reuss Voigt Hill
#
# Bulk Modulus (GPa) = 9.74045 43.92657 26.83351
# Shear Modulus (GPa) = -23.40002 26.52419 1.56208
#
# Velocity S-wave (km/s) = -3.32021 3.53491 0.85785
# Velocity P-wave (km/s) = 3.17957 6.11185 3.69087
#
# Compressibility (1/GPa) = 0.10266463
#
# Stress axis : x y z
#
# Youngs Moduli (GPa) = 111.96077 10.45317 87.51007
#
# Poissons Ratio (x) = 0.02524 0.33307
# Poissons Ratio (y) = 0.27038 0.04012
# Poissons Ratio (z) = 0.42614 0.00479
#
# Static dielectric constant tensor:
#      x y z
#    x 1.818610 0.000000 0.011470 
#    y 0.000000 1.765450 0.000000 
#    z 0.011470 0.000000 2.111070 
# 
# From -- ./inp_files/216355.got.cif
#   From: 2010.05.17/outbox.cif.g08.bks.cpg/sg12_109_cif.got.tgz:216355.got - 2010.06.03 13:09:07.
