data_PCOD9169046
_publ_section_title
;
Structure prediction by ZEFSAII (Michael W. Deem and Ramdas Pophale) SiO2 
 PCOD9169046
Probable space group: C 2/M
;
_chemical_formula_sum "Si O2"
_cell_formula_units_Z 56
_cell_length_a 15.337566
_cell_length_b 20.124326
_cell_length_c 14.088155
_cell_angle_alpha 90.000000
_cell_angle_beta 141.132788
_cell_angle_gamma 90.000000
_cell_volume 2728.712747
_symmetry_space_group_name_H-M "C 2/M"
_symmetry_group_IT_number 12
_symmetry_cell_setting 'monoclinic'
loop_
_space_group_symop_operation_xyz
x,y,z
-x,y,-z
-x,-y,-z
x,-y,z
1/2+x,1/2+y,z
1/2-x,1/2+y,-z
1/2-x,1/2-y,-z
1/2+x,1/2-y,z
loop_
_atom_site_type_symbol
_atom_site_label
_atom_site_fract_x
_atom_site_fract_y
_atom_site_fract_z
Si Si1 0.276678 0.656580 0.941974
Si Si2 0.780573 0.804590 0.166985
Si Si3 0.079524 0.176184 0.206933
Si Si4 0.373373 0.170878 0.786046
Si Si5 0.878184 0.646159 0.472856
Si Si6 0.590660 0.701198 0.440110
Si Si7 0.509523 0.076998 0.749986
O O1 0.238637 0.724869 0.855615
O O2 0.155720 0.603013 0.831118
O O3 0.276244 0.672740 0.054767
O O4 0.437282 0.641005 0.056318
O O5 0.934666 0.816656 0.339373
O O6 0.667014 0.838468 0.138242
O O7 0.067604 0.254082 0.170287
O O8 0.225162 0.145710 0.297302
O O9 0.094305 0.179504 0.333710
O O10 0.223196 0.172535 0.606111
O O11 0.465945 0.120402 0.804621
O O12 0.895576 0.719057 0.536192
O O13 0.898827 0.592994 0.573337
O O14 0.000000 0.639165 0.500000
O O15 0.515333 0.000000 0.778055
#
# Coordination Sequence:
#
# PCOD9169046 Si02
#       7
#     8   8   8   8   8   8   8
#     4  10  22  38  53  89 122 154 198 233 309 351
#     4  10  19  33  61  90 123 149 185 260 301 355
#     4  10  19  34  62  90 121 141 185 270 303 346
#     4  11  19  34  59  95 116 150 198 244 312 338
#     4  11  20  37  60  91 114 150 202 247 308 348
#     4  10  16  32  59  94 123 140 183 260 312 344
#     4  12  25  42  58  80 127 169 199 236 282 370
#
# _framework density 20.522497000000001
#
# number of rings (size 3 to 8) (size 9 to 14) (size 15 to 20)
#    0.000    1.429    4.286    4.714    0.000    2.571 
#    0.000    2.143    0.000    2.571    0.000    0.000 
#    0.000    0.000    0.000    0.000    0.000    0.000 
#
# Total GULP energy -156473.799077 kJ/mol
# GULP energy per Si atom -5588.349967 kJ/mol
# Density = 2.047579 g / cm^3
# Si number density = 20.522497 Si / 1000 Ang^3
#
#
#
# Elastic Constant Matrix: (Units=GPa)
#
#
# Indices 1 2 3 4 5 6 
#
# 1 120.1888 30.3814 36.9979 0.0000 23.8858 0.0000
# 2 30.3814 62.9487 29.1283 0.0000 15.9849 0.0000
# 3 36.9979 29.1283 110.0046 0.0000 23.5822 0.0000
# 4 0.0000 0.0000 0.0000 7.7812 0.0000 4.9656
# 5 23.8858 15.9849 23.5822 0.0000 44.0199 0.0000
# 6 0.0000 0.0000 0.0000 4.9656 0.0000 9.0839
#
#
#
# Elastic Compliance Matrix: (Units=1/GPa)
#
#
# Indices 1 2 3 4 5 6 
#
# 1 0.010417 -0.003274 -0.001898 0.000000 -0.003447 0.000000
# 2 -0.003274 0.019968 -0.003403 0.000000 -0.003651 0.000000
# 3 -0.001898 -0.003403 0.011460 0.000000 -0.003874 0.000000
# 4 0.000000 0.000000 0.000000 0.197362 0.000000 -0.107886
# 5 -0.003447 -0.003651 -0.003874 0.000000 0.027988 0.000000
# 6 0.000000 0.000000 0.000000 -0.107886 0.000000 0.169060
#
#
# Mechanical properties :
#
#
# Convention : Reuss Voigt Hill
#
# Bulk Modulus (GPa) = 40.49414 54.01750 47.25582
# Shear Modulus (GPa) = 10.83096 25.28596 18.05846
#
# Velocity S-wave (km/s) = 2.29980 3.51395 2.96959
# Velocity P-wave (km/s) = 5.17943 6.54538 5.90206
#
# Compressibility (1/GPa) = 0.02469493
#
# Stress axis : x y z
#
# Youngs Moduli (GPa) = 95.99601 50.07940 87.25653
#
# Poissons Ratio (x) = 0.16398 0.16558
# Poissons Ratio (y) = 0.31432 0.29698
# Poissons Ratio (z) = 0.18217 0.17045
#
# Static dielectric constant tensor:
#      x y z
#    x 1.810650 0.000000 0.008940 
#    y 0.000000 1.656250 0.000000 
#    z 0.008940 0.000000 1.818090 
# 
# From -- ./inp_files/279027.got.cif
#   From: 2010.05.17/outbox.cif.g08.bks.cpg/sg12_140_cif.got.tgz:279027.got - 2010.06.03 13:09:07.
