data_PCOD9169416
_publ_section_title
;
Structure prediction by ZEFSAII (Michael W. Deem and Ramdas Pophale) SiO2 
 PCOD9169416
Probable space group: C 2/M
;
_chemical_formula_sum "Si O2"
_cell_formula_units_Z 64
_cell_length_a 30.216046
_cell_length_b 7.515998
_cell_length_c 16.243304
_cell_angle_alpha 90.000000
_cell_angle_beta 117.155206
_cell_angle_gamma 90.000000
_cell_volume 3282.298768
_symmetry_space_group_name_H-M "C 2/M"
_symmetry_group_IT_number 12
_symmetry_cell_setting 'monoclinic'
loop_
_space_group_symop_operation_xyz
x,y,z
-x,y,-z
-x,-y,-z
x,-y,z
1/2+x,1/2+y,z
1/2-x,1/2+y,-z
1/2-x,1/2-y,-z
1/2+x,1/2-y,z
loop_
_atom_site_type_symbol
_atom_site_label
_atom_site_fract_x
_atom_site_fract_y
_atom_site_fract_z
Si Si1 0.889523 0.207917 0.367006
Si Si2 0.342278 0.714336 0.572036
Si Si3 0.445173 0.715178 0.573154
Si Si4 0.320083 0.794561 0.739388
Si Si5 0.210831 0.782077 0.639877
Si Si6 0.550663 0.796613 0.738358
Si Si7 0.475994 0.782592 0.106269
Si Si8 0.924015 0.717346 0.892825
O O1 0.928949 0.277716 0.468089
O O2 0.834401 0.277683 0.339787
O O3 0.910079 0.221725 0.293103
O O4 0.886105 0.000000 0.384852
O O5 0.340270 0.500000 0.575948
O O6 0.398302 0.761231 0.591411
O O7 0.328309 0.790082 0.648156
O O8 0.305760 0.769022 0.466749
O O9 0.450887 0.500000 0.577606
O O10 0.496657 0.788598 0.649797
O O11 0.265569 0.716086 0.708938
O O12 0.369614 0.716126 0.822340
O O13 0.318238 0.000000 0.765175
O O14 0.213117 0.000000 0.642238
O O15 0.543910 0.716216 0.823340
O O16 0.565523 0.000000 0.762735
O O17 0.532521 0.726692 0.133560
O O18 0.476784 0.000000 0.109649
O O19 0.442468 0.732173 0.999518
O O20 0.923384 0.500000 0.889675
#
# Coordination Sequence:
#
# PCOD9169416 Si02
#       8
#     8   8   8   8   8   8   8   8
#     4   9  18  33  47  58  83 123 154 174 206 258
#     4   9  17  29  43  62  92 123 143 167 213 266
#     4   9  18  31  45  61  86 122 153 170 200 261
#     4  10  17  26  46  71  87 107 148 191 216 242
#     4   8  16  30  45  62  86 117 152 182 207 248
#     4  11  20  28  44  69  90 108 140 188 227 250
#     4   8  15  27  41  62  92 116 133 164 218 271
#     4   8  14  26  44  64  87 114 139 167 210 263
#
# _framework density 19.498529999999999
#
# number of rings (size 3 to 8) (size 9 to 14) (size 15 to 20)
#    0.000    3.000    0.000    4.125    0.000    3.500 
#    0.000    2.500    0.000    2.250    0.000    6.125 
#    0.000    0.000    0.000    0.000    0.000    0.125 
#
# Total GULP energy -178492.511185 kJ/mol
# GULP energy per Si atom -5577.890975 kJ/mol
# Density = 1.945415 g / cm^3
# Si number density = 19.498530 Si / 1000 Ang^3
#
#
#
# Elastic Constant Matrix: (Units=GPa)
#
#
# Indices 1 2 3 4 5 6 
#
# 1 109.8044 -4.7555 83.2344 0.0000 7.0776 0.0000
# 2 -4.7555 44.4030 -4.7602 0.0000 2.0094 0.0000
# 3 83.2344 -4.7602 95.7163 0.0000 5.1908 0.0000
# 4 0.0000 0.0000 0.0000 16.8350 0.0000 -17.5142
# 5 7.0776 2.0094 5.1908 0.0000 36.7730 0.0000
# 6 0.0000 0.0000 0.0000 -17.5142 0.0000 13.7712
#
#
#
# Elastic Compliance Matrix: (Units=1/GPa)
#
#
# Indices 1 2 3 4 5 6 
#
# 1 0.026860 0.000473 -0.023230 0.000000 -0.001916 0.000000
# 2 0.000473 0.022723 0.000797 0.000000 -0.001445 0.000000
# 3 -0.023230 0.000797 0.030682 0.000000 0.000096 0.000000
# 4 0.000000 0.000000 0.000000 -0.183836 0.000000 -0.233804
# 5 -0.001916 -0.001445 0.000096 0.000000 0.027628 0.000000
# 6 0.000000 0.000000 0.000000 -0.233804 0.000000 -0.224737
#
#
# Mechanical properties :
#
#
# Convention : Reuss Voigt Hill
#
# Bulk Modulus (GPa) = 27.51370 44.15125 35.83248
# Shear Modulus (GPa) = -20.43769 25.22284 2.39257
#
# Velocity S-wave (km/s) = -3.24105 3.60053 1.10893
# Velocity P-wave (km/s) = 0.36797 6.32279 4.47845
#
# Compressibility (1/GPa) = 0.03634553
#
# Stress axis : x y z
#
# Youngs Moduli (GPa) = 37.23044 44.00919 32.59205
#
# Poissons Ratio (x) = -0.02082 0.75710
# Poissons Ratio (y) = -0.01761 -0.02598
# Poissons Ratio (z) = 0.86485 -0.03508
#
# Static dielectric constant tensor:
#      x y z
#    x 1.689510 0.000000 0.003740 
#    y 0.000000 1.757350 0.000000 
#    z 0.003740 0.000000 1.668520 
# 
# From -- ./inp_files/249178.got.cif
#   From: 2010.05.17/outbox.cif.g08.bks.cpg/sg12_125_cif.got.tgz:249178.got - 2010.06.03 13:09:07.
