data_PCOD9169467
_publ_section_title
;
Structure prediction by ZEFSAII (Michael W. Deem and Ramdas Pophale) SiO2 
 PCOD9169467
Probable space group: C 2/M
;
_chemical_formula_sum "Si O2"
_cell_formula_units_Z 64
_cell_length_a 24.496494
_cell_length_b 7.547144
_cell_length_c 22.401171
_cell_angle_alpha 90.000000
_cell_angle_beta 51.458386
_cell_angle_gamma 90.000000
_cell_volume 3239.295509
_symmetry_space_group_name_H-M "C 2/M"
_symmetry_group_IT_number 12
_symmetry_cell_setting 'monoclinic'
loop_
_space_group_symop_operation_xyz
x,y,z
-x,y,-z
-x,-y,-z
x,-y,z
1/2+x,1/2+y,z
1/2-x,1/2+y,-z
1/2-x,1/2-y,-z
1/2+x,1/2-y,z
loop_
_atom_site_type_symbol
_atom_site_label
_atom_site_fract_x
_atom_site_fract_y
_atom_site_fract_z
Si Si1 0.557781 0.205042 0.274776
Si Si2 0.473725 0.716846 0.082273
Si Si3 0.639409 0.713955 0.672835
Si Si4 0.819904 0.783193 0.229075
Si Si5 0.403879 0.703053 0.421338
Si Si6 0.922848 0.706073 0.542411
Si Si7 0.518579 0.288171 0.176190
Si Si8 0.673860 0.216763 0.285801
O O1 0.485213 0.293489 0.344859
O O2 0.564860 0.217135 0.198612
O O3 0.625099 0.273026 0.264120
O O4 0.548059 0.000000 0.298275
O O5 0.474032 0.500000 0.082183
O O6 0.394301 0.771368 0.151166
O O7 0.521879 0.772979 0.105568
O O8 0.500000 0.775954 0.000000
O O9 0.646261 0.500000 0.664056
O O10 0.685953 0.773081 0.697081
O O11 0.640468 0.781357 0.604001
O O12 0.560896 0.751218 0.749359
O O13 0.753569 0.724187 0.236400
O O14 0.821110 0.000000 0.229414
O O15 0.382679 0.500000 0.443310
O O16 0.400827 0.785601 0.488642
O O17 0.928975 0.500000 0.555045
O O18 0.866342 0.777097 0.627066
O O19 0.000000 0.785566 0.500000
O O20 0.526587 0.500000 0.171320
O O21 0.676927 0.000000 0.282109
#
# Coordination Sequence:
#
# PCOD9169467 Si02
#       8
#     8   8   8   8   8   8   8   8
#     4  10  17  27  42  62  86 114 149 184 214 247
#     4   8  13  23  44  72  95 112 136 176 218 253
#     4   7  12  23  39  58  81 106 133 172 211 250
#     4   8  13  24  41  61  85 112 143 175 212 258
#     4  10  18  28  43  64  85 108 143 184 229 266
#     4  10  18  30  42  57  85 114 147 189 220 248
#     4   8  14  25  41  65  91 112 139 174 214 255
#     4   9  17  27  40  57  80 114 149 180 216 256
#
# _framework density 19.757383000000001
#
# number of rings (size 3 to 8) (size 9 to 14) (size 15 to 20)
#    0.000    3.250    1.250    3.000    0.000    0.250 
#    0.000    0.625    0.000    1.125    0.000   25.375 
#    0.000    0.000    0.000    0.000    0.000    0.125 
#
# Total GULP energy -178188.650065 kJ/mol
# GULP energy per Si atom -5568.395315 kJ/mol
# Density = 1.971241 g / cm^3
# Si number density = 19.757383 Si / 1000 Ang^3
#
#
#
# Elastic Constant Matrix: (Units=GPa)
#
#
# Indices 1 2 3 4 5 6 
#
# 1 117.7643 -2.0583 53.6250 0.0058 25.2445 -0.0012
# 2 -2.0583 35.5373 1.2258 -0.0101 0.8484 -0.0072
# 3 53.6250 1.2258 89.0998 0.0074 28.3997 0.0017
# 4 0.0058 -0.0101 0.0074 9.4979 0.0058 8.3141
# 5 25.2445 0.8484 28.3997 0.0058 29.7829 -0.0021
# 6 -0.0012 -0.0072 0.0017 8.3141 -0.0021 11.5365
#
#
#
# Elastic Compliance Matrix: (Units=1/GPa)
#
#
# Indices 1 2 3 4 5 6 
#
# 1 0.012190 0.001022 -0.005816 -0.000002 -0.004816 0.000003
# 2 0.001022 0.028246 -0.000677 0.000041 -0.001025 -0.000012
# 3 -0.005816 -0.000677 0.018900 0.000004 -0.013073 -0.000009
# 4 -0.000002 0.000041 0.000004 0.285217 -0.000074 -0.205549
# 5 -0.004816 -0.001025 -0.013073 -0.000074 0.050154 0.000063
# 6 0.000003 -0.000012 -0.000009 -0.205549 0.000063 0.234816
#
#
# Mechanical properties :
#
#
# Convention : Reuss Voigt Hill
#
# Bulk Modulus (GPa) = 20.66326 38.66514 29.66420
# Shear Modulus (GPa) = 7.61504 22.80407 15.20956
#
# Velocity S-wave (km/s) = 1.96536 3.40104 2.77757
# Velocity P-wave (km/s) = 3.95366 5.91906 5.03322
#
# Compressibility (1/GPa) = 0.04839507
#
# Stress axis : x y z
#
# Youngs Moduli (GPa) = 82.03489 35.40272 52.91069
#
# Poissons Ratio (x) = -0.03617 0.30770
# Poissons Ratio (y) = -0.08381 0.03580
# Poissons Ratio (z) = 0.47708 0.02395
#
# Static dielectric constant tensor:
#      x y z
#    x 1.727440 0.000000 0.034550 
#    y 0.000000 1.759360 0.000000 
#    z 0.034550 0.000000 1.683510 
# 
# From -- ./inp_files/323627.got.cif
#   From: 2010.05.17/outbox.cif.g08.bks.cpg/sg12_162_cif.got.tgz:323627.got - 2010.06.03 13:09:07.
