data_PCOD9169116
_publ_section_title
;
Structure prediction by ZEFSAII (Michael W. Deem and Ramdas Pophale) SiO2 
 PCOD9169116
Probable space group: C 2/M
;
_chemical_formula_sum "Si O2"
_cell_formula_units_Z 42
_cell_length_a 26.019469
_cell_length_b 15.032586
_cell_length_c 5.052303
_cell_angle_alpha 90.000000
_cell_angle_beta 104.799273
_cell_angle_gamma 90.000000
_cell_volume 1910.601519
_symmetry_space_group_name_H-M "C 2/M"
_symmetry_group_IT_number 12
_symmetry_cell_setting 'monoclinic'
loop_
_space_group_symop_operation_xyz
x,y,z
-x,y,-z
-x,-y,-z
x,-y,z
1/2+x,1/2+y,z
1/2-x,1/2+y,-z
1/2-x,1/2-y,-z
1/2+x,1/2-y,z
loop_
_atom_site_type_symbol
_atom_site_label
_atom_site_fract_x
_atom_site_fract_y
_atom_site_fract_z
Si Si1 0.639015 0.500000 0.618106
Si Si2 0.446340 0.371363 0.271186
Si Si3 0.717284 0.838986 0.516577
Si Si4 0.791846 0.000000 0.789460
Si Si5 0.963346 0.336601 0.209503
Si Si6 0.154681 0.602924 0.910253
Si Si7 0.500000 0.500000 0.000000
O O1 0.603457 0.414330 0.647412
O O2 0.658654 0.500000 0.345905
O O3 0.689099 0.500000 0.883274
O O4 0.500000 0.399851 0.500000
O O5 0.447433 0.266481 0.241068
O O6 0.455716 0.422248 0.010035
O O7 0.750000 0.750000 0.500000
O O8 0.758265 0.912941 0.674335
O O9 0.673508 0.834712 0.692744
O O10 0.687940 0.871183 0.213007
O O11 0.907788 0.386956 0.115895
O O12 0.000000 0.367649 0.500000
O O13 0.000000 0.341352 0.000000
O O14 0.165334 0.500000 0.853371
#
# Coordination Sequence:
#
# PCOD9169116 Si02
#       7
#     4   8   8   4   8   8   2
#     4  11  26  36  67  97 135 176 223 273 336 405
#     4  10  23  38  59  90 137 181 218 266 338 409
#     4  12  27  48  75 100 142 183 235 287 352 413
#     4  12  26  45  65 105 133 170 229 296 327 409
#     4  11  25  43  67 101 136 170 229 282 332 415
#     4  12  25  49  75 101 138 187 227 289 360 412
#     4  10  16  36  60  78 126 184 206 266 332 396
#
# _framework density 21.982606000000001
#
# number of rings (size 3 to 8) (size 9 to 14) (size 15 to 20)
#    0.000    0.762    2.857    4.000   10.667    0.762 
#    0.000    0.000    0.000    0.000    0.000    0.000 
#    0.000    0.000    0.000    0.000    0.000    0.000 
#
# Total GULP energy -117302.747039 kJ/mol
# GULP energy per Si atom -5585.845097 kJ/mol
# Density = 2.193257 g / cm^3
# Si number density = 21.982606 Si / 1000 Ang^3
#
#
#
# Elastic Constant Matrix: (Units=GPa)
#
#
# Indices 1 2 3 4 5 6 
#
# 1 124.3383 35.8509 22.7403 0.0000 -4.8418 0.0000
# 2 35.8509 82.9160 15.8004 0.0000 23.6777 0.0000
# 3 22.7403 15.8004 80.7216 0.0000 5.3932 0.0000
# 4 0.0000 0.0000 0.0000 15.4785 0.0000 6.2647
# 5 -4.8418 23.6777 5.3932 0.0000 45.2912 0.0000
# 6 0.0000 0.0000 0.0000 6.2647 0.0000 39.3864
#
#
#
# Elastic Compliance Matrix: (Units=1/GPa)
#
#
# Indices 1 2 3 4 5 6 
#
# 1 0.010047 -0.005080 -0.002102 0.000000 0.003980 0.000000
# 2 -0.005080 0.017181 -0.001306 0.000000 -0.009370 0.000000
# 3 -0.002102 -0.001306 0.013311 0.000000 -0.001127 0.000000
# 4 0.000000 0.000000 0.000000 0.069051 0.000000 -0.010983
# 5 0.003980 -0.009370 -0.001127 0.000000 0.027537 0.000000
# 6 0.000000 0.000000 0.000000 -0.010983 0.000000 0.027136
#
#
# Mechanical properties :
#
#
# Convention : Reuss Voigt Hill
#
# Bulk Modulus (GPa) = 42.43800 48.52881 45.48341
# Shear Modulus (GPa) = 26.44180 34.27017 30.35599
#
# Velocity S-wave (km/s) = 3.47198 3.95266 3.72009
# Velocity P-wave (km/s) = 5.95147 6.55403 6.26000
#
# Compressibility (1/GPa) = 0.02356379
#
# Stress axis : x y z
#
# Youngs Moduli (GPa) = 99.53519 58.20255 75.12417
#
# Poissons Ratio (x) = 0.29567 0.15790
# Poissons Ratio (y) = 0.50564 0.09811
# Poissons Ratio (z) = 0.20921 0.07601
#
# Static dielectric constant tensor:
#      x y z
#    x 1.812610 0.000000 -0.025720 
#    y 0.000000 1.768250 0.000000 
#    z -0.025720 0.000000 1.906930 
# 
# From -- ./inp_files/24373.got.cif
#   From: 2010.05.17/outbox.cif.g08.bks.cpg/sg12_13_cif.got.tgz:24373.got - 2010.06.03 13:09:07.
