data_PCOD9169139
_publ_section_title
;
Structure prediction by ZEFSAII (Michael W. Deem and Ramdas Pophale) SiO2 
 PCOD9169139
Probable space group: C 2/M
;
_chemical_formula_sum "Si O2"
_cell_formula_units_Z 64
_cell_length_a 21.830536
_cell_length_b 9.190844
_cell_length_c 19.437113
_cell_angle_alpha 90.000000
_cell_angle_beta 96.556388
_cell_angle_gamma 90.000000
_cell_volume 3874.377407
_symmetry_space_group_name_H-M "C 2/M"
_symmetry_group_IT_number 12
_symmetry_cell_setting 'monoclinic'
loop_
_space_group_symop_operation_xyz
x,y,z
-x,y,-z
-x,-y,-z
x,-y,z
1/2+x,1/2+y,z
1/2-x,1/2+y,-z
1/2-x,1/2-y,-z
1/2+x,1/2-y,z
loop_
_atom_site_type_symbol
_atom_site_label
_atom_site_fract_x
_atom_site_fract_y
_atom_site_fract_z
Si Si1 0.602760 0.672748 0.628201
Si Si2 0.993641 0.331224 0.195039
Si Si3 0.296151 0.329717 0.102974
Si Si4 0.523879 0.826950 0.347624
Si Si5 0.340994 0.169924 0.975706
Si Si6 0.354328 0.171805 0.235405
Si Si7 0.455451 0.329643 0.928797
Si Si8 0.573817 0.832426 0.492853
O O1 0.608039 0.500000 0.632592
O O2 0.534121 0.726459 0.640887
O O3 0.645270 0.751010 0.690327
O O4 0.608922 0.730815 0.551003
O O5 0.000327 0.500000 0.174841
O O6 0.923348 0.311196 0.212002
O O7 0.035542 0.305946 0.268450
O O8 0.011293 0.228621 0.134989
O O9 0.312053 0.500000 0.110824
O O10 0.225081 0.317719 0.070357
O O11 0.309295 0.247588 0.175475
O O12 0.335383 0.255470 0.046974
O O13 0.575865 0.799229 0.411656
O O14 0.506305 0.000000 0.353018
O O15 0.394112 0.238928 0.936516
O O16 0.353006 0.000000 0.990914
O O17 0.342881 0.000000 0.240603
O O18 0.440973 0.500000 0.920503
O O19 0.500000 0.310307 0.000000
O O20 0.500000 0.823269 0.500000
O O21 0.591856 0.000000 0.506834
#
# Coordination Sequence:
#
# PCOD9169139 Si02
#       8
#     8   8   8   8   8   8   8   8
#     4  10  17  23  35  58  87 116 149 189 226 263
#     4   9  18  31  46  65  89 119 156 191 226 274
#     4  10  20  34  52  73  94 115 147 191 231 267
#     4   8  15  27  40  55  80 116 153 187 225 272
#     4  10  21  36  53  71  92 121 152 183 225 276
#     4  10  19  31  47  66  91 125 158 186 226 277
#     4  11  23  35  48  68  94 122 153 192 231 264
#     4   8  13  23  37  52  77 114 151 184 221 268
#
# _framework density 16.518784
#
# number of rings (size 3 to 8) (size 9 to 14) (size 15 to 20)
#    0.000    2.500    0.000    4.875    0.000    9.250 
#    0.000    0.000    0.000    0.000    0.000    0.000 
#    0.000    1.000    0.000    3.000    0.000    5.375 
#
# Total GULP energy -178343.548279 kJ/mol
# GULP energy per Si atom -5573.235884 kJ/mol
# Density = 1.648119 g / cm^3
# Si number density = 16.518784 Si / 1000 Ang^3
#
#
#
# Elastic Constant Matrix: (Units=GPa)
#
#
# Indices 1 2 3 4 5 6 
#
# 1 12.9638 19.7153 2.0477 0.0000 -1.4882 0.0000
# 2 19.7153 112.7725 65.3325 0.0000 11.0289 0.0000
# 3 2.0477 65.3325 110.4788 0.0000 16.6690 0.0000
# 4 0.0000 0.0000 0.0000 28.0312 0.0000 4.9476
# 5 -1.4882 11.0289 16.6690 0.0000 13.8166 0.0000
# 6 0.0000 0.0000 0.0000 4.9476 0.0000 13.4977
#
#
#
# Elastic Compliance Matrix: (Units=1/GPa)
#
#
# Indices 1 2 3 4 5 6 
#
# 1 0.126260 -0.031883 0.012986 0.000000 0.023383 0.000000
# 2 -0.031883 0.021562 -0.011058 0.000000 -0.007305 0.000000
# 3 0.012986 -0.011058 0.016880 0.000000 -0.010139 0.000000
# 4 0.000000 0.000000 0.000000 0.038142 0.000000 -0.013981
# 5 0.023383 -0.007305 -0.010139 0.000000 0.092959 0.000000
# 6 0.000000 0.000000 0.000000 -0.013981 0.000000 0.079212
#
#
# Mechanical properties :
#
#
# Convention : Reuss Voigt Hill
#
# Bulk Modulus (GPa) = 9.54274 45.60068 27.57171
# Shear Modulus (GPa) = 10.64162 21.01041 15.82601
#
# Velocity S-wave (km/s) = 2.54089 3.57025 3.09861
# Velocity P-wave (km/s) = 3.79442 6.68288 5.43408
#
# Compressibility (1/GPa) = 0.10479167
#
# Stress axis : x y z
#
# Youngs Moduli (GPa) = 7.92019 46.37826 59.24323
#
# Poissons Ratio (x) = 1.47870 -0.76935
# Poissons Ratio (y) = 0.25252 0.65509
# Poissons Ratio (z) = -0.10285 0.51283
#
# Static dielectric constant tensor:
#      x y z
#    x 1.540890 0.000000 0.012770 
#    y 0.000000 1.548000 0.000000 
#    z 0.012770 0.000000 1.598040 
# 
# From -- ./inp_files/287702.got.cif
#   From: 2010.05.17/outbox.cif.g08.bks.cpg/sg12_144_cif.got.tgz:287702.got - 2010.06.03 13:09:07.
