data_PCOD9169777
_publ_section_title
;
Structure prediction by ZEFSAII (Michael W. Deem and Ramdas Pophale) SiO2 
 PCOD9169777
Probable space group: C 2/M
;
_chemical_formula_sum "Si O2"
_cell_formula_units_Z 48
_cell_length_a 29.907410
_cell_length_b 7.366087
_cell_length_c 13.111774
_cell_angle_alpha 90.000000
_cell_angle_beta 54.124786
_cell_angle_gamma 90.000000
_cell_volume 2340.563265
_symmetry_space_group_name_H-M "C 2/M"
_symmetry_group_IT_number 12
_symmetry_cell_setting 'monoclinic'
loop_
_space_group_symop_operation_xyz
x,y,z
-x,y,-z
-x,-y,-z
x,-y,z
1/2+x,1/2+y,z
1/2-x,1/2+y,-z
1/2-x,1/2-y,-z
1/2+x,1/2-y,z
loop_
_atom_site_type_symbol
_atom_site_label
_atom_site_fract_x
_atom_site_fract_y
_atom_site_fract_z
Si Si1 0.690187 0.780933 0.747255
Si Si2 0.385222 0.221660 0.960738
Si Si3 0.003561 0.721235 0.876998
Si Si4 0.311116 0.217281 0.874585
Si Si5 0.377105 0.222298 0.360611
Si Si6 0.684791 0.211896 0.360104
O O1 0.663937 0.721004 0.675577
O O2 0.752615 0.722845 0.683016
O O3 0.689911 0.000000 0.747613
O O4 0.651550 0.722292 0.892925
O O5 0.448173 0.278780 0.893201
O O6 0.355681 0.283882 0.896998
O O7 0.384858 0.000000 0.960984
O O8 0.003919 0.500000 0.876997
O O9 0.060967 0.778856 0.750187
O O10 0.000000 0.777271 0.000000
O O11 0.316997 0.289484 0.751796
O O12 0.317177 0.000000 0.861609
O O13 0.250000 0.250000 0.000000
O O14 0.354927 0.286873 0.499156
O O15 0.376453 0.000000 0.361823
O O16 0.670346 0.000000 0.369957
#
# Coordination Sequence:
#
# PCOD9169777 Si02
#       6
#     8   8   8   8   8   8
#     4  10  17  28  48  70  92 118 151 189 221 264
#     4   9  16  26  43  68  90 111 150 192 220 255
#     4   9  14  24  43  66  90 116 147 187 227 262
#     4  10  19  31  46  65  92 122 151 185 223 266
#     4   9  17  28  43  67  96 121 148 184 229 272
#     4  10  20  31  43  66  99 125 145 181 232 275
#
# _framework density 20.507885000000002
#
# number of rings (size 3 to 8) (size 9 to 14) (size 15 to 20)
#    0.000    2.500    3.333    0.500    0.000    0.000 
#    0.000    0.833    0.000    5.000    0.000    5.833 
#    0.000    2.667    0.000    0.000    0.000    0.000 
#
# Total GULP energy -134051.455245 kJ/mol
# GULP energy per Si atom -5585.477302 kJ/mol
# Density = 2.046121 g / cm^3
# Si number density = 20.507885 Si / 1000 Ang^3
#
#
#
# Elastic Constant Matrix: (Units=GPa)
#
#
# Indices 1 2 3 4 5 6 
#
# 1 186.0255 1.0326 113.5790 0.0000 16.7736 0.0000
# 2 1.0326 74.8475 5.4829 0.0000 7.1091 -0.0001
# 3 113.5790 5.4829 208.0404 0.0000 23.6829 0.0000
# 4 0.0000 0.0000 0.0000 -3.4609 0.0000 -11.6633
# 5 16.7736 7.1091 23.6829 0.0000 26.4007 0.0000
# 6 0.0000 -0.0001 0.0000 -11.6633 0.0000 5.7555
#
#
#
# Elastic Compliance Matrix: (Units=1/GPa)
#
#
# Indices 1 2 3 4 5 6 
#
# 1 0.008112 0.000335 -0.004278 0.000000 -0.001407 0.000000
# 2 0.000335 0.013726 -0.000111 0.000000 -0.003809 0.000000
# 3 -0.004278 -0.000111 0.007609 0.000000 -0.004078 0.000000
# 4 0.000000 0.000000 0.000000 -0.036906 0.000000 -0.074788
# 5 -0.001407 -0.003809 -0.004078 0.000000 0.043456 0.000000
# 6 0.000000 0.000000 0.000000 -0.074788 0.000000 0.022192
#
#
# Mechanical properties :
#
#
# Convention : Reuss Voigt Hill
#
# Bulk Modulus (GPa) = 46.85944 78.78915 62.82430
# Shear Modulus (GPa) = 68.11042 28.99366 48.55204
#
# Velocity S-wave (km/s) = 5.76922 3.76411 4.87096
# Velocity P-wave (km/s) = 8.20229 7.57586 7.89529
#
# Compressibility (1/GPa) = 0.02134042
#
# Stress axis : x y z
#
# Youngs Moduli (GPa) = 123.26967 72.85534 131.41896
#
# Poissons Ratio (x) = -0.02441 0.56215
# Poissons Ratio (y) = -0.04131 0.01459
# Poissons Ratio (z) = 0.52729 0.00809
#
# Static dielectric constant tensor:
#      x y z
#    x 1.694080 0.000000 0.020710 
#    y 0.000000 1.840480 0.000000 
#    z 0.020710 0.000000 1.702520 
# 
# From -- ./inp_files/164124.got.cif
#   From: 2010.05.17/outbox.cif.g08.bks.cpg/sg12_83_cif.got.tgz:164124.got - 2010.06.03 13:09:07.
