data_PCOD9169910
_publ_section_title
;
Structure prediction by ZEFSAII (Michael W. Deem and Ramdas Pophale) SiO2 
 PCOD9169910
Probable space group: C 2/M
;
_chemical_formula_sum "Si O2"
_cell_formula_units_Z 64
_cell_length_a 30.136285
_cell_length_b 7.486726
_cell_length_c 17.567444
_cell_angle_alpha 90.000000
_cell_angle_beta 63.590246
_cell_angle_gamma 90.000000
_cell_volume 3549.946422
_symmetry_space_group_name_H-M "C 2/M"
_symmetry_group_IT_number 12
_symmetry_cell_setting 'monoclinic'
loop_
_space_group_symop_operation_xyz
x,y,z
-x,y,-z
-x,-y,-z
x,-y,z
1/2+x,1/2+y,z
1/2-x,1/2+y,-z
1/2-x,1/2-y,-z
1/2+x,1/2-y,z
loop_
_atom_site_type_symbol
_atom_site_label
_atom_site_fract_x
_atom_site_fract_y
_atom_site_fract_z
Si Si1 0.048655 0.718706 0.914283
Si Si2 0.925594 0.714101 0.596532
Si Si3 0.243236 0.285711 0.914964
Si Si4 0.633943 0.783701 0.961750
Si Si5 0.921557 0.208757 0.839843
Si Si6 0.033580 0.298068 0.757134
Si Si7 0.527293 0.218917 0.595910
Si Si8 0.345807 0.711835 0.772179
O O1 0.046563 0.500000 0.913876
O O2 0.098742 0.772476 0.919264
O O3 0.047646 0.783159 0.827830
O O4 0.000000 0.774232 0.000000
O O5 0.928424 0.500000 0.593661
O O6 0.938607 0.773626 0.501185
O O7 0.872528 0.763125 0.671187
O O8 0.971191 0.775428 0.616056
O O9 0.241740 0.500000 0.908148
O O10 0.190472 0.218695 0.924333
O O11 0.291154 0.217794 0.832172
O O12 0.250000 0.250000 0.000000
O O13 0.634738 0.000000 0.960300
O O14 0.606406 0.725716 0.059327
O O15 0.885015 0.284203 0.803687
O O16 0.973884 0.304184 0.803705
O O17 0.931661 0.000000 0.816791
O O18 0.053892 0.500000 0.741186
O O19 0.044331 0.217181 0.665847
O O20 0.526674 0.000000 0.599309
O O21 0.343070 0.500000 0.788370
#
# Coordination Sequence:
#
# PCOD9169910 Si02
#       8
#     8   8   8   8   8   8   8   8
#     4   9  16  26  44  69  88 107 147 189 211 248
#     4   9  16  28  45  65  86 111 145 178 212 262
#     4  10  20  32  46  63  87 116 149 183 216 257
#     4  10  19  32  47  62  84 118 153 183 216 251
#     4  11  20  28  41  63  93 118 145 182 213 252
#     4  10  17  29  47  64  88 120 148 176 215 258
#     4   8  15  26  43  66  88 110 141 179 215 252
#     4  10  20  31  41  62  91 117 144 179 216 254
#
# _framework density 18.028441000000001
#
# number of rings (size 3 to 8) (size 9 to 14) (size 15 to 20)
#    0.000    2.375    3.750    1.125    0.000    1.000 
#    0.000    3.125    0.000    0.000    0.000    0.875 
#    0.000    0.000    0.000    0.000    0.000    0.000 
#
# Total GULP energy -178450.828748 kJ/mol
# GULP energy per Si atom -5576.588398 kJ/mol
# Density = 1.798741 g / cm^3
# Si number density = 18.028441 Si / 1000 Ang^3
#
#
#
# Elastic Constant Matrix: (Units=GPa)
#
#
# Indices 1 2 3 4 5 6 
#
# 1 114.6887 3.9788 67.3988 0.0000 6.2411 0.0000
# 2 3.9788 52.4501 -3.7943 -0.0002 2.0824 -0.0006
# 3 67.3988 -3.7943 148.6932 0.0000 8.2279 0.0000
# 4 0.0000 -0.0002 0.0000 10.2669 0.0000 -5.9388
# 5 6.2411 2.0824 8.2279 0.0000 28.5749 0.0000
# 6 0.0000 -0.0006 0.0000 -5.9388 0.0000 3.1566
#
#
#
# Elastic Compliance Matrix: (Units=1/GPa)
#
#
# Indices 1 2 3 4 5 6 
#
# 1 0.012000 -0.001264 -0.005418 0.000002 -0.000969 0.000003
# 2 -0.001264 0.019303 0.001146 -0.000028 -0.001461 -0.000049
# 3 -0.005418 0.001146 0.009298 -0.000001 -0.001577 -0.000003
# 4 0.000002 -0.000028 -0.000001 -1.103220 0.000003 -2.075613
# 5 -0.000969 -0.001461 -0.001577 0.000003 0.035768 0.000006
# 6 0.000003 -0.000049 -0.000003 -2.075613 0.000006 -3.588285
#
#
# Mechanical properties :
#
#
# Convention : Reuss Voigt Hill
#
# Bulk Modulus (GPa) = 33.86491 50.11095 41.98793
# Shear Modulus (GPa) = -1.08832 24.94958 11.93063
#
# Velocity S-wave (km/s) = -0.77781 3.72412 2.57527
# Velocity P-wave (km/s) = 4.24480 6.80793 5.67302
#
# Compressibility (1/GPa) = 0.02952909
#
# Stress axis : x y z
#
# Youngs Moduli (GPa) = 83.33567 51.80667 107.55541
#
# Poissons Ratio (x) = 0.06547 0.58271
# Poissons Ratio (y) = 0.10531 -0.12328
# Poissons Ratio (z) = 0.45149 -0.05938
#
# Static dielectric constant tensor:
#      x y z
#    x 1.612170 0.000000 0.007120 
#    y 0.000000 1.684850 0.000000 
#    z 0.007120 0.000000 1.642240 
# 
# From -- ./inp_files/294568.got.cif
#   From: 2010.05.17/outbox.cif.g08.bks.cpg/sg12_148_cif.got.tgz:294568.got - 2010.06.03 13:09:07.
