data_PCOD9169483
_publ_section_title
;
Structure prediction by ZEFSAII (Michael W. Deem and Ramdas Pophale) SiO2 
 PCOD9169483
Probable space group: C 2/M
;
_chemical_formula_sum "Si O2"
_cell_formula_units_Z 64
_cell_length_a 27.226502
_cell_length_b 8.889003
_cell_length_c 20.212543
_cell_angle_alpha 90.000000
_cell_angle_beta 120.269287
_cell_angle_gamma 90.000000
_cell_volume 4224.853145
_symmetry_space_group_name_H-M "C 2/M"
_symmetry_group_IT_number 12
_symmetry_cell_setting 'monoclinic'
loop_
_space_group_symop_operation_xyz
x,y,z
-x,y,-z
-x,-y,-z
x,-y,z
1/2+x,1/2+y,z
1/2-x,1/2+y,-z
1/2-x,1/2-y,-z
1/2+x,1/2-y,z
loop_
_atom_site_type_symbol
_atom_site_label
_atom_site_fract_x
_atom_site_fract_y
_atom_site_fract_z
Si Si1 0.712978 0.179830 0.033087
Si Si2 0.261872 0.819284 0.671450
Si Si3 0.803047 0.180378 0.497025
Si Si4 0.419304 0.180176 0.049035
Si Si5 0.781276 0.174547 0.822382
Si Si6 0.130613 0.819788 0.334825
Si Si7 0.918373 0.173823 0.908615
Si Si8 0.532605 0.178028 0.188236
O O1 0.731100 0.243935 0.116856
O O2 0.718085 0.000000 0.036446
O O3 0.750000 0.250000 0.000000
O O4 0.645882 0.217717 0.978511
O O5 0.209016 0.777630 0.587162
O O6 0.256030 0.753136 0.740499
O O7 0.319143 0.753390 0.675800
O O8 0.267185 0.000000 0.677866
O O9 0.750000 0.250000 0.500000
O O10 0.856445 0.220973 0.579603
O O11 0.798938 0.000000 0.496637
O O12 0.465828 0.216042 0.136446
O O13 0.422247 0.000000 0.038727
O O14 0.435034 0.265116 0.991965
O O15 0.849770 0.180674 0.860049
O O16 0.764650 0.000000 0.814459
O O17 0.070367 0.762879 0.267729
O O18 0.134336 0.000000 0.329541
O O19 0.941871 0.274880 0.865595
O O20 0.935547 0.000000 0.911225
O O21 0.538722 0.000000 0.202010
#
# Coordination Sequence:
#
# PCOD9169483 Si02
#       8
#     8   8   8   8   8   8   8   8
#     4  10  20  36  54  69  88 113 143 182 228 272
#     4  10  17  27  43  62  85 117 153 188 222 261
#     4   8  16  27  39  56  81 114 152 187 221 257
#     4   9  20  34  46  62  85 114 146 180 220 265
#     4  10  19  30  45  67  92 118 149 184 222 263
#     4  10  18  28  40  58  86 120 154 189 223 256
#     4  10  19  29  42  61  87 116 148 185 220 253
#     4  11  20  29  42  60  86 119 153 184 215 258
#
# _framework density 15.148455999999999
#
# number of rings (size 3 to 8) (size 9 to 14) (size 15 to 20)
#    0.000    2.250    1.250    2.625    0.000    5.000 
#    0.000    0.000    0.000    0.000    0.000    0.000 
#    0.000    1.000    0.000   11.500    0.000    3.500 
#
# Total GULP energy -178338.494786 kJ/mol
# GULP energy per Si atom -5573.077962 kJ/mol
# Density = 1.511398 g / cm^3
# Si number density = 15.148456 Si / 1000 Ang^3
#
#
#
# Elastic Constant Matrix: (Units=GPa)
#
#
# Indices 1 2 3 4 5 6 
#
# 1 46.6407 26.4516 43.0115 0.0000 -10.2019 0.0000
# 2 26.4516 53.7010 51.0379 0.0000 -3.5697 0.0000
# 3 43.0115 51.0379 163.2300 0.0000 -5.2290 0.0000
# 4 0.0000 0.0000 0.0000 23.9949 0.0000 -2.1376
# 5 -10.2019 -3.5697 -5.2290 0.0000 15.0594 0.0000
# 6 0.0000 0.0000 0.0000 -2.1376 0.0000 17.2393
#
#
#
# Elastic Compliance Matrix: (Units=1/GPa)
#
#
# Indices 1 2 3 4 5 6 
#
# 1 0.037981 -0.012012 -0.005581 0.000000 0.020945 0.000000
# 2 -0.012012 0.030471 -0.006464 0.000000 -0.003158 0.000000
# 3 -0.005581 -0.006464 0.009554 0.000000 -0.001996 0.000000
# 4 0.000000 0.000000 0.000000 0.042141 0.000000 0.005225
# 5 0.020945 -0.003158 -0.001996 0.000000 0.079151 0.000000
# 6 0.000000 0.000000 0.000000 0.005225 0.000000 0.058655
#
#
# Mechanical properties :
#
#
# Convention : Reuss Voigt Hill
#
# Bulk Modulus (GPa) = 33.45235 56.06375 44.75805
# Shear Modulus (GPa) = 15.82119 20.79675 18.30897
#
# Velocity S-wave (km/s) = 3.23524 3.70924 3.48032
# Velocity P-wave (km/s) = 6.00722 7.44543 6.76465
#
# Compressibility (1/GPa) = 0.02989327
#
# Stress axis : x y z
#
# Youngs Moduli (GPa) = 26.32884 32.81762 104.66635
#
# Poissons Ratio (x) = 0.39419 0.58419
# Poissons Ratio (y) = 0.31625 0.67654
# Poissons Ratio (z) = 0.14695 0.21213
#
# Static dielectric constant tensor:
#      x y z
#    x 1.465320 0.000000 0.017760 
#    y 0.000000 1.512590 0.000000 
#    z 0.017760 0.000000 1.551840 
# 
# From -- ./inp_files/326985.got.cif
#   From: 2010.05.17/outbox.cif.g08.bks.cpg/sg12_164_cif.got.tgz:326985.got - 2010.06.03 13:09:07.
