data_PCOD9169250
_publ_section_title
;
Structure prediction by ZEFSAII (Michael W. Deem and Ramdas Pophale) SiO2 
 PCOD9169250
Probable space group: C 2/M
;
_chemical_formula_sum "Si O2"
_cell_formula_units_Z 64
_cell_length_a 22.355710
_cell_length_b 18.606627
_cell_length_c 8.331432
_cell_angle_alpha 90.000000
_cell_angle_beta 96.652980
_cell_angle_gamma 90.000000
_cell_volume 3442.241763
_symmetry_space_group_name_H-M "C 2/M"
_symmetry_group_IT_number 12
_symmetry_cell_setting 'monoclinic'
loop_
_space_group_symop_operation_xyz
x,y,z
-x,y,-z
-x,-y,-z
x,-y,z
1/2+x,1/2+y,z
1/2-x,1/2+y,-z
1/2-x,1/2-y,-z
1/2+x,1/2-y,z
loop_
_atom_site_type_symbol
_atom_site_label
_atom_site_fract_x
_atom_site_fract_y
_atom_site_fract_z
Si Si1 0.550798 0.415877 0.891219
Si Si2 0.176233 0.316057 0.415493
Si Si3 0.069125 0.237653 0.517032
Si Si4 0.060372 0.918323 0.358607
Si Si5 0.747486 0.214082 0.775278
Si Si6 0.150202 0.813168 0.809731
Si Si7 0.819494 0.078852 0.774649
Si Si8 0.272734 0.419812 0.390705
O O1 0.564284 0.500000 0.922287
O O2 0.509463 0.414354 0.716295
O O3 0.610061 0.367685 0.900324
O O4 0.500000 0.390391 0.000000
O O5 0.107967 0.293408 0.424474
O O6 0.200600 0.264265 0.282658
O O7 0.208801 0.300426 0.597993
O O8 0.203595 0.393128 0.377174
O O9 0.073965 0.155482 0.454073
O O10 0.099623 0.232327 0.699965
O O11 0.000000 0.257617 0.500000
O O12 0.108473 0.915063 0.226341
O O13 0.070193 0.000000 0.429578
O O14 0.700341 0.254761 0.876424
O O15 0.780472 0.141672 0.842487
O O16 0.188410 0.863563 0.699421
O O17 0.797935 0.080806 0.580453
O O18 0.805539 0.000000 0.836935
O O19 0.279023 0.500000 0.328572
#
# Coordination Sequence:
#
# PCOD9169250 Si02
#       8
#     8   8   8   8   8   8   8   8
#     4  10  21  33  40  51  78 112 137 156 184 227
#     4   8  14  23  33  52  83 108 126 152 190 234
#     4  11  17  24  38  61  84 102 126 159 196 229
#     4  10  18  26  39  58  79 105 129 156 191 229
#     4   8  13  23  36  54  80 106 127 153 192 230
#     4  10  17  25  41  60  80 104 131 161 190 227
#     4   9  14  22  38  61  86 105 123 155 198 234
#     4   9  15  23  38  59  81 105 131 159 191 228
#
# _framework density 18.592535000000002
#
# number of rings (size 3 to 8) (size 9 to 14) (size 15 to 20)
#    0.000    2.625    3.750    1.875    0.000    0.750 
#    0.000    0.000    0.000    1.125    0.000    0.000 
#    0.000    0.500    0.000    0.000    0.000    0.125 
#
# Total GULP energy -178242.980050 kJ/mol
# GULP energy per Si atom -5570.093127 kJ/mol
# Density = 1.855022 g / cm^3
# Si number density = 18.592535 Si / 1000 Ang^3
#
#
#
# Elastic Constant Matrix: (Units=GPa)
#
#
# Indices 1 2 3 4 5 6 
#
# 1 159.5588 61.8199 21.0928 0.0000 -9.4396 0.0000
# 2 61.8199 71.9011 10.1991 0.0000 -2.5862 0.0000
# 3 21.0928 10.1991 19.4407 0.0000 -4.3511 0.0000
# 4 0.0000 0.0000 0.0000 18.8474 0.0000 -9.0153
# 5 -9.4396 -2.5862 -4.3511 0.0000 26.2188 0.0000
# 6 0.0000 0.0000 0.0000 -9.0153 0.0000 39.5884
#
#
#
# Elastic Compliance Matrix: (Units=1/GPa)
#
#
# Indices 1 2 3 4 5 6 
#
# 1 0.010291 -0.007840 -0.006643 0.000000 0.001829 0.000000
# 2 -0.007840 0.021000 -0.002782 0.000000 -0.001213 0.000000
# 3 -0.006643 -0.002782 0.061805 0.000000 0.007591 0.000000
# 4 0.000000 0.000000 0.000000 0.059544 0.000000 0.013560
# 5 0.001829 -0.001213 0.007591 0.000000 0.039939 0.000000
# 6 0.000000 0.000000 0.000000 0.013560 0.000000 0.028348
#
#
# Mechanical properties :
#
#
# Convention : Reuss Voigt Hill
#
# Bulk Modulus (GPa) = 17.07509 48.56934 32.82221
# Shear Modulus (GPa) = 18.18318 27.45020 22.81669
#
# Velocity S-wave (km/s) = 3.13066 3.84658 3.50694
# Velocity P-wave (km/s) = 4.71931 6.77554 5.83866
#
# Compressibility (1/GPa) = 0.05856486
#
# Stress axis : x y z
#
# Youngs Moduli (GPa) = 97.16875 47.61909 16.17999
#
# Poissons Ratio (x) = 0.37335 0.10749
# Poissons Ratio (y) = 0.76183 0.04501
# Poissons Ratio (z) = 0.64552 0.13248
#
# Static dielectric constant tensor:
#      x y z
#    x 1.660030 0.000000 0.027300 
#    y 0.000000 1.649080 0.000000 
#    z 0.027300 0.000000 1.764000 
# 
# From -- ./inp_files/89167.got.cif
#   From: 2010.05.17/outbox.cif.g08.bks.cpg/sg12_45_cif.got.tgz:89167.got - 2010.06.03 13:09:07.
