data_PCOD9169157
_publ_section_title
;
Structure prediction by ZEFSAII (Michael W. Deem and Ramdas Pophale) SiO2 
 PCOD9169157
Probable space group: C 2/M
;
_chemical_formula_sum "Si O2"
_cell_formula_units_Z 64
_cell_length_a 29.257260
_cell_length_b 8.863542
_cell_length_c 20.846315
_cell_angle_alpha 90.000000
_cell_angle_beta 53.277941
_cell_angle_gamma 90.000000
_cell_volume 4333.097219
_symmetry_space_group_name_H-M "C 2/M"
_symmetry_group_IT_number 12
_symmetry_cell_setting 'monoclinic'
loop_
_space_group_symop_operation_xyz
x,y,z
-x,y,-z
-x,-y,-z
x,-y,z
1/2+x,1/2+y,z
1/2-x,1/2+y,-z
1/2-x,1/2-y,-z
1/2+x,1/2-y,z
loop_
_atom_site_type_symbol
_atom_site_label
_atom_site_fract_x
_atom_site_fract_y
_atom_site_fract_z
Si Si1 0.951149 0.819527 0.959230
Si Si2 0.100140 0.181034 0.517386
Si Si3 0.024043 0.680241 0.191198
Si Si4 0.687477 0.680490 0.554228
Si Si5 0.108768 0.679865 0.727236
Si Si6 0.565274 0.174341 0.419142
Si Si7 0.074370 0.681048 0.893801
Si Si8 0.526816 0.679860 0.325021
O O1 0.941772 0.759369 0.895307
O O2 0.013677 0.752801 0.924246
O O3 0.951829 0.000000 0.960974
O O4 0.911624 0.752511 0.049029
O O5 0.150075 0.227904 0.523657
O O6 0.101834 0.256117 0.446179
O O7 0.039035 0.218313 0.601327
O O8 0.101344 0.000000 0.508772
O O9 0.029386 0.500000 0.181243
O O10 0.041257 0.738809 0.246541
O O11 0.956459 0.717397 0.238534
O O12 0.690898 0.500000 0.550839
O O13 0.750000 0.750000 0.500000
O O14 0.652752 0.734002 0.645736
O O15 0.115695 0.500000 0.712504
O O16 0.113917 0.712113 0.799026
O O17 0.500000 0.181677 0.500000
O O18 0.564443 0.264993 0.353434
O O19 0.579451 0.000000 0.396221
O O20 0.068030 0.500000 0.904758
O O21 0.530398 0.500000 0.314737
#
# Coordination Sequence:
#
# PCOD9169157 Si02
#       8
#     8   8   8   8   8   8   8   8
#     4  10  17  24  36  56  79 106 138 170 203 243
#     4   9  18  31  44  59  79 106 137 175 216 253
#     4  10  18  27  40  58  83 112 141 174 209 248
#     4  11  22  34  47  63  83 108 142 182 223 260
#     4   9  18  30  44  59  77 105 139 176 216 254
#     4   9  17  27  41  61  81 105 136 169 207 251
#     4   9  16  27  40  55  76 103 135 171 208 247
#     4  10  17  27  42  61  84 109 140 174 209 250
#
# _framework density 14.770035
#
# number of rings (size 3 to 8) (size 9 to 14) (size 15 to 20)
#    0.000    2.375    1.250    4.500    0.000    5.500 
#    0.000    0.000    0.000    0.000    0.000    0.000 
#    0.000    0.000    0.000    1.125    0.000   14.750 
#
# Total GULP energy -178276.806819 kJ/mol
# GULP energy per Si atom -5571.150213 kJ/mol
# Density = 1.473642 g / cm^3
# Si number density = 14.770035 Si / 1000 Ang^3
#
#
#
# Elastic Constant Matrix: (Units=GPa)
#
#
# Indices 1 2 3 4 5 6 
#
# 1 62.8330 32.7541 53.2602 0.0000 19.4451 0.0003
# 2 32.7541 65.1141 48.9835 -0.0059 16.7808 0.0030
# 3 53.2602 48.9835 96.1895 0.0001 33.4600 -0.0003
# 4 0.0000 -0.0059 0.0001 26.6365 0.0001 8.5898
# 5 19.4451 16.7808 33.4600 0.0001 24.4637 0.0002
# 6 0.0003 0.0030 -0.0003 8.5898 0.0002 18.0947
#
#
#
# Elastic Compliance Matrix: (Units=1/GPa)
#
#
# Indices 1 2 3 4 5 6 
#
# 1 0.030786 -0.004331 -0.014044 -0.000001 -0.002292 0.000001
# 2 -0.004331 0.025507 -0.010878 0.000008 0.000824 -0.000008
# 3 -0.014044 -0.010878 0.032873 -0.000004 -0.026338 0.000005
# 4 -0.000001 0.000008 -0.000004 0.044329 0.000000 -0.021043
# 5 -0.002292 0.000824 -0.026338 0.000000 0.078157 -0.000002
# 6 0.000001 -0.000008 0.000005 -0.021043 -0.000002 0.065254
#
#
# Mechanical properties :
#
#
# Convention : Reuss Voigt Hill
#
# Bulk Modulus (GPa) = 32.61404 54.90357 43.75880
# Shear Modulus (GPa) = 14.46632 19.78157 17.12394
#
# Velocity S-wave (km/s) = 3.13299 3.66362 3.40865
# Velocity P-wave (km/s) = 5.93436 7.42625 6.72182
#
# Compressibility (1/GPa) = 0.03066165
#
# Stress axis : x y z
#
# Youngs Moduli (GPa) = 32.48218 39.20512 30.42006
#
# Poissons Ratio (x) = 0.16980 0.42720
# Poissons Ratio (y) = 0.14068 0.33090
# Poissons Ratio (z) = 0.45616 0.42646
#
# Static dielectric constant tensor:
#      x y z
#    x 1.471470 0.000000 0.035100 
#    y 0.000000 1.489780 0.000000 
#    z 0.035100 0.000000 1.507680 
# 
# From -- ./inp_files/326572.got.cif
#   From: 2010.05.17/outbox.cif.g08.bks.cpg/sg12_164_cif.got.tgz:326572.got - 2010.06.03 13:09:07.
