data_PCOD9169870
_publ_section_title
;
Structure prediction by ZEFSAII (Michael W. Deem and Ramdas Pophale) SiO2 
 PCOD9169870
Probable space group: C 2/M
;
_chemical_formula_sum "Si O2"
_cell_formula_units_Z 56
_cell_length_a 6.967090
_cell_length_b 28.552039
_cell_length_c 12.327486
_cell_angle_alpha 90.000000
_cell_angle_beta 86.953357
_cell_angle_gamma 90.000000
_cell_volume 2448.774534
_symmetry_space_group_name_H-M "C 2/M"
_symmetry_group_IT_number 12
_symmetry_cell_setting 'monoclinic'
loop_
_space_group_symop_operation_xyz
x,y,z
-x,y,-z
-x,-y,-z
x,-y,z
1/2+x,1/2+y,z
1/2-x,1/2+y,-z
1/2-x,1/2-y,-z
1/2+x,1/2-y,z
loop_
_atom_site_type_symbol
_atom_site_label
_atom_site_fract_x
_atom_site_fract_y
_atom_site_fract_z
Si Si1 0.265207 0.910293 0.731571
Si Si2 0.373672 0.134018 0.396578
Si Si3 0.735371 0.950210 0.492764
Si Si4 0.776421 0.552563 0.976258
Si Si5 0.231844 0.346198 0.967543
Si Si6 0.861038 0.291817 0.236932
Si Si7 0.191658 0.186246 0.802336
O O1 0.482517 0.893304 0.691518
O O2 0.205401 0.942472 0.633212
O O3 0.261151 0.934714 0.848778
O O4 0.144554 0.862091 0.743366
O O5 0.500000 0.146328 0.500000
O O6 0.220171 0.095668 0.439518
O O7 0.292679 0.180709 0.345205
O O8 0.500000 0.951240 0.500000
O O9 0.798449 0.000000 0.535339
O O10 0.701572 0.500000 0.001281
O O11 0.704455 0.599246 0.042208
O O12 0.000000 0.550419 0.000000
O O13 0.253127 0.313563 0.861886
O O14 0.330312 0.323197 0.069302
O O15 0.000000 0.347629 0.000000
O O16 0.877440 0.236091 0.237151
O O17 0.079436 0.307986 0.217204
#
# Coordination Sequence:
#
# PCOD9169870 Si02
#       7
#     8   8   8   8   8   8   8
#     4   8  14  24  34  51  76 102 127 162 196 228
#     4   8  15  25  36  54  79 105 132 162 197 232
#     4   8  13  22  36  53  75 104 132 155 189 239
#     4   9  14  19  31  52  77 103 126 152 195 244
#     4   8  15  26  38  56  81 106 131 161 197 237
#     4  10  17  29  42  57  81 109 133 164 199 231
#     4   9  17  27  43  60  80 106 135 162 198 236
#
# _framework density 22.868583999999998
#
# number of rings (size 3 to 8) (size 9 to 14) (size 15 to 20)
#    0.000    3.714    0.000    3.429    0.000    0.571 
#    0.000    7.143    0.000    0.000    0.000    0.000 
#    0.000   17.143    0.000    0.000    0.000    0.000 
#
# Total GULP energy -156047.781199 kJ/mol
# GULP energy per Si atom -5573.135043 kJ/mol
# Density = 2.281653 g / cm^3
# Si number density = 22.868584 Si / 1000 Ang^3
#
#
#
# Elastic Constant Matrix: (Units=GPa)
#
#
# Indices 1 2 3 4 5 6 
#
# 1 56.4697 -0.6437 -1.5105 0.0000 1.4327 0.0000
# 2 -0.6437 198.0727 59.5336 0.0000 8.7164 0.0000
# 3 -1.5105 59.5336 66.1230 0.0000 0.4544 0.0000
# 4 0.0000 0.0000 0.0000 27.8392 0.0000 7.5030
# 5 1.4327 8.7164 0.4544 0.0000 11.7629 0.0000
# 6 0.0000 0.0000 0.0000 7.5030 0.0000 -21.4556
#
#
#
# Elastic Compliance Matrix: (Units=1/GPa)
#
#
# Indices 1 2 3 4 5 6 
#
# 1 0.017775 0.000039 0.000386 0.000000 -0.002209 0.000000
# 2 0.000039 0.007215 -0.006460 0.000000 -0.005101 0.000000
# 3 0.000386 -0.006460 0.020921 0.000000 0.003932 0.000000
# 4 0.000000 0.000000 0.000000 0.032827 0.000000 0.011480
# 5 -0.002209 -0.005101 0.003932 0.000000 0.088910 0.000000
# 6 0.000000 0.000000 0.000000 0.011480 0.000000 -0.042594
#
#
# Mechanical properties :
#
#
# Convention : Reuss Voigt Hill
#
# Bulk Modulus (GPa) = 29.54913 48.38046 38.96480
# Shear Modulus (GPa) = 33.69149 21.18171 27.43660
#
# Velocity S-wave (km/s) = 3.84248 3.04671 3.46750
# Velocity P-wave (km/s) = 5.71275 5.79469 5.75386
#
# Compressibility (1/GPa) = 0.03384194
#
# Stress axis : x y z
#
# Youngs Moduli (GPa) = 56.25747 138.60191 47.79809
#
# Poissons Ratio (x) = -0.00539 -0.01846
# Poissons Ratio (y) = -0.00219 0.30877
# Poissons Ratio (z) = -0.02173 0.89536
#
# Static dielectric constant tensor:
#      x y z
#    x 1.990900 0.000000 -0.023300 
#    y 0.000000 1.925630 0.000000 
#    z -0.023300 0.000000 1.846460 
# 
# From -- ./inp_files/136334.got.cif
#   From: 2010.05.17/outbox.cif.g08.bks.cpg/sg12_69_cif.got.tgz:136334.got - 2010.06.03 13:09:07.
