data_PCOD9169326
_publ_section_title
;
Structure prediction by ZEFSAII (Michael W. Deem and Ramdas Pophale) SiO2 
 PCOD9169326
Probable space group: C 2/M
;
_chemical_formula_sum "Si O2"
_cell_formula_units_Z 56
_cell_length_a 28.379201
_cell_length_b 8.045973
_cell_length_c 15.118413
_cell_angle_alpha 90.000000
_cell_angle_beta 76.797701
_cell_angle_gamma 90.000000
_cell_volume 3360.872264
_symmetry_space_group_name_H-M "C 2/M"
_symmetry_group_IT_number 12
_symmetry_cell_setting 'monoclinic'
loop_
_space_group_symop_operation_xyz
x,y,z
-x,y,-z
-x,-y,-z
x,-y,z
1/2+x,1/2+y,z
1/2-x,1/2+y,-z
1/2-x,1/2-y,-z
1/2+x,1/2-y,z
loop_
_atom_site_type_symbol
_atom_site_label
_atom_site_fract_x
_atom_site_fract_y
_atom_site_fract_z
Si Si1 0.957596 0.199740 0.399665
Si Si2 0.542685 0.798804 0.117105
Si Si3 0.373100 0.694315 0.788221
Si Si4 0.064491 0.299927 0.783414
Si Si5 0.613273 0.797774 0.932990
Si Si6 0.305099 0.195620 0.969248
Si Si7 0.933511 0.796431 0.604345
O O1 0.932216 0.251436 0.320173
O O2 0.932978 0.255117 0.502058
O O3 0.013919 0.256363 0.379700
O O4 0.959013 0.000000 0.401292
O O5 0.579339 0.720552 0.171761
O O6 0.488330 0.743746 0.159197
O O7 0.544770 0.000000 0.125733
O O8 0.565436 0.760177 0.011793
O O9 0.362774 0.500000 0.783389
O O10 0.329517 0.768842 0.863808
O O11 0.389953 0.762023 0.685647
O O12 0.064504 0.500000 0.787144
O O13 0.104312 0.239557 0.836888
O O14 0.616782 0.000000 0.929228
O O15 0.659024 0.733313 0.969812
O O16 0.305881 0.000000 0.981110
O O17 0.250000 0.250000 0.000000
O O18 0.933139 0.000000 0.606835
#
# Coordination Sequence:
#
# PCOD9169326 Si02
#       7
#     8   8   8   8   8   8   8
#     4   9  16  28  42  59  87 125 160 188 216 253
#     4   9  16  26  40  60  88 122 154 182 212 254
#     4  10  17  28  47  68  89 118 153 187 221 262
#     4  10  17  26  41  63  89 120 154 185 216 255
#     4   8  16  29  44  61  86 119 149 175 217 274
#     4  10  20  35  52  70  90 114 143 183 229 274
#     4   8  15  27  43  60  86 124 159 184 217 262
#
# _framework density 16.662341000000001
#
# number of rings (size 3 to 8) (size 9 to 14) (size 15 to 20)
#    0.000    2.857    1.429    3.000    0.000    1.714 
#    0.000    6.429    0.000    4.286    0.000    1.000 
#    0.000    0.000    0.000    0.000    0.000    0.000 
#
# Total GULP energy -155921.634532 kJ/mol
# GULP energy per Si atom -5568.629805 kJ/mol
# Density = 1.662442 g / cm^3
# Si number density = 16.662341 Si / 1000 Ang^3
#
#
#
# Elastic Constant Matrix: (Units=GPa)
#
#
# Indices 1 2 3 4 5 6 
#
# 1 74.7311 9.9164 70.3980 0.0000 -6.6860 0.0000
# 2 9.9164 9.7640 7.7986 0.0000 -1.7595 0.0000
# 3 70.3980 7.7986 146.2526 0.0000 7.6410 0.0000
# 4 0.0000 0.0000 0.0000 20.5003 0.0000 1.6146
# 5 -6.6860 -1.7595 7.6410 0.0000 21.0109 0.0000
# 6 0.0000 0.0000 0.0000 1.6146 0.0000 21.3916
#
#
#
# Elastic Compliance Matrix: (Units=1/GPa)
#
#
# Indices 1 2 3 4 5 6 
#
# 1 0.030476 -0.016952 -0.014473 0.000000 0.013542 0.000000
# 2 -0.016952 0.119074 0.001602 0.000000 0.003995 0.000000
# 3 -0.014473 0.001602 0.014222 0.000000 -0.009644 0.000000
# 4 0.000000 0.000000 0.000000 0.049071 0.000000 -0.003704
# 5 0.013542 0.003995 -0.009644 0.000000 0.055745 0.000000
# 6 0.000000 0.000000 0.000000 -0.003704 0.000000 0.047027
#
#
# Mechanical properties :
#
#
# Convention : Reuss Voigt Hill
#
# Bulk Modulus (GPa) = 9.60373 45.21930 27.41151
# Shear Modulus (GPa) = 12.19595 22.08954 17.14274
#
# Velocity S-wave (km/s) = 2.70839 3.64499 3.21102
# Velocity P-wave (km/s) = 3.94420 6.70165 5.49858
#
# Compressibility (1/GPa) = 0.10412620
#
# Stress axis : x y z
#
# Youngs Moduli (GPa) = 32.81245 8.39812 70.31114
#
# Poissons Ratio (x) = 0.14236 1.01762
# Poissons Ratio (y) = 0.55623 -0.11261
# Poissons Ratio (z) = 0.47490 -0.01345
#
# Static dielectric constant tensor:
#      x y z
#    x 1.578170 0.000000 0.014000 
#    y 0.000000 1.597840 0.000000 
#    z 0.014000 0.000000 1.602820 
# 
# From -- ./inp_files/247734.got.cif
#   From: 2010.05.17/outbox.cif.g08.bks.cpg/sg12_124_cif.got.tgz:247734.got - 2010.06.03 13:09:07.
