data_PCOD9169371
_publ_section_title
;
Structure prediction by ZEFSAII (Michael W. Deem and Ramdas Pophale) SiO2 
 PCOD9169371
Probable space group: C 2/M
;
_chemical_formula_sum "Si O2"
_cell_formula_units_Z 48
_cell_length_a 18.633850
_cell_length_b 8.272747
_cell_length_c 28.567566
_cell_angle_alpha 90.000000
_cell_angle_beta 34.876972
_cell_angle_gamma 90.000000
_cell_volume 2518.152512
_symmetry_space_group_name_H-M "C 2/M"
_symmetry_group_IT_number 12
_symmetry_cell_setting 'monoclinic'
loop_
_space_group_symop_operation_xyz
x,y,z
-x,y,-z
-x,-y,-z
x,-y,z
1/2+x,1/2+y,z
1/2-x,1/2+y,-z
1/2-x,1/2-y,-z
1/2+x,1/2-y,z
loop_
_atom_site_type_symbol
_atom_site_label
_atom_site_fract_x
_atom_site_fract_y
_atom_site_fract_z
Si Si1 0.855489 0.302321 0.580514
Si Si2 0.760552 0.197393 0.259211
Si Si3 0.988151 0.811527 0.080623
Si Si4 0.809309 0.193778 0.419552
Si Si5 0.317840 0.187526 0.088385
Si Si6 0.593956 0.193116 0.259044
O O1 0.856000 0.500000 0.580797
O O2 0.789777 0.248972 0.663758
O O3 0.777288 0.250247 0.577181
O O4 0.000000 0.250268 0.500000
O O5 0.901256 0.250145 0.169590
O O6 0.664567 0.246125 0.269241
O O7 0.762848 0.000000 0.257795
O O8 0.893662 0.790440 0.086776
O O9 0.015201 0.000000 0.072896
O O10 0.115353 0.724672 0.996586
O O11 0.750000 0.250000 0.500000
O O12 0.950356 0.255963 0.337854
O O13 0.811369 0.000000 0.417923
O O14 0.173488 0.232162 0.173689
O O15 0.337352 0.000000 0.089027
O O16 0.602849 0.000000 0.251561
#
# Coordination Sequence:
#
# PCOD9169371 Si02
#       6
#     8   8   8   8   8   8
#     4   9  17  31  52  76  99 127 166 207 246 292
#     4   8  15  28  49  75  99 129 170 211 248 290
#     4   9  15  25  43  69 101 135 171 209 251 295
#     4  11  22  35  54  77 102 131 164 204 248 298
#     4  10  17  26  43  70 103 134 168 208 249 295
#     4  10  19  33  53  75 102 133 167 208 252 298
#
# _framework density 19.061593999999999
#
# number of rings (size 3 to 8) (size 9 to 14) (size 15 to 20)
#    0.000    2.500    0.000    6.000    0.000    2.667 
#    0.000    0.000    0.000   20.000    0.000    0.000 
#    0.000    0.000    0.000    0.000    0.000    0.000 
#
# Total GULP energy -133817.657965 kJ/mol
# GULP energy per Si atom -5575.735749 kJ/mol
# Density = 1.901821 g / cm^3
# Si number density = 19.061594 Si / 1000 Ang^3
#
#
#
# Elastic Constant Matrix: (Units=GPa)
#
#
# Indices 1 2 3 4 5 6 
#
# 1 81.6577 12.7435 80.2374 0.0000 1.9225 0.0002
# 2 12.7435 32.4900 21.3886 -0.0001 -1.9595 0.0002
# 3 80.2374 21.3886 233.5805 0.0000 1.6496 0.0001
# 4 0.0000 -0.0001 0.0000 24.3997 0.0000 -7.6425
# 5 1.9225 -1.9595 1.6496 0.0000 25.8590 -0.0001
# 6 0.0002 0.0002 0.0001 -7.6425 -0.0001 11.7939
#
#
#
# Elastic Compliance Matrix: (Units=1/GPa)
#
#
# Indices 1 2 3 4 5 6 
#
# 1 0.018859 -0.003421 -0.006156 0.000000 -0.001269 0.000000
# 2 -0.003421 0.033559 -0.001919 0.000000 0.002920 -0.000001
# 3 -0.006156 -0.001919 0.006572 0.000000 -0.000107 0.000000
# 4 0.000000 0.000000 0.000000 0.051421 0.000000 0.033321
# 5 -0.001269 0.002920 -0.000107 0.000000 0.038994 0.000000
# 6 0.000000 -0.000001 0.000000 0.033321 0.000000 0.106382
#
#
# Mechanical properties :
#
#
# Convention : Reuss Voigt Hill
#
# Bulk Modulus (GPa) = 27.77789 64.05190 45.91490
# Shear Modulus (GPa) = 17.19522 27.96777 22.58150
#
# Velocity S-wave (km/s) = 3.00674 3.83460 3.44562
# Velocity P-wave (km/s) = 5.16317 7.29939 6.32216
#
# Compressibility (1/GPa) = 0.03599985
#
# Stress axis : x y z
#
# Youngs Moduli (GPa) = 53.02524 29.79783 152.15432
#
# Poissons Ratio (x) = 0.10193 0.93667
# Poissons Ratio (y) = 0.18139 0.29191
# Poissons Ratio (z) = 0.32643 0.05717
#
# Static dielectric constant tensor:
#      x y z
#    x 1.645660 0.000000 0.007200 
#    y 0.000000 1.659180 0.000000 
#    z 0.007200 0.000000 1.703100 
# 
# From -- ./inp_files/380134.got.cif
#   From: 2010.05.17/outbox.cif.g08.bks.cpg/sg12_191_cif.got.tgz:380134.got - 2010.06.03 13:09:07.
