data_PCOD9169764
_publ_section_title
;
Structure prediction by ZEFSAII (Michael W. Deem and Ramdas Pophale) SiO2 
 PCOD9169764
Probable space group: C 2/M
;
_chemical_formula_sum "Si O2"
_cell_formula_units_Z 64
_cell_length_a 19.129933
_cell_length_b 9.022924
_cell_length_c 20.825377
_cell_angle_alpha 90.000000
_cell_angle_beta 84.648919
_cell_angle_gamma 90.000000
_cell_volume 3578.959696
_symmetry_space_group_name_H-M "C 2/M"
_symmetry_group_IT_number 12
_symmetry_cell_setting 'monoclinic'
loop_
_space_group_symop_operation_xyz
x,y,z
-x,y,-z
-x,-y,-z
x,-y,z
1/2+x,1/2+y,z
1/2-x,1/2+y,-z
1/2-x,1/2-y,-z
1/2+x,1/2-y,z
loop_
_atom_site_type_symbol
_atom_site_label
_atom_site_fract_x
_atom_site_fract_y
_atom_site_fract_z
Si Si1 0.477059 0.824185 0.855386
Si Si2 0.387850 0.671985 0.330080
Si Si3 0.669934 0.676652 0.323766
Si Si4 0.634263 0.176495 0.893314
Si Si5 0.531272 0.175390 0.294172
Si Si6 0.919795 0.829003 0.979769
Si Si7 0.757490 0.823505 0.430228
Si Si8 0.278655 0.324915 0.222405
O O1 0.558266 0.791011 0.866725
O O2 0.464966 0.789652 0.782208
O O3 0.426484 0.738538 0.908427
O O4 0.467655 0.000000 0.866174
O O5 0.410965 0.500000 0.328626
O O6 0.454048 0.778426 0.323458
O O7 0.335282 0.696999 0.393832
O O8 0.340677 0.692955 0.270139
O O9 0.675389 0.500000 0.324848
O O10 0.590591 0.731894 0.324754
O O11 0.705750 0.747453 0.383491
O O12 0.712571 0.741654 0.259015
O O13 0.693172 0.256538 0.845959
O O14 0.644182 0.000000 0.891940
O O15 0.626954 0.237619 0.966104
O O16 0.542920 0.000000 0.301238
O O17 0.898313 0.000000 0.980485
O O18 0.000000 0.821852 0.000000
O O19 0.750000 0.750000 0.500000
O O20 0.744270 0.000000 0.433591
O O21 0.263983 0.500000 0.217729
#
# Coordination Sequence:
#
# PCOD9169764 Si02
#       8
#     8   8   8   8   8   8   8   8
#     4   9  18  30  46  71 103 140 178 222 274 327
#     4   9  19  34  55  83 113 143 179 221 267 317
#     4  11  23  38  57  82 113 148 184 223 270 322
#     4  10  17  28  47  73 103 137 180 228 277 329
#     4  11  21  35  55  81 113 146 183 226 274 324
#     4   9  17  27  41  66  99 137 178 225 276 325
#     4  10  21  40  64  90 117 148 182 221 265 316
#     4  10  19  33  53  78 108 141 182 231 277 325
#
# _framework density 17.882292
#
# number of rings (size 3 to 8) (size 9 to 14) (size 15 to 20)
#    0.000    2.125    1.250    3.750    0.000    5.500 
#    0.000    0.625    0.000    4.500    0.000    0.000 
#    0.000    0.000    0.000    0.000    0.000    0.000 
#
# Total GULP energy -178640.505144 kJ/mol
# GULP energy per Si atom -5582.515786 kJ/mol
# Density = 1.784159 g / cm^3
# Si number density = 17.882292 Si / 1000 Ang^3
#
#
#
# Elastic Constant Matrix: (Units=GPa)
#
#
# Indices 1 2 3 4 5 6 
#
# 1 42.0682 41.5856 18.5656 0.0000 -2.6225 0.0000
# 2 41.5856 99.4969 50.8195 0.0000 -9.8913 0.0000
# 3 18.5656 50.8195 82.4239 0.0000 -20.1139 0.0000
# 4 0.0000 0.0000 0.0000 32.9939 0.0000 -6.6041
# 5 -2.6225 -9.8913 -20.1139 0.0000 17.3759 0.0000
# 6 0.0000 0.0000 0.0000 -6.6041 0.0000 26.3076
#
#
#
# Elastic Compliance Matrix: (Units=1/GPa)
#
#
# Indices 1 2 3 4 5 6 
#
# 1 0.040801 -0.017944 0.001231 0.000000 -0.002632 0.000000
# 2 -0.017944 0.022671 -0.010380 0.000000 -0.001818 0.000000
# 3 0.001231 -0.010380 0.023496 0.000000 0.021475 0.000000
# 4 0.000000 0.000000 0.000000 0.031912 0.000000 0.008011
# 5 -0.002632 -0.001818 0.021475 0.000000 0.080978 0.000000
# 6 0.000000 0.000000 0.000000 0.008011 0.000000 0.040023
#
#
# Mechanical properties :
#
#
# Convention : Reuss Voigt Hill
#
# Bulk Modulus (GPa) = 30.50426 49.54783 40.02604
# Shear Modulus (GPa) = 16.39370 22.87002 19.63186
#
# Velocity S-wave (km/s) = 3.03108 3.58008 3.31696
# Velocity P-wave (km/s) = 5.41713 6.69755 6.09108
#
# Compressibility (1/GPa) = 0.03278231
#
# Stress axis : x y z
#
# Youngs Moduli (GPa) = 24.50897 44.10845 42.56068
#
# Poissons Ratio (x) = 0.79146 -0.05238
# Poissons Ratio (y) = 0.43978 0.44180
# Poissons Ratio (z) = -0.03017 0.45786
#
# Static dielectric constant tensor:
#      x y z
#    x 1.603210 0.000000 0.002500 
#    y 0.000000 1.590570 0.000000 
#    z 0.002500 0.000000 1.595490 
# 
# From -- ./inp_files/314052.got.cif
#   From: 2010.05.17/outbox.cif.g08.bks.cpg/sg12_158_cif.got.tgz:314052.got - 2010.06.03 13:09:07.
