data_PCOD9169270
_publ_section_title
;
Structure prediction by ZEFSAII (Michael W. Deem and Ramdas Pophale) SiO2 
 PCOD9169270
Probable space group: C 2/M
;
_chemical_formula_sum "Si O2"
_cell_formula_units_Z 58
_cell_length_a 20.103875
_cell_length_b 7.235150
_cell_length_c 14.715440
_cell_angle_alpha 90.000000
_cell_angle_beta 92.250956
_cell_angle_gamma 90.000000
_cell_volume 2138.776126
_symmetry_space_group_name_H-M "C 2/M"
_symmetry_group_IT_number 12
_symmetry_cell_setting 'monoclinic'
loop_
_space_group_symop_operation_xyz
x,y,z
-x,y,-z
-x,-y,-z
x,-y,z
1/2+x,1/2+y,z
1/2-x,1/2+y,-z
1/2-x,1/2-y,-z
1/2+x,1/2-y,z
loop_
_atom_site_type_symbol
_atom_site_label
_atom_site_fract_x
_atom_site_fract_y
_atom_site_fract_z
Si Si1 0.749922 0.777860 0.361182
Si Si2 0.107753 0.276416 0.312906
Si Si3 0.221265 0.223410 0.846712
Si Si4 0.110795 0.712981 0.566891
Si Si5 0.532723 0.776003 0.732194
Si Si6 0.364888 0.776176 0.896142
Si Si7 0.578404 0.790543 0.921458
Si Si8 0.500000 0.500000 0.500000
O O1 0.673466 0.712771 0.368884
O O2 0.768179 0.721763 0.258121
O O3 0.809080 0.720947 0.431192
O O4 0.748564 0.000000 0.362423
O O5 0.106774 0.500000 0.322678
O O6 0.032980 0.208782 0.322795
O O7 0.117786 0.233608 0.206498
O O8 0.288128 0.281338 0.903325
O O9 0.153948 0.296084 0.886721
O O10 0.217848 0.000000 0.848277
O O11 0.091964 0.500000 0.550362
O O12 0.094006 0.768799 0.670985
O O13 0.060240 0.840746 0.510508
O O14 0.538948 0.706138 0.834906
O O15 0.530171 0.000000 0.738137
O O16 0.366408 0.000000 0.902335
O O17 0.413454 0.708328 0.978021
O O18 0.553357 0.000000 0.930001
#
# Coordination Sequence:
#
# PCOD9169270 Si02
#       8
#     8   8   8   8   8   8   8   2
#     4   9  16  31  56  82 109 150 198 238 281 342
#     4   8  15  29  50  78 112 155 201 239 283 337
#     4   9  16  26  42  66  99 143 195 238 285 337
#     4  11  22  39  65  96 123 148 187 235 285 353
#     4   9  18  31  51  83 114 148 192 240 291 341
#     4   8  15  25  39  66 104 146 195 245 287 330
#     4  10  17  25  41  69 106 144 188 244 294 329
#     4  12  26  44  68  98 124 150 178 224 304 354
#
# _framework density 27.118314000000002
#
# number of rings (size 3 to 8) (size 9 to 14) (size 15 to 20)
#    0.000    2.759    2.069    2.276    0.000    0.552 
#    0.000    2.759    1.517    0.828    0.000    0.966 
#    0.000    0.000    0.000    0.000    0.000    0.000 
#
# Total GULP energy -161991.920495 kJ/mol
# GULP energy per Si atom -5585.928293 kJ/mol
# Density = 2.705659 g / cm^3
# Si number density = 27.118314 Si / 1000 Ang^3
#
#
#
# Elastic Constant Matrix: (Units=GPa)
#
#
# Indices 1 2 3 4 5 6 
#
# 1 160.4681 3.6430 48.2639 0.0000 43.6282 0.0000
# 2 3.6430 153.9791 6.5005 0.0000 20.8881 0.0000
# 3 48.2639 6.5005 193.8102 0.0000 43.0889 0.0000
# 4 0.0000 0.0000 0.0000 -9.3995 0.0000 7.0662
# 5 43.6282 20.8881 43.0889 0.0000 51.7390 0.0000
# 6 0.0000 0.0000 0.0000 7.0662 0.0000 -6.7007
#
#
#
# Elastic Compliance Matrix: (Units=1/GPa)
#
#
# Indices 1 2 3 4 5 6 
#
# 1 0.008225 0.000747 -0.000570 0.000000 -0.006762 0.000000
# 2 0.000747 0.006974 0.000425 0.000000 -0.003799 0.000000
# 3 -0.000570 0.000425 0.006404 0.000000 -0.005025 0.000000
# 4 0.000000 0.000000 0.000000 -0.513351 0.000000 -0.541349
# 5 -0.006762 -0.003799 -0.005025 0.000000 0.030749 0.000000
# 6 0.000000 0.000000 0.000000 -0.541349 0.000000 -0.720111
#
#
# Mechanical properties :
#
#
# Convention : Reuss Voigt Hill
#
# Bulk Modulus (GPa) = 43.84635 69.45246 56.64940
# Shear Modulus (GPa) = -4.25636 37.11776 16.43070
#
# Velocity S-wave (km/s) = -1.25418 3.70365 2.46415
# Velocity P-wave (km/s) = 3.75584 6.62993 5.38805
#
# Compressibility (1/GPa) = 0.02280692
#
# Stress axis : x y z
#
# Youngs Moduli (GPa) = 121.58416 143.38659 156.14140
#
# Poissons Ratio (x) = -0.10708 0.08897
# Poissons Ratio (y) = -0.09080 -0.06632
# Poissons Ratio (z) = 0.06928 -0.06090
#
# Static dielectric constant tensor:
#      x y z
#    x 2.085430 0.000000 -0.023220 
#    y 0.000000 2.132080 0.000000 
#    z -0.023220 0.000000 2.146200 
# 
# From -- ./inp_files/281556.got.cif
#   From: 2010.05.17/outbox.cif.g08.bks.cpg/sg12_141_cif.got.tgz:281556.got - 2010.06.03 13:09:07.
