data_PCOD9169188
_publ_section_title
;
Structure prediction by ZEFSAII (Michael W. Deem and Ramdas Pophale) SiO2 
 PCOD9169188
Probable space group: C 2/M
;
_chemical_formula_sum "Si O2"
_cell_formula_units_Z 48
_cell_length_a 34.286373
_cell_length_b 8.801491
_cell_length_c 10.505061
_cell_angle_alpha 90.000000
_cell_angle_beta 115.354446
_cell_angle_gamma 90.000000
_cell_volume 2864.765914
_symmetry_space_group_name_H-M "C 2/M"
_symmetry_group_IT_number 12
_symmetry_cell_setting 'monoclinic'
loop_
_space_group_symop_operation_xyz
x,y,z
-x,y,-z
-x,-y,-z
x,-y,z
1/2+x,1/2+y,z
1/2-x,1/2+y,-z
1/2-x,1/2-y,-z
1/2+x,1/2-y,z
loop_
_atom_site_type_symbol
_atom_site_label
_atom_site_fract_x
_atom_site_fract_y
_atom_site_fract_z
Si Si1 0.635903 0.318379 0.360693
Si Si2 0.635772 0.317313 0.058593
Si Si3 0.453369 0.818858 0.072257
Si Si4 0.729933 0.683213 0.099080
Si Si5 0.040264 0.817763 0.204438
Si Si6 0.277914 0.181613 0.423976
O O1 0.642017 0.500000 0.379661
O O2 0.640380 0.280558 0.216049
O O3 0.586608 0.282803 0.331650
O O4 0.673052 0.234980 0.489445
O O5 0.630182 0.500000 0.043677
O O6 0.593000 0.238009 0.944434
O O7 0.680020 0.273062 0.051754
O O8 0.455403 0.750196 0.931903
O O9 0.455425 0.000000 0.070663
O O10 0.496389 0.752606 0.198560
O O11 0.731078 0.500000 0.095106
O O12 0.757200 0.730932 0.261291
O O13 0.750000 0.750000 0.000000
O O14 0.036180 0.000000 0.189795
O O15 0.250000 0.250000 0.500000
O O16 0.275205 0.000000 0.427142
#
# Coordination Sequence:
#
# PCOD9169188 Si02
#       6
#     8   8   8   8   8   8
#     4   9  17  30  48  71  98 129 167 205 245 298
#     4   9  17  32  48  65  97 133 165 201 248 301
#     4  10  17  24  39  66  95 123 164 205 242 292
#     4  10  22  38  53  73 101 134 172 212 251 300
#     4   9  16  27  41  60  94 133 161 194 247 299
#     4  11  21  34  52  75 102 132 169 209 253 301
#
# _framework density 16.755296999999999
#
# number of rings (size 3 to 8) (size 9 to 14) (size 15 to 20)
#    0.000    2.333    1.667    4.500    0.000    5.333 
#    0.000    0.000    0.000    0.000    0.000    1.167 
#    0.000    9.333    0.000    0.000    0.000    0.000 
#
# Total GULP energy -133753.150790 kJ/mol
# GULP energy per Si atom -5573.047950 kJ/mol
# Density = 1.671716 g / cm^3
# Si number density = 16.755297 Si / 1000 Ang^3
#
#
#
# Elastic Constant Matrix: (Units=GPa)
#
#
# Indices 1 2 3 4 5 6 
#
# 1 154.3165 55.2668 75.2343 0.0000 36.6887 0.0000
# 2 55.2668 56.9079 35.0619 0.0000 17.4616 0.0000
# 3 75.2343 35.0619 75.3371 0.0000 15.7638 0.0000
# 4 0.0000 0.0000 0.0000 21.7154 0.0000 6.8758
# 5 36.6887 17.4616 15.7638 0.0000 30.0156 0.0000
# 6 0.0000 0.0000 0.0000 6.8758 0.0000 30.3542
#
#
#
# Elastic Compliance Matrix: (Units=1/GPa)
#
#
# Indices 1 2 3 4 5 6 
#
# 1 0.017054 -0.005714 -0.012027 0.000000 -0.011205 0.000000
# 2 -0.005714 0.029123 -0.006476 0.000000 -0.006557 0.000000
# 3 -0.012027 -0.006476 0.027450 0.000000 0.004051 0.000000
# 4 0.000000 0.000000 0.000000 0.049609 0.000000 -0.011237
# 5 -0.011205 -0.006557 0.004051 0.000000 0.048699 0.000000
# 6 0.000000 0.000000 0.000000 -0.011237 0.000000 0.035490
#
#
# Mechanical properties :
#
#
# Convention : Reuss Voigt Hill
#
# Bulk Modulus (GPa) = 39.69155 68.63192 54.16174
# Shear Modulus (GPa) = 18.92102 24.48361 21.70232
#
# Velocity S-wave (km/s) = 3.36409 3.82677 3.60286
# Velocity P-wave (km/s) = 6.23136 7.78305 7.05002
#
# Compressibility (1/GPa) = 0.02519428
#
# Stress axis : x y z
#
# Youngs Moduli (GPa) = 58.63666 34.33670 36.42970
#
# Poissons Ratio (x) = 0.19621 0.43814
# Poissons Ratio (y) = 0.33507 0.23590
# Poissons Ratio (z) = 0.70522 0.22235
#
# Static dielectric constant tensor:
#      x y z
#    x 1.607750 0.000000 0.041620 
#    y 0.000000 1.560830 0.000000 
#    z 0.041620 0.000000 1.549970 
# 
# From -- ./inp_files/185949.got.cif
#   From: 2010.05.17/outbox.cif.g08.bks.cpg/sg12_93_cif.got.tgz:185949.got - 2010.06.03 13:09:07.
