data_PCOD9169599
_publ_section_title
;
Structure prediction by ZEFSAII (Michael W. Deem and Ramdas Pophale) SiO2 
 PCOD9169599
Probable space group: C 2/M
;
_chemical_formula_sum "Si O2"
_cell_formula_units_Z 64
_cell_length_a 19.064970
_cell_length_b 8.486029
_cell_length_c 26.560358
_cell_angle_alpha 90.000000
_cell_angle_beta 44.684978
_cell_angle_gamma 90.000000
_cell_volume 3021.750217
_symmetry_space_group_name_H-M "C 2/M"
_symmetry_group_IT_number 12
_symmetry_cell_setting 'monoclinic'
loop_
_space_group_symop_operation_xyz
x,y,z
-x,y,-z
-x,-y,-z
x,-y,z
1/2+x,1/2+y,z
1/2-x,1/2+y,-z
1/2-x,1/2-y,-z
1/2+x,1/2-y,z
loop_
_atom_site_type_symbol
_atom_site_label
_atom_site_fract_x
_atom_site_fract_y
_atom_site_fract_z
Si Si1 0.218334 0.184933 0.071013
Si Si2 0.438098 0.187505 0.147817
Si Si3 0.012214 0.316279 0.218555
Si Si4 0.583970 0.314900 0.996657
Si Si5 0.855026 0.185673 0.598333
Si Si6 0.440030 0.815417 0.461733
Si Si7 0.494483 0.686293 0.670793
Si Si8 0.278025 0.308101 0.742380
O O1 0.122400 0.269044 0.143213
O O2 0.198850 0.000000 0.077261
O O3 0.250000 0.250000 0.000000
O O4 0.314491 0.218531 0.056582
O O5 0.442840 0.206791 0.205398
O O6 0.528501 0.282730 0.077664
O O7 0.330183 0.241325 0.182658
O O8 0.452419 0.000000 0.130154
O O9 0.011230 0.500000 0.232329
O O10 0.982729 0.221766 0.283150
O O11 0.604964 0.500000 0.979691
O O12 0.500000 0.263838 0.000000
O O13 0.853386 0.270655 0.545318
O O14 0.786493 0.240708 0.679421
O O15 0.964470 0.217625 0.566719
O O16 0.840964 0.000000 0.597786
O O17 0.434055 0.769398 0.406401
O O18 0.461324 0.000000 0.455641
O O19 0.497767 0.500000 0.659530
O O20 0.379334 0.741438 0.718814
O O21 0.277415 0.500000 0.743303
#
# Coordination Sequence:
#
# PCOD9169599 Si02
#       8
#     8   8   8   8   8   8   8   8
#     4  12  24  41  64  86 112 149 191 235 279 337
#     4  10  21  39  60  81 110 150 189 225 277 342
#     4  11  23  38  58  84 114 148 185 231 280 332
#     4  11  25  42  60  87 118 147 186 237 286 334
#     4   9  15  27  48  74 107 144 182 226 275 332
#     4  10  17  27  46  75 110 142 180 228 277 331
#     4  10  20  35  55  81 111 146 187 232 278 331
#     4   8  17  33  54  81 108 141 186 228 273 332
#
# _framework density 21.179777000000001
#
# number of rings (size 3 to 8) (size 9 to 14) (size 15 to 20)
#    0.000    1.875    1.250    5.250    1.750    1.500 
#    0.000    3.125    0.000    0.750    0.000    0.000 
#    0.000    0.000    0.000    0.000    0.000    0.000 
#
# Total GULP energy -178650.636713 kJ/mol
# GULP energy per Si atom -5582.832397 kJ/mol
# Density = 2.113157 g / cm^3
# Si number density = 21.179777 Si / 1000 Ang^3
#
#
#
# Elastic Constant Matrix: (Units=GPa)
#
#
# Indices 1 2 3 4 5 6 
#
# 1 32.4124 12.9575 -7.1782 0.0000 6.4348 0.0005
# 2 12.9575 27.1187 -8.0584 -0.0001 4.6861 0.0012
# 3 -7.1782 -8.0584 28.9147 0.0000 15.1267 0.0000
# 4 0.0000 -0.0001 0.0000 18.5359 0.0000 6.2870
# 5 6.4348 4.6861 15.1267 0.0000 27.9520 0.0001
# 6 0.0005 0.0012 0.0000 6.2870 0.0001 13.5042
#
#
#
# Elastic Compliance Matrix: (Units=1/GPa)
#
#
# Indices 1 2 3 4 5 6 
#
# 1 0.042604 -0.013096 0.015217 0.000000 -0.015847 0.000000
# 2 -0.013096 0.051831 0.019755 0.000002 -0.016366 -0.000005
# 3 0.015217 0.019755 0.066166 0.000001 -0.042622 -0.000002
# 4 0.000000 0.000002 0.000001 0.064066 0.000000 -0.029827
# 5 -0.015847 -0.016366 -0.042622 0.000000 0.065233 0.000002
# 6 0.000000 -0.000005 -0.000002 -0.029827 0.000002 0.087937
#
#
# Mechanical properties :
#
#
# Convention : Reuss Voigt Hill
#
# Bulk Modulus (GPa) = 4.89348 9.32084 7.10716
# Shear Modulus (GPa) = 12.43158 18.04674 15.23916
#
# Velocity S-wave (km/s) = 2.42534 2.92220 2.68529
# Velocity P-wave (km/s) = 3.18724 3.97442 3.60240
#
# Compressibility (1/GPa) = 0.20435349
#
# Stress axis : x y z
#
# Youngs Moduli (GPa) = 23.47197 19.29354 15.11361
#
# Poissons Ratio (x) = 0.25267 -0.22999
# Poissons Ratio (y) = 0.30739 -0.29858
# Poissons Ratio (z) = -0.35718 -0.38115
#
# Static dielectric constant tensor:
#      x y z
#    x 1.797730 0.000000 0.033170 
#    y 0.000000 1.714230 0.000000 
#    z 0.033170 0.000000 1.812970 
# 
# From -- ./inp_files/365200.got.cif
#   From: 2010.05.17/outbox.cif.g08.bks.cpg/sg12_183_cif.got.tgz:365200.got - 2010.06.03 13:09:07.
