data_PCOD9169721
_publ_section_title
;
Structure prediction by ZEFSAII (Michael W. Deem and Ramdas Pophale) SiO2 
 PCOD9169721
Probable space group: C 2/M
;
_chemical_formula_sum "Si O2"
_cell_formula_units_Z 60
_cell_length_a 8.501423
_cell_length_b 25.038309
_cell_length_c 16.201679
_cell_angle_alpha 90.000000
_cell_angle_beta 56.688740
_cell_angle_gamma 90.000000
_cell_volume 2882.084831
_symmetry_space_group_name_H-M "C 2/M"
_symmetry_group_IT_number 12
_symmetry_cell_setting 'monoclinic'
loop_
_space_group_symop_operation_xyz
x,y,z
-x,y,-z
-x,-y,-z
x,-y,z
1/2+x,1/2+y,z
1/2-x,1/2+y,-z
1/2-x,1/2-y,-z
1/2+x,1/2-y,z
loop_
_atom_site_type_symbol
_atom_site_label
_atom_site_fract_x
_atom_site_fract_y
_atom_site_fract_z
Si Si1 0.768949 0.563266 0.212765
Si Si2 0.195834 0.564757 0.112525
Si Si3 0.255049 0.440384 0.593316
Si Si4 0.068880 0.762218 0.610017
Si Si5 0.500000 0.345889 0.500000
Si Si6 0.459422 0.564701 0.879679
Si Si7 0.153869 0.673483 0.379172
Si Si8 0.123436 0.443582 0.380207
O O1 0.791743 0.500000 0.188423
O O2 0.684739 0.566096 0.329317
O O3 0.634996 0.584089 0.178592
O O4 0.982400 0.585181 0.161051
O O5 0.182810 0.500000 0.123907
O O6 0.333205 0.582539 0.148264
O O7 0.313726 0.576644 0.995630
O O8 0.309204 0.500000 0.546842
O O9 0.335018 0.388041 0.525464
O O10 0.031475 0.441250 0.647473
O O11 0.250000 0.750000 0.500000
O O12 0.955906 0.806150 0.588242
O O13 0.161594 0.791857 0.658624
O O14 0.961224 0.707172 0.655299
O O15 0.469912 0.500000 0.873176
O O16 0.217833 0.613116 0.352169
O O17 0.000000 0.673987 0.500000
O O18 0.230037 0.500000 0.345373
O O19 0.000000 0.445503 0.500000
#
# Coordination Sequence:
#
# PCOD9169721 Si02
#       8
#     8   8   8   8   4   8   8   8
#     4   9  16  27  40  57  84 118 156 196 238 284
#     4   8  13  22  39  62  84 110 145 189 240 282
#     4  10  21  32  42  59  85 128 170 202 242 289
#     4  10  17  28  46  69  83  99 134 200 255 290
#     4  12  19  30  48  60  87 114 156 212 244 280
#     4   8  13  22  39  63  86 107 143 194 237 282
#     4   9  16  27  44  68  84 100 135 187 248 293
#     4   9  17  30  46  60  85 118 154 198 237 284
#
# _framework density 20.818263999999999
#
# number of rings (size 3 to 8) (size 9 to 14) (size 15 to 20)
#    0.000    2.800    2.000    3.800    0.000    1.600 
#    0.000    3.333    0.000    9.600    0.000    0.000 
#    0.000    0.000    0.000    0.000    0.000   21.333 
#
# Total GULP energy -167070.589666 kJ/mol
# GULP energy per Si atom -5569.019656 kJ/mol
# Density = 2.077088 g / cm^3
# Si number density = 20.818264 Si / 1000 Ang^3
#
#
#
# Elastic Constant Matrix: (Units=GPa)
#
#
# Indices 1 2 3 4 5 6 
#
# 1 126.8697 27.3963 28.0683 0.0000 13.8810 0.0000
# 2 27.3963 113.4966 5.3053 0.0000 -5.3556 0.0000
# 3 28.0683 5.3053 48.9583 0.0000 3.1180 0.0000
# 4 0.0000 0.0000 0.0000 -0.5187 0.0000 3.4000
# 5 13.8810 -5.3556 3.1180 0.0000 33.2306 0.0000
# 6 0.0000 0.0000 0.0000 3.4000 0.0000 20.3928
#
#
#
# Elastic Compliance Matrix: (Units=1/GPa)
#
#
# Indices 1 2 3 4 5 6 
#
# 1 0.009989 -0.002359 -0.005213 0.000000 -0.004064 0.000000
# 2 -0.002359 0.009491 0.000165 0.000000 0.002500 0.000000
# 3 -0.005213 0.000165 0.023396 0.000000 0.000009 0.000000
# 4 0.000000 0.000000 0.000000 -0.921162 0.000000 0.153583
# 5 -0.004064 0.002500 0.000009 0.000000 0.032192 0.000000
# 6 0.000000 0.000000 0.000000 0.153583 0.000000 0.023431
#
#
# Mechanical properties :
#
#
# Convention : Reuss Voigt Hill
#
# Bulk Modulus (GPa) = 35.63571 45.65158 40.64365
# Shear Modulus (GPa) = -6.26178 25.85791 9.79807
#
# Velocity S-wave (km/s) = -1.73619 3.52814 2.17180
# Velocity P-wave (km/s) = 3.62430 6.21073 5.08472
#
# Compressibility (1/GPa) = 0.02806174
#
# Stress axis : x y z
#
# Youngs Moduli (GPa) = 100.10562 105.36747 42.74321
#
# Poissons Ratio (x) = 0.24860 0.22280
# Poissons Ratio (y) = 0.23619 -0.00705
# Poissons Ratio (z) = 0.52181 -0.01739
#
# Static dielectric constant tensor:
#      x y z
#    x 1.872110 0.000000 -0.003750 
#    y 0.000000 1.768370 0.000000 
#    z -0.003750 0.000000 1.809350 
# 
# From -- ./inp_files/259194.got.cif
#   From: 2010.05.17/outbox.cif.g08.bks.cpg/sg12_130_cif.got.tgz:259194.got - 2010.06.03 13:09:07.
