data_PCOD9169204
_publ_section_title
;
Structure prediction by ZEFSAII (Michael W. Deem and Ramdas Pophale) SiO2 
 PCOD9169204
Probable space group: C 2/M
;
_chemical_formula_sum "Si O2"
_cell_formula_units_Z 44
_cell_length_a 30.071725
_cell_length_b 7.527591
_cell_length_c 8.097414
_cell_angle_alpha 90.000000
_cell_angle_beta 99.894458
_cell_angle_gamma 90.000000
_cell_volume 1805.728530
_symmetry_space_group_name_H-M "C 2/M"
_symmetry_group_IT_number 12
_symmetry_cell_setting 'monoclinic'
loop_
_space_group_symop_operation_xyz
x,y,z
-x,y,-z
-x,-y,-z
x,-y,z
1/2+x,1/2+y,z
1/2-x,1/2+y,-z
1/2-x,1/2-y,-z
1/2+x,1/2-y,z
loop_
_atom_site_type_symbol
_atom_site_label
_atom_site_fract_x
_atom_site_fract_y
_atom_site_fract_z
Si Si1 0.123889 0.712854 0.569490
Si Si2 0.782495 0.285384 0.250272
Si Si3 0.500000 0.740163 0.000000
Si Si4 0.405510 0.783476 0.821007
Si Si5 0.811193 0.291133 0.905950
Si Si6 0.034890 0.704420 0.654603
O O1 0.129445 0.500000 0.596267
O O2 0.175189 0.779522 0.615315
O O3 0.102260 0.743110 0.377649
O O4 0.085901 0.778232 0.674552
O O5 0.780473 0.500000 0.251246
O O6 0.730965 0.228125 0.245451
O O7 0.795848 0.220496 0.073903
O O8 0.449455 0.685795 0.914949
O O9 0.514529 0.803593 0.824155
O O10 0.359151 0.723825 0.876202
O O11 0.412786 0.000000 0.852094
O O12 0.818438 0.500000 0.934060
O O13 0.040494 0.500000 0.603227
O O14 0.000000 0.786501 0.500000
#
# Coordination Sequence:
#
# PCOD9169204 Si02
#       6
#     8   8   4   8   8   8
#     4   9  17  28  41  62  92 122 156 198 241 287
#     4   9  17  31  49  67  93 128 161 199 245 291
#     4  12  19  26  42  62  91 130 163 196 243 296
#     4  10  18  27  41  63  91 124 158 195 241 291
#     4   9  18  31  47  69  95 124 162 202 243 290
#     4  10  17  25  37  58  88 122 158 194 237 291
#
# _framework density 24.366893999999998
#
# number of rings (size 3 to 8) (size 9 to 14) (size 15 to 20)
#    0.000    2.364    1.818    2.727    0.000    3.636 
#    0.000    0.000    0.000    0.000    0.000    0.636 
#    0.000    2.182    0.000    0.545    0.000    0.364 
#
# Total GULP energy -122497.565062 kJ/mol
# GULP energy per Si atom -5568.071139 kJ/mol
# Density = 2.431143 g / cm^3
# Si number density = 24.366894 Si / 1000 Ang^3
#
#
#
# Elastic Constant Matrix: (Units=GPa)
#
#
# Indices 1 2 3 4 5 6 
#
# 1 220.5647 14.7303 53.3011 0.0000 36.9169 0.0000
# 2 14.7303 58.6530 14.2921 0.0000 1.7148 0.0000
# 3 53.3011 14.2921 81.6048 0.0000 30.7311 0.0000
# 4 0.0000 0.0000 0.0000 -37.0490 0.0000 -47.5791
# 5 36.9169 1.7148 30.7311 0.0000 49.2348 0.0000
# 6 0.0000 0.0000 0.0000 -47.5791 0.0000 -89.1128
#
#
#
# Elastic Compliance Matrix: (Units=1/GPa)
#
#
# Indices 1 2 3 4 5 6 
#
# 1 0.005639 -0.000711 -0.002583 0.000000 -0.002591 0.000000
# 2 -0.000711 0.018013 -0.003471 0.000000 0.002072 0.000000
# 3 -0.002583 -0.003471 0.018007 0.000000 -0.009182 0.000000
# 4 0.000000 0.000000 0.000000 -0.085869 0.000000 0.045847
# 5 -0.002591 0.002072 -0.009182 0.000000 0.027913 0.000000
# 6 0.000000 0.000000 0.000000 0.045847 0.000000 -0.035701
#
#
# Mechanical properties :
#
#
# Convention : Reuss Voigt Hill
#
# Bulk Modulus (GPa) = 35.54941 58.38552 46.96746
# Shear Modulus (GPa) = -171.86762 3.18120 -84.34321
#
# Velocity S-wave (km/s) = -8.40752 1.14384 -5.88974
# Velocity P-wave (km/s) = 8.92343 5.07519 5.18990
#
# Compressibility (1/GPa) = 0.02812986
#
# Stress axis : x y z
#
# Youngs Moduli (GPa) = 177.32951 55.51506 55.53466
#
# Poissons Ratio (x) = 0.03948 0.14344
# Poissons Ratio (y) = 0.12610 0.19274
# Poissons Ratio (z) = 0.45802 0.19267
#
# Static dielectric constant tensor:
#      x y z
#    x 1.961650 0.000000 0.018330 
#    y 0.000000 1.984320 0.000000 
#    z 0.018330 0.000000 1.918410 
# 
# From -- ./inp_files/102101.got.cif
#   From: 2010.05.17/outbox.cif.g08.bks.cpg/sg12_52_cif.got.tgz:102101.got - 2010.06.03 13:09:07.
