data_PCOD9169065
_publ_section_title
;
Structure prediction by ZEFSAII (Michael W. Deem and Ramdas Pophale) SiO2 
 PCOD9169065
Probable space group: C 2/M
;
_chemical_formula_sum "Si O2"
_cell_formula_units_Z 48
_cell_length_a 14.194660
_cell_length_b 15.246604
_cell_length_c 14.965288
_cell_angle_alpha 90.000000
_cell_angle_beta 139.095657
_cell_angle_gamma 90.000000
_cell_volume 2120.755530
_symmetry_space_group_name_H-M "C 2/M"
_symmetry_group_IT_number 12
_symmetry_cell_setting 'monoclinic'
loop_
_space_group_symop_operation_xyz
x,y,z
-x,y,-z
-x,-y,-z
x,-y,z
1/2+x,1/2+y,z
1/2-x,1/2+y,-z
1/2-x,1/2-y,-z
1/2+x,1/2-y,z
loop_
_atom_site_type_symbol
_atom_site_label
_atom_site_fract_x
_atom_site_fract_y
_atom_site_fract_z
Si Si1 0.131561 0.000000 0.425320
Si Si2 0.162391 0.802767 0.515816
Si Si3 0.447703 0.000000 0.608725
Si Si4 0.608594 0.349655 0.010496
Si Si5 0.063079 0.688348 0.191109
Si Si6 0.486953 0.000000 0.127683
Si Si7 0.347323 0.500000 0.101645
Si Si8 0.427270 0.180879 0.294266
O O1 0.147830 0.907150 0.488445
O O2 0.277019 0.000000 0.469697
O O3 0.979322 0.000000 0.265468
O O4 0.250000 0.750000 0.500000
O O5 0.269958 0.789442 0.675070
O O6 0.006336 0.759388 0.401531
O O7 0.518504 0.910959 0.626256
O O8 0.479714 0.000000 0.740096
O O9 0.757341 0.322874 0.162840
O O10 0.500000 0.396699 0.000000
O O11 0.524955 0.262962 0.920648
O O12 0.638711 0.413417 0.949497
O O13 0.051281 0.591633 0.141610
O O14 0.988739 0.684280 0.236335
O O15 0.317522 0.000000 0.985003
#
# Coordination Sequence:
#
# PCOD9169065 Si02
#       8
#     4   8   4   8   8   4   4   8
#     4  12  20  31  56  96 117 135 189 245 300 335
#     4  10  18  31  55  87 113 141 183 248 290 332
#     4  10  16  33  54  83 115 142 171 240 300 330
#     4  12  25  39  55  82 124 163 192 230 281 351
#     4  10  19  36  60  85 112 147 191 239 295 331
#     4  10  18  35  60  89 112 145 180 248 292 334
#     4  12  23  35  58  87 122 152 194 231 290 346
#     4  10  19  35  58  82 113 144 194 240 287 335
#
# _framework density 22.633443
#
# number of rings (size 3 to 8) (size 9 to 14) (size 15 to 20)
#    0.000    1.333    8.333    2.750    2.333    0.000 
#    0.000    1.250    0.000    1.000    0.000    2.333 
#    0.000    0.000    0.000    0.000    0.000    0.000 
#
# Total GULP energy -134087.104734 kJ/mol
# GULP energy per Si atom -5586.962697 kJ/mol
# Density = 2.258193 g / cm^3
# Si number density = 22.633443 Si / 1000 Ang^3
#
#
#
# Elastic Constant Matrix: (Units=GPa)
#
#
# Indices 1 2 3 4 5 6 
#
# 1 38.6310 -3.1450 26.7466 0.0001 10.6089 0.0001
# 2 -3.1450 167.9003 39.4194 0.0002 6.4826 0.0002
# 3 26.7466 39.4194 140.6524 0.0003 47.2391 0.0003
# 4 0.0001 0.0002 0.0003 -262.4851 0.0001 -286.3451
# 5 10.6089 6.4826 47.2391 0.0001 36.6770 0.0001
# 6 0.0001 0.0002 0.0003 -286.3451 0.0001 -282.9676
#
#
#
# Elastic Compliance Matrix: (Units=1/GPa)
#
#
# Indices 1 2 3 4 5 6 
#
# 1 0.030528 0.001996 -0.005781 0.000000 -0.001737 0.000000
# 2 0.001996 0.006596 -0.002895 0.000000 0.001986 0.000000
# 3 -0.005781 -0.002895 0.014605 0.000000 -0.016626 0.000000
# 4 0.000000 0.000000 0.000000 0.036660 0.000000 -0.037097
# 5 -0.001737 0.001986 -0.016626 0.000000 0.048831 0.000000
# 6 0.000000 0.000000 0.000000 -0.037097 0.000000 0.034006
#
#
# Mechanical properties :
#
#
# Convention : Reuss Voigt Hill
#
# Bulk Modulus (GPa) = 26.06303 52.58065 39.32184
# Shear Modulus (GPa) = 25.33230 -82.81096 -28.73933
#
# Velocity S-wave (km/s) = 3.34914 -6.05535 -3.56725
# Velocity P-wave (km/s) = 5.14742 5.06043 0.66633
#
# Compressibility (1/GPa) = 0.03836852
#
# Stress axis : x y z
#
# Youngs Moduli (GPa) = 32.75650 151.59847 68.47155
#
# Poissons Ratio (x) = -0.30263 0.39586
# Poissons Ratio (y) = -0.06539 0.19824
# Poissons Ratio (z) = 0.18938 0.43891
#
# Static dielectric constant tensor:
#      x y z
#    x 1.908920 0.000000 -0.054620 
#    y 0.000000 1.845520 0.000000 
#    z -0.054620 0.000000 1.835650 
# 
# From -- ./inp_files/278284.got.cif
#   From: 2010.05.17/outbox.cif.g08.bks.cpg/sg12_140_cif.got.tgz:278284.got - 2010.06.03 13:09:07.
