data_PCOD9169906
_publ_section_title
;
Structure prediction by ZEFSAII (Michael W. Deem and Ramdas Pophale) SiO2 
 PCOD9169906
Probable space group: C 2/M
;
_chemical_formula_sum "Si O2"
_cell_formula_units_Z 56
_cell_length_a 20.384617
_cell_length_b 19.446270
_cell_length_c 15.964754
_cell_angle_alpha 90.000000
_cell_angle_beta 30.209887
_cell_angle_gamma 90.000000
_cell_volume 3184.307818
_symmetry_space_group_name_H-M "C 2/M"
_symmetry_group_IT_number 12
_symmetry_cell_setting 'monoclinic'
loop_
_space_group_symop_operation_xyz
x,y,z
-x,y,-z
-x,-y,-z
x,-y,z
1/2+x,1/2+y,z
1/2-x,1/2+y,-z
1/2-x,1/2-y,-z
1/2+x,1/2-y,z
loop_
_atom_site_type_symbol
_atom_site_label
_atom_site_fract_x
_atom_site_fract_y
_atom_site_fract_z
Si Si1 0.648509 0.300401 0.863032
Si Si2 0.100318 0.666734 0.140714
Si Si3 0.639170 0.329823 0.062679
Si Si4 0.627938 0.419398 0.407729
Si Si5 0.167238 0.319086 0.496027
Si Si6 0.612942 0.861297 0.939005
Si Si7 0.356410 0.343418 0.434071
O O1 0.751596 0.323315 0.679266
O O2 0.651133 0.217247 0.871148
O O3 0.500000 0.316531 0.000000
O O4 0.671455 0.331906 0.928967
O O5 0.120380 0.748994 0.106703
O O6 0.981199 0.654862 0.335578
O O7 0.239843 0.640843 0.018753
O O8 0.064987 0.640156 0.087412
O O9 0.498477 0.360067 0.239445
O O10 0.500000 0.391685 0.500000
O O11 0.607842 0.500000 0.443511
O O12 0.757011 0.405589 0.211548
O O13 0.654258 0.383612 0.467524
O O14 0.248858 0.354206 0.481003
O O15 0.156467 0.237617 0.529251
O O16 0.500000 0.883764 0.000000
#
# Coordination Sequence:
#
# PCOD9169906 Si02
#       7
#     8   8   8   8   8   8   8
#     4  10  17  29  46  74  99 130 165 199 252 313
#     4   9  18  28  41  68  94 127 162 198 244 300
#     4   9  17  28  43  64  98 125 159 200 246 299
#     4  11  23  36  51  73 101 138 181 213 244 294
#     4  10  18  29  50  72  96 126 168 202 255 313
#     4  10  19  33  50  66  97 135 169 208 248 293
#     4  10  18  32  49  68  94 133 167 207 252 295
#
# _framework density 17.58624
#
# number of rings (size 3 to 8) (size 9 to 14) (size 15 to 20)
#    0.000    2.143    2.857    1.714    4.000    2.000 
#    0.000    0.000    0.000    0.000    0.000    2.000 
#    0.000    0.000    0.000    9.143    0.000    0.143 
#
# Total GULP energy -156051.556320 kJ/mol
# GULP energy per Si atom -5573.269869 kJ/mol
# Density = 1.754621 g / cm^3
# Si number density = 17.586240 Si / 1000 Ang^3
#
#
#
# Elastic Constant Matrix: (Units=GPa)
#
#
# Indices 1 2 3 4 5 6 
#
# 1 67.2934 7.9961 37.4361 -0.0002 -2.7286 0.0002
# 2 7.9961 11.0094 0.2941 -0.0001 -1.1973 0.0001
# 3 37.4361 0.2941 135.7984 0.0000 2.4055 0.0001
# 4 -0.0002 -0.0001 0.0000 8.5435 0.0001 -2.0045
# 5 -2.7286 -1.1973 2.4055 0.0001 31.2509 -0.0001
# 6 0.0002 0.0001 0.0001 -2.0045 -0.0001 9.6906
#
#
#
# Elastic Compliance Matrix: (Units=1/GPa)
#
#
# Indices 1 2 3 4 5 6 
#
# 1 0.019578 -0.013902 -0.005395 0.000000 0.001592 0.000000
# 2 -0.013902 0.101093 0.003571 0.000001 0.002384 -0.000001
# 3 -0.005395 0.003571 0.008861 0.000000 -0.001016 0.000000
# 4 0.000000 0.000001 0.000000 0.123019 0.000000 0.025447
# 5 0.001592 0.002384 -0.001016 0.000000 0.032308 0.000000
# 6 0.000000 -0.000001 0.000000 0.025447 0.000000 0.108456
#
#
# Mechanical properties :
#
#
# Convention : Reuss Voigt Hill
#
# Bulk Modulus (GPa) = 10.19577 33.95041 22.07309
# Shear Modulus (GPa) = 10.92989 21.12200 16.02594
#
# Velocity S-wave (km/s) = 2.49570 3.46938 3.02201
# Velocity P-wave (km/s) = 3.75697 5.94944 4.97547
#
# Compressibility (1/GPa) = 0.09807989
#
# Stress axis : x y z
#
# Youngs Moduli (GPa) = 51.07701 9.89190 112.84798
#
# Poissons Ratio (x) = 0.13752 0.60885
# Poissons Ratio (y) = 0.71009 -0.40302
# Poissons Ratio (z) = 0.27558 -0.03533
#
# Static dielectric constant tensor:
#      x y z
#    x 1.608900 0.000000 -0.010690 
#    y 0.000000 1.580390 0.000000 
#    z -0.010690 0.000000 1.617800 
# 
# From -- ./inp_files/77400.got.cif
#   From: 2010.05.17/outbox.cif.g08.bks.cpg/sg12_39_cif.got.tgz:77400.got - 2010.06.03 13:09:07.
