data_PCOD9169669
_publ_section_title
;
Structure prediction by ZEFSAII (Michael W. Deem and Ramdas Pophale) SiO2 
 PCOD9169669
Probable space group: C 2/M
;
_chemical_formula_sum "Si O2"
_cell_formula_units_Z 64
_cell_length_a 21.497625
_cell_length_b 18.057538
_cell_length_c 11.678155
_cell_angle_alpha 90.000000
_cell_angle_beta 115.741724
_cell_angle_gamma 90.000000
_cell_volume 4083.502460
_symmetry_space_group_name_H-M "C 2/M"
_symmetry_group_IT_number 12
_symmetry_cell_setting 'monoclinic'
loop_
_space_group_symop_operation_xyz
x,y,z
-x,y,-z
-x,-y,-z
x,-y,z
1/2+x,1/2+y,z
1/2-x,1/2+y,-z
1/2-x,1/2-y,-z
1/2+x,1/2-y,z
loop_
_atom_site_type_symbol
_atom_site_label
_atom_site_fract_x
_atom_site_fract_y
_atom_site_fract_z
Si Si1 0.294131 0.090230 0.288620
Si Si2 0.897583 0.411336 0.964858
Si Si3 0.642989 0.414693 0.215820
Si Si4 0.986597 0.181614 0.851792
Si Si5 0.768168 0.409825 0.007512
Si Si6 0.883837 0.085458 0.080670
Si Si7 0.065679 0.410524 0.476283
Si Si8 0.029937 0.647224 0.198959
O O1 0.222043 0.111260 0.291479
O O2 0.291291 0.114229 0.153443
O O3 0.362951 0.114530 0.408079
O O4 0.293901 0.000000 0.286356
O O5 0.897532 0.500000 0.947848
O O6 0.917756 0.372182 0.862677
O O7 0.824596 0.387158 0.959591
O O8 0.958124 0.391356 0.103229
O O9 0.636088 0.500000 0.249372
O O10 0.584501 0.363045 0.221860
O O11 0.630095 0.415716 0.067849
O O12 0.981522 0.265168 0.805816
O O13 0.050526 0.137166 0.848555
O O14 0.000000 0.184494 0.000000
O O15 0.767698 0.500000 0.008951
O O16 0.688695 0.387837 0.924048
O O17 0.897410 0.000000 0.125077
O O18 0.066565 0.500000 0.474868
O O19 0.056229 0.382624 0.340243
O O20 0.000000 0.387579 0.500000
#
# Coordination Sequence:
#
# PCOD9169669 Si02
#       8
#     8   8   8   8   8   8   8   8
#     4   8  14  26  44  68  89 109 146 194 229 259
#     4  10  18  30  46  61  89 126 155 183 218 267
#     4   8  14  25  45  68  91 118 149 184 228 269
#     4  10  17  28  43  64  99 126 146 181 224 271
#     4   8  14  26  46  70  92 114 146 187 226 263
#     4   8  14  25  45  71  94 118 150 184 223 270
#     4  10  19  31  49  67  85 112 153 198 229 257
#     4  11  20  30  42  65  94 121 154 180 220 272
#
# _framework density 15.672821000000001
#
# number of rings (size 3 to 8) (size 9 to 14) (size 15 to 20)
#    0.000    2.875    1.250    4.125    0.000    3.500 
#    0.000    1.250    2.750    0.000    0.000    0.000 
#    0.000    1.000    0.000    0.000    0.000    0.000 
#
# Total GULP energy -178206.535607 kJ/mol
# GULP energy per Si atom -5568.954238 kJ/mol
# Density = 1.563715 g / cm^3
# Si number density = 15.672821 Si / 1000 Ang^3
#
#
#
# Elastic Constant Matrix: (Units=GPa)
#
#
# Indices 1 2 3 4 5 6 
#
# 1 142.4281 40.1387 50.2499 0.0000 21.5120 0.0000
# 2 40.1387 48.1868 20.8333 0.0000 9.6134 0.0000
# 3 50.2499 20.8333 55.4540 0.0000 11.9586 0.0000
# 4 0.0000 0.0000 0.0000 8.1258 0.0000 -0.2400
# 5 21.5120 9.6134 11.9586 0.0000 17.9121 0.0000
# 6 0.0000 0.0000 0.0000 -0.2400 0.0000 -0.6894
#
#
#
# Elastic Compliance Matrix: (Units=1/GPa)
#
#
# Indices 1 2 3 4 5 6 
#
# 1 0.012291 -0.005627 -0.007583 0.000000 -0.006678 0.000000
# 2 -0.005627 0.028450 -0.004385 0.000000 -0.005583 0.000000
# 3 -0.007583 -0.004385 0.028131 0.000000 -0.007320 0.000000
# 4 0.000000 0.000000 0.000000 0.121811 0.000000 -0.042413
# 5 -0.006678 -0.005583 -0.007320 0.000000 0.071732 0.000000
# 6 0.000000 0.000000 0.000000 -0.042413 0.000000 -1.435723
#
#
# Mechanical properties :
#
#
# Convention : Reuss Voigt Hill
#
# Bulk Modulus (GPa) = 29.69108 52.05696 40.87402
# Shear Modulus (GPa) = -4.43699 14.05950 4.81126
#
# Velocity S-wave (km/s) = -1.68439 2.99835 1.75399
# Velocity P-wave (km/s) = 3.89905 6.72857 5.49892
#
# Compressibility (1/GPa) = 0.03368015
#
# Stress axis : x y z
#
# Youngs Moduli (GPa) = 81.35962 35.14982 35.54849
#
# Poissons Ratio (x) = 0.19780 0.26958
# Poissons Ratio (y) = 0.45783 0.15588
# Poissons Ratio (z) = 0.61698 0.15413
#
# Static dielectric constant tensor:
#      x y z
#    x 1.550230 0.000000 0.013610 
#    y 0.000000 1.510020 0.000000 
#    z 0.013610 0.000000 1.495690 
# 
# From -- ./inp_files/168488.got.cif
#   From: 2010.05.17/outbox.cif.g08.bks.cpg/sg12_85_cif.got.tgz:168488.got - 2010.06.03 13:09:07.
