data_PCOD9169502
_publ_section_title
;
Structure prediction by ZEFSAII (Michael W. Deem and Ramdas Pophale) SiO2 
 PCOD9169502
Probable space group: C 2/M
;
_chemical_formula_sum "Si O2"
_cell_formula_units_Z 40
_cell_length_a 11.398727
_cell_length_b 21.336542
_cell_length_c 12.158096
_cell_angle_alpha 90.000000
_cell_angle_beta 146.713067
_cell_angle_gamma 90.000000
_cell_volume 1622.876716
_symmetry_space_group_name_H-M "C 2/M"
_symmetry_group_IT_number 12
_symmetry_cell_setting 'monoclinic'
loop_
_space_group_symop_operation_xyz
x,y,z
-x,y,-z
-x,-y,-z
x,-y,z
1/2+x,1/2+y,z
1/2-x,1/2+y,-z
1/2-x,1/2-y,-z
1/2+x,1/2-y,z
loop_
_atom_site_type_symbol
_atom_site_label
_atom_site_fract_x
_atom_site_fract_y
_atom_site_fract_z
Si Si1 0.254514 0.567565 0.732062
Si Si2 0.761814 0.697604 0.366557
Si Si3 0.855406 0.669541 0.692356
Si Si4 0.244153 0.929169 0.774150
Si Si5 0.226556 0.571011 0.968178
O O1 0.329473 0.500000 0.743982
O O2 0.338502 0.633958 0.757509
O O3 0.289218 0.566873 0.889773
O O4 0.000000 0.569233 0.500000
O O5 0.776011 0.683928 0.507633
O O6 0.635444 0.761835 0.245972
O O7 0.000000 0.705681 0.500000
O O8 0.716901 0.622689 0.659174
O O9 0.072495 0.631021 0.848119
O O10 0.202840 0.000000 0.704752
O O11 0.500000 0.924422 0.000000
O O12 0.140291 0.920716 0.813912
O O13 0.130424 0.500000 0.909345
#
# Coordination Sequence:
#
# PCOD9169502 Si02
#       5
#     8   8   8   8   8
#     4   9  15  25  43  63  85 106 136 182 221 246
#     4  10  19  29  40  61  89 118 145 170 209 254
#     4  10  17  27  44  60  87 121 137 169 216 260
#     4   8  15  26  44  67  86 107 139 179 219 254
#     4   9  15  27  48  69  86 108 138 182 224 252
#
# _framework density 24.647590999999998
#
# number of rings (size 3 to 8) (size 9 to 14) (size 15 to 20)
#    0.000    2.800    4.000    1.800    0.000    0.800 
#    0.000    1.000    0.000    2.400    0.000    0.000 
#    0.000    7.200    0.000    0.800    0.000    0.000 
#
# Total GULP energy -111491.765413 kJ/mol
# GULP energy per Si atom -5574.588271 kJ/mol
# Density = 2.459149 g / cm^3
# Si number density = 24.647591 Si / 1000 Ang^3
#
#
#
# Elastic Constant Matrix: (Units=GPa)
#
#
# Indices 1 2 3 4 5 6 
#
# 1 92.0051 52.7911 39.0163 0.0003 -27.2832 0.0004
# 2 52.7911 277.2601 52.0063 0.0000 -30.3664 0.0001
# 3 39.0163 52.0063 89.9372 0.0003 -21.7025 0.0005
# 4 0.0003 0.0000 0.0003 31.9584 0.0002 -18.8038
# 5 -27.2832 -30.3664 -21.7025 0.0002 54.8612 0.0003
# 6 0.0004 0.0001 0.0005 -18.8038 0.0003 14.6367
#
#
#
# Elastic Compliance Matrix: (Units=1/GPa)
#
#
# Indices 1 2 3 4 5 6 
#
# 1 0.015085 -0.001492 -0.004500 -0.000001 0.004896 -0.000002
# 2 -0.001492 0.004301 -0.001597 0.000000 0.001007 0.000000
# 3 -0.004500 -0.001597 0.014638 -0.000002 0.002669 -0.000002
# 4 -0.000001 0.000000 -0.000002 0.128185 -0.000003 0.164679
# 5 0.004896 0.001007 0.002669 -0.000003 0.022276 -0.000004
# 6 -0.000002 0.000000 -0.000002 0.164679 -0.000004 0.279884
#
#
# Mechanical properties :
#
#
# Convention : Reuss Voigt Hill
#
# Bulk Modulus (GPa) = 53.05892 82.98106 68.01999
# Shear Modulus (GPa) = 10.29171 41.31718 25.80445
#
# Velocity S-wave (km/s) = 2.04563 4.09873 3.23915
# Velocity P-wave (km/s) = 5.21088 7.49263 6.45340
#
# Compressibility (1/GPa) = 0.01884697
#
# Stress axis : x y z
#
# Youngs Moduli (GPa) = 66.29002 232.52872 68.31358
#
# Poissons Ratio (x) = 0.34692 0.30741
# Poissons Ratio (y) = 0.09890 0.10907
# Poissons Ratio (z) = 0.29831 0.37126
#
# Static dielectric constant tensor:
#      x y z
#    x 2.227280 0.000000 0.061390 
#    y 0.000000 1.909450 0.000000 
#    z 0.061390 0.000000 2.010930 
# 
# From -- ./inp_files/145048.got.cif
#   From: 2010.05.17/outbox.cif.g08.bks.cpg/sg12_73_cif.got.tgz:145048.got - 2010.06.03 13:09:07.
