data_PCOD9169178
_publ_section_title
;
Structure prediction by ZEFSAII (Michael W. Deem and Ramdas Pophale) SiO2 
 PCOD9169178
Probable space group: C 2/M
;
_chemical_formula_sum "Si O2"
_cell_formula_units_Z 56
_cell_length_a 33.722134
_cell_length_b 8.755815
_cell_length_c 18.479060
_cell_angle_alpha 90.000000
_cell_angle_beta 138.725730
_cell_angle_gamma 90.000000
_cell_volume 3599.270084
_symmetry_space_group_name_H-M "C 2/M"
_symmetry_group_IT_number 12
_symmetry_cell_setting 'monoclinic'
loop_
_space_group_symop_operation_xyz
x,y,z
-x,y,-z
-x,-y,-z
x,-y,z
1/2+x,1/2+y,z
1/2-x,1/2+y,-z
1/2-x,1/2-y,-z
1/2+x,1/2-y,z
loop_
_atom_site_type_symbol
_atom_site_label
_atom_site_fract_x
_atom_site_fract_y
_atom_site_fract_z
Si Si1 0.601442 0.184079 0.932852
Si Si2 0.589432 0.315490 0.670422
Si Si3 0.683538 0.182789 0.909356
Si Si4 0.442515 0.816616 0.836253
Si Si5 0.463636 0.183151 0.707710
Si Si6 0.542546 0.683477 0.453089
Si Si7 0.923581 0.182075 0.955173
O O1 0.647984 0.226346 0.934072
O O2 0.533896 0.229033 0.814745
O O3 0.614032 0.261395 0.027437
O O4 0.601337 0.000000 0.941789
O O5 0.593491 0.500000 0.678981
O O6 0.644200 0.243461 0.788530
O O7 0.526230 0.271064 0.621855
O O8 0.582703 0.269937 0.577057
O O9 0.685887 0.000000 0.910071
O O10 0.750000 0.250000 0.000000
O O11 0.429059 0.774733 0.734453
O O12 0.510915 0.757897 0.941062
O O13 0.441666 0.000000 0.841958
O O14 0.405351 0.742165 0.850710
O O15 0.440431 0.251845 0.601330
O O16 0.462929 0.000000 0.701627
O O17 0.543359 0.500000 0.451436
O O18 0.928861 0.000000 0.961619
#
# Coordination Sequence:
#
# PCOD9169178 Si02
#       7
#     8   8   8   8   8   8   8
#     4   9  18  31  43  58  84 117 149 180 224 273
#     4   9  18  32  46  65  90 118 150 185 229 272
#     4  11  22  35  50  67  88 118 155 194 232 270
#     4   9  16  26  37  53  84 119 145 175 217 263
#     4   9  16  26  41  62  87 116 152 183 214 265
#     4   9  17  28  45  66  91 119 148 185 226 267
#     4  10  17  24  38  59  80 108 148 185 216 257
#
# _framework density 15.55871
#
# number of rings (size 3 to 8) (size 9 to 14) (size 15 to 20)
#    0.000    2.571    1.429    4.714    0.000    4.571 
#    0.000    1.429    0.000    0.000    0.000    0.000 
#    0.000    1.143    0.000    3.714    0.000    4.857 
#
# Total GULP energy -155940.534507 kJ/mol
# GULP energy per Si atom -5569.304804 kJ/mol
# Density = 1.552330 g / cm^3
# Si number density = 15.558710 Si / 1000 Ang^3
#
#
#
# Elastic Constant Matrix: (Units=GPa)
#
#
# Indices 1 2 3 4 5 6 
#
# 1 102.4173 32.9615 65.9328 0.0000 -39.1467 0.0000
# 2 32.9615 30.8944 27.9885 0.0000 -11.3237 0.0000
# 3 65.9328 27.9885 88.6469 0.0000 -24.1244 0.0000
# 4 0.0000 0.0000 0.0000 22.0996 0.0000 -8.9488
# 5 -39.1467 -11.3237 -24.1244 0.0000 32.5768 0.0000
# 6 0.0000 0.0000 0.0000 -8.9488 0.0000 24.8673
#
#
#
# Elastic Compliance Matrix: (Units=1/GPa)
#
#
# Indices 1 2 3 4 5 6 
#
# 1 0.031029 -0.013148 -0.012553 0.000000 0.023420 0.000000
# 2 -0.013148 0.052020 -0.007544 0.000000 -0.003305 0.000000
# 3 -0.012553 -0.007544 0.022769 0.000000 -0.000846 0.000000
# 4 0.000000 0.000000 0.000000 0.052968 0.000000 0.019061
# 5 0.023420 -0.003305 -0.000846 0.000000 0.057064 0.000000
# 6 0.000000 0.000000 0.000000 0.019061 0.000000 0.047073
#
#
# Mechanical properties :
#
#
# Convention : Reuss Voigt Hill
#
# Bulk Modulus (GPa) = 25.42859 52.85826 39.14342
# Shear Modulus (GPa) = 14.59756 22.24714 18.42235
#
# Velocity S-wave (km/s) = 3.06637 3.78548 3.44474
# Velocity P-wave (km/s) = 5.37735 7.29066 6.40584
#
# Compressibility (1/GPa) = 0.03932581
#
# Stress axis : x y z
#
# Youngs Moduli (GPa) = 32.22839 19.22354 43.91880
#
# Poissons Ratio (x) = 0.25275 0.55133
# Poissons Ratio (y) = 0.42374 0.33134
# Poissons Ratio (z) = 0.40457 0.14503
#
# Static dielectric constant tensor:
#      x y z
#    x 1.553140 0.000000 -0.043210 
#    y 0.000000 1.520620 0.000000 
#    z -0.043210 0.000000 1.501910 
# 
# From -- ./inp_files/295175.got.cif
#   From: 2010.05.17/outbox.cif.g08.bks.cpg/sg12_148_cif.got.tgz:295175.got - 2010.06.03 13:09:07.
