data_PCOD9169904
_publ_section_title
;
Structure prediction by ZEFSAII (Michael W. Deem and Ramdas Pophale) SiO2 
 PCOD9169904
Probable space group: C 2/M
;
_chemical_formula_sum "Si O2"
_cell_formula_units_Z 56
_cell_length_a 15.897899
_cell_length_b 23.655338
_cell_length_c 14.932533
_cell_angle_alpha 90.000000
_cell_angle_beta 140.136008
_cell_angle_gamma 90.000000
_cell_volume 3599.467846
_symmetry_space_group_name_H-M "C 2/M"
_symmetry_group_IT_number 12
_symmetry_cell_setting 'monoclinic'
loop_
_space_group_symop_operation_xyz
x,y,z
-x,y,-z
-x,-y,-z
x,-y,z
1/2+x,1/2+y,z
1/2-x,1/2+y,-z
1/2-x,1/2-y,-z
1/2+x,1/2-y,z
loop_
_atom_site_type_symbol
_atom_site_label
_atom_site_fract_x
_atom_site_fract_y
_atom_site_fract_z
Si Si1 0.863128 0.333097 0.145706
Si Si2 0.016150 0.275172 0.118652
Si Si3 0.552042 0.723033 0.686591
Si Si4 0.370771 0.121612 0.342507
Si Si5 0.065243 0.156734 0.867619
Si Si6 0.402294 0.435940 0.835431
Si Si7 0.815287 0.252723 0.376904
O O1 0.950510 0.322418 0.128857
O O2 0.865708 0.269882 0.190929
O O3 0.905731 0.370202 0.266210
O O4 0.719566 0.355071 0.002811
O O5 0.954294 0.213432 0.088535
O O6 0.166858 0.265051 0.269874
O O7 0.000000 0.287257 0.000000
O O8 0.535184 0.672278 0.740709
O O9 0.411068 0.746912 0.539978
O O10 0.629156 0.713423 0.657802
O O11 0.500000 0.101623 0.500000
O O12 0.241908 0.084163 0.252027
O O13 0.333006 0.183648 0.352841
O O14 0.968310 0.108545 0.822254
O O15 0.396882 0.500000 0.796272
O O16 0.500000 0.434978 0.000000
#
# Coordination Sequence:
#
# PCOD9169904 Si02
#       7
#     8   8   8   8   8   8   8
#     4  10  19  30  44  71  96 133 171 192 243 307
#     4  11  19  27  45  69 101 134 162 193 240 301
#     4   9  18  29  44  73 101 134 164 194 237 308
#     4  11  19  35  53  69 104 138 168 208 256 295
#     4  11  19  31  50  67  99 132 168 206 250 288
#     4  11  23  37  54  72  93 129 179 220 252 290
#     4  10  17  29  46  71 107 133 162 191 243 305
#
# _framework density 15.557855
#
# number of rings (size 3 to 8) (size 9 to 14) (size 15 to 20)
#    0.000    1.571    5.714    4.714    0.000    3.714 
#    0.000    0.000    0.000    0.000    0.000    2.000 
#    0.000   10.286    0.000    0.000    0.000    0.000 
#
# Total GULP energy -155973.837993 kJ/mol
# GULP energy per Si atom -5570.494214 kJ/mol
# Density = 1.552244 g / cm^3
# Si number density = 15.557855 Si / 1000 Ang^3
#
#
#
# Elastic Constant Matrix: (Units=GPa)
#
#
# Indices 1 2 3 4 5 6 
#
# 1 71.7485 25.8656 42.9522 0.0000 5.2700 0.0000
# 2 25.8656 42.4609 22.6344 0.0000 -4.0386 0.0000
# 3 42.9522 22.6344 90.6773 0.0000 9.8546 0.0000
# 4 0.0000 0.0000 0.0000 -4.6281 0.0000 -4.9673
# 5 5.2700 -4.0386 9.8546 0.0000 32.2844 0.0000
# 6 0.0000 0.0000 0.0000 -4.9673 0.0000 10.2295
#
#
#
# Elastic Compliance Matrix: (Units=1/GPa)
#
#
# Indices 1 2 3 4 5 6 
#
# 1 0.022314 -0.009609 -0.007907 0.000000 -0.002431 0.000000
# 2 -0.009609 0.032340 -0.004273 0.000000 0.006918 0.000000
# 3 -0.007907 -0.004273 0.016299 0.000000 -0.004219 0.000000
# 4 0.000000 0.000000 0.000000 -0.142042 0.000000 -0.068973
# 5 -0.002431 0.006918 -0.004219 0.000000 0.033525 0.000000
# 6 0.000000 0.000000 0.000000 -0.068973 0.000000 0.064264
#
#
# Mechanical properties :
#
#
# Convention : Reuss Voigt Hill
#
# Bulk Modulus (GPa) = 36.52967 43.08790 39.80878
# Shear Modulus (GPa) = 62.97110 15.13945 39.05527
#
# Velocity S-wave (km/s) = 6.36893 3.12285 5.01575
# Velocity P-wave (km/s) = 8.80995 6.38422 7.69330
#
# Compressibility (1/GPa) = 0.02737501
#
# Stress axis : x y z
#
# Youngs Moduli (GPa) = 44.81560 30.92112 61.35526
#
# Poissons Ratio (x) = 0.29712 0.48513
# Poissons Ratio (y) = 0.43064 0.26216
# Poissons Ratio (z) = 0.35435 0.13212
#
# Static dielectric constant tensor:
#      x y z
#    x 1.550430 0.000000 0.006560 
#    y 0.000000 1.499470 0.000000 
#    z 0.006560 0.000000 1.554080 
# 
# From -- ./inp_files/218291.got.cif
#   From: 2010.05.17/outbox.cif.g08.bks.cpg/sg12_110_cif.got.tgz:218291.got - 2010.06.03 13:09:07.
