data_PCOD9169445
_publ_section_title
;
Structure prediction by ZEFSAII (Michael W. Deem and Ramdas Pophale) SiO2 
 PCOD9169445
Probable space group: C 2/M
;
_chemical_formula_sum "Si O2"
_cell_formula_units_Z 56
_cell_length_a 28.141462
_cell_length_b 7.567833
_cell_length_c 28.596747
_cell_angle_alpha 90.000000
_cell_angle_beta 30.991501
_cell_angle_gamma 90.000000
_cell_volume 3135.934132
_symmetry_space_group_name_H-M "C 2/M"
_symmetry_group_IT_number 12
_symmetry_cell_setting 'monoclinic'
loop_
_space_group_symop_operation_xyz
x,y,z
-x,y,-z
-x,-y,-z
x,-y,z
1/2+x,1/2+y,z
1/2-x,1/2+y,-z
1/2-x,1/2-y,-z
1/2+x,1/2-y,z
loop_
_atom_site_type_symbol
_atom_site_label
_atom_site_fract_x
_atom_site_fract_y
_atom_site_fract_z
Si Si1 0.903784 0.711068 0.279785
Si Si2 0.607922 0.784922 0.605171
Si Si3 0.794506 0.792555 0.897504
Si Si4 0.579683 0.787775 0.289501
Si Si5 0.205546 0.287905 0.431540
Si Si6 0.521377 0.783723 0.534268
Si Si7 0.103998 0.296107 0.095998
O O1 0.915980 0.500000 0.273864
O O2 0.886322 0.781864 0.347030
O O3 0.809861 0.741132 0.330830
O O4 0.001514 0.781953 0.178638
O O5 0.508824 0.736563 0.667125
O O6 0.681652 0.722765 0.504397
O O7 0.612814 0.000000 0.602138
O O8 0.831133 0.772156 0.814199
O O9 0.864832 0.708658 0.875769
O O10 0.793638 0.000000 0.910006
O O11 0.692034 0.719547 0.994146
O O12 0.554590 0.728192 0.363023
O O13 0.582579 0.000000 0.288008
O O14 0.199785 0.500000 0.437440
O O15 0.122072 0.227976 0.468551
O O16 0.500000 0.724336 0.500000
O O17 0.521441 0.000000 0.534004
O O18 0.902516 0.500000 0.913728
#
# Coordination Sequence:
#
# PCOD9169445 Si02
#       7
#     8   8   8   8   8   8   8
#     4  10  17  27  41  56  82 118 147 166 200 252
#     4   8  14  25  39  55  80 115 142 163 196 244
#     4  10  18  27  41  63  86 111 147 185 214 243
#     4   9  15  27  46  63  85 115 144 173 210 258
#     4   9  17  27  41  62  85 106 138 178 209 243
#     4   8  15  29  49  69  86 109 141 175 215 263
#     4   9  18  30  42  56  83 121 152 177 207 247
#
# _framework density 17.857519
#
# number of rings (size 3 to 8) (size 9 to 14) (size 15 to 20)
#    0.000    3.000    1.429    2.571    0.000    1.143 
#    0.000    2.857    0.000    1.714    0.000    1.000 
#    0.000    8.000    0.000    0.000    0.000    0.000 
#
# Total GULP energy -155985.222038 kJ/mol
# GULP energy per Si atom -5570.900787 kJ/mol
# Density = 1.781687 g / cm^3
# Si number density = 17.857519 Si / 1000 Ang^3
#
#
#
# Elastic Constant Matrix: (Units=GPa)
#
#
# Indices 1 2 3 4 5 6 
#
# 1 66.2654 -0.7415 61.7003 0.0017 4.8684 -0.0016
# 2 -0.7415 39.9468 0.8635 0.0222 -1.2298 -0.0125
# 3 61.7003 0.8635 157.6171 0.0100 -11.0778 -0.0072
# 4 0.0017 0.0222 0.0100 12.0347 -0.0092 -1.8980
# 5 4.8684 -1.2298 -11.0778 -0.0092 22.9681 0.0023
# 6 -0.0016 -0.0125 -0.0072 -1.8980 0.0023 7.6080
#
#
#
# Elastic Compliance Matrix: (Units=1/GPa)
#
#
# Indices 1 2 3 4 5 6 
#
# 1 0.026120 0.000389 -0.010987 -0.000004 -0.010815 -0.000002
# 2 0.000389 0.025081 -0.000208 -0.000040 0.001160 0.000031
# 3 -0.010987 -0.000208 0.011189 -0.000001 0.007714 0.000005
# 4 -0.000004 -0.000040 -0.000001 0.086496 0.000031 0.021578
# 5 -0.010815 0.001160 0.007714 0.000031 0.049614 0.000000
# 6 -0.000002 0.000031 0.000005 0.021578 0.000000 0.136823
#
#
# Mechanical properties :
#
#
# Convention : Reuss Voigt Hill
#
# Bulk Modulus (GPa) = 24.52334 43.05266 33.78800
# Shear Modulus (GPa) = 13.49432 21.98932 17.74182
#
# Velocity S-wave (km/s) = 2.75192 3.51290 3.15544
# Velocity P-wave (km/s) = 4.88467 6.37301 5.67782
#
# Compressibility (1/GPa) = 0.04077748
#
# Stress axis : x y z
#
# Youngs Moduli (GPa) = 38.28504 39.87121 89.37549
#
# Poissons Ratio (x) = -0.01553 0.98197
# Poissons Ratio (y) = -0.01491 0.01862
# Poissons Ratio (z) = 0.42064 0.00831
#
# Static dielectric constant tensor:
#      x y z
#    x 1.582200 0.000000 -0.014930 
#    y 0.000000 1.676870 0.000000 
#    z -0.014930 0.000000 1.671750 
# 
# From -- ./inp_files/247782.got.cif
#   From: 2010.05.17/outbox.cif.g08.bks.cpg/sg12_124_cif.got.tgz:247782.got - 2010.06.03 13:09:07.
