data_PCOD9169672
_publ_section_title
;
Structure prediction by ZEFSAII (Michael W. Deem and Ramdas Pophale) SiO2 
 PCOD9169672
Probable space group: C 2/M
;
_chemical_formula_sum "Si O2"
_cell_formula_units_Z 56
_cell_length_a 24.575073
_cell_length_b 18.375861
_cell_length_c 23.013147
_cell_angle_alpha 90.000000
_cell_angle_beta 20.536062
_cell_angle_gamma 90.000000
_cell_volume 3645.643646
_symmetry_space_group_name_H-M "C 2/M"
_symmetry_group_IT_number 12
_symmetry_cell_setting 'monoclinic'
loop_
_space_group_symop_operation_xyz
x,y,z
-x,y,-z
-x,-y,-z
x,-y,z
1/2+x,1/2+y,z
1/2-x,1/2+y,-z
1/2-x,1/2-y,-z
1/2+x,1/2-y,z
loop_
_atom_site_type_symbol
_atom_site_label
_atom_site_fract_x
_atom_site_fract_y
_atom_site_fract_z
Si Si1 0.311079 0.500000 0.622658
Si Si2 0.315120 0.272591 0.371367
Si Si3 0.686533 0.627081 0.160485
Si Si4 0.811053 0.000000 0.755205
Si Si5 0.313505 0.372923 0.533505
Si Si6 0.184893 0.772598 0.001595
Si Si7 0.685733 0.082633 0.534686
Si Si8 0.814317 0.417367 0.906110
O O1 0.256117 0.500000 0.743880
O O2 0.500013 0.500000 0.434703
O O3 0.265017 0.428611 0.632343
O O4 0.250000 0.250000 0.500000
O O5 0.250897 0.208715 0.394752
O O6 0.500006 0.271185 0.187512
O O7 0.254790 0.354631 0.424481
O O8 0.735016 0.571392 0.162352
O O9 0.500019 0.629544 0.343924
O O10 0.748602 0.596558 0.036774
O O11 0.750900 0.708725 0.103457
O O12 0.251458 0.403445 0.533906
O O13 0.245242 0.854636 0.934038
O O14 0.250000 0.750000 0.000000
O O15 0.723879 0.000000 0.479354
O O16 0.500025 0.090622 0.722711
O O17 0.776163 0.500000 0.927083
#
# Coordination Sequence:
#
# PCOD9169672 Si02
#       8
#     4   8   8   4   8   8   8   8
#     4   9  18  30  45  65  85 111 149 187 218 251
#     4  10  18  27  40  58  82 110 142 173 208 255
#     4  10  17  28  44  59  81 111 144 179 215 251
#     4   9  18  30  45  65  85 111 149 187 218 251
#     4  10  17  28  44  59  81 111 144 179 215 251
#     4  10  18  27  40  58  82 110 142 173 208 255
#     4  10  18  27  41  61  86 112 141 174 209 253
#     4  10  18  27  41  61  86 112 141 174 209 253
#
# _framework density 15.360799999999999
#
# number of rings (size 3 to 8) (size 9 to 14) (size 15 to 20)
#    0.000    2.143    1.429    7.714    0.000    1.714 
#    0.000    0.000    0.000    6.857    0.000    0.000 
#    0.000    1.143    0.000   13.143    0.000    3.714 
#
# Total GULP energy -156028.731241 kJ/mol
# GULP energy per Si atom -5572.454687 kJ/mol
# Density = 1.532584 g / cm^3
# Si number density = 15.360800 Si / 1000 Ang^3
#
#
#
# Elastic Constant Matrix: (Units=GPa)
#
#
# Indices 1 2 3 4 5 6 
#
# 1 49.1572 52.0596 20.1082 0.0008 3.4934 -0.0003
# 2 52.0596 182.0650 56.8871 0.0080 -1.4141 -0.0023
# 3 20.1082 56.8871 75.7392 0.0191 -11.2838 -0.0063
# 4 0.0008 0.0080 0.0191 24.7861 -0.0058 -3.0481
# 5 3.4934 -1.4141 -11.2838 -0.0058 12.8975 0.0006
# 6 -0.0003 -0.0023 -0.0063 -3.0481 0.0006 14.3873
#
#
#
# Elastic Compliance Matrix: (Units=1/GPa)
#
#
# Indices 1 2 3 4 5 6 
#
# 1 0.031197 -0.007602 -0.004549 0.000002 -0.013263 -0.000002
# 2 -0.007602 0.009266 -0.005155 0.000001 -0.001435 -0.000001
# 3 -0.004549 -0.005155 0.021137 -0.000009 0.019159 0.000006
# 4 0.000002 0.000001 -0.000009 0.041424 0.000010 0.008776
# 5 -0.013263 -0.001435 0.019159 0.000010 0.097731 0.000006
# 6 -0.000002 -0.000001 0.000006 0.008776 0.000006 0.071365
#
#
# Mechanical properties :
#
#
# Convention : Reuss Voigt Hill
#
# Bulk Modulus (GPa) = 37.05279 62.78570 49.91925
# Shear Modulus (GPa) = 15.83640 22.27463 19.05552
#
# Velocity S-wave (km/s) = 3.21434 3.81214 3.52594
# Velocity P-wave (km/s) = 6.16036 7.76784 7.01033
#
# Compressibility (1/GPa) = 0.02698852
#
# Stress axis : x y z
#
# Youngs Moduli (GPa) = 32.05410 107.92263 47.31038
#
# Poissons Ratio (x) = 0.82046 0.21519
# Poissons Ratio (y) = 0.24369 0.24388
# Poissons Ratio (z) = 0.14580 0.55633
#
# Static dielectric constant tensor:
#      x y z
#    x 1.477890 0.000000 -0.011890 
#    y 0.000000 1.577730 0.000000 
#    z -0.011890 0.000000 1.518470 
# 
# From -- ./inp_files/349945.got.cif
#   From: 2010.05.17/outbox.cif.g08.bks.cpg/sg12_175_cif.got.tgz:349945.got - 2010.06.03 13:09:07.
