data_PCOD9169415
_publ_section_title
;
Structure prediction by ZEFSAII (Michael W. Deem and Ramdas Pophale) SiO2 
 PCOD9169415
Probable space group: C 2/M
;
_chemical_formula_sum "Si O2"
_cell_formula_units_Z 40
_cell_length_a 15.935853
_cell_length_b 8.556474
_cell_length_c 16.492115
_cell_angle_alpha 90.000000
_cell_angle_beta 133.180834
_cell_angle_gamma 90.000000
_cell_volume 1639.803163
_symmetry_space_group_name_H-M "C 2/M"
_symmetry_group_IT_number 12
_symmetry_cell_setting 'monoclinic'
loop_
_space_group_symop_operation_xyz
x,y,z
-x,y,-z
-x,-y,-z
x,-y,z
1/2+x,1/2+y,z
1/2-x,1/2+y,-z
1/2-x,1/2-y,-z
1/2+x,1/2-y,z
loop_
_atom_site_type_symbol
_atom_site_label
_atom_site_fract_x
_atom_site_fract_y
_atom_site_fract_z
Si Si1 0.124611 0.184843 0.938559
Si Si2 0.415470 0.184125 0.346006
Si Si3 0.188718 0.683256 0.141412
Si Si4 0.151289 0.186219 0.522131
Si Si5 0.396503 0.184509 0.729192
O O1 0.020753 0.237227 0.811940
O O2 0.128026 0.000000 0.942222
O O3 0.250000 0.250000 0.000000
O O4 0.107545 0.251469 0.017860
O O5 0.310484 0.226880 0.218475
O O6 0.383480 0.278883 0.406796
O O7 0.544515 0.232554 0.406009
O O8 0.414754 0.000000 0.362783
O O9 0.208700 0.500000 0.140176
O O10 0.141369 0.700486 0.201025
O O11 0.283660 0.245661 0.605946
O O12 0.150210 0.000000 0.507671
O O13 0.408305 0.000000 0.719362
#
# Coordination Sequence:
#
# PCOD9169415 Si02
#       5
#     8   8   8   8   8
#     4  12  25  39  56  77 105 140 179 222 268 319
#     4  10  17  26  45  76 110 139 173 216 259 307
#     4  10  20  36  57  80 109 142 177 218 265 316
#     4   9  16  28  47  73 107 143 174 210 261 313
#     4   9  19  35  56  81 109 141 177 218 263 313
#
# _framework density 24.393172
#
# number of rings (size 3 to 8) (size 9 to 14) (size 15 to 20)
#    0.000    2.000    0.000    7.800    0.000    7.200 
#    0.000    0.000    0.000    1.200    0.000    0.000 
#    0.000    0.000    0.000    0.000    0.000    0.000 
#
# Total GULP energy -111885.141495 kJ/mol
# GULP energy per Si atom -5594.257075 kJ/mol
# Density = 2.433765 g / cm^3
# Si number density = 24.393172 Si / 1000 Ang^3
#
#
#
# Elastic Constant Matrix: (Units=GPa)
#
#
# Indices 1 2 3 4 5 6 
#
# 1 63.4191 6.7454 7.5571 0.0000 20.7037 0.0000
# 2 6.7454 75.8666 33.0930 0.0000 12.7777 0.0000
# 3 7.5571 33.0930 180.9511 0.0000 15.5439 0.0000
# 4 0.0000 0.0000 0.0000 39.7101 0.0000 11.7687
# 5 20.7037 12.7777 15.5439 0.0000 48.9215 0.0000
# 6 0.0000 0.0000 0.0000 11.7687 0.0000 11.9708
#
#
#
# Elastic Compliance Matrix: (Units=1/GPa)
#
#
# Indices 1 2 3 4 5 6 
#
# 1 0.018305 -0.000318 -0.000049 0.000000 -0.007648 0.000000
# 2 -0.000318 0.014768 -0.002434 0.000000 -0.002949 0.000000
# 3 -0.000049 -0.002434 0.006083 0.000000 -0.001276 0.000000
# 4 0.000000 0.000000 0.000000 0.035536 0.000000 -0.034937
# 5 -0.007648 -0.002949 -0.001276 0.000000 0.024853 0.000000
# 6 0.000000 0.000000 0.000000 -0.034937 0.000000 0.117884
#
#
# Mechanical properties :
#
#
# Convention : Reuss Voigt Hill
#
# Bulk Modulus (GPa) = 29.80388 46.11420 37.95904
# Shear Modulus (GPa) = 21.34782 38.30989 29.82885
#
# Velocity S-wave (km/s) = 2.96151 3.96727 3.50070
# Velocity P-wave (km/s) = 4.89272 6.31912 5.65111
#
# Compressibility (1/GPa) = 0.03355268
#
# Stress axis : x y z
#
# Youngs Moduli (GPa) = 54.63135 67.71492 164.38692
#
# Poissons Ratio (x) = 0.02153 0.00812
# Poissons Ratio (y) = 0.01737 0.40015
# Poissons Ratio (z) = 0.00270 0.16483
#
# Static dielectric constant tensor:
#      x y z
#    x 2.050890 0.000000 -0.015570 
#    y 0.000000 1.805350 0.000000 
#    z -0.015570 0.000000 1.929070 
# 
# From -- ./inp_files/162646.got.cif
#   From: 2010.05.17/outbox.cif.g08.bks.cpg/sg12_82_cif.got.tgz:162646.got - 2010.06.03 13:09:07.
