data_PCOD9169137
_publ_section_title
;
Structure prediction by ZEFSAII (Michael W. Deem and Ramdas Pophale) SiO2 
 PCOD9169137
Probable space group: C 2/M
;
_chemical_formula_sum "Si O2"
_cell_formula_units_Z 40
_cell_length_a 14.741638
_cell_length_b 14.746835
_cell_length_c 7.244452
_cell_angle_alpha 90.000000
_cell_angle_beta 105.911846
_cell_angle_gamma 90.000000
_cell_volume 1514.547106
_symmetry_space_group_name_H-M "C 2/M"
_symmetry_group_IT_number 12
_symmetry_cell_setting 'monoclinic'
loop_
_space_group_symop_operation_xyz
x,y,z
-x,y,-z
-x,-y,-z
x,-y,z
1/2+x,1/2+y,z
1/2-x,1/2+y,-z
1/2-x,1/2-y,-z
1/2+x,1/2-y,z
loop_
_atom_site_type_symbol
_atom_site_label
_atom_site_fract_x
_atom_site_fract_y
_atom_site_fract_z
Si Si1 0.898148 0.105669 0.902997
Si Si2 0.792529 0.654848 0.583648
Si Si3 0.494492 0.107771 0.719187
Si Si4 0.899973 0.899655 0.463301
Si Si5 0.801922 0.604695 0.167859
O O1 0.889512 0.100672 0.677802
O O2 0.801008 0.147228 0.925569
O O3 0.901296 0.000000 0.967891
O O4 0.000000 0.147380 0.000000
O O5 0.750000 0.750000 0.500000
O O6 0.706119 0.621248 0.660888
O O7 0.805067 0.602271 0.395782
O O8 0.897179 0.654915 0.724890
O O9 0.500000 0.115015 0.500000
O O10 0.597299 0.143517 0.839120
O O11 0.486882 0.000000 0.760230
O O12 0.000000 0.847065 0.500000
O O13 0.916741 0.000000 0.395396
O O14 0.800888 0.500000 0.105118
#
# Coordination Sequence:
#
# PCOD9169137 Si02
#       5
#     8   8   8   8   8
#     4   8  13  23  41  64  85 104 133 171 204 237
#     4  10  17  23  35  57  81 107 134 167 200 236
#     4   8  13  23  38  53  73 101 130 164 205 240
#     4   9  17  28  40  58  86 113 133 159 202 251
#     4   8  14  25  40  58  79 101 129 168 208 238
#
# _framework density 26.410537000000001
#
# number of rings (size 3 to 8) (size 9 to 14) (size 15 to 20)
#    0.000    3.400    0.000    4.200    0.000    2.400 
#    0.000    0.000    0.000    0.000    0.000   23.800 
#    0.000    9.600    0.000    0.000    0.000    3.200 
#
# Total GULP energy -111385.003570 kJ/mol
# GULP energy per Si atom -5569.250179 kJ/mol
# Density = 2.635043 g / cm^3
# Si number density = 26.410537 Si / 1000 Ang^3
#
#
#
# Elastic Constant Matrix: (Units=GPa)
#
#
# Indices 1 2 3 4 5 6 
#
# 1 292.2656 31.1616 79.7600 0.0000 114.5400 0.0000
# 2 31.1616 52.4615 -6.2892 0.0000 15.3151 0.0000
# 3 79.7600 -6.2892 91.9988 0.0000 5.6659 0.0000
# 4 0.0000 0.0000 0.0000 -11.4307 0.0000 -28.7925
# 5 114.5400 15.3151 5.6659 0.0000 85.1685 0.0000
# 6 0.0000 0.0000 0.0000 -28.7925 0.0000 -110.9105
#
#
#
# Elastic Compliance Matrix: (Units=1/GPa)
#
#
# Indices 1 2 3 4 5 6 
#
# 1 0.013157 -0.004371 -0.010708 0.000000 -0.016197 0.000000
# 2 -0.004371 0.021808 0.005181 0.000000 0.001612 0.000000
# 3 -0.010708 0.005181 0.019759 0.000000 0.012155 0.000000
# 4 0.000000 0.000000 0.000000 -0.252769 0.000000 0.065619
# 5 -0.016197 0.001612 0.012155 0.000000 0.032425 0.000000
# 6 0.000000 0.000000 0.000000 0.065619 0.000000 -0.026051
#
#
# Mechanical properties :
#
#
# Convention : Reuss Voigt Hill
#
# Bulk Modulus (GPa) = 28.62999 71.77675 50.20337
# Shear Modulus (GPa) = -31.20500 14.70502 -8.24999
#
# Velocity S-wave (km/s) = -3.44108 2.36219 -1.76933
# Velocity P-wave (km/s) = 2.21903 5.88865 3.85695
#
# Compressibility (1/GPa) = 0.03492841
#
# Stress axis : x y z
#
# Youngs Moduli (GPa) = 76.00291 45.85393 50.60959
#
# Poissons Ratio (x) = 0.20042 0.54195
# Poissons Ratio (y) = 0.33220 -0.26221
# Poissons Ratio (z) = 0.81387 -0.23757
#
# Static dielectric constant tensor:
#      x y z
#    x 2.449160 0.000000 -0.030480 
#    y 0.000000 2.035170 0.000000 
#    z -0.030480 0.000000 2.672370 
# 
# From -- ./inp_files/105884.got.cif
#   From: 2010.05.17/outbox.cif.g08.bks.cpg/sg12_53_cif.got.tgz:105884.got - 2010.06.03 13:09:07.
