data_PCOD9169475
_publ_section_title
;
Structure prediction by ZEFSAII (Michael W. Deem and Ramdas Pophale) SiO2 
 PCOD9169475
Probable space group: C 2/M
;
_chemical_formula_sum "Si O2"
_cell_formula_units_Z 56
_cell_length_a 24.664307
_cell_length_b 12.843166
_cell_length_c 11.045236
_cell_angle_alpha 90.000000
_cell_angle_beta 86.860617
_cell_angle_gamma 90.000000
_cell_volume 3493.524245
_symmetry_space_group_name_H-M "C 2/M"
_symmetry_group_IT_number 12
_symmetry_cell_setting 'monoclinic'
loop_
_space_group_symop_operation_xyz
x,y,z
-x,y,-z
-x,-y,-z
x,-y,z
1/2+x,1/2+y,z
1/2-x,1/2+y,-z
1/2-x,1/2-y,-z
1/2+x,1/2-y,z
loop_
_atom_site_type_symbol
_atom_site_label
_atom_site_fract_x
_atom_site_fract_y
_atom_site_fract_z
Si Si1 0.614442 0.120310 0.215358
Si Si2 0.502229 0.127209 0.857849
Si Si3 0.280193 0.194184 0.681348
Si Si4 0.216548 0.117163 0.925888
Si Si5 0.387846 0.881843 0.273682
Si Si6 0.326053 0.162499 0.039474
Si Si7 0.784665 0.621654 0.411864
O O1 0.552420 0.154837 0.207899
O O2 0.656838 0.186621 0.288364
O O3 0.616452 0.000000 0.257864
O O4 0.638091 0.123993 0.076345
O O5 0.555494 0.165422 0.779266
O O6 0.504602 0.000000 0.861361
O O7 0.500000 0.160185 0.000000
O O8 0.246463 0.141191 0.794331
O O9 0.256489 0.309003 0.661448
O O10 0.272286 0.136724 0.554689
O O11 0.175492 0.211763 0.953627
O O12 0.194987 0.000000 0.929361
O O13 0.264548 0.128041 0.019314
O O14 0.350555 0.881375 0.158533
O O15 0.346237 0.837474 0.378011
O O16 0.400407 0.000000 0.310962
O O17 0.782498 0.500000 0.380969
#
# Coordination Sequence:
#
# PCOD9169475 Si02
#       7
#     8   8   8   8   8   8   8
#     4  10  18  30  47  68  96 125 153 187 224 277
#     4   9  16  26  44  68  93 122 150 180 228 282
#     4  10  19  33  47  66  94 125 161 179 229 279
#     4  10  19  29  42  63  92 123 153 185 224 278
#     4  10  17  28  44  68  95 117 146 186 227 270
#     4  10  17  27  42  66  90 118 149 183 227 269
#     4  10  20  32  48  68  96 123 151 195 228 265
#
# _framework density 16.029658000000001
#
# number of rings (size 3 to 8) (size 9 to 14) (size 15 to 20)
#    0.000    2.143    2.857    3.429    0.000    0.000 
#    0.000    0.714    0.000    3.429    0.000    3.000 
#    0.000    2.571    0.000    0.000    0.000    0.000 
#
# Total GULP energy -155924.231111 kJ/mol
# GULP energy per Si atom -5568.722540 kJ/mol
# Density = 1.599317 g / cm^3
# Si number density = 16.029658 Si / 1000 Ang^3
#
#
#
# Elastic Constant Matrix: (Units=GPa)
#
#
# Indices 1 2 3 4 5 6 
#
# 1 89.4004 27.0972 15.1439 0.0000 -0.9216 0.0000
# 2 27.0972 74.3561 8.5225 0.0000 0.3615 0.0000
# 3 15.1439 8.5225 35.3601 0.0000 1.4488 0.0000
# 4 0.0000 0.0000 0.0000 9.9049 0.0000 3.5422
# 5 -0.9216 0.3615 1.4488 0.0000 14.0710 0.0000
# 6 0.0000 0.0000 0.0000 3.5422 0.0000 13.0084
#
#
#
# Elastic Compliance Matrix: (Units=1/GPa)
#
#
# Indices 1 2 3 4 5 6 
#
# 1 0.013308 -0.004316 -0.004720 0.000000 0.001468 0.000000
# 2 -0.004316 0.015231 -0.001802 0.000000 -0.000488 0.000000
# 3 -0.004720 -0.001802 0.030877 0.000000 -0.003442 0.000000
# 4 0.000000 0.000000 0.000000 0.111853 0.000000 -0.030458
# 5 0.001468 -0.000488 -0.003442 0.000000 0.071531 0.000000
# 6 0.000000 0.000000 0.000000 -0.030458 0.000000 0.085167
#
#
# Mechanical properties :
#
#
# Convention : Reuss Voigt Hill
#
# Bulk Modulus (GPa) = 26.49702 33.40488 29.95095
# Shear Modulus (GPa) = 13.80363 17.28706 15.54535
#
# Velocity S-wave (km/s) = 2.93769 3.28753 3.11752
# Velocity P-wave (km/s) = 5.29835 5.94097 5.62884
#
# Compressibility (1/GPa) = 0.03774009
#
# Stress axis : x y z
#
# Youngs Moduli (GPa) = 75.14018 65.65701 32.38631
#
# Poissons Ratio (x) = 0.28338 0.15285
# Poissons Ratio (y) = 0.32431 0.05837
# Poissons Ratio (z) = 0.35463 0.11834
#
# Static dielectric constant tensor:
#      x y z
#    x 1.557980 0.000000 -0.015800 
#    y 0.000000 1.551290 0.000000 
#    z -0.015800 0.000000 1.556560 
# 
# From -- ./inp_files/173911.got.cif
#   From: 2010.05.17/outbox.cif.g08.bks.cpg/sg12_87_cif.got.tgz:173911.got - 2010.06.03 13:09:07.
