data_PCOD9169772
_publ_section_title
;
Structure prediction by ZEFSAII (Michael W. Deem and Ramdas Pophale) SiO2 
 PCOD9169772
Probable space group: C 2/M
;
_chemical_formula_sum "Si O2"
_cell_formula_units_Z 52
_cell_length_a 7.307016
_cell_length_b 19.373316
_cell_length_c 19.508297
_cell_angle_alpha 90.000000
_cell_angle_beta 130.864349
_cell_angle_gamma 90.000000
_cell_volume 2088.502135
_symmetry_space_group_name_H-M "C 2/M"
_symmetry_group_IT_number 12
_symmetry_cell_setting 'monoclinic'
loop_
_space_group_symop_operation_xyz
x,y,z
-x,y,-z
-x,-y,-z
x,-y,z
1/2+x,1/2+y,z
1/2-x,1/2+y,-z
1/2-x,1/2-y,-z
1/2+x,1/2-y,z
loop_
_atom_site_type_symbol
_atom_site_label
_atom_site_fract_x
_atom_site_fract_y
_atom_site_fract_z
Si Si1 0.930612 0.384270 0.825460
Si Si2 0.694333 0.669226 0.987007
Si Si3 0.552358 0.500000 0.698051
Si Si4 0.370234 0.392282 0.538752
Si Si5 0.246400 0.286604 0.328295
Si Si6 0.895183 0.640250 0.351490
Si Si7 0.135414 0.076191 0.172596
O O1 0.137576 0.413236 0.823585
O O2 0.721150 0.439764 0.775630
O O3 0.831711 0.313773 0.765849
O O4 0.063664 0.368730 0.929030
O O5 0.558800 0.635888 0.889225
O O6 0.500000 0.658158 0.000000
O O7 0.750000 0.750000 0.000000
O O8 0.431668 0.440352 0.617386
O O9 0.500000 0.417603 0.500000
O O10 0.496657 0.318537 0.585403
O O11 0.089437 0.386853 0.452321
O O12 0.057675 0.323410 0.332436
O O13 0.238946 0.205114 0.336445
O O14 0.745603 0.581640 0.275949
O O15 0.034153 0.000000 0.135789
#
# Coordination Sequence:
#
# PCOD9169772 Si02
#       7
#     8   8   4   8   8   8   8
#     4   9  18  30  51  75 109 132 170 216 266 305
#     4  10  21  36  56  83 110 140 174 215 266 315
#     4  10  17  28  47  76 108 136 167 218 270 308
#     4   9  18  27  46  73 104 135 171 215 262 312
#     4   9  18  32  47  78 101 137 179 214 259 307
#     4  10  19  32  51  75 109 136 176 216 263 312
#     4  10  20  31  51  82 109 137 170 224 270 306
#
# _framework density 24.898228
#
# number of rings (size 3 to 8) (size 9 to 14) (size 15 to 20)
#    0.000    2.462    0.769    2.538    2.154    0.923 
#    0.000    0.000    0.000    0.462   16.000    4.308 
#    0.000    0.000    0.000    0.000    0.000    0.000 
#
# Total GULP energy -145052.049259 kJ/mol
# GULP energy per Si atom -5578.924971 kJ/mol
# Density = 2.484156 g / cm^3
# Si number density = 24.898228 Si / 1000 Ang^3
#
#
#
# Elastic Constant Matrix: (Units=GPa)
#
#
# Indices 1 2 3 4 5 6 
#
# 1 70.9444 -6.3687 15.9610 0.0000 8.5202 0.0000
# 2 -6.3687 119.2032 33.8360 0.0000 17.3939 0.0000
# 3 15.9610 33.8360 137.3305 0.0000 13.5378 0.0000
# 4 0.0000 0.0000 0.0000 32.6497 0.0000 3.2091
# 5 8.5202 17.3939 13.5378 0.0000 24.9953 0.0000
# 6 0.0000 0.0000 0.0000 3.2091 0.0000 -13.1761
#
#
#
# Elastic Compliance Matrix: (Units=1/GPa)
#
#
# Indices 1 2 3 4 5 6 
#
# 1 0.015380 0.002165 -0.001749 0.000000 -0.005802 0.000000
# 2 0.002165 0.010059 -0.002078 0.000000 -0.006613 0.000000
# 3 -0.001749 -0.002078 0.008235 0.000000 -0.002418 0.000000
# 4 0.000000 0.000000 0.000000 0.029912 0.000000 0.007285
# 5 -0.005802 -0.006613 -0.002418 0.000000 0.047896 0.000000
# 6 0.000000 0.000000 0.000000 0.007285 0.000000 -0.074121
#
#
# Mechanical properties :
#
#
# Convention : Reuss Voigt Hill
#
# Bulk Modulus (GPa) = 32.94880 46.03720 39.49300
# Shear Modulus (GPa) = 98.41665 27.83044 63.12355
#
# Velocity S-wave (km/s) = 6.29392 3.34693 5.04060
# Velocity P-wave (km/s) = 8.12896 5.78500 7.05500
#
# Compressibility (1/GPa) = 0.03035012
#
# Stress axis : x y z
#
# Youngs Moduli (GPa) = 65.01898 99.40852 121.42732
#
# Poissons Ratio (x) = -0.21519 0.21237
# Poissons Ratio (y) = -0.14075 0.25235
# Poissons Ratio (z) = 0.11372 0.20659
#
# Static dielectric constant tensor:
#      x y z
#    x 2.110320 0.000000 -0.010980 
#    y 0.000000 1.932560 0.000000 
#    z -0.010980 0.000000 1.906380 
# 
# From -- ./inp_files/358730.got.cif
#   From: 2010.05.17/outbox.cif.g08.bks.cpg/sg12_180_cif.got.tgz:358730.got - 2010.06.03 13:09:07.
