data_PCOD9169613
_publ_section_title
;
Structure prediction by ZEFSAII (Michael W. Deem and Ramdas Pophale) SiO2 
 PCOD9169613
Probable space group: C 2/M
;
_chemical_formula_sum "Si O2"
_cell_formula_units_Z 56
_cell_length_a 22.346448
_cell_length_b 12.690467
_cell_length_c 12.379876
_cell_angle_alpha 90.000000
_cell_angle_beta 119.790467
_cell_angle_gamma 90.000000
_cell_volume 3046.815326
_symmetry_space_group_name_H-M "C 2/M"
_symmetry_group_IT_number 12
_symmetry_cell_setting 'monoclinic'
loop_
_space_group_symop_operation_xyz
x,y,z
-x,y,-z
-x,-y,-z
x,-y,z
1/2+x,1/2+y,z
1/2-x,1/2+y,-z
1/2-x,1/2-y,-z
1/2+x,1/2-y,z
loop_
_atom_site_type_symbol
_atom_site_label
_atom_site_fract_x
_atom_site_fract_y
_atom_site_fract_z
Si Si1 0.566598 0.120747 0.999927
Si Si2 0.195456 0.380383 0.278740
Si Si3 0.835926 0.124125 0.075743
Si Si4 0.544040 0.759412 0.772913
Si Si5 0.605841 0.881522 0.638795
Si Si6 0.258945 0.226022 0.179098
Si Si7 0.907547 0.623362 0.629136
O O1 0.581946 0.170762 0.898428
O O2 0.548821 0.000000 0.961678
O O3 0.500000 0.169917 0.000000
O O4 0.630626 0.122482 0.137861
O O5 0.224280 0.500000 0.300716
O O6 0.243544 0.289728 0.274867
O O7 0.162403 0.361455 0.366216
O O8 0.916832 0.149705 0.171189
O O9 0.792271 0.188121 0.126980
O O10 0.823053 0.000000 0.069517
O O11 0.806558 0.171658 0.936922
O O12 0.561572 0.800453 0.669241
O O13 0.464418 0.791242 0.717188
O O14 0.683695 0.861745 0.746915
O O15 0.601412 0.866924 0.506893
O O16 0.582495 0.000000 0.643684
O O17 0.928802 0.500000 0.670481
#
# Coordination Sequence:
#
# PCOD9169613 Si02
#       7
#     8   8   8   8   8   8   8
#     4  10  17  27  47  77 106 131 163 208 258 305
#     4  10  19  31  51  77 106 134 168 213 256 299
#     4  10  21  35  52  77 106 133 169 214 257 307
#     4  11  19  32  54  77 105 133 164 207 266 306
#     4  10  21  34  52  77 106 138 172 209 252 302
#     4  10  20  35  53  75 101 139 174 209 256 301
#     4  10  20  34  53  80 107 133 169 213 256 302
#
# _framework density 18.379847999999999
#
# number of rings (size 3 to 8) (size 9 to 14) (size 15 to 20)
#    0.000    1.857    2.857    2.571    0.000    1.714 
#    0.000    0.000    0.000   12.429    0.000    0.000 
#    0.000    0.000    0.000    0.000    0.000    0.000 
#
# Total GULP energy -156009.646159 kJ/mol
# GULP energy per Si atom -5571.773077 kJ/mol
# Density = 1.833801 g / cm^3
# Si number density = 18.379848 Si / 1000 Ang^3
#
#
#
# Elastic Constant Matrix: (Units=GPa)
#
#
# Indices 1 2 3 4 5 6 
#
# 1 33.5694 7.1683 -1.6483 0.0000 -6.2980 0.0000
# 2 7.1683 65.0398 10.3714 0.0000 3.0391 0.0000
# 3 -1.6483 10.3714 47.0240 0.0000 -11.3170 0.0000
# 4 0.0000 0.0000 0.0000 9.1967 0.0000 -4.1976
# 5 -6.2980 3.0391 -11.3170 0.0000 28.9665 0.0000
# 6 0.0000 0.0000 0.0000 -4.1976 0.0000 22.4450
#
#
#
# Elastic Compliance Matrix: (Units=1/GPa)
#
#
# Indices 1 2 3 4 5 6 
#
# 1 0.032782 -0.004761 0.004453 0.000000 0.009367 0.000000
# 2 -0.004761 0.016929 -0.005052 0.000000 -0.004785 0.000000
# 3 0.004453 -0.005052 0.025273 0.000000 0.011372 0.000000
# 4 0.000000 0.000000 0.000000 0.118881 0.000000 0.022233
# 5 0.009367 -0.004785 0.011372 0.000000 0.041504 0.000000
# 6 0.000000 0.000000 0.000000 0.022233 0.000000 0.048711
#
#
# Mechanical properties :
#
#
# Convention : Reuss Voigt Hill
#
# Bulk Modulus (GPa) = 15.56073 19.71289 17.63681
# Shear Modulus (GPa) = 15.81169 20.77110 18.29140
#
# Velocity S-wave (km/s) = 2.93622 3.36535 3.15808
# Velocity P-wave (km/s) = 4.46987 5.08422 4.78691
#
# Compressibility (1/GPa) = 0.06426433
#
# Stress axis : x y z
#
# Youngs Moduli (GPa) = 30.50487 59.06970 39.56784
#
# Poissons Ratio (x) = 0.28122 -0.17621
# Poissons Ratio (y) = 0.14523 0.19991
# Poissons Ratio (z) = -0.13585 0.29844
#
# Static dielectric constant tensor:
#      x y z
#    x 1.717290 0.000000 0.001530 
#    y 0.000000 1.616930 0.000000 
#    z 0.001530 0.000000 1.645610 
# 
# From -- ./inp_files/165716.got.cif
#   From: 2010.05.17/outbox.cif.g08.bks.cpg/sg12_83_cif.got.tgz:165716.got - 2010.06.03 13:09:07.
