data_PCOD9169608
_publ_section_title
;
Structure prediction by ZEFSAII (Michael W. Deem and Ramdas Pophale) SiO2 
 PCOD9169608
Probable space group: C 2/M
;
_chemical_formula_sum "Si O2"
_cell_formula_units_Z 56
_cell_length_a 28.003947
_cell_length_b 7.897306
_cell_length_c 18.193021
_cell_angle_alpha 90.000000
_cell_angle_beta 54.323052
_cell_angle_gamma 90.000000
_cell_volume 3268.355123
_symmetry_space_group_name_H-M "C 2/M"
_symmetry_group_IT_number 12
_symmetry_cell_setting 'monoclinic'
loop_
_space_group_symop_operation_xyz
x,y,z
-x,y,-z
-x,-y,-z
x,-y,z
1/2+x,1/2+y,z
1/2-x,1/2+y,-z
1/2-x,1/2-y,-z
1/2+x,1/2-y,z
loop_
_atom_site_type_symbol
_atom_site_label
_atom_site_fract_x
_atom_site_fract_y
_atom_site_fract_z
Si Si1 0.835910 0.300660 0.898131
Si Si2 0.328081 0.203709 0.066268
Si Si3 0.093109 0.797071 0.403382
Si Si4 0.206826 0.298920 0.219322
Si Si5 0.538732 0.204137 0.033045
Si Si6 0.029575 0.202869 0.203803
Si Si7 0.986355 0.206584 0.395095
O O1 0.821586 0.500000 0.910455
O O2 0.813696 0.224418 0.841584
O O3 0.906166 0.280629 0.839282
O O4 0.814036 0.229287 0.996098
O O5 0.274561 0.248728 0.167268
O O6 0.331331 0.000000 0.058619
O O7 0.393275 0.264732 0.029200
O O8 0.159035 0.752382 0.322450
O O9 0.066929 0.736111 0.504760
O O10 0.046749 0.739725 0.382079
O O11 0.089319 0.000000 0.407492
O O12 0.203983 0.500000 0.217407
O O13 0.512688 0.249325 0.136219
O O14 0.540532 0.000000 0.026916
O O15 0.500000 0.267898 0.000000
O O16 0.988577 0.259203 0.308272
O O17 0.035525 0.000000 0.201901
O O18 0.985742 0.000000 0.396117
#
# Coordination Sequence:
#
# PCOD9169608 Si02
#       7
#     8   8   8   8   8   8   8
#     4   9  18  30  41  59  90 125 157 183 215 264
#     4   9  18  31  46  62  83 118 155 181 216 272
#     4   9  16  29  45  60  87 127 163 187 215 260
#     4  11  20  28  40  64  94 122 153 190 226 257
#     4   9  19  36  53  69  91 117 146 183 229 281
#     4  10  17  27  47  72  93 116 151 191 228 262
#     4   8  15  27  44  65  88 120 159 192 219 257
#
# _framework density 17.134
#
# number of rings (size 3 to 8) (size 9 to 14) (size 15 to 20)
#    0.000    2.714    1.429    3.000    0.000    3.143 
#    0.000    2.857    0.000    0.000    0.000    1.000 
#    0.000    0.000    0.000    0.000    0.000    0.000 
#
# Total GULP energy -155996.569772 kJ/mol
# GULP energy per Si atom -5571.306063 kJ/mol
# Density = 1.709500 g / cm^3
# Si number density = 17.134000 Si / 1000 Ang^3
#
#
#
# Elastic Constant Matrix: (Units=GPa)
#
#
# Indices 1 2 3 4 5 6 
#
# 1 64.4784 4.2645 65.5587 0.0000 9.5058 0.0000
# 2 4.2645 15.5141 5.3378 0.0002 -0.5672 0.0001
# 3 65.5587 5.3378 167.1631 0.0002 -3.8337 0.0000
# 4 0.0000 0.0002 0.0002 17.7599 0.0000 -0.6252
# 5 9.5058 -0.5672 -3.8337 0.0000 19.1999 0.0000
# 6 0.0000 0.0001 0.0000 -0.6252 0.0000 10.8987
#
#
#
# Elastic Compliance Matrix: (Units=1/GPa)
#
#
# Indices 1 2 3 4 5 6 
#
# 1 0.031210 -0.004941 -0.012497 0.000000 -0.018093 0.000000
# 2 -0.004941 0.066000 -0.000069 -0.000001 0.004382 -0.000001
# 3 -0.012497 -0.000069 0.011078 0.000000 0.008397 0.000000
# 4 0.000000 -0.000001 0.000000 0.056421 0.000000 0.003236
# 5 -0.018093 0.004382 0.008397 0.000000 0.062848 0.000000
# 6 0.000000 -0.000001 0.000000 0.003236 0.000000 0.091940
#
#
# Mechanical properties :
#
#
# Convention : Reuss Voigt Hill
#
# Bulk Modulus (GPa) = 13.64754 44.16418 28.90586
# Shear Modulus (GPa) = 13.19490 21.03801 17.11646
#
# Velocity S-wave (km/s) = 2.77808 3.50787 3.16409
# Velocity P-wave (km/s) = 4.27467 6.49912 5.50052
#
# Compressibility (1/GPa) = 0.07327328
#
# Stress axis : x y z
#
# Youngs Moduli (GPa) = 32.04119 15.15158 90.26762
#
# Poissons Ratio (x) = 0.07486 1.12809
# Poissons Ratio (y) = 0.15831 0.00626
# Poissons Ratio (z) = 0.40042 0.00105
#
# Static dielectric constant tensor:
#      x y z
#    x 1.572290 0.000000 0.000970 
#    y 0.000000 1.612790 0.000000 
#    z 0.000970 0.000000 1.630620 
# 
# From -- ./inp_files/291851.got.cif
#   From: 2010.05.17/outbox.cif.g08.bks.cpg/sg12_146_cif.got.tgz:291851.got - 2010.06.03 13:09:07.
