data_PCOD9169110
_publ_section_title
;
Structure prediction by ZEFSAII (Michael W. Deem and Ramdas Pophale) SiO2 
 PCOD9169110
Probable space group: C 2/M
;
_chemical_formula_sum "Si O2"
_cell_formula_units_Z 44
_cell_length_a 9.135509
_cell_length_b 28.334485
_cell_length_c 9.186784
_cell_angle_alpha 90.000000
_cell_angle_beta 90.311010
_cell_angle_gamma 90.000000
_cell_volume 2377.963479
_symmetry_space_group_name_H-M "C 2/M"
_symmetry_group_IT_number 12
_symmetry_cell_setting 'monoclinic'
loop_
_space_group_symop_operation_xyz
x,y,z
-x,y,-z
-x,-y,-z
x,-y,z
1/2+x,1/2+y,z
1/2-x,1/2+y,-z
1/2-x,1/2-y,-z
1/2+x,1/2-y,z
loop_
_atom_site_type_symbol
_atom_site_label
_atom_site_fract_x
_atom_site_fract_y
_atom_site_fract_z
Si Si1 0.951544 0.295495 0.159305
Si Si2 0.524396 0.000000 0.830453
Si Si3 0.729917 0.102662 0.448873
Si Si4 0.832664 0.500000 0.570505
Si Si5 0.943027 0.604891 0.261468
Si Si6 0.500000 0.664886 0.500000
Si Si7 0.679572 0.740614 0.340481
O O1 0.925771 0.351858 0.152362
O O2 0.805825 0.272359 0.226519
O O3 0.080918 0.282579 0.274534
O O4 0.000000 0.278185 0.000000
O O5 0.593133 0.948750 0.788440
O O6 0.372303 0.000000 0.740530
O O7 0.500000 0.000000 0.000000
O O8 0.752088 0.046828 0.470023
O O9 0.609899 0.105306 0.320961
O O10 0.652664 0.118337 0.598068
O O11 0.873902 0.132693 0.430495
O O12 0.000000 0.500000 0.500000
O O13 0.570252 0.697566 0.375643
O O14 0.750000 0.750000 0.500000
#
# Coordination Sequence:
#
# PCOD9169110 Si02
#       7
#     8   4   8   4   8   4   8
#     4  12  25  40  60  91 123 156 199 254 308 356
#     4  10  18  32  56  90 114 142 192 241 285 357
#     4  10  19  33  59  88 115 151 199 251 286 354
#     4  10  16  35  56  85 117 155 192 246 298 338
#     4  10  19  35  60  84 117 153 195 240 300 351
#     4  12  22  35  60  90 116 149 208 248 300 342
#     4  12  24  42  63  85 117 163 208 249 295 363
#
# _framework density 18.503228
#
# number of rings (size 3 to 8) (size 9 to 14) (size 15 to 20)
#    0.000    1.091    7.273    2.182    2.545    0.364 
#    0.000    0.000    0.000    0.000    0.000    2.545 
#    0.000    0.000    0.000    0.000    0.000    0.000 
#
# Total GULP energy -122634.382382 kJ/mol
# GULP energy per Si atom -5574.290108 kJ/mol
# Density = 1.846111 g / cm^3
# Si number density = 18.503228 Si / 1000 Ang^3
#
#
#
# Elastic Constant Matrix: (Units=GPa)
#
#
# Indices 1 2 3 4 5 6 
#
# 1 81.9488 40.4772 22.2291 0.0000 -16.1589 0.0000
# 2 40.4772 106.4773 8.3005 0.0000 -9.2240 0.0000
# 3 22.2291 8.3005 81.0455 0.0000 -14.5493 0.0000
# 4 0.0000 0.0000 0.0000 18.5881 0.0000 4.7324
# 5 -16.1589 -9.2240 -14.5493 0.0000 24.7418 0.0000
# 6 0.0000 0.0000 0.0000 4.7324 0.0000 35.7511
#
#
#
# Elastic Compliance Matrix: (Units=1/GPa)
#
#
# Indices 1 2 3 4 5 6 
#
# 1 0.017252 -0.005690 -0.002803 0.000000 0.007498 0.000000
# 2 -0.005690 0.011593 0.000539 0.000000 0.000922 0.000000
# 3 -0.002803 0.000539 0.014266 0.000000 0.006759 0.000000
# 4 0.000000 0.000000 0.000000 0.055674 0.000000 -0.007370
# 5 0.007498 0.000922 0.006759 0.000000 0.049633 0.000000
# 6 0.000000 0.000000 0.000000 -0.007370 0.000000 0.028947
#
#
# Mechanical properties :
#
#
# Convention : Reuss Voigt Hill
#
# Bulk Modulus (GPa) = 36.76226 45.72057 41.24142
# Shear Modulus (GPa) = 24.71081 29.04717 26.87899
#
# Velocity S-wave (km/s) = 3.65840 3.96642 3.81552
# Velocity P-wave (km/s) = 6.14462 6.76312 6.46127
#
# Compressibility (1/GPa) = 0.02720181
#
# Stress axis : x y z
#
# Youngs Moduli (GPa) = 57.96369 86.26078 70.09769
#
# Poissons Ratio (x) = 0.49086 0.19649
# Poissons Ratio (y) = 0.32983 -0.03779
# Poissons Ratio (z) = 0.16248 -0.04650
#
# Static dielectric constant tensor:
#      x y z
#    x 1.630900 0.000000 -0.008540 
#    y 0.000000 1.716840 0.000000 
#    z -0.008540 0.000000 1.653860 
# 
# From -- ./inp_files/41696.got.cif
#   From: 2010.05.17/outbox.cif.g08.bks.cpg/sg12_21_cif.got.tgz:41696.got - 2010.06.03 13:09:07.
