data_PCOD9169530
_publ_section_title
;
Structure prediction by ZEFSAII (Michael W. Deem and Ramdas Pophale) SiO2 
 PCOD9169530
Probable space group: C 2/M
;
_chemical_formula_sum "Si O2"
_cell_formula_units_Z 56
_cell_length_a 26.465964
_cell_length_b 8.007371
_cell_length_c 14.121328
_cell_angle_alpha 90.000000
_cell_angle_beta 134.318640
_cell_angle_gamma 90.000000
_cell_volume 2141.124367
_symmetry_space_group_name_H-M "C 2/M"
_symmetry_group_IT_number 12
_symmetry_cell_setting 'monoclinic'
loop_
_space_group_symop_operation_xyz
x,y,z
-x,y,-z
-x,-y,-z
x,-y,z
1/2+x,1/2+y,z
1/2-x,1/2+y,-z
1/2-x,1/2-y,-z
1/2+x,1/2-y,z
loop_
_atom_site_type_symbol
_atom_site_label
_atom_site_fract_x
_atom_site_fract_y
_atom_site_fract_z
Si Si1 0.830198 0.701441 0.787129
Si Si2 0.035208 0.199650 0.339826
Si Si3 0.917779 0.808744 0.312345
Si Si4 0.317209 0.189169 0.029397
Si Si5 0.284194 0.191643 0.251363
Si Si6 0.829676 0.698508 0.579899
Si Si7 0.970337 0.800849 0.059123
O O1 0.826408 0.500000 0.782114
O O2 0.751211 0.781961 0.692428
O O3 0.862133 0.750251 0.725748
O O4 0.886966 0.770757 0.937244
O O5 0.118095 0.230279 0.432154
O O6 0.994290 0.262760 0.380717
O O7 0.999250 0.268969 0.196100
O O8 0.025266 0.000000 0.330362
O O9 0.877715 0.800522 0.156860
O O10 0.862176 0.731545 0.314810
O O11 0.924934 0.000000 0.352193
O O12 0.339942 0.000000 0.077675
O O13 0.250000 0.250000 0.000000
O O14 0.274446 0.192497 0.875546
O O15 0.271333 0.000000 0.208132
O O16 0.832963 0.500000 0.573738
O O17 0.750000 0.750000 0.500000
O O18 0.983678 0.000000 0.077970
O O19 0.000000 0.726967 0.000000
#
# Coordination Sequence:
#
# PCOD9169530 Si02
#       7
#     8   8   8   8   8   8   8
#     4  11  23  38  58  87 119 154 194 241 291 344
#     4  10  21  37  59  87 120 157 195 234 286 344
#     4  10  19  32  51  78 114 154 193 235 281 340
#     4  10  17  27  44  69 106 151 193 234 273 327
#     4  11  21  33  51  76 110 153 195 238 285 340
#     4  11  25  43  65  88 114 148 191 241 292 346
#     4  10  19  33  56  86 122 160 193 234 286 346
#
# _framework density 26.154482999999999
#
# number of rings (size 3 to 8) (size 9 to 14) (size 15 to 20)
#    0.000    1.571    1.429    6.429    0.000    4.857 
#    0.000    0.000    0.000    0.857    0.000    6.000 
#    0.000    0.000    0.000    0.000    0.000    0.000 
#
# Total GULP energy -156088.859389 kJ/mol
# GULP energy per Si atom -5574.602121 kJ/mol
# Density = 2.609495 g / cm^3
# Si number density = 26.154483 Si / 1000 Ang^3
#
#
#
# Elastic Constant Matrix: (Units=GPa)
#
#
# Indices 1 2 3 4 5 6 
#
# 1 212.3233 4.8237 27.3940 0.0000 31.5697 0.0000
# 2 4.8237 71.2622 -18.5314 0.0000 -9.7426 0.0000
# 3 27.3940 -18.5314 72.0688 0.0000 18.8079 0.0000
# 4 0.0000 0.0000 0.0000 17.2173 0.0000 12.0296
# 5 31.5697 -9.7426 18.8079 0.0000 33.8272 0.0000
# 6 0.0000 0.0000 0.0000 12.0296 0.0000 31.4933
#
#
#
# Elastic Compliance Matrix: (Units=1/GPa)
#
#
# Indices 1 2 3 4 5 6 
#
# 1 0.005637 -0.001375 -0.001193 0.000000 -0.004994 0.000000
# 2 -0.001375 0.015564 0.003532 0.000000 0.003801 0.000000
# 3 -0.001193 0.003532 0.017173 0.000000 -0.007417 0.000000
# 4 0.000000 0.000000 0.000000 0.079225 0.000000 -0.030262
# 5 -0.004994 0.003801 -0.007417 0.000000 0.039441 0.000000
# 6 0.000000 0.000000 0.000000 -0.030262 0.000000 0.043312
#
#
# Mechanical properties :
#
#
# Convention : Reuss Voigt Hill
#
# Bulk Modulus (GPa) = 24.81119 42.55853 33.68486
# Shear Modulus (GPa) = 23.60071 39.30542 31.45306
#
# Velocity S-wave (km/s) = 3.00719 3.88082 3.47160
# Velocity P-wave (km/s) = 4.64376 6.03228 5.38298
#
# Compressibility (1/GPa) = 0.04030440
#
# Stress axis : x y z
#
# Youngs Moduli (GPa) = 177.38450 64.25065 58.23033
#
# Poissons Ratio (x) = 0.08832 0.06947
# Poissons Ratio (y) = 0.24383 -0.20570
# Poissons Ratio (z) = 0.21163 -0.22697
#
# Static dielectric constant tensor:
#      x y z
#    x 2.554890 0.000000 -0.582700 
#    y 0.000000 1.945310 0.000000 
#    z -0.582700 0.000000 2.132260 
# 
# From -- ./inp_files/292557.got.cif
#   From: 2010.05.17/outbox.cif.g08.bks.cpg/sg12_147_cif.got.tgz:292557.got - 2010.06.03 13:09:07.
