data_PCOD9169857
_publ_section_title
;
Structure prediction by ZEFSAII (Michael W. Deem and Ramdas Pophale) SiO2 
 PCOD9169857
Probable space group: C 2/M
;
_chemical_formula_sum "Si O2"
_cell_formula_units_Z 64
_cell_length_a 15.903149
_cell_length_b 23.435567
_cell_length_c 15.421147
_cell_angle_alpha 90.000000
_cell_angle_beta 36.778439
_cell_angle_gamma 90.000000
_cell_volume 3441.126638
_symmetry_space_group_name_H-M "C 2/M"
_symmetry_group_IT_number 12
_symmetry_cell_setting 'monoclinic'
loop_
_space_group_symop_operation_xyz
x,y,z
-x,y,-z
-x,-y,-z
x,-y,z
1/2+x,1/2+y,z
1/2-x,1/2+y,-z
1/2-x,1/2-y,-z
1/2+x,1/2-y,z
loop_
_atom_site_type_symbol
_atom_site_label
_atom_site_fract_x
_atom_site_fract_y
_atom_site_fract_z
Si Si1 0.606016 0.438531 0.294462
Si Si2 0.960262 0.361902 0.827352
Si Si3 0.197823 0.933301 0.017297
Si Si4 0.541962 0.325541 0.066278
Si Si5 0.440771 0.316102 0.636881
Si Si6 0.907441 0.755315 0.332789
Si Si7 0.391004 0.935489 0.165412
Si Si8 0.645194 0.213145 0.933916
O O1 0.533688 0.500000 0.363619
O O2 0.518999 0.382514 0.386959
O O3 0.738530 0.436606 0.249436
O O4 0.665651 0.434750 0.147228
O O5 0.853744 0.407149 0.872742
O O6 0.031064 0.308607 0.722406
O O7 0.083547 0.395398 0.774791
O O8 0.866687 0.330504 0.977751
O O9 0.185327 0.000000 0.998503
O O10 0.093391 0.885498 0.063201
O O11 0.432315 0.291287 0.221446
O O12 0.500000 0.335413 0.000000
O O13 0.663152 0.276966 0.956976
O O14 0.500000 0.291267 0.500000
O O15 0.498309 0.287309 0.674885
O O16 0.274158 0.307232 0.770778
O O17 0.750000 0.750000 0.500000
O O18 0.431221 0.000000 0.156675
O O19 0.500000 0.917913 0.000000
O O20 0.500000 0.213396 0.000000
#
# Coordination Sequence:
#
# PCOD9169857 Si02
#       8
#     8   8   8   8   8   8   8   8
#     4  10  20  34  53  82 122 161 198 245 300 370
#     4  11  19  34  60  81 120 158 200 244 302 363
#     4  11  20  35  60  89 116 150 203 266 312 355
#     4  10  22  40  65  85 116 155 210 259 313 356
#     4  12  24  37  61  87 128 164 206 247 317 372
#     4  11  26  42  58  91 130 163 207 257 311 372
#     4  10  17  28  52  88 120 150 193 241 296 357
#     4  10  20  35  59  89 117 155 200 246 305 368
#
# _framework density 18.598559999999999
#
# number of rings (size 3 to 8) (size 9 to 14) (size 15 to 20)
#    0.000    1.375    3.750    2.250    7.000    3.000 
#    0.000    0.000    0.000    1.500    0.000    0.875 
#    0.000    0.000    0.000    0.000    0.000    0.000 
#
# Total GULP energy -178436.898239 kJ/mol
# GULP energy per Si atom -5576.153070 kJ/mol
# Density = 1.855623 g / cm^3
# Si number density = 18.598560 Si / 1000 Ang^3
#
#
#
# Elastic Constant Matrix: (Units=GPa)
#
#
# Indices 1 2 3 4 5 6 
#
# 1 72.3795 39.7536 19.6730 0.0023 6.7013 0.0003
# 2 39.7536 154.4968 15.9221 0.0018 7.0921 -0.0002
# 3 19.6730 15.9221 76.8408 0.0064 7.4951 -0.0016
# 4 0.0023 0.0018 0.0064 0.7597 -0.0051 -1.2989
# 5 6.7013 7.0921 7.4951 -0.0051 18.4705 0.0014
# 6 0.0003 -0.0002 -0.0016 -1.2989 0.0014 26.3613
#
#
#
# Elastic Compliance Matrix: (Units=1/GPa)
#
#
# Indices 1 2 3 4 5 6 
#
# 1 0.017172 -0.003927 -0.003251 -0.000043 -0.003403 -0.000002
# 2 -0.003927 0.007589 -0.000439 -0.000011 -0.001311 0.000000
# 3 -0.003251 -0.000439 0.014375 -0.000152 -0.004485 -0.000006
# 4 -0.000043 -0.000011 -0.000152 1.437370 0.000475 0.070821
# 5 -0.003403 -0.001311 -0.004485 0.000475 0.057698 0.000020
# 6 -0.000002 0.000000 -0.000006 0.070821 0.000020 0.041424
#
#
# Mechanical properties :
#
#
# Convention : Reuss Voigt Hill
#
# Bulk Modulus (GPa) = 41.83939 50.49051 46.16495
# Shear Modulus (GPa) = 3.12729 24.34286 13.73508
#
# Velocity S-wave (km/s) = 1.29812 3.62174 2.72049
# Velocity P-wave (km/s) = 4.97913 6.68549 5.89438
#
# Compressibility (1/GPa) = 0.02390092
#
# Stress axis : x y z
#
# Youngs Moduli (GPa) = 58.23546 131.77723 69.56697
#
# Poissons Ratio (x) = 0.51752 0.22614
# Poissons Ratio (y) = 0.22870 0.03055
# Poissons Ratio (z) = 0.18930 0.05786
#
# Static dielectric constant tensor:
#      x y z
#    x 1.670460 0.000000 -0.004370 
#    y 0.000000 1.707820 0.000000 
#    z -0.004370 0.000000 1.666060 
# 
# From -- ./inp_files/218492.got.cif
#   From: 2010.05.17/outbox.cif.g08.bks.cpg/sg12_110_cif.got.tgz:218492.got - 2010.06.03 13:09:07.
