data_PCOD9169016
_publ_section_title
;
Structure prediction by ZEFSAII (Michael W. Deem and Ramdas Pophale) SiO2 
 PCOD9169016
Probable space group: C 2/M
;
_chemical_formula_sum "Si O2"
_cell_formula_units_Z 36
_cell_length_a 14.444557
_cell_length_b 13.861419
_cell_length_c 15.188692
_cell_angle_alpha 90.000000
_cell_angle_beta 147.748578
_cell_angle_gamma 90.000000
_cell_volume 1622.844887
_symmetry_space_group_name_H-M "C 2/M"
_symmetry_group_IT_number 12
_symmetry_cell_setting 'monoclinic'
loop_
_space_group_symop_operation_xyz
x,y,z
-x,y,-z
-x,-y,-z
x,-y,z
1/2+x,1/2+y,z
1/2-x,1/2+y,-z
1/2-x,1/2-y,-z
1/2+x,1/2-y,z
loop_
_atom_site_type_symbol
_atom_site_label
_atom_site_fract_x
_atom_site_fract_y
_atom_site_fract_z
Si Si1 0.794851 0.500000 0.321118
Si Si2 0.071963 0.000000 0.459368
Si Si3 0.759649 0.212739 0.740503
Si Si4 0.060571 0.213595 0.422152
Si Si5 0.987556 0.000000 0.197714
Si Si6 0.060543 0.213580 0.867500
O O1 0.741701 0.600745 0.231408
O O2 0.689257 0.500000 0.329105
O O3 0.000000 0.500000 0.500000
O O4 0.146641 0.108512 0.509136
O O5 0.000000 0.000000 0.500000
O O6 0.956076 0.000000 0.277159
O O7 0.641215 0.280403 0.706557
O O8 0.654090 0.212392 0.562300
O O9 0.949926 0.246677 0.862864
O O10 0.050372 0.232924 0.310808
O O11 0.918474 0.901050 0.105240
O O12 0.250000 0.250000 0.000000
#
# Coordination Sequence:
#
# PCOD9169016 Si02
#       6
#     4   4   8   8   4   8
#     4  10  16  32  52  79 109 131 166 221 272 302
#     4  10  16  32  52  79 109 131 166 221 272 302
#     4  10  19  33  55  80 103 134 176 222 265 312
#     4  10  19  33  55  80 103 134 176 222 265 312
#     4   8  20  34  54  76 106 142 174 220 264 310
#     4  10  21  37  53  74 108 144 174 214 265 317
#
# _framework density 22.183267000000001
#
# number of rings (size 3 to 8) (size 9 to 14) (size 15 to 20)
#    0.000    2.222    4.444    0.667    0.000    0.889 
#    0.000    4.444    0.000    8.000    0.000    0.000 
#    0.000    0.000    0.000    0.000    0.000    0.000 
#
# Total GULP energy -100202.741284 kJ/mol
# GULP energy per Si atom -5566.818960 kJ/mol
# Density = 2.213278 g / cm^3
# Si number density = 22.183267 Si / 1000 Ang^3
#
#
#
# Elastic Constant Matrix: (Units=GPa)
#
#
# Indices 1 2 3 4 5 6 
#
# 1 139.9690 10.5589 38.0783 -0.0002 15.4929 -0.0002
# 2 10.5589 103.3916 12.4713 0.0000 10.4682 -0.0001
# 3 38.0783 12.4713 47.6236 -0.0001 15.7771 -0.0002
# 4 -0.0002 0.0000 -0.0001 17.4316 0.0000 11.2065
# 5 15.4929 10.4682 15.7771 0.0000 55.6869 -0.0001
# 6 -0.0002 -0.0001 -0.0002 11.2065 -0.0001 17.6248
#
#
#
# Elastic Compliance Matrix: (Units=1/GPa)
#
#
# Indices 1 2 3 4 5 6 
#
# 1 0.009144 -0.000021 -0.007134 0.000000 -0.000519 0.000000
# 2 -0.000021 0.010068 -0.002201 0.000000 -0.001263 0.000000
# 3 -0.007134 -0.002201 0.029227 0.000000 -0.005882 0.000000
# 4 0.000000 0.000000 0.000000 0.097031 0.000000 -0.061696
# 5 -0.000519 -0.001263 -0.005882 0.000000 0.020006 0.000000
# 6 0.000000 0.000000 0.000000 -0.061696 0.000000 0.095967
#
#
# Mechanical properties :
#
#
# Convention : Reuss Voigt Hill
#
# Bulk Modulus (GPa) = 33.63994 45.91126 39.77560
# Shear Modulus (GPa) = 17.23761 33.47372 25.35566
#
# Velocity S-wave (km/s) = 2.79059 3.88875 3.38451
# Velocity P-wave (km/s) = 5.05774 6.39566 5.76564
#
# Compressibility (1/GPa) = 0.02972657
#
# Stress axis : x y z
#
# Youngs Moduli (GPa) = 109.35818 99.32952 34.21463
#
# Poissons Ratio (x) = 0.00206 0.24409
# Poissons Ratio (y) = 0.00227 0.07532
# Poissons Ratio (z) = 0.78017 0.21866
#
# Static dielectric constant tensor:
#      x y z
#    x 1.884640 0.000000 0.025640 
#    y 0.000000 1.866260 0.000000 
#    z 0.025640 0.000000 1.932930 
# 
# From -- ./inp_files/58489.got.cif
#   From: 2010.05.17/outbox.cif.g08.bks.cpg/sg12_30_cif.got.tgz:58489.got - 2010.06.03 13:09:07.
