data_PCOD9169280
_publ_section_title
;
Structure prediction by ZEFSAII (Michael W. Deem and Ramdas Pophale) SiO2 
 PCOD9169280
Probable space group: C 2/M
;
_chemical_formula_sum "Si O2"
_cell_formula_units_Z 56
_cell_length_a 20.565264
_cell_length_b 7.301426
_cell_length_c 27.312726
_cell_angle_alpha 90.000000
_cell_angle_beta 149.474101
_cell_angle_gamma 90.000000
_cell_volume 2083.094620
_symmetry_space_group_name_H-M "C 2/M"
_symmetry_group_IT_number 12
_symmetry_cell_setting 'monoclinic'
loop_
_space_group_symop_operation_xyz
x,y,z
-x,y,-z
-x,-y,-z
x,-y,z
1/2+x,1/2+y,z
1/2-x,1/2+y,-z
1/2-x,1/2-y,-z
1/2+x,1/2-y,z
loop_
_atom_site_type_symbol
_atom_site_label
_atom_site_fract_x
_atom_site_fract_y
_atom_site_fract_z
Si Si1 0.493687 0.291068 0.421898
Si Si2 0.865658 0.718994 0.933579
Si Si3 0.664961 0.216160 0.876555
Si Si4 0.266434 0.778725 0.614096
Si Si5 0.723987 0.224654 0.224716
Si Si6 0.518401 0.220210 0.164029
Si Si7 0.962440 0.277884 0.662895
O O1 0.483301 0.500000 0.432739
O O2 0.622647 0.208897 0.527902
O O3 0.351742 0.211176 0.334661
O O4 0.520009 0.293003 0.380331
O O5 0.873648 0.500000 0.938145
O O6 0.807974 0.759934 0.949198
O O7 0.770813 0.779628 0.828568
O O8 0.000000 0.787746 0.000000
O O9 0.609944 0.290138 0.892211
O O10 0.572623 0.283876 0.772721
O O11 0.643310 0.000000 0.864987
O O12 0.369758 0.742720 0.723189
O O13 0.331041 0.721500 0.604793
O O14 0.256498 0.000000 0.605993
O O15 0.590180 0.284713 0.161820
O O16 0.725016 0.000000 0.226842
O O17 0.504264 0.000000 0.148374
O O18 0.965493 0.500000 0.662473
#
# Coordination Sequence:
#
# PCOD9169280 Si02
#       7
#     8   8   8   8   8   8   8
#     4  10  17  25  42  68  94 120 157 197 229 267
#     4  10  20  34  52  74  99 122 147 188 241 288
#     4   9  17  31  52  72  91 123 160 194 229 273
#     4   8  15  25  39  64  94 122 155 196 232 263
#     4   9  17  29  46  69  95 125 157 191 235 281
#     4   8  15  29  47  68  97 127 157 192 233 275
#     4   9  16  27  42  63  93 125 154 187 233 276
#
# _framework density 26.883081000000001
#
# number of rings (size 3 to 8) (size 9 to 14) (size 15 to 20)
#    0.000    3.000    1.429    2.143    0.000    0.857 
#    0.000    3.571    0.000    1.714    0.000    1.000 
#    0.000    0.000    0.000    0.000    0.000    0.000 
#
# Total GULP energy -156460.475705 kJ/mol
# GULP energy per Si atom -5587.874132 kJ/mol
# Density = 2.682189 g / cm^3
# Si number density = 26.883081 Si / 1000 Ang^3
#
#
#
# Elastic Constant Matrix: (Units=GPa)
#
#
# Indices 1 2 3 4 5 6 
#
# 1 210.1282 -0.2508 56.7042 -0.0002 22.6027 0.0000
# 2 -0.2508 115.2470 -5.2501 -0.0025 -1.3152 -0.0012
# 3 56.7042 -5.2501 99.1850 0.0003 33.7305 0.0001
# 4 -0.0002 -0.0025 0.0003 -32.7185 0.0000 -12.9690
# 5 22.6027 -1.3152 33.7305 0.0000 59.2308 -0.0001
# 6 0.0000 -0.0012 0.0001 -12.9690 -0.0001 1.5824
#
#
#
# Elastic Compliance Matrix: (Units=1/GPa)
#
#
# Indices 1 2 3 4 5 6 
#
# 1 0.005636 -0.000133 -0.003097 0.000000 -0.000390 0.000000
# 2 -0.000133 0.008701 0.000563 -0.000001 -0.000076 0.000000
# 3 -0.003097 0.000563 0.014233 0.000000 -0.006911 0.000000
# 4 0.000000 -0.000001 0.000000 -0.007194 0.000000 -0.058959
# 5 -0.000390 -0.000076 -0.006911 0.000000 0.020966 0.000000
# 6 0.000000 0.000000 0.000000 -0.058959 0.000000 0.148743
#
#
# Mechanical properties :
#
#
# Convention : Reuss Voigt Hill
#
# Bulk Modulus (GPa) = 43.03633 58.55186 50.79409
# Shear Modulus (GPa) = 24.48989 30.50939 27.49964
#
# Velocity S-wave (km/s) = 3.02151 3.37247 3.20180
# Velocity P-wave (km/s) = 5.31189 6.08212 5.71001
#
# Compressibility (1/GPa) = 0.02323618
#
# Stress axis : x y z
#
# Youngs Moduli (GPa) = 177.41545 114.92281 70.26139
#
# Poissons Ratio (x) = 0.01531 0.21758
# Poissons Ratio (y) = 0.02364 -0.03954
# Poissons Ratio (z) = 0.54940 -0.06467
#
# Static dielectric constant tensor:
#      x y z
#    x 2.078540 0.000000 0.029560 
#    y 0.000000 2.129560 0.000000 
#    z 0.029560 0.000000 2.156500 
# 
# From -- ./inp_files/276661.got.cif
#   From: 2010.05.17/outbox.cif.g08.bks.cpg/sg12_139_cif.got.tgz:276661.got - 2010.06.03 13:09:07.
