data_PCOD9169675
_publ_section_title
;
Structure prediction by ZEFSAII (Michael W. Deem and Ramdas Pophale) SiO2 
 PCOD9169675
Probable space group: C 2/M
;
_chemical_formula_sum "Si O2"
_cell_formula_units_Z 56
_cell_length_a 29.182366
_cell_length_b 9.102842
_cell_length_c 18.016224
_cell_angle_alpha 90.000000
_cell_angle_beta 52.109684
_cell_angle_gamma 90.000000
_cell_volume 3776.953993
_symmetry_space_group_name_H-M "C 2/M"
_symmetry_group_IT_number 12
_symmetry_cell_setting 'monoclinic'
loop_
_space_group_symop_operation_xyz
x,y,z
-x,y,-z
-x,-y,-z
x,-y,z
1/2+x,1/2+y,z
1/2-x,1/2+y,-z
1/2-x,1/2-y,-z
1/2+x,1/2-y,z
loop_
_atom_site_type_symbol
_atom_site_label
_atom_site_fract_x
_atom_site_fract_y
_atom_site_fract_z
Si Si1 0.026405 0.325017 0.646574
Si Si2 0.099886 0.824838 0.018642
Si Si3 0.468003 0.674678 0.204844
Si Si4 0.567187 0.830904 0.905569
Si Si5 0.404886 0.322993 0.722004
Si Si6 0.565982 0.331281 0.466554
Si Si7 0.687555 0.676472 0.061529
O O1 0.024186 0.500000 0.652515
O O2 0.046165 0.255649 0.704589
O O3 0.065628 0.271041 0.538511
O O4 0.962151 0.259460 0.694039
O O5 0.149164 0.780747 0.028042
O O6 0.036447 0.798261 0.118419
O O7 0.103493 0.000000 0.002234
O O8 0.102192 0.741254 0.938349
O O9 0.460294 0.500000 0.219167
O O10 0.432653 0.739072 0.170404
O O11 0.583484 0.000000 0.876972
O O12 0.500000 0.828401 0.000000
O O13 0.415677 0.500000 0.716724
O O14 0.396740 0.289185 0.642863
O O15 0.350725 0.286539 0.827835
O O16 0.500000 0.328811 0.500000
O O17 0.578489 0.500000 0.475302
O O18 0.693618 0.500000 0.053922
O O19 0.750000 0.750000 0.000000
#
# Coordination Sequence:
#
# PCOD9169675 Si02
#       7
#     8   8   8   8   8   8   8
#     4  11  19  25  39  64  91 113 141 180 220 257
#     4   9  17  30  45  58  80 115 150 180 214 259
#     4  10  17  28  44  60  84 118 151 174 207 260
#     4   9  17  27  40  62  87 108 139 179 219 258
#     4   9  17  32  46  57  80 116 151 181 215 262
#     4   8  15  27  43  58  78 112 148 175 209 260
#     4  10  20  33  47  65  86 113 153 192 223 256
#
# _framework density 14.826764000000001
#
# number of rings (size 3 to 8) (size 9 to 14) (size 15 to 20)
#    0.000    2.571    1.429    3.000    0.000    6.000 
#    0.000    0.000    0.000    0.000    0.000    0.000 
#    0.000    1.143    0.000    3.429    0.000    5.286 
#
# Total GULP energy -156008.339186 kJ/mol
# GULP energy per Si atom -5571.726400 kJ/mol
# Density = 1.479302 g / cm^3
# Si number density = 14.826764 Si / 1000 Ang^3
#
#
#
# Elastic Constant Matrix: (Units=GPa)
#
#
# Indices 1 2 3 4 5 6 
#
# 1 73.1119 41.3768 61.1160 0.0000 18.4657 0.0000
# 2 41.3768 70.2584 57.8350 -0.0001 23.8566 0.0001
# 3 61.1160 57.8350 109.5411 -0.0001 30.1558 0.0000
# 4 0.0000 -0.0001 -0.0001 12.4574 0.0000 1.4645
# 5 18.4657 23.8566 30.1558 0.0000 25.3967 0.0000
# 6 0.0000 0.0001 0.0000 1.4645 0.0000 20.5312
#
#
#
# Elastic Compliance Matrix: (Units=1/GPa)
#
#
# Indices 1 2 3 4 5 6 
#
# 1 0.027084 -0.006273 -0.011885 0.000000 0.000312 0.000000
# 2 -0.006273 0.029200 -0.008352 0.000000 -0.012952 0.000000
# 3 -0.011885 -0.008352 0.023221 0.000000 -0.011086 0.000000
# 4 0.000000 0.000000 0.000000 0.080952 0.000000 -0.005774
# 5 0.000312 -0.012952 -0.011086 0.000000 0.064478 0.000000
# 6 0.000000 0.000000 0.000000 -0.005774 0.000000 0.049118
#
#
# Mechanical properties :
#
#
# Convention : Reuss Voigt Hill
#
# Bulk Modulus (GPa) = 37.75498 63.72965 50.74232
# Shear Modulus (GPa) = 14.88535 17.84932 16.36733
#
# Velocity S-wave (km/s) = 3.17196 3.47343 3.32611
# Velocity P-wave (km/s) = 6.23975 7.69171 7.00346
#
# Compressibility (1/GPa) = 0.02648657
#
# Stress axis : x y z
#
# Youngs Moduli (GPa) = 36.92272 34.24644 43.06435
#
# Poissons Ratio (x) = 0.21483 0.51180
# Poissons Ratio (y) = 0.23162 0.35965
# Poissons Ratio (z) = 0.43881 0.28601
#
# Static dielectric constant tensor:
#      x y z
#    x 1.464130 0.000000 0.024410 
#    y 0.000000 1.493090 0.000000 
#    z 0.024410 0.000000 1.504110 
# 
# From -- ./inp_files/291488.got.cif
#   From: 2010.05.17/outbox.cif.g08.bks.cpg/sg12_146_cif.got.tgz:291488.got - 2010.06.03 13:09:07.
