data_PCOD9169553
_publ_section_title
;
Structure prediction by ZEFSAII (Michael W. Deem and Ramdas Pophale) SiO2 
 PCOD9169553
Probable space group: C 2/M
;
_chemical_formula_sum "Si O2"
_cell_formula_units_Z 64
_cell_length_a 23.723738
_cell_length_b 8.627914
_cell_length_c 17.344097
_cell_angle_alpha 90.000000
_cell_angle_beta 107.321704
_cell_angle_gamma 90.000000
_cell_volume 3389.096426
_symmetry_space_group_name_H-M "C 2/M"
_symmetry_group_IT_number 12
_symmetry_cell_setting 'monoclinic'
loop_
_space_group_symop_operation_xyz
x,y,z
-x,y,-z
-x,-y,-z
x,-y,z
1/2+x,1/2+y,z
1/2-x,1/2+y,-z
1/2-x,1/2-y,-z
1/2+x,1/2-y,z
loop_
_atom_site_type_symbol
_atom_site_label
_atom_site_fract_x
_atom_site_fract_y
_atom_site_fract_z
Si Si1 0.713495 0.684863 0.305573
Si Si2 0.534783 0.315294 0.201934
Si Si3 0.373275 0.186116 0.863682
Si Si4 0.378262 0.185227 0.628112
Si Si5 0.938162 0.316413 0.261191
Si Si6 0.310260 0.314558 0.246958
Si Si7 0.225844 0.685835 0.069628
Si Si8 0.024629 0.183121 0.424423
O O1 0.708175 0.500000 0.301071
O O2 0.672221 0.759914 0.221889
O O3 0.685352 0.748554 0.373218
O O4 0.778928 0.737753 0.308341
O O5 0.536773 0.500000 0.207237
O O6 0.564185 0.258925 0.134246
O O7 0.577667 0.244143 0.285715
O O8 0.470277 0.254166 0.198727
O O9 0.339739 0.234103 0.928504
O O10 0.377787 0.000000 0.863002
O O11 0.409657 0.252396 0.564795
O O12 0.377331 0.000000 0.626744
O O13 0.933191 0.500000 0.250648
O O14 0.875665 0.242037 0.255903
O O15 0.981138 0.273652 0.349542
O O16 0.308481 0.500000 0.255101
O O17 0.270865 0.270781 0.156399
O O18 0.225063 0.500000 0.064894
O O19 0.250000 0.750000 0.000000
O O20 0.000000 0.202148 0.500000
O O21 0.023714 0.000000 0.404725
#
# Coordination Sequence:
#
# PCOD9169553 Si02
#       8
#     8   8   8   8   8   8   8   8
#     4  10  17  27  45  70  96 124 161 203 244 287
#     4  10  17  27  45  69  95 125 160 202 245 286
#     4   9  16  28  44  67  96 126 160 201 245 286
#     4  10  17  27  45  69  97 127 160 202 245 285
#     4  11  21  33  51  75 101 131 164 202 246 292
#     4  10  20  35  51  72 101 132 165 202 245 292
#     4   9  19  32  50  73 100 131 162 200 244 291
#     4  10  20  34  52  74 101 133 166 202 244 290
#
# _framework density 18.884088999999999
#
# number of rings (size 3 to 8) (size 9 to 14) (size 15 to 20)
#    0.000    2.125    0.000    9.375    0.000    4.000 
#    0.000    0.000    0.000    1.500    0.000    5.250 
#    0.000    0.000    0.000    0.000    0.000    0.000 
#
# Total GULP energy -178400.728843 kJ/mol
# GULP energy per Si atom -5575.022776 kJ/mol
# Density = 1.884111 g / cm^3
# Si number density = 18.884089 Si / 1000 Ang^3
#
#
#
# Elastic Constant Matrix: (Units=GPa)
#
#
# Indices 1 2 3 4 5 6 
#
# 1 158.4151 28.7410 26.2765 0.0000 -43.6591 0.0000
# 2 28.7410 75.8928 8.1395 0.0000 -13.4472 0.0000
# 3 26.2765 8.1395 23.7206 0.0000 -25.9789 0.0000
# 4 0.0000 0.0000 0.0000 18.1250 0.0000 -10.8507
# 5 -43.6591 -13.4472 -25.9789 0.0000 31.9094 0.0000
# 6 0.0000 0.0000 0.0000 -10.8507 0.0000 34.4654
#
#
#
# Elastic Compliance Matrix: (Units=1/GPa)
#
#
# Indices 1 2 3 4 5 6 
#
# 1 0.015325 -0.000049 0.055217 0.000000 0.065903 0.000000
# 2 -0.000049 0.014891 0.016098 0.000000 0.019315 0.000000
# 3 0.055217 0.016098 0.605853 0.000000 0.575588 0.000000
# 4 0.000000 0.000000 0.000000 0.067986 0.000000 0.021404
# 5 0.065903 0.019315 0.575588 0.000000 0.598262 0.000000
# 6 0.000000 0.000000 0.000000 0.021404 0.000000 0.035753
#
#
# Mechanical properties :
#
#
# Convention : Reuss Voigt Hill
#
# Bulk Modulus (GPa) = 1.28435 42.70473 21.99454
# Shear Modulus (GPa) = 3.43626 29.89138 16.66382
#
# Velocity S-wave (km/s) = 1.35041 3.98287 2.97379
# Velocity P-wave (km/s) = 1.76439 6.61923 4.84393
#
# Compressibility (1/GPa) = 0.77860186
#
# Stress axis : x y z
#
# Youngs Moduli (GPa) = 65.25209 67.15584 1.65057
#
# Poissons Ratio (x) = 0.00327 -0.09114
# Poissons Ratio (y) = 0.00317 -0.02657
# Poissons Ratio (z) = -3.60305 -1.08107
#
# Static dielectric constant tensor:
#      x y z
#    x 1.735990 0.000000 -0.030490 
#    y 0.000000 1.637690 0.000000 
#    z -0.030490 0.000000 1.676940 
# 
# From -- ./inp_files/323396.got.cif
#   From: 2010.05.17/outbox.cif.g08.bks.cpg/sg12_162_cif.got.tgz:323396.got - 2010.06.03 13:09:07.
