data_PCOD9169202
_publ_section_title
;
Structure prediction by ZEFSAII (Michael W. Deem and Ramdas Pophale) SiO2 
 PCOD9169202
Probable space group: C 2/M
;
_chemical_formula_sum "Si O2"
_cell_formula_units_Z 64
_cell_length_a 14.965763
_cell_length_b 16.608340
_cell_length_c 10.938997
_cell_angle_alpha 90.000000
_cell_angle_beta 87.660001
_cell_angle_gamma 90.000000
_cell_volume 2716.691348
_symmetry_space_group_name_H-M "C 2/M"
_symmetry_group_IT_number 12
_symmetry_cell_setting 'monoclinic'
loop_
_space_group_symop_operation_xyz
x,y,z
-x,y,-z
-x,-y,-z
x,-y,z
1/2+x,1/2+y,z
1/2-x,1/2+y,-z
1/2-x,1/2-y,-z
1/2+x,1/2-y,z
loop_
_atom_site_type_symbol
_atom_site_label
_atom_site_fract_x
_atom_site_fract_y
_atom_site_fract_z
Si Si1 0.269679 0.583324 0.974736
Si Si2 0.094542 0.593990 0.355560
Si Si3 0.535191 0.410080 0.134418
Si Si4 0.201184 0.885985 0.753070
Si Si5 0.369667 0.589142 0.505371
Si Si6 0.719368 0.791399 0.807046
Si Si7 0.078099 0.222416 0.310440
Si Si8 0.333943 0.088275 0.384709
O O1 0.218144 0.500000 0.953344
O O2 0.302594 0.579100 0.111201
O O3 0.357388 0.583004 0.885216
O O4 0.220475 0.665013 0.938555
O O5 0.063772 0.500000 0.330165
O O6 0.196407 0.598292 0.296578
O O7 0.053733 0.682266 0.320788
O O8 0.104104 0.600040 0.501697
O O9 0.503476 0.500000 0.174123
O O10 0.521059 0.334613 0.223519
O O11 0.500000 0.394745 0.000000
O O12 0.140758 0.908637 0.640516
O O13 0.180272 0.795068 0.789556
O O14 0.404889 0.500000 0.541124
O O15 0.413798 0.667595 0.566032
O O16 0.267428 0.591550 0.558741
O O17 0.820677 0.779360 0.750386
O O18 0.663877 0.848671 0.721717
O O19 0.349819 0.000000 0.333881
#
# Coordination Sequence:
#
# PCOD9169202 Si02
#       8
#     8   8   8   8   8   8   8   8
#     4  10  18  27  39  55  77 105 135 164 196 236
#     4   9  16  25  38  58  86 114 135 157 185 222
#     4   9  18  32  48  62  74  93 127 172 213 241
#     4  10  17  25  36  55  85 116 137 152 184 232
#     4   9  15  23  37  57  81 107 134 162 191 228
#     4   9  16  24  36  55  79 107 139 166 185 218
#     4   9  16  26  42  61  78 101 133 166 198 229
#     4   8  13  22  35  53  79 109 138 164 186 211
#
# _framework density 23.558069
#
# number of rings (size 3 to 8) (size 9 to 14) (size 15 to 20)
#    0.000    2.875    0.000    3.750    0.000    6.000 
#    0.000    0.000    0.000    1.125    0.000    3.500 
#    0.000    0.000    0.000    4.500    0.000    1.375 
#
# Total GULP energy -178317.186682 kJ/mol
# GULP energy per Si atom -5572.412084 kJ/mol
# Density = 2.350445 g / cm^3
# Si number density = 23.558069 Si / 1000 Ang^3
#
#
#
# Elastic Constant Matrix: (Units=GPa)
#
#
# Indices 1 2 3 4 5 6 
#
# 1 61.7098 9.0211 6.7497 0.0000 3.0200 0.0000
# 2 9.0211 262.3071 89.8496 0.0000 16.2958 0.0000
# 3 6.7497 89.8496 110.7852 0.0000 5.4780 0.0000
# 4 0.0000 0.0000 0.0000 18.7042 0.0000 7.5814
# 5 3.0200 16.2958 5.4780 0.0000 13.3387 0.0000
# 6 0.0000 0.0000 0.0000 7.5814 0.0000 -1.2612
#
#
#
# Elastic Compliance Matrix: (Units=1/GPa)
#
#
# Indices 1 2 3 4 5 6 
#
# 1 0.016464 -0.000102 -0.000757 0.000000 -0.003292 0.000000
# 2 -0.000102 0.005597 -0.004283 0.000000 -0.005056 0.000000
# 3 -0.000757 -0.004283 0.012534 0.000000 0.000257 0.000000
# 4 0.000000 0.000000 0.000000 0.015558 0.000000 0.093519
# 5 -0.003292 -0.005056 0.000257 0.000000 0.081786 0.000000
# 6 0.000000 0.000000 0.000000 0.093519 0.000000 -0.230722
#
#
# Mechanical properties :
#
#
# Convention : Reuss Voigt Hill
#
# Bulk Modulus (GPa) = 41.13718 71.78254 56.45986
# Shear Modulus (GPa) = -62.19294 28.10178 -17.04558
#
# Velocity S-wave (km/s) = -5.14365 3.45755 -2.69282
# Velocity P-wave (km/s) = 4.21619 6.81734 3.78813
#
# Compressibility (1/GPa) = 0.02430891
#
# Stress axis : x y z
#
# Youngs Moduli (GPa) = 60.73948 178.66521 79.78519
#
# Poissons Ratio (x) = 0.01828 0.06042
# Poissons Ratio (y) = 0.00621 0.34173
# Poissons Ratio (z) = 0.04600 0.76525
#
# Static dielectric constant tensor:
#      x y z
#    x 1.928380 0.000000 -0.008920 
#    y 0.000000 2.109180 0.000000 
#    z -0.008920 0.000000 1.866090 
# 
# From -- ./inp_files/176147.got.cif
#   From: 2010.05.17/outbox.cif.g08.bks.cpg/sg12_89_cif.got.tgz:176147.got - 2010.06.03 13:09:07.
