data_PCOD9169775
_publ_section_title
;
Structure prediction by ZEFSAII (Michael W. Deem and Ramdas Pophale) SiO2 
 PCOD9169775
Probable space group: C 2/M
;
_chemical_formula_sum "Si O2"
_cell_formula_units_Z 64
_cell_length_a 23.113088
_cell_length_b 13.517462
_cell_length_c 24.032045
_cell_angle_alpha 90.000000
_cell_angle_beta 33.446075
_cell_angle_gamma 90.000000
_cell_volume 4138.235275
_symmetry_space_group_name_H-M "C 2/M"
_symmetry_group_IT_number 12
_symmetry_cell_setting 'monoclinic'
loop_
_space_group_symop_operation_xyz
x,y,z
-x,y,-z
-x,-y,-z
x,-y,z
1/2+x,1/2+y,z
1/2-x,1/2+y,-z
1/2-x,1/2-y,-z
1/2+x,1/2-y,z
loop_
_atom_site_type_symbol
_atom_site_label
_atom_site_fract_x
_atom_site_fract_y
_atom_site_fract_z
Si Si1 0.605348 0.299087 0.570087
Si Si2 0.503292 0.749825 0.933890
Si Si3 0.294293 0.884443 0.218163
Si Si4 0.078707 0.882093 0.213554
Si Si5 0.057022 0.882610 0.785630
Si Si6 0.750736 0.883251 0.448553
Si Si7 0.800017 0.384585 0.085446
Si Si8 0.605494 0.619488 0.446313
O O1 0.491455 0.316867 0.688405
O O2 0.649872 0.187606 0.531107
O O3 0.683880 0.359092 0.547879
O O4 0.608008 0.343032 0.506694
O O5 0.597184 0.828718 0.861372
O O6 0.531641 0.673535 0.862652
O O7 0.500000 0.708077 0.000000
O O8 0.396718 0.809046 0.004476
O O9 0.259619 0.876521 0.181659
O O10 0.205506 0.846160 0.330734
O O11 0.310990 0.000000 0.216139
O O12 0.032583 0.863283 0.189152
O O13 0.201835 0.864007 0.124024
O O14 0.060538 0.000000 0.240134
O O15 0.168138 0.856031 0.666640
O O16 0.059713 0.000000 0.793042
O O17 0.728088 0.000000 0.463484
O O18 0.833242 0.500000 0.051087
O O19 0.500000 0.651967 0.500000
O O20 0.606224 0.500000 0.445906
#
# Coordination Sequence:
#
# PCOD9169775 Si02
#       8
#     8   8   8   8   8   8   8   8
#     4  10  17  28  48  69  92 120 151 183 219 264
#     4  10  19  30  46  66  87 113 149 187 226 266
#     4   9  17  28  42  64  94 120 141 173 220 270
#     4   9  17  30  48  68  90 118 150 182 218 264
#     4   9  18  32  47  64  87 114 149 190 224 257
#     4   9  18  31  48  69  91 118 151 186 224 267
#     4   9  17  30  47  66  90 119 148 179 221 271
#     4  10  18  26  41  68  98 123 147 180 221 267
#
# _framework density 15.465529
#
# number of rings (size 3 to 8) (size 9 to 14) (size 15 to 20)
#    0.000    2.625    0.000    3.750    0.000    4.250 
#    0.000    0.000    0.000    4.125    0.000    3.500 
#    0.000    0.000    0.000    0.000    0.000    0.000 
#
# Total GULP energy -178255.106391 kJ/mol
# GULP energy per Si atom -5570.472075 kJ/mol
# Density = 1.543033 g / cm^3
# Si number density = 15.465529 Si / 1000 Ang^3
#
#
#
# Elastic Constant Matrix: (Units=GPa)
#
#
# Indices 1 2 3 4 5 6 
#
# 1 64.9744 30.2342 47.2861 0.0000 5.2333 0.0000
# 2 30.2342 47.5543 38.0178 0.0000 5.2506 0.0000
# 3 47.2861 38.0178 76.9398 0.0000 10.9853 0.0000
# 4 0.0000 0.0000 0.0000 24.4019 0.0000 3.6373
# 5 5.2333 5.2506 10.9853 0.0000 26.6904 0.0000
# 6 0.0000 0.0000 0.0000 3.6373 0.0000 17.3609
#
#
#
# Elastic Compliance Matrix: (Units=1/GPa)
#
#
# Indices 1 2 3 4 5 6 
#
# 1 0.029251 -0.006974 -0.014777 0.000000 0.001718 0.000000
# 2 -0.006974 0.036424 -0.013689 0.000000 -0.000164 0.000000
# 3 -0.014777 -0.013689 0.029796 0.000000 -0.006673 0.000000
# 4 0.000000 0.000000 0.000000 0.042302 0.000000 -0.008863
# 5 0.001718 -0.000164 -0.006673 0.000000 0.039909 0.000000
# 6 0.000000 0.000000 0.000000 -0.008863 0.000000 0.059458
#
#
# Mechanical properties :
#
#
# Convention : Reuss Voigt Hill
#
# Bulk Modulus (GPa) = 40.66299 46.72720 43.69509
# Shear Modulus (GPa) = 15.81203 18.61932 17.21568
#
# Velocity S-wave (km/s) = 3.20098 3.47353 3.34003
# Velocity P-wave (km/s) = 6.32546 6.80930 6.57183
#
# Compressibility (1/GPa) = 0.02459239
#
# Stress axis : x y z
#
# Youngs Moduli (GPa) = 34.18631 27.45445 33.56197
#
# Poissons Ratio (x) = 0.19146 0.49595
# Poissons Ratio (y) = 0.23840 0.45942
# Poissons Ratio (z) = 0.50517 0.37582
#
# Static dielectric constant tensor:
#      x y z
#    x 1.510980 0.000000 0.001280 
#    y 0.000000 1.496220 0.000000 
#    z 0.001280 0.000000 1.518290 
# 
# From -- ./inp_files/349339.got.cif
#   From: 2010.05.17/outbox.cif.g08.bks.cpg/sg12_175_cif.got.tgz:349339.got - 2010.06.03 13:09:07.
