data_PCOD9169732
_publ_section_title
;
Structure prediction by ZEFSAII (Michael W. Deem and Ramdas Pophale) SiO2 
 PCOD9169732
Probable space group: C 2/M
;
_chemical_formula_sum "Si O2"
_cell_formula_units_Z 48
_cell_length_a 8.642255
_cell_length_b 16.093848
_cell_length_c 18.509327
_cell_angle_alpha 90.000000
_cell_angle_beta 61.335546
_cell_angle_gamma 90.000000
_cell_volume 2258.899818
_symmetry_space_group_name_H-M "C 2/M"
_symmetry_group_IT_number 12
_symmetry_cell_setting 'monoclinic'
loop_
_space_group_symop_operation_xyz
x,y,z
-x,y,-z
-x,-y,-z
x,-y,z
1/2+x,1/2+y,z
1/2-x,1/2+y,-z
1/2-x,1/2-y,-z
1/2+x,1/2-y,z
loop_
_atom_site_type_symbol
_atom_site_label
_atom_site_fract_x
_atom_site_fract_y
_atom_site_fract_z
Si Si1 0.843441 0.899728 0.089043
Si Si2 0.297578 0.356306 0.752321
Si Si3 0.508116 0.096784 0.078135
Si Si4 0.505714 0.827302 0.416408
Si Si5 0.359615 0.359712 0.584360
Si Si6 0.336939 0.672523 0.249591
O O1 0.661268 0.867812 0.094721
O O2 0.861381 0.867891 0.166067
O O3 0.842765 0.000000 0.092789
O O4 0.000000 0.874791 0.000000
O O5 0.316332 0.400656 0.670766
O O6 0.489406 0.339505 0.741904
O O7 0.200852 0.269405 0.756164
O O8 0.176107 0.398942 0.839193
O O9 0.557336 0.000000 0.057185
O O10 0.500000 0.135072 0.000000
O O11 0.500000 0.860023 0.500000
O O12 0.547227 0.728564 0.415139
O O13 0.320762 0.841298 0.418010
O O14 0.666756 0.860848 0.331795
O O15 0.500000 0.401923 0.500000
#
# Coordination Sequence:
#
# PCOD9169732 Si02
#       6
#     8   8   8   8   8   8
#     4  10  21  38  58  79 104 136 174 214 259 313
#     4  11  21  34  53  79 109 139 175 217 262 307
#     4  10  21  38  58  79 104 136 174 214 259 313
#     4  10  17  28  46  71 103 137 173 211 256 306
#     4  10  17  28  46  71 103 137 173 211 256 306
#     4  11  21  34  53  79 109 139 175 217 262 307
#
# _framework density 21.249283999999999
#
# number of rings (size 3 to 8) (size 9 to 14) (size 15 to 20)
#    0.000    1.667    0.000   10.000    0.000    2.667 
#    0.000    3.333    0.000    1.000    0.000    0.000 
#    0.000    0.000    0.000    0.000    0.000    0.000 
#
# Total GULP energy -134058.091815 kJ/mol
# GULP energy per Si atom -5585.753826 kJ/mol
# Density = 2.120092 g / cm^3
# Si number density = 21.249284 Si / 1000 Ang^3
#
#
#
# Elastic Constant Matrix: (Units=GPa)
#
#
# Indices 1 2 3 4 5 6 
#
# 1 165.9031 23.0384 56.8570 0.0000 12.2283 0.0000
# 2 23.0384 23.9832 24.0769 0.0000 2.9719 0.0000
# 3 56.8570 24.0769 200.5411 0.0000 15.6530 0.0000
# 4 0.0000 0.0000 0.0000 30.8111 0.0000 -1.4264
# 5 12.2283 2.9719 15.6530 0.0000 44.7069 0.0000
# 6 0.0000 0.0000 0.0000 -1.4264 0.0000 10.9820
#
#
#
# Elastic Compliance Matrix: (Units=1/GPa)
#
#
# Indices 1 2 3 4 5 6 
#
# 1 0.007342 -0.005582 -0.001320 0.000000 -0.001175 0.000000
# 2 -0.005582 0.051716 -0.004603 0.000000 -0.000299 0.000000
# 3 -0.001320 -0.004603 0.006026 0.000000 -0.001443 0.000000
# 4 0.000000 0.000000 0.000000 0.032652 0.000000 0.004241
# 5 -0.001175 -0.000299 -0.001443 0.000000 0.023214 0.000000
# 6 0.000000 0.000000 0.000000 0.004241 0.000000 0.091609
#
#
# Mechanical properties :
#
#
# Convention : Reuss Voigt Hill
#
# Bulk Modulus (GPa) = 23.76747 66.48576 45.12662
# Shear Modulus (GPa) = 20.03257 36.39702 28.21480
#
# Velocity S-wave (km/s) = 3.07374 4.14316 3.64785
# Velocity P-wave (km/s) = 4.87919 7.36506 6.24702
#
# Compressibility (1/GPa) = 0.04207432
#
# Stress axis : x y z
#
# Youngs Moduli (GPa) = 136.20963 19.33631 165.95039
#
# Poissons Ratio (x) = 0.10794 0.21899
# Poissons Ratio (y) = 0.76033 0.76387
# Poissons Ratio (z) = 0.17974 0.08901
#
# Static dielectric constant tensor:
#      x y z
#    x 1.739250 0.000000 0.004520 
#    y 0.000000 1.770120 0.000000 
#    z 0.004520 0.000000 1.828280 
# 
# From -- ./inp_files/256462.got.cif
#   From: 2010.05.17/outbox.cif.g08.bks.cpg/sg12_129_cif.got.tgz:256462.got - 2010.06.03 13:09:07.
