data_PCOD9169304
_publ_section_title
;
Structure prediction by ZEFSAII (Michael W. Deem and Ramdas Pophale) SiO2 
 PCOD9169304
Probable space group: C 2/M
;
_chemical_formula_sum "Si O2"
_cell_formula_units_Z 48
_cell_length_a 27.047069
_cell_length_b 14.282400
_cell_length_c 5.589520
_cell_angle_alpha 90.000000
_cell_angle_beta 69.373938
_cell_angle_gamma 90.000000
_cell_volume 2020.808142
_symmetry_space_group_name_H-M "C 2/M"
_symmetry_group_IT_number 12
_symmetry_cell_setting 'monoclinic'
loop_
_space_group_symop_operation_xyz
x,y,z
-x,y,-z
-x,-y,-z
x,-y,z
1/2+x,1/2+y,z
1/2-x,1/2+y,-z
1/2-x,1/2-y,-z
1/2+x,1/2-y,z
loop_
_atom_site_type_symbol
_atom_site_label
_atom_site_fract_x
_atom_site_fract_y
_atom_site_fract_z
Si Si1 0.794600 0.142810 0.671345
Si Si2 0.960111 0.099359 0.852890
Si Si3 0.362425 0.168378 0.526826
Si Si4 0.169802 0.643230 0.916842
Si Si5 0.659371 0.633126 0.904779
Si Si6 0.015582 0.702981 0.709769
O O1 0.816706 0.250450 0.618249
O O2 0.732630 0.131821 0.818580
O O3 0.807890 0.104714 0.384792
O O4 0.822327 0.102597 0.862183
O O5 0.979287 0.202532 0.740818
O O6 0.959831 0.000000 0.711893
O O7 0.900553 0.107028 0.038617
O O8 0.000000 0.087472 0.000000
O O9 0.352353 0.110766 0.301284
O O10 0.420770 0.214891 0.406152
O O11 0.356651 0.114409 0.788114
O O12 0.160353 0.754768 0.919464
O O13 0.000000 0.644972 0.500000
O O14 0.000000 0.666822 0.000000
#
# Coordination Sequence:
#
# PCOD9169304 Si02
#       6
#     8   8   8   8   8   8
#     4  10  17  28  45  63  80  98 122 164 230 281
#     4  10  21  35  48  62  83 116 158 197 230 257
#     4  10  17  26  40  58  80 101 127 165 212 261
#     4  10  17  27  43  63  81  98 122 164 229 279
#     4  10  18  30  44  61  81 103 133 175 223 264
#     4  11  20  32  44  58  79 111 149 186 223 255
#
# _framework density 23.752873000000001
#
# number of rings (size 3 to 8) (size 9 to 14) (size 15 to 20)
#    0.000    1.833    0.000   12.000    0.000    0.333 
#    0.000    4.167    0.000    0.000    0.000    0.000 
#    0.000    0.000    0.000    0.000    0.000    0.000 
#
# Total GULP energy -133697.690459 kJ/mol
# GULP energy per Si atom -5570.737102 kJ/mol
# Density = 2.369881 g / cm^3
# Si number density = 23.752873 Si / 1000 Ang^3
#
#
#
# Elastic Constant Matrix: (Units=GPa)
#
#
# Indices 1 2 3 4 5 6 
#
# 1 126.7815 4.0370 54.0236 0.0000 -3.6636 0.0000
# 2 4.0370 55.7250 5.2817 0.0000 1.2503 0.0000
# 3 54.0236 5.2817 210.2928 0.0000 24.9433 0.0000
# 4 0.0000 0.0000 0.0000 92.7215 0.0000 -104.0358
# 5 -3.6636 1.2503 24.9433 0.0000 67.6434 0.0000
# 6 0.0000 0.0000 0.0000 -104.0358 0.0000 -71.8067
#
#
#
# Elastic Compliance Matrix: (Units=1/GPa)
#
#
# Indices 1 2 3 4 5 6 
#
# 1 0.008993 -0.000449 -0.002466 0.000000 0.001405 0.000000
# 2 -0.000449 0.018012 -0.000308 0.000000 -0.000244 0.000000
# 3 -0.002466 -0.000308 0.005659 0.000000 -0.002215 0.000000
# 4 0.000000 0.000000 0.000000 0.004108 0.000000 -0.005951
# 5 0.001405 -0.000244 -0.002215 0.000000 0.015681 0.000000
# 6 0.000000 0.000000 0.000000 -0.005951 0.000000 -0.005304
#
#
# Mechanical properties :
#
#
# Convention : Reuss Voigt Hill
#
# Bulk Modulus (GPa) = 38.14071 57.72042 47.93057
# Shear Modulus (GPa) = 80.21236 39.67543 59.94389
#
# Velocity S-wave (km/s) = 5.81746 4.09142 5.02904
# Velocity P-wave (km/s) = 7.82406 6.83174 7.34468
#
# Compressibility (1/GPa) = 0.02621870
#
# Stress axis : x y z
#
# Youngs Moduli (GPa) = 111.19614 55.51701 176.70643
#
# Poissons Ratio (x) = 0.02495 0.43569
# Poissons Ratio (y) = 0.04996 0.05444
# Poissons Ratio (z) = 0.27417 0.01710
#
# Static dielectric constant tensor:
#      x y z
#    x 1.859980 0.000000 0.075130 
#    y 0.000000 0.818310 0.000000 
#    z 0.075130 0.000000 1.981110 
# 
# From -- ./inp_files/25251.got.cif
#   From: 2010.05.17/outbox.cif.g08.bks.cpg/sg12_13_cif.got.tgz:25251.got - 2010.06.03 13:09:07.
