data_PCOD9169914
_publ_section_title
;
Structure prediction by ZEFSAII (Michael W. Deem and Ramdas Pophale) SiO2 
 PCOD9169914
Probable space group: C 2/M
;
_chemical_formula_sum "Si O2"
_cell_formula_units_Z 48
_cell_length_a 25.135121
_cell_length_b 7.711934
_cell_length_c 13.677396
_cell_angle_alpha 90.000000
_cell_angle_beta 106.891016
_cell_angle_gamma 90.000000
_cell_volume 2536.855450
_symmetry_space_group_name_H-M "C 2/M"
_symmetry_group_IT_number 12
_symmetry_cell_setting 'monoclinic'
loop_
_space_group_symop_operation_xyz
x,y,z
-x,y,-z
-x,-y,-z
x,-y,z
1/2+x,1/2+y,z
1/2-x,1/2+y,-z
1/2-x,1/2-y,-z
1/2+x,1/2-y,z
loop_
_atom_site_type_symbol
_atom_site_label
_atom_site_fract_x
_atom_site_fract_y
_atom_site_fract_z
Si Si1 0.292295 0.787101 0.724428
Si Si2 0.186084 0.198642 0.553599
Si Si3 0.727417 0.706307 0.881589
Si Si4 0.123511 0.702715 0.712688
Si Si5 0.500508 0.211773 0.614154
Si Si6 0.890983 0.698058 0.658800
O O1 0.246399 0.734009 0.618914
O O2 0.268503 0.731005 0.816583
O O3 0.353320 0.725485 0.725600
O O4 0.292653 0.000000 0.723239
O O5 0.150968 0.201975 0.635405
O O6 0.151590 0.301853 0.455337
O O7 0.190782 0.000000 0.523078
O O8 0.724377 0.500000 0.870634
O O9 0.665847 0.775541 0.824784
O O10 0.750000 0.750000 0.000000
O O11 0.121938 0.500000 0.684809
O O12 0.059981 0.758971 0.691708
O O13 0.500000 0.267051 0.500000
O O14 0.447772 0.277717 0.647602
O O15 0.496050 0.000000 0.609991
O O16 0.903986 0.500000 0.693967
#
# Coordination Sequence:
#
# PCOD9169914 Si02
#       6
#     8   8   8   8   8   8
#     4   8  17  30  46  68  94 121 156 200 241 285
#     4  10  18  28  41  66 100 130 162 200 234 280
#     4  10  20  36  55  77  97 117 154 201 250 296
#     4  10  18  31  50  72  97 129 165 200 238 279
#     4   9  16  27  45  71  98 128 169 202 223 270
#     4  10  17  29  47  65  93 133 164 194 236 277
#
# _framework density 18.921061000000002
#
# number of rings (size 3 to 8) (size 9 to 14) (size 15 to 20)
#    0.000    2.500    1.667    3.000    0.000    0.000 
#    0.000    6.667    0.000    1.000    0.000    7.000 
#    0.000    0.000    0.000    0.000    0.000    0.000 
#
# Total GULP energy -133836.421414 kJ/mol
# GULP energy per Si atom -5576.517559 kJ/mol
# Density = 1.887800 g / cm^3
# Si number density = 18.921061 Si / 1000 Ang^3
#
#
#
# Elastic Constant Matrix: (Units=GPa)
#
#
# Indices 1 2 3 4 5 6 
#
# 1 199.1494 7.1803 57.5563 0.0000 7.3077 0.0000
# 2 7.1803 45.0476 -2.1886 0.0000 -1.0212 0.0000
# 3 57.5563 -2.1886 87.4225 0.0000 5.2118 0.0000
# 4 0.0000 0.0000 0.0000 16.3055 0.0000 4.1152
# 5 7.3077 -1.0212 5.2118 0.0000 13.9322 0.0000
# 6 0.0000 0.0000 0.0000 4.1152 0.0000 8.4117
#
#
#
# Elastic Compliance Matrix: (Units=1/GPa)
#
#
# Indices 1 2 3 4 5 6 
#
# 1 0.006313 -0.001247 -0.004076 0.000000 -0.001878 0.000000
# 2 -0.001247 0.022501 0.001275 0.000000 0.001826 0.000000
# 3 -0.004076 0.001275 0.014341 0.000000 -0.003133 0.000000
# 4 0.000000 0.000000 0.000000 0.069968 0.000000 -0.034230
# 5 -0.001878 0.001826 -0.003133 0.000000 0.074067 0.000000
# 6 0.000000 0.000000 0.000000 -0.034230 0.000000 0.135628
#
#
# Mechanical properties :
#
#
# Convention : Reuss Voigt Hill
#
# Bulk Modulus (GPa) = 28.52222 50.74618 39.63420
# Shear Modulus (GPa) = 14.59430 25.66797 20.13113
#
# Velocity S-wave (km/s) = 2.78029 3.68718 3.26537
# Velocity P-wave (km/s) = 5.04120 6.70859 5.93376
#
# Compressibility (1/GPa) = 0.03506038
#
# Stress axis : x y z
#
# Youngs Moduli (GPa) = 158.40014 44.44277 69.73164
#
# Poissons Ratio (x) = 0.05541 0.28420
# Poissons Ratio (y) = 0.19750 -0.08893
# Poissons Ratio (z) = 0.64558 -0.05668
#
# Static dielectric constant tensor:
#      x y z
#    x 1.714150 0.000000 -0.013180 
#    y 0.000000 1.743230 0.000000 
#    z -0.013180 0.000000 1.630310 
# 
# From -- ./inp_files/172423.got.cif
#   From: 2010.05.17/outbox.cif.g08.bks.cpg/sg12_87_cif.got.tgz:172423.got - 2010.06.03 13:09:07.
