data_PCOD9169949
_publ_section_title
;
Structure prediction by ZEFSAII (Michael W. Deem and Ramdas Pophale) SiO2 
 PCOD9169949
Probable space group: C 2/M
;
_chemical_formula_sum "Si O2"
_cell_formula_units_Z 56
_cell_length_a 28.392463
_cell_length_b 13.266237
_cell_length_c 14.558612
_cell_angle_alpha 90.000000
_cell_angle_beta 38.164416
_cell_angle_gamma 90.000000
_cell_volume 3388.466483
_symmetry_space_group_name_H-M "C 2/M"
_symmetry_group_IT_number 12
_symmetry_cell_setting 'monoclinic'
loop_
_space_group_symop_operation_xyz
x,y,z
-x,y,-z
-x,-y,-z
x,-y,z
1/2+x,1/2+y,z
1/2-x,1/2+y,-z
1/2-x,1/2-y,-z
1/2+x,1/2-y,z
loop_
_atom_site_type_symbol
_atom_site_label
_atom_site_fract_x
_atom_site_fract_y
_atom_site_fract_z
Si Si1 0.221068 0.386494 0.124125
Si Si2 0.624636 0.377748 0.585153
Si Si3 0.536610 0.379457 0.248004
Si Si4 0.836109 0.196198 0.085649
Si Si5 0.588733 0.378193 0.846656
Si Si6 0.263329 0.382977 0.737716
Si Si7 0.648992 0.675265 0.221987
O O1 0.191865 0.500000 0.161849
O O2 0.267143 0.369338 0.148391
O O3 0.161224 0.295792 0.206515
O O4 0.285130 0.367731 0.947354
O O5 0.625864 0.500000 0.583950
O O6 0.549229 0.348980 0.643598
O O7 0.614892 0.344987 0.705196
O O8 0.699880 0.347018 0.414696
O O9 0.543648 0.500000 0.222369
O O10 0.569517 0.354433 0.297853
O O11 0.592433 0.324942 0.090108
O O12 0.860424 0.165999 0.150030
O O13 0.805266 0.310081 0.128897
O O14 0.593088 0.500000 0.844142
O O15 0.500000 0.351567 0.000000
O O16 0.241857 0.500000 0.765852
O O17 0.329687 0.369875 0.712306
#
# Coordination Sequence:
#
# PCOD9169949 Si02
#       7
#     8   8   8   8   8   8   8
#     4   9  16  27  42  67  96 119 153 196 226 266
#     4   9  19  31  46  69  99 123 146 190 240 279
#     4  10  17  29  48  74  97 118 155 198 231 270
#     4  10  18  28  49  72  90 120 156 191 235 269
#     4  10  17  29  50  75  95 114 147 194 241 278
#     4  10  20  33  44  66 100 129 154 183 226 281
#     4   9  17  26  43  67  92 126 156 182 231 274
#
# _framework density 16.52665
#
# number of rings (size 3 to 8) (size 9 to 14) (size 15 to 20)
#    0.000    2.429    1.429    4.286    0.000    1.143 
#    0.000    2.143    0.000    0.429    0.000   16.000 
#    0.000    0.000    0.000    0.000    0.000    0.000 
#
# Total GULP energy -156047.223994 kJ/mol
# GULP energy per Si atom -5573.115143 kJ/mol
# Density = 1.648904 g / cm^3
# Si number density = 16.526650 Si / 1000 Ang^3
#
#
#
# Elastic Constant Matrix: (Units=GPa)
#
#
# Indices 1 2 3 4 5 6 
#
# 1 83.6974 10.1803 15.6411 0.0000 14.1608 0.0000
# 2 10.1803 83.4763 22.7711 0.0000 -3.6724 0.0000
# 3 15.6411 22.7711 34.1899 0.0000 6.0677 0.0000
# 4 0.0000 0.0000 0.0000 10.8783 0.0000 1.1447
# 5 14.1608 -3.6724 6.0677 0.0000 18.8191 0.0000
# 6 0.0000 0.0000 0.0000 1.1447 0.0000 17.8346
#
#
#
# Elastic Compliance Matrix: (Units=1/GPa)
#
#
# Indices 1 2 3 4 5 6 
#
# 1 0.014515 -0.001053 -0.004205 0.000000 -0.009772 0.000000
# 2 -0.001053 0.015471 -0.011136 0.000000 0.007402 0.000000
# 3 -0.004205 -0.011136 0.040744 0.000000 -0.012146 0.000000
# 4 0.000000 0.000000 0.000000 0.092551 0.000000 -0.005940
# 5 -0.009772 0.007402 -0.012146 0.000000 0.065851 0.000000
# 6 0.000000 0.000000 0.000000 -0.005940 0.000000 0.056452
#
#
# Mechanical properties :
#
#
# Convention : Reuss Voigt Hill
#
# Bulk Modulus (GPa) = 26.35535 33.17206 29.76371
# Shear Modulus (GPa) = 15.10486 19.69116 17.39801
#
# Velocity S-wave (km/s) = 3.02647 3.45553 3.24809
# Velocity P-wave (km/s) = 5.30985 6.00303 5.66705
#
# Compressibility (1/GPa) = 0.03794296
#
# Stress axis : x y z
#
# Youngs Moduli (GPa) = 68.89458 64.63610 24.54335
#
# Poissons Ratio (x) = 0.06807 0.10320
# Poissons Ratio (y) = 0.07255 0.27331
# Poissons Ratio (z) = 0.28968 0.71979
#
# Static dielectric constant tensor:
#      x y z
#    x 1.574210 0.000000 0.025230 
#    y 0.000000 1.543610 0.000000 
#    z 0.025230 0.000000 1.567960 
# 
# From -- ./inp_files/245603.got.cif
#   From: 2010.05.17/outbox.cif.g08.bks.cpg/sg12_123_cif.got.tgz:245603.got - 2010.06.03 13:09:07.
