data_PCOD9169242
_publ_section_title
;
Structure prediction by ZEFSAII (Michael W. Deem and Ramdas Pophale) SiO2 
 PCOD9169242
Probable space group: C 2/M
;
_chemical_formula_sum "Si O2"
_cell_formula_units_Z 56
_cell_length_a 29.214182
_cell_length_b 9.167235
_cell_length_c 14.425209
_cell_angle_alpha 90.000000
_cell_angle_beta 102.082975
_cell_angle_gamma 90.000000
_cell_volume 3777.673694
_symmetry_space_group_name_H-M "C 2/M"
_symmetry_group_IT_number 12
_symmetry_cell_setting 'monoclinic'
loop_
_space_group_symop_operation_xyz
x,y,z
-x,y,-z
-x,-y,-z
x,-y,z
1/2+x,1/2+y,z
1/2-x,1/2+y,-z
1/2-x,1/2-y,-z
1/2+x,1/2-y,z
loop_
_atom_site_type_symbol
_atom_site_label
_atom_site_fract_x
_atom_site_fract_y
_atom_site_fract_z
Si Si1 0.110817 0.324646 0.531000
Si Si2 0.930275 0.174232 0.303451
Si Si3 0.235393 0.827017 0.766154
Si Si4 0.280523 0.825926 0.434211
Si Si5 0.018836 0.668162 0.401472
Si Si6 0.292618 0.173887 0.963359
Si Si7 0.148811 0.826383 0.869787
O O1 0.106117 0.500000 0.543364
O O2 0.096151 0.244860 0.619513
O O3 0.164252 0.292462 0.529529
O O4 0.072708 0.284747 0.436155
O O5 0.900166 0.210917 0.199556
O O6 0.982942 0.235271 0.328197
O O7 0.930207 0.000000 0.313926
O O8 0.233620 0.734765 0.672522
O O9 0.280353 0.797749 0.850733
O O10 0.189455 0.796409 0.810162
O O11 0.234375 0.000000 0.744091
O O12 0.250000 0.750000 0.500000
O O13 0.274855 0.000000 0.435260
O O14 0.016577 0.500000 0.369706
O O15 0.000000 0.672383 0.500000
O O16 0.290657 0.000000 0.976051
O O17 0.250000 0.250000 0.000000
O O18 0.338150 0.240027 0.031694
O O19 0.150656 0.000000 0.888600
#
# Coordination Sequence:
#
# PCOD9169242 Si02
#       7
#     8   8   8   8   8   8   8
#     4   9  18  31  43  57  80 112 146 177 214 256
#     4  10  17  25  40  63  88 113 142 175 210 248
#     4   9  17  31  44  58  83 112 142 180 217 248
#     4  11  22  33  47  64  82 111 149 186 221 256
#     4   8  15  27  40  56  81 110 141 174 206 252
#     4   9  17  27  41  60  83 111 142 175 210 252
#     4   9  17  27  40  61  89 116 142 174 208 249
#
# _framework density 14.823938
#
# number of rings (size 3 to 8) (size 9 to 14) (size 15 to 20)
#    0.000    2.714    1.429    3.000    0.000    7.143 
#    0.000    0.000    0.000    0.000    0.000    0.000 
#    0.000    1.143    0.000   12.857    0.000    6.429 
#
# Total GULP energy -155896.010825 kJ/mol
# GULP energy per Si atom -5567.714672 kJ/mol
# Density = 1.479020 g / cm^3
# Si number density = 14.823938 Si / 1000 Ang^3
#
#
#
# Elastic Constant Matrix: (Units=GPa)
#
#
# Indices 1 2 3 4 5 6 
#
# 1 81.5654 46.2882 63.0534 0.0000 28.2887 0.0000
# 2 46.2882 50.3252 49.7513 0.0000 18.3405 0.0000
# 3 63.0534 49.7513 86.7609 0.0000 32.3985 0.0000
# 4 0.0000 0.0000 0.0000 26.7057 0.0000 6.5859
# 5 28.2887 18.3405 32.3985 0.0000 30.3942 0.0000
# 6 0.0000 0.0000 0.0000 6.5859 0.0000 19.9331
#
#
#
# Elastic Compliance Matrix: (Units=1/GPa)
#
#
# Indices 1 2 3 4 5 6 
#
# 1 0.033620 -0.015725 -0.012085 0.000000 -0.008920 0.000000
# 2 -0.015725 0.053241 -0.020882 0.000000 0.004768 0.000000
# 3 -0.012085 -0.020882 0.038836 0.000000 -0.017549 0.000000
# 4 0.000000 0.000000 0.000000 0.040767 0.000000 -0.013469
# 5 -0.008920 0.004768 -0.017549 0.000000 0.057032 0.000000
# 6 0.000000 0.000000 0.000000 -0.013469 0.000000 0.054618
#
#
# Mechanical properties :
#
#
# Convention : Reuss Voigt Hill
#
# Bulk Modulus (GPa) = 35.32043 59.64860 47.48452
# Shear Modulus (GPa) = 12.98917 19.37717 16.18317
#
# Velocity S-wave (km/s) = 2.96333 3.61938 3.30766
# Velocity P-wave (km/s) = 5.96546 7.60210 6.83296
#
# Compressibility (1/GPa) = 0.02831223
#
# Stress axis : x y z
#
# Youngs Moduli (GPa) = 29.74413 18.78267 25.74899
#
# Poissons Ratio (x) = 0.29535 0.31118
# Poissons Ratio (y) = 0.46772 0.53770
# Poissons Ratio (z) = 0.35947 0.39223
#
# Static dielectric constant tensor:
#      x y z
#    x 1.503360 0.000000 0.048010 
#    y 0.000000 1.485330 0.000000 
#    z 0.048010 0.000000 1.489140 
# 
# From -- ./inp_files/247878.got.cif
#   From: 2010.05.17/outbox.cif.g08.bks.cpg/sg12_124_cif.got.tgz:247878.got - 2010.06.03 13:09:07.
