data_PCOD9169155
_publ_section_title
;
Structure prediction by ZEFSAII (Michael W. Deem and Ramdas Pophale) SiO2 
 PCOD9169155
Probable space group: C 2/M
;
_chemical_formula_sum "Si O2"
_cell_formula_units_Z 56
_cell_length_a 23.952097
_cell_length_b 12.711865
_cell_length_c 13.767852
_cell_angle_alpha 90.000000
_cell_angle_beta 103.616496
_cell_angle_gamma 90.000000
_cell_volume 4074.155241
_symmetry_space_group_name_H-M "C 2/M"
_symmetry_group_IT_number 12
_symmetry_cell_setting 'monoclinic'
loop_
_space_group_symop_operation_xyz
x,y,z
-x,y,-z
-x,-y,-z
x,-y,z
1/2+x,1/2+y,z
1/2-x,1/2+y,-z
1/2-x,1/2-y,-z
1/2+x,1/2-y,z
loop_
_atom_site_type_symbol
_atom_site_label
_atom_site_fract_x
_atom_site_fract_y
_atom_site_fract_z
Si Si1 0.470423 0.872409 0.389441
Si Si2 0.255490 0.250695 0.836403
Si Si3 0.362596 0.877982 0.845974
Si Si4 0.849050 0.622598 0.261012
Si Si5 0.516385 0.127039 0.198033
Si Si6 0.602361 0.810384 0.926394
Si Si7 0.186427 0.124100 0.967648
O O1 0.500000 0.833976 0.500000
O O2 0.403991 0.841670 0.346511
O O3 0.504625 0.844133 0.305343
O O4 0.470121 0.000000 0.392375
O O5 0.308120 0.195511 0.803961
O O6 0.206970 0.305954 0.752373
O O7 0.225099 0.163891 0.893201
O O8 0.280792 0.337294 0.921803
O O9 0.420213 0.846647 0.812418
O O10 0.350184 0.000000 0.820279
O O11 0.376853 0.864801 0.966348
O O12 0.837373 0.500000 0.275178
O O13 0.869809 0.634864 0.157133
O O14 0.465737 0.179314 0.114498
O O15 0.509402 0.000000 0.185643
O O16 0.628073 0.692669 0.938862
O O17 0.178245 0.000000 0.962978
#
# Coordination Sequence:
#
# PCOD9169155 Si02
#       7
#     8   8   8   8   8   8   8
#     4   8  14  25  41  60  77  91 113 150 194 232
#     4   9  17  24  35  53  75 103 131 157 181 213
#     4  10  17  24  36  54  79 106 127 151 182 218
#     4   9  15  24  39  57  77  99 125 156 187 220
#     4   9  16  25  39  58  78  99 122 151 190 230
#     4   9  16  24  37  56  77 102 129 157 184 216
#     4   9  16  25  36  51  74 104 135 161 182 207
#
# _framework density 13.74518
#
# number of rings (size 3 to 8) (size 9 to 14) (size 15 to 20)
#    0.000    3.000    0.000    4.286    0.000    1.143 
#    0.000    0.000    0.000    8.571    0.000    0.000 
#    0.000   57.143    0.000    0.000    0.000    0.000 
#
# Total GULP energy -155890.547685 kJ/mol
# GULP energy per Si atom -5567.519560 kJ/mol
# Density = 1.371390 g / cm^3
# Si number density = 13.745180 Si / 1000 Ang^3
#
#
#
# Elastic Constant Matrix: (Units=GPa)
#
#
# Indices 1 2 3 4 5 6 
#
# 1 118.2911 43.2555 34.7130 0.0000 21.8512 0.0000
# 2 43.2555 67.7347 13.0507 0.0000 10.4901 0.0000
# 3 34.7130 13.0507 59.2704 0.0000 20.3543 0.0000
# 4 0.0000 0.0000 0.0000 9.3295 0.0000 5.6038
# 5 21.8512 10.4901 20.3543 0.0000 13.9331 0.0000
# 6 0.0000 0.0000 0.0000 5.6038 0.0000 21.9654
#
#
#
# Elastic Compliance Matrix: (Units=1/GPa)
#
#
# Indices 1 2 3 4 5 6 
#
# 1 0.013982 -0.006332 -0.001809 0.000000 -0.014518 0.000000
# 2 -0.006332 0.019629 0.002110 0.000000 -0.007930 0.000000
# 3 -0.001809 0.002110 0.034191 0.000000 -0.048699 0.000000
# 4 0.000000 0.000000 0.000000 0.126584 0.000000 -0.032294
# 5 -0.014518 -0.007930 -0.048699 0.000000 0.171653 0.000000
# 6 0.000000 0.000000 0.000000 -0.032294 0.000000 0.053765
#
#
# Mechanical properties :
#
#
# Convention : Reuss Voigt Hill
#
# Bulk Modulus (GPa) = 17.94082 47.48161 32.71121
# Shear Modulus (GPa) = 11.10014 19.33074 15.21544
#
# Velocity S-wave (km/s) = 2.84485 3.75422 3.33072
# Velocity P-wave (km/s) = 4.88587 7.30831 6.21623
#
# Compressibility (1/GPa) = 0.05573883
#
# Stress axis : x y z
#
# Youngs Moduli (GPa) = 71.52220 50.94594 29.24763
#
# Poissons Ratio (x) = 0.32258 0.05291
# Poissons Ratio (y) = 0.45287 -0.06170
# Poissons Ratio (z) = 0.12938 -0.10748
#
# Static dielectric constant tensor:
#      x y z
#    x 1.473060 0.000000 0.009050 
#    y 0.000000 1.436900 0.000000 
#    z 0.009050 0.000000 1.446050 
# 
# From -- ./inp_files/173907.got.cif
#   From: 2010.05.17/outbox.cif.g08.bks.cpg/sg12_87_cif.got.tgz:173907.got - 2010.06.03 13:09:07.
