data_PCOD9169784
_publ_section_title
;
Structure prediction by ZEFSAII (Michael W. Deem and Ramdas Pophale) SiO2 
 PCOD9169784
Probable space group: C 2/M
;
_chemical_formula_sum "Si O2"
_cell_formula_units_Z 52
_cell_length_a 19.061836
_cell_length_b 18.388576
_cell_length_c 15.503125
_cell_angle_alpha 90.000000
_cell_angle_beta 155.741135
_cell_angle_gamma 90.000000
_cell_volume 2232.676763
_symmetry_space_group_name_H-M "C 2/M"
_symmetry_group_IT_number 12
_symmetry_cell_setting 'monoclinic'
loop_
_space_group_symop_operation_xyz
x,y,z
-x,y,-z
-x,-y,-z
x,-y,z
1/2+x,1/2+y,z
1/2-x,1/2+y,-z
1/2-x,1/2-y,-z
1/2+x,1/2-y,z
loop_
_atom_site_type_symbol
_atom_site_label
_atom_site_fract_x
_atom_site_fract_y
_atom_site_fract_z
Si Si1 0.858019 0.411941 0.909667
Si Si2 0.709662 0.224400 0.551469
Si Si3 0.500000 0.314684 0.000000
Si Si4 0.751688 0.081225 0.522352
Si Si5 0.730037 0.085446 0.010204
Si Si6 0.353166 0.583635 0.969791
Si Si7 0.902654 0.131678 0.516906
O O1 0.854779 0.500000 0.909080
O O2 0.881470 0.385664 0.034646
O O3 0.682994 0.384906 0.670005
O O4 0.000000 0.389771 0.000000
O O5 0.750000 0.250000 0.500000
O O6 0.883591 0.228191 0.802129
O O7 0.660894 0.140437 0.481133
O O8 0.581371 0.281915 0.449037
O O9 0.365734 0.365020 0.901569
O O10 0.772499 0.102165 0.445348
O O11 0.949146 0.081542 0.776387
O O12 0.684094 0.000000 0.454790
O O13 0.745171 0.114321 0.929598
O O14 0.920279 0.093457 0.263350
O O15 0.697339 0.000000 0.962459
O O16 0.304867 0.500000 0.895370
#
# Coordination Sequence:
#
# PCOD9169784 Si02
#       7
#     8   8   4   8   8   8   8
#     4  10  20  31  47  77 111 144 187 231 278 342
#     4   9  19  30  45  77 110 150 188 233 281 335
#     4  10  17  28  48  74 113 150 184 232 280 330
#     4   8  14  27  46  72 103 137 182 235 276 323
#     4   9  17  31  51  76 109 146 182 231 285 333
#     4   8  14  25  46  76 106 136 178 229 283 332
#     4  10  17  28  48  73 108 145 187 221 271 337
#
# _framework density 23.290429
#
# number of rings (size 3 to 8) (size 9 to 14) (size 15 to 20)
#    0.000    2.923    0.000    3.923    1.077    1.846 
#    0.000    0.000    0.000    0.923   12.000    0.000 
#    0.000    2.923    0.000   60.308    0.000    0.154 
#
# Total GULP energy -145101.863003 kJ/mol
# GULP energy per Si atom -5580.840885 kJ/mol
# Density = 2.323742 g / cm^3
# Si number density = 23.290429 Si / 1000 Ang^3
#
#
#
# Elastic Constant Matrix: (Units=GPa)
#
#
# Indices 1 2 3 4 5 6 
#
# 1 140.3128 24.1704 26.5181 0.0000 -8.2390 0.0000
# 2 24.1704 87.0656 5.6968 0.0000 -7.5620 0.0000
# 3 26.5181 5.6968 61.5037 0.0001 -8.5301 0.0000
# 4 0.0000 0.0000 0.0001 -2.5213 0.0000 -9.2076
# 5 -8.2390 -7.5620 -8.5301 0.0000 43.1257 0.0000
# 6 0.0000 0.0000 0.0000 -9.2076 0.0000 20.0226
#
#
#
# Elastic Compliance Matrix: (Units=1/GPa)
#
#
# Indices 1 2 3 4 5 6 
#
# 1 0.008115 -0.001992 -0.003236 0.000000 0.000561 0.000000
# 2 -0.001992 0.012193 -0.000027 0.000000 0.001752 0.000000
# 3 -0.003236 -0.000027 0.018066 0.000000 0.002950 0.000000
# 4 0.000000 0.000000 0.000000 -0.148028 0.000000 -0.068072
# 5 0.000561 0.001752 0.002950 0.000000 0.024186 0.000000
# 6 0.000000 0.000000 0.000000 -0.068072 0.000000 0.018640
#
#
# Mechanical properties :
#
#
# Convention : Reuss Voigt Hill
#
# Bulk Modulus (GPa) = 35.89182 44.62808 40.25995
# Shear Modulus (GPa) = -106.31609 27.62521 -39.34544
#
# Velocity S-wave (km/s) = -6.76366 3.44774 -4.11462
# Velocity P-wave (km/s) = 6.74923 5.92051 2.29126
#
# Compressibility (1/GPa) = 0.02786150
#
# Stress axis : x y z
#
# Youngs Moduli (GPa) = 123.23296 82.01687 55.35148
#
# Poissons Ratio (x) = 0.16340 0.17914
# Poissons Ratio (y) = 0.24551 0.00152
# Poissons Ratio (z) = 0.39884 0.00225
#
# Static dielectric constant tensor:
#      x y z
#    x 1.922710 0.000000 0.028770 
#    y 0.000000 1.894870 0.000000 
#    z 0.028770 0.000000 1.901470 
# 
# From -- ./inp_files/227442.got.cif
#   From: 2010.05.17/outbox.cif.g08.bks.cpg/sg12_114_cif.got.tgz:227442.got - 2010.06.03 13:09:07.
