data_PCOD9169698
_publ_section_title
;
Structure prediction by ZEFSAII (Michael W. Deem and Ramdas Pophale) SiO2 
 PCOD9169698
Probable space group: C 2/M
;
_chemical_formula_sum "Si O2"
_cell_formula_units_Z 64
_cell_length_a 28.350903
_cell_length_b 14.624740
_cell_length_c 8.250677
_cell_angle_alpha 90.000000
_cell_angle_beta 70.287735
_cell_angle_gamma 90.000000
_cell_volume 3220.461224
_symmetry_space_group_name_H-M "C 2/M"
_symmetry_group_IT_number 12
_symmetry_cell_setting 'monoclinic'
loop_
_space_group_symop_operation_xyz
x,y,z
-x,y,-z
-x,-y,-z
x,-y,z
1/2+x,1/2+y,z
1/2-x,1/2+y,-z
1/2-x,1/2-y,-z
1/2+x,1/2-y,z
loop_
_atom_site_type_symbol
_atom_site_label
_atom_site_fract_x
_atom_site_fract_y
_atom_site_fract_z
Si Si1 0.248570 0.108674 0.117998
Si Si2 0.576555 0.605782 0.326282
Si Si3 0.836469 0.202285 0.618474
Si Si4 0.773491 0.341141 0.555551
Si Si5 0.606728 0.713973 0.793444
Si Si6 0.344136 0.895094 0.187097
Si Si7 0.978803 0.105656 0.258239
Si Si8 0.311597 0.604339 0.119650
O O1 0.209055 0.131315 0.305767
O O2 0.304377 0.140203 0.097885
O O3 0.253255 0.000000 0.095344
O O4 0.220542 0.144776 0.991671
O O5 0.592846 0.500000 0.286951
O O6 0.622456 0.674222 0.296747
O O7 0.536237 0.628411 0.234595
O O8 0.548129 0.607901 0.533560
O O9 0.810294 0.300997 0.652451
O O10 0.863301 0.199592 0.412183
O O11 0.750000 0.250000 0.500000
O O12 0.808517 0.392431 0.387868
O O13 0.727760 0.393757 0.686848
O O14 0.612749 0.820460 0.833286
O O15 0.552168 0.672347 0.822190
O O16 0.639014 0.657663 0.885785
O O17 0.359674 0.000000 0.138819
O O18 0.975636 0.000000 0.206045
O O19 0.324825 0.500000 0.067171
#
# Coordination Sequence:
#
# PCOD9169698 Si02
#       8
#     8   8   8   8   8   8   8   8
#     4  10  20  30  42  65  94 125 153 183 227 270
#     4   8  14  24  41  66  91 114 143 183 230 273
#     4  10  17  28  45  65  88 120 155 187 218 269
#     4  11  18  32  44  67  88 121 159 187 228 259
#     4  10  18  30  47  69  88 117 158 191 231 270
#     4  10  19  32  46  63  91 123 156 191 226 272
#     4   8  14  25  42  67  93 113 141 185 232 273
#     4  11  21  31  45  66  95 124 154 189 226 271
#
# _framework density 19.872928999999999
#
# number of rings (size 3 to 8) (size 9 to 14) (size 15 to 20)
#    0.000    2.250    3.750    1.875    0.000    4.500 
#    0.000    0.000    0.000    0.750    0.000   20.125 
#    0.000    0.000    0.000    5.750    0.000    4.000 
#
# Total GULP energy -178479.510956 kJ/mol
# GULP energy per Si atom -5577.484717 kJ/mol
# Density = 1.982770 g / cm^3
# Si number density = 19.872929 Si / 1000 Ang^3
#
#
#
# Elastic Constant Matrix: (Units=GPa)
#
#
# Indices 1 2 3 4 5 6 
#
# 1 112.7270 63.8556 21.5099 0.0000 34.7478 0.0000
# 2 63.8556 90.2370 15.4445 0.0000 31.4411 0.0000
# 3 21.5099 15.4445 56.9290 0.0000 15.6265 0.0000
# 4 0.0000 0.0000 0.0000 10.6969 0.0000 14.5761
# 5 34.7478 31.4411 15.6265 0.0000 33.0456 0.0000
# 6 0.0000 0.0000 0.0000 14.5761 0.0000 21.7650
#
#
#
# Elastic Compliance Matrix: (Units=1/GPa)
#
#
# Indices 1 2 3 4 5 6 
#
# 1 0.016665 -0.008492 -0.001610 0.000000 -0.008682 0.000000
# 2 -0.008492 0.020907 0.000627 0.000000 -0.011259 0.000000
# 3 -0.001610 0.000627 0.020344 0.000000 -0.008524 0.000000
# 4 0.000000 0.000000 0.000000 1.069268 0.000000 -0.716092
# 5 -0.008682 -0.011259 -0.008524 0.000000 0.054134 0.000000
# 6 0.000000 0.000000 0.000000 -0.716092 0.000000 0.525514
#
#
# Mechanical properties :
#
#
# Convention : Reuss Voigt Hill
#
# Bulk Modulus (GPa) = 25.66311 51.27922 38.47116
# Shear Modulus (GPa) = 2.87560 23.70703 13.29131
#
# Velocity S-wave (km/s) = 1.20421 3.45763 2.58895
# Velocity P-wave (km/s) = 3.85683 6.46528 5.32330
#
# Compressibility (1/GPa) = 0.03896643
#
# Stress axis : x y z
#
# Youngs Moduli (GPa) = 60.00625 47.83122 49.15555
#
# Poissons Ratio (x) = 0.40619 0.07912
# Poissons Ratio (y) = 0.50958 -0.03083
# Poissons Ratio (z) = 0.09658 -0.03000
#
# Static dielectric constant tensor:
#      x y z
#    x 1.727320 0.000000 0.024530 
#    y 0.000000 1.687490 0.000000 
#    z 0.024530 0.000000 1.787820 
# 
# From -- ./inp_files/111222.got.cif
#   From: 2010.05.17/outbox.cif.g08.bks.cpg/sg12_56_cif.got.tgz:111222.got - 2010.06.03 13:09:07.
