data_PCOD9169877
_publ_section_title
;
Structure prediction by ZEFSAII (Michael W. Deem and Ramdas Pophale) SiO2 
 PCOD9169877
Probable space group: C 2/M
;
_chemical_formula_sum "Si O2"
_cell_formula_units_Z 56
_cell_length_a 28.136093
_cell_length_b 8.281168
_cell_length_c 14.915224
_cell_angle_alpha 90.000000
_cell_angle_beta 104.012568
_cell_angle_gamma 90.000000
_cell_volume 3371.828845
_symmetry_space_group_name_H-M "C 2/M"
_symmetry_group_IT_number 12
_symmetry_cell_setting 'monoclinic'
loop_
_space_group_symop_operation_xyz
x,y,z
-x,y,-z
-x,-y,-z
x,-y,z
1/2+x,1/2+y,z
1/2-x,1/2+y,-z
1/2-x,1/2-y,-z
1/2+x,1/2-y,z
loop_
_atom_site_type_symbol
_atom_site_label
_atom_site_fract_x
_atom_site_fract_y
_atom_site_fract_z
Si Si1 0.793276 0.304814 0.402583
Si Si2 0.629643 0.810494 0.927651
Si Si3 0.318468 0.307677 0.605335
Si Si4 0.814397 0.302609 0.213083
Si Si5 0.864431 0.686818 0.795484
Si Si6 0.444611 0.308929 0.960377
Si Si7 0.708810 0.311457 0.095769
O O1 0.793990 0.500000 0.405445
O O2 0.736115 0.255097 0.386636
O O3 0.820953 0.240167 0.502508
O O4 0.814381 0.250995 0.316469
O O5 0.641969 0.752057 0.833087
O O6 0.588030 0.722429 0.965864
O O7 0.617798 0.000000 0.920521
O O8 0.679898 0.785816 0.006813
O O9 0.321510 0.500000 0.615581
O O10 0.357991 0.227426 0.688551
O O11 0.813928 0.500000 0.212606
O O12 0.762638 0.252249 0.145763
O O13 0.852629 0.500000 0.806226
O O14 0.824858 0.793825 0.831242
O O15 0.916146 0.724976 0.865450
O O16 0.445467 0.500000 0.943025
O O17 0.500000 0.251553 0.000000
O O18 0.710930 0.500000 0.071075
#
# Coordination Sequence:
#
# PCOD9169877 Si02
#       7
#     8   8   8   8   8   8   8
#     4   9  17  30  45  63  93 131 167 200 229 266
#     4  10  19  30  46  69  94 122 157 194 233 280
#     4  10  18  30  46  66  94 128 164 201 235 272
#     4   9  17  29  44  64  94 131 162 191 230 271
#     4  11  20  30  48  72  96 124 159 197 237 282
#     4  10  21  37  54  71  93 121 153 194 244 290
#     4  10  17  29  44  62  93 130 162 192 227 269
#
# _framework density 16.608197000000001
#
# number of rings (size 3 to 8) (size 9 to 14) (size 15 to 20)
#    0.000    2.143    1.429    5.143    0.000    1.714 
#    0.000    3.571    0.000    0.000    0.000    1.000 
#    0.000    8.000    0.000    0.000    0.000    0.000 
#
# Total GULP energy -156173.619102 kJ/mol
# GULP energy per Si atom -5577.629254 kJ/mol
# Density = 1.657040 g / cm^3
# Si number density = 16.608197 Si / 1000 Ang^3
#
#
#
# Elastic Constant Matrix: (Units=GPa)
#
#
# Indices 1 2 3 4 5 6 
#
# 1 62.0063 6.4954 60.6042 0.0000 1.1276 0.0000
# 2 6.4954 24.4917 3.7360 0.0000 2.3317 0.0000
# 3 60.6042 3.7360 106.8901 0.0000 -13.6856 0.0000
# 4 0.0000 0.0000 0.0000 23.0409 0.0000 -0.2071
# 5 1.1276 2.3317 -13.6856 0.0000 22.2006 0.0000
# 6 0.0000 0.0000 0.0000 -0.2071 0.0000 12.4519
#
#
#
# Elastic Compliance Matrix: (Units=1/GPa)
#
#
# Indices 1 2 3 4 5 6 
#
# 1 0.042795 -0.005633 -0.026349 0.000000 -0.017825 0.000000
# 2 -0.005633 0.042452 0.001277 0.000000 -0.003385 0.000000
# 3 -0.026349 0.001277 0.026495 0.000000 0.017537 0.000000
# 4 0.000000 0.000000 0.000000 0.043408 0.000000 0.000722
# 5 -0.017825 -0.003385 0.017537 0.000000 0.057115 0.000000
# 6 0.000000 0.000000 0.000000 0.000722 0.000000 0.080321
#
#
# Mechanical properties :
#
#
# Convention : Reuss Voigt Hill
#
# Bulk Modulus (GPa) = 19.86850 37.22881 28.54865
# Shear Modulus (GPa) = 13.48531 19.70884 16.59708
#
# Velocity S-wave (km/s) = 2.85260 3.44858 3.16465
# Velocity P-wave (km/s) = 4.77899 6.19044 5.52993
#
# Compressibility (1/GPa) = 0.05033092
#
# Stress axis : x y z
#
# Youngs Moduli (GPa) = 23.36738 23.55614 37.74252
#
# Poissons Ratio (x) = 0.13270 0.99447
# Poissons Ratio (y) = 0.13164 -0.04819
# Poissons Ratio (z) = 0.61570 -0.03008
#
# Static dielectric constant tensor:
#      x y z
#    x 1.552280 0.000000 -0.022500 
#    y 0.000000 1.569740 0.000000 
#    z -0.022500 0.000000 1.582400 
# 
# From -- ./inp_files/248581.got.cif
#   From: 2010.05.17/outbox.cif.g08.bks.cpg/sg12_125_cif.got.tgz:248581.got - 2010.06.03 13:09:07.
