data_PCOD9169378
_publ_section_title
;
Structure prediction by ZEFSAII (Michael W. Deem and Ramdas Pophale) SiO2 
 PCOD9169378
Probable space group: C 2/M
;
_chemical_formula_sum "Si O2"
_cell_formula_units_Z 60
_cell_length_a 28.371167
_cell_length_b 8.245678
_cell_length_c 17.686810
_cell_angle_alpha 90.000000
_cell_angle_beta 52.138640
_cell_angle_gamma 90.000000
_cell_volume 3266.662094
_symmetry_space_group_name_H-M "C 2/M"
_symmetry_group_IT_number 12
_symmetry_cell_setting 'monoclinic'
loop_
_space_group_symop_operation_xyz
x,y,z
-x,y,-z
-x,-y,-z
x,-y,z
1/2+x,1/2+y,z
1/2-x,1/2+y,-z
1/2-x,1/2-y,-z
1/2+x,1/2-y,z
loop_
_atom_site_type_symbol
_atom_site_label
_atom_site_fract_x
_atom_site_fract_y
_atom_site_fract_z
Si Si1 0.250015 0.307376 0.273416
Si Si2 0.159303 0.197471 0.126861
Si Si3 0.500000 0.749601 0.500000
Si Si4 0.706172 0.189391 0.609609
Si Si5 0.620493 0.309676 0.431489
Si Si6 0.404069 0.306341 0.369795
Si Si7 0.218863 0.805859 0.916661
Si Si8 0.970614 0.813708 0.702262
O O1 0.240708 0.500000 0.276459
O O2 0.279704 0.272157 0.324647
O O3 0.185121 0.224678 0.335092
O O4 0.287526 0.250455 0.163477
O O5 0.214543 0.259941 0.121886
O O6 0.094712 0.256791 0.218502
O O7 0.160615 0.000000 0.129921
O O8 0.173929 0.251215 0.026438
O O9 0.431954 0.805026 0.549142
O O10 0.513186 0.681027 0.402671
O O11 0.750000 0.250000 0.500000
O O12 0.639257 0.223162 0.646848
O O13 0.717009 0.000000 0.608765
O O14 0.603603 0.500000 0.433209
O O15 0.623287 0.287427 0.519003
O O16 0.405125 0.500000 0.353889
O O17 0.471885 0.242444 0.311272
O O18 0.213742 0.000000 0.922025
O O19 0.967160 0.000000 0.731379
#
# Coordination Sequence:
#
# PCOD9169378 Si02
#       8
#     8   8   4   8   8   8   8   8
#     4  11  22  34  50  72 102 134 169 214 260 300
#     4   9  17  32  54  76 102 138 177 210 248 302
#     4  10  17  26  43  74 107 132 165 204 243 292
#     4  12  23  36  54  75 100 132 169 209 257 309
#     4  10  18  29  47  70  99 133 168 203 244 299
#     4   9  18  32  49  72 101 132 167 205 249 300
#     4   9  19  33  49  75 106 135 171 217 259 294
#     4   9  16  27  47  73 102 135 169 207 247 297
#
# _framework density 18.367373000000001
#
# number of rings (size 3 to 8) (size 9 to 14) (size 15 to 20)
#    0.000    2.133    1.333    4.400    0.000    2.133 
#    0.000    1.000    0.000    2.400    0.000    5.600 
#    0.000    0.000    0.000    0.000    0.000    0.000 
#
# Total GULP energy -167036.552019 kJ/mol
# GULP energy per Si atom -5567.885067 kJ/mol
# Density = 1.832557 g / cm^3
# Si number density = 18.367373 Si / 1000 Ang^3
#
#
#
# Elastic Constant Matrix: (Units=GPa)
#
#
# Indices 1 2 3 4 5 6 
#
# 1 88.8606 -4.7769 43.9017 -0.0002 4.7912 -0.0001
# 2 -4.7769 16.1970 5.2286 -0.0020 3.2999 0.0029
# 3 43.9017 5.2286 108.5124 0.0001 1.9230 0.0002
# 4 -0.0002 -0.0020 0.0001 12.3795 0.0001 2.1863
# 5 4.7912 3.2999 1.9230 0.0001 31.6289 -0.0001
# 6 -0.0001 0.0029 0.0002 2.1863 -0.0001 2.0991
#
#
#
# Elastic Compliance Matrix: (Units=1/GPa)
#
#
# Indices 1 2 3 4 5 6 
#
# 1 0.014886 0.006957 -0.006312 0.000004 -0.002597 -0.000012
# 2 0.006957 0.067274 -0.005919 0.000034 -0.007713 -0.000128
# 3 -0.006312 -0.005919 0.012039 -0.000003 0.000842 0.000010
# 4 0.000004 0.000034 -0.000003 0.098986 -0.000005 -0.103097
# 5 -0.002597 -0.007713 0.000842 -0.000005 0.032764 0.000018
# 6 -0.000012 -0.000128 0.000010 -0.103097 0.000018 0.583770
#
#
# Mechanical properties :
#
#
# Convention : Reuss Voigt Hill
#
# Bulk Modulus (GPa) = 11.95453 33.58631 22.77042
# Shear Modulus (GPa) = 5.89518 20.50262 13.19890
#
# Velocity S-wave (km/s) = 1.79348 3.34466 2.68359
# Velocity P-wave (km/s) = 3.28808 5.76552 4.69322
#
# Compressibility (1/GPa) = 0.08365032
#
# Stress axis : x y z
#
# Youngs Moduli (GPa) = 67.17780 14.86467 83.06059
#
# Poissons Ratio (x) = -0.10341 0.52425
# Poissons Ratio (y) = -0.46734 0.49167
# Poissons Ratio (z) = 0.42400 0.08799
#
# Static dielectric constant tensor:
#      x y z
#    x 1.712930 0.000020 0.052590 
#    y 0.000020 1.367400 0.000000 
#    z 0.052590 0.000000 1.694930 
# 
# From -- ./inp_files/292207.got.cif
#   From: 2010.05.17/outbox.cif.g08.bks.cpg/sg12_147_cif.got.tgz:292207.got - 2010.06.03 13:09:07.
