data_PCOD9169867
_publ_section_title
;
Structure prediction by ZEFSAII (Michael W. Deem and Ramdas Pophale) SiO2 
 PCOD9169867
Probable space group: C 2/M
;
_chemical_formula_sum "Si O2"
_cell_formula_units_Z 48
_cell_length_a 5.552482
_cell_length_b 18.327587
_cell_length_c 21.625409
_cell_angle_alpha 90.000000
_cell_angle_beta 66.731248
_cell_angle_gamma 90.000000
_cell_volume 2021.680472
_symmetry_space_group_name_H-M "C 2/M"
_symmetry_group_IT_number 12
_symmetry_cell_setting 'monoclinic'
loop_
_space_group_symop_operation_xyz
x,y,z
-x,y,-z
-x,-y,-z
x,-y,z
1/2+x,1/2+y,z
1/2-x,1/2+y,-z
1/2-x,1/2-y,-z
1/2+x,1/2-y,z
loop_
_atom_site_type_symbol
_atom_site_label
_atom_site_fract_x
_atom_site_fract_y
_atom_site_fract_z
Si Si1 0.333400 0.658105 0.726196
Si Si2 0.204537 0.413751 0.529594
Si Si3 0.259196 0.323995 0.874195
Si Si4 0.806220 0.500000 0.209355
Si Si5 0.304370 0.500000 0.209271
Si Si6 0.598176 0.129378 0.318621
Si Si7 0.683709 0.340238 0.923849
O O1 0.299597 0.692290 0.797684
O O2 0.273963 0.571635 0.743927
O O3 0.639080 0.663979 0.678466
O O4 0.103624 0.677787 0.701476
O O5 0.500000 0.382814 0.500000
O O6 0.231229 0.500000 0.512431
O O7 0.000000 0.382830 0.500000
O O8 0.074278 0.404951 0.609702
O O9 0.516143 0.359333 0.879455
O O10 0.222966 0.247728 0.913874
O O11 0.982060 0.366257 0.903592
O O12 0.614125 0.500000 0.171042
O O13 0.115586 0.500000 0.170028
O O14 0.217496 0.568801 0.260240
O O15 0.500000 0.357746 0.000000
#
# Coordination Sequence:
#
# PCOD9169867 Si02
#       7
#     8   8   8   4   4   8   8
#     4  10  19  28  45  65  91 126 156 191 230 266
#     4  10  19  28  41  60  82 118 167 207 236 271
#     4  10  18  30  47  74  97 119 155 185 219 283
#     4   8  16  26  38  57  83 118 154 180 211 254
#     4   8  14  24  38  51  74 112 151 182 219 252
#     4  10  17  29  40  58  87 121 155 196 233 272
#     4  10  19  33  53  74  98 124 144 178 234 286
#
# _framework density 23.742625
#
# number of rings (size 3 to 8) (size 9 to 14) (size 15 to 20)
#    0.000    2.333    0.833    4.500    0.000    0.000 
#    0.000    0.000    0.000    0.000    0.000    6.417 
#    0.000    0.000    0.000  210.000    0.000    0.000 
#
# Total GULP energy -133911.627246 kJ/mol
# GULP energy per Si atom -5579.651135 kJ/mol
# Density = 2.368859 g / cm^3
# Si number density = 23.742625 Si / 1000 Ang^3
#
#
#
# Elastic Constant Matrix: (Units=GPa)
#
#
# Indices 1 2 3 4 5 6 
#
# 1 277.1469 0.2454 33.3793 0.0000 -3.7660 0.0000
# 2 0.2454 60.5802 -17.6081 0.0000 4.9402 0.0000
# 3 33.3793 -17.6081 51.3423 0.0000 1.1681 0.0000
# 4 0.0000 0.0000 0.0000 14.6056 0.0000 21.3066
# 5 -3.7660 4.9402 1.1681 0.0000 39.9435 0.0000
# 6 0.0000 0.0000 0.0000 21.3066 0.0000 -5.2702
#
#
#
# Elastic Compliance Matrix: (Units=1/GPa)
#
#
# Indices 1 2 3 4 5 6 
#
# 1 0.003966 -0.000906 -0.002902 0.000000 0.000571 0.000000
# 2 -0.000906 0.018785 0.007091 0.000000 -0.002616 0.000000
# 3 -0.002902 0.007091 0.023838 0.000000 -0.001848 0.000000
# 4 0.000000 0.000000 0.000000 0.009926 0.000000 0.040129
# 5 0.000571 -0.002616 -0.001848 0.000000 0.025467 0.000000
# 6 0.000000 0.000000 0.000000 0.040129 0.000000 -0.027509
#
#
# Mechanical properties :
#
#
# Convention : Reuss Voigt Hill
#
# Bulk Modulus (GPa) = 18.81304 46.78918 32.80111
# Shear Modulus (GPa) = 76.18794 34.72595 55.45694
#
# Velocity S-wave (km/s) = 5.67087 3.82854 4.83821
# Velocity P-wave (km/s) = 7.12876 6.26843 6.71240
#
# Compressibility (1/GPa) = 0.05315463
#
# Stress axis : x y z
#
# Youngs Moduli (GPa) = 252.12286 53.23348 41.94965
#
# Poissons Ratio (x) = 0.04824 0.12176
# Poissons Ratio (y) = 0.22848 -0.29747
# Poissons Ratio (z) = 0.73177 -0.37749
#
# Static dielectric constant tensor:
#      x y z
#    x 2.031080 0.000000 0.023410 
#    y 0.000000 2.010620 0.000000 
#    z 0.023410 0.000000 1.823500 
# 
# From -- ./inp_files/253236.got.cif
#   From: 2010.05.17/outbox.cif.g08.bks.cpg/sg12_127_cif.got.tgz:253236.got - 2010.06.03 13:09:07.
