data_PCOD9169917
_publ_section_title
;
Structure prediction by ZEFSAII (Michael W. Deem and Ramdas Pophale) SiO2 
 PCOD9169917
Probable space group: C 2/M
;
_chemical_formula_sum "Si O2"
_cell_formula_units_Z 48
_cell_length_a 24.929522
_cell_length_b 8.830324
_cell_length_c 15.513219
_cell_angle_alpha 90.000000
_cell_angle_beta 62.151556
_cell_angle_gamma 90.000000
_cell_volume 3019.508857
_symmetry_space_group_name_H-M "C 2/M"
_symmetry_group_IT_number 12
_symmetry_cell_setting 'monoclinic'
loop_
_space_group_symop_operation_xyz
x,y,z
-x,y,-z
-x,-y,-z
x,-y,z
1/2+x,1/2+y,z
1/2-x,1/2+y,-z
1/2-x,1/2-y,-z
1/2+x,1/2-y,z
loop_
_atom_site_type_symbol
_atom_site_label
_atom_site_fract_x
_atom_site_fract_y
_atom_site_fract_z
Si Si1 0.040592 0.680195 0.670593
Si Si2 0.428734 0.325122 0.526860
Si Si3 0.901495 0.681868 0.723013
Si Si4 0.956637 0.819096 0.150138
Si Si5 0.083912 0.682382 0.990534
Si Si6 0.816522 0.682326 0.943609
O O1 0.045249 0.500000 0.678411
O O2 0.075542 0.733284 0.558685
O O3 0.060862 0.764982 0.741537
O O4 0.969161 0.717055 0.707829
O O5 0.500000 0.318212 0.500000
O O6 0.412744 0.500000 0.525404
O O7 0.394532 0.256129 0.634670
O O8 0.898925 0.500000 0.715854
O O9 0.852371 0.731041 0.830386
O O10 0.914679 0.750539 0.106306
O O11 0.958696 0.000000 0.142514
O O12 0.023316 0.750267 0.079763
O O13 0.077941 0.500000 0.991851
O O14 0.141276 0.722157 0.006415
O O15 0.812825 0.500000 0.943930
O O16 0.750000 0.750000 0.000000
#
# Coordination Sequence:
#
# PCOD9169917 Si02
#       6
#     8   8   8   8   8   8
#     4  10  17  29  47  67  95 131 161 189 235 294
#     4   9  17  27  41  67  96 122 155 196 240 283
#     4   9  17  31  46  64  92 128 164 195 234 287
#     4  11  20  29  46  73  99 125 158 201 245 285
#     4  10  19  34  49  66  94 130 165 196 238 295
#     4  10  21  35  51  71  95 128 169 205 239 281
#
# _framework density 15.896625
#
# number of rings (size 3 to 8) (size 9 to 14) (size 15 to 20)
#    0.000    2.167    1.667    4.000    0.000    4.667 
#    0.000    0.000    0.000    0.000    0.000    1.167 
#    0.000    0.000    0.000    0.000    0.000    0.000 
#
# Total GULP energy -133847.616397 kJ/mol
# GULP energy per Si atom -5576.984017 kJ/mol
# Density = 1.586044 g / cm^3
# Si number density = 15.896625 Si / 1000 Ang^3
#
#
#
# Elastic Constant Matrix: (Units=GPa)
#
#
# Indices 1 2 3 4 5 6 
#
# 1 77.0352 36.8665 62.7189 0.0000 9.0031 0.0000
# 2 36.8665 71.1840 52.9317 0.0000 13.2029 0.0000
# 3 62.7189 52.9317 139.0239 0.0000 23.2235 0.0000
# 4 0.0000 0.0000 0.0000 26.4538 0.0000 0.2483
# 5 9.0031 13.2029 23.2235 0.0000 22.3513 0.0000
# 6 0.0000 0.0000 0.0000 0.2483 0.0000 18.0548
#
#
#
# Elastic Compliance Matrix: (Units=1/GPa)
#
#
# Indices 1 2 3 4 5 6 
#
# 1 0.022189 -0.005918 -0.008287 0.000000 0.003167 0.000000
# 2 -0.005918 0.021578 -0.004616 0.000000 -0.005566 0.000000
# 3 -0.008287 -0.004616 0.014128 0.000000 -0.008615 0.000000
# 4 0.000000 0.000000 0.000000 0.037807 0.000000 -0.000520
# 5 0.003167 -0.005566 -0.008615 0.000000 0.055703 0.000000
# 6 0.000000 0.000000 0.000000 -0.000520 0.000000 0.055394
#
#
# Mechanical properties :
#
#
# Convention : Reuss Voigt Hill
#
# Bulk Modulus (GPa) = 49.37136 65.80860 57.58998
# Shear Modulus (GPa) = 19.90522 22.35373 21.12947
#
# Velocity S-wave (km/s) = 3.54244 3.75399 3.64975
# Velocity P-wave (km/s) = 6.91787 7.76387 7.35305
#
# Compressibility (1/GPa) = 0.02025466
#
# Stress axis : x y z
#
# Youngs Moduli (GPa) = 45.06645 46.34427 70.78211
#
# Poissons Ratio (x) = 0.27425 0.58654
# Poissons Ratio (y) = 0.26669 0.32672
# Poissons Ratio (z) = 0.37344 0.21392
#
# Static dielectric constant tensor:
#      x y z
#    x 1.505880 0.000000 0.020390 
#    y 0.000000 1.531390 0.000000 
#    z 0.020390 0.000000 1.540200 
# 
# From -- ./inp_files/229961.got.cif
#   From: 2010.05.17/outbox.cif.g08.bks.cpg/sg12_115_cif.got.tgz:229961.got - 2010.06.03 13:09:07.
