data_PCOD9169603
_publ_section_title
;
Structure prediction by ZEFSAII (Michael W. Deem and Ramdas Pophale) SiO2 
 PCOD9169603
Probable space group: C 2/M
;
_chemical_formula_sum "Si O2"
_cell_formula_units_Z 48
_cell_length_a 14.188552
_cell_length_b 29.461424
_cell_length_c 9.841396
_cell_angle_alpha 90.000000
_cell_angle_beta 142.139234
_cell_angle_gamma 90.000000
_cell_volume 2524.854102
_symmetry_space_group_name_H-M "C 2/M"
_symmetry_group_IT_number 12
_symmetry_cell_setting 'monoclinic'
loop_
_space_group_symop_operation_xyz
x,y,z
-x,y,-z
-x,-y,-z
x,-y,z
1/2+x,1/2+y,z
1/2-x,1/2+y,-z
1/2-x,1/2-y,-z
1/2+x,1/2-y,z
loop_
_atom_site_type_symbol
_atom_site_label
_atom_site_fract_x
_atom_site_fract_y
_atom_site_fract_z
Si Si1 0.135226 0.267992 0.044732
Si Si2 0.179079 0.147465 0.676999
Si Si3 0.832670 0.594961 0.103959
Si Si4 0.121266 0.587617 0.264248
Si Si5 0.139851 0.310458 0.759357
Si Si6 0.177590 0.000000 0.885433
Si Si7 0.315583 0.500000 0.436227
O O1 0.270334 0.300777 0.251506
O O2 0.209606 0.219286 0.101329
O O3 0.088257 0.292811 0.850551
O O4 0.000000 0.267120 0.000000
O O5 0.261412 0.128359 0.635725
O O6 0.000000 0.142624 0.500000
O O7 0.252167 0.116934 0.879599
O O8 0.820219 0.636035 0.196038
O O9 0.012314 0.590810 0.270224
O O10 0.755279 0.545722 0.033885
O O11 0.226291 0.543667 0.386359
O O12 0.000000 0.584218 0.000000
O O13 0.000000 0.301448 0.500000
O O14 0.200677 0.000000 0.747188
O O15 0.992605 0.000000 0.684094
#
# Coordination Sequence:
#
# PCOD9169603 Si02
#       7
#     8   8   8   8   8   4   4
#     4  10  21  39  63  90 115 151 194 245 295 339
#     4  10  17  28  49  80 115 146 181 231 291 342
#     4  10  20  33  51  76 112 154 188 234 288 341
#     4  10  17  27  46  76 114 149 185 233 287 344
#     4  10  22  41  60  85 121 154 194 239 289 353
#     4  11  19  30  50  77 117 151 191 240 290 346
#     4  11  18  27  48  84 116 149 187 239 304 335
#
# _framework density 19.010999000000002
#
# number of rings (size 3 to 8) (size 9 to 14) (size 15 to 20)
#    0.000    1.833    3.333    4.750    0.000    0.667 
#    0.000    7.083    0.000    0.000    0.000    1.750 
#    0.000    0.000    0.000    0.000    0.000    0.000 
#
# Total GULP energy -133787.920315 kJ/mol
# GULP energy per Si atom -5574.496680 kJ/mol
# Density = 1.896773 g / cm^3
# Si number density = 19.010999 Si / 1000 Ang^3
#
#
#
# Elastic Constant Matrix: (Units=GPa)
#
#
# Indices 1 2 3 4 5 6 
#
# 1 61.1188 40.9733 47.6014 0.0000 27.9201 0.0000
# 2 40.9733 142.3944 38.7182 0.0000 16.1691 0.0000
# 3 47.6014 38.7182 81.9516 0.0000 26.8991 0.0000
# 4 0.0000 0.0000 0.0000 -2.1826 0.0000 -26.2876
# 5 27.9201 16.1691 26.8991 0.0000 31.2758 0.0000
# 6 0.0000 0.0000 0.0000 -26.2876 0.0000 -113.3783
#
#
#
# Elastic Compliance Matrix: (Units=1/GPa)
#
#
# Indices 1 2 3 4 5 6 
#
# 1 0.040804 -0.005478 -0.014054 0.000000 -0.021507 0.000000
# 2 -0.005478 0.008828 -0.001527 0.000000 0.001640 0.000000
# 3 -0.014054 -0.001527 0.023282 0.000000 -0.006689 0.000000
# 4 0.000000 0.000000 0.000000 0.255600 0.000000 -0.059263
# 5 -0.021507 0.001640 -0.006689 0.000000 0.056078 0.000000
# 6 0.000000 0.000000 0.000000 -0.059263 0.000000 0.004920
#
#
# Mechanical properties :
#
#
# Convention : Reuss Voigt Hill
#
# Bulk Modulus (GPa) = 32.47046 60.00563 46.23805
# Shear Modulus (GPa) = 11.31488 -6.31222 2.50133
#
# Velocity S-wave (km/s) = 2.44227 -1.82415 1.14830
# Velocity P-wave (km/s) = 5.00698 5.21493 5.11201
#
# Compressibility (1/GPa) = 0.03079722
#
# Stress axis : x y z
#
# Youngs Moduli (GPa) = 24.50737 113.27562 42.95078
#
# Poissons Ratio (x) = 0.62049 0.60362
# Poissons Ratio (y) = 0.13424 0.06560
# Poissons Ratio (z) = 0.34442 0.17300
#
# Static dielectric constant tensor:
#      x y z
#    x 1.682160 0.000000 -0.011230 
#    y 0.000000 1.703300 0.000000 
#    z -0.011230 0.000000 1.651950 
# 
# From -- ./inp_files/150353.got.cif
#   From: 2010.05.17/outbox.cif.g08.bks.cpg/sg12_76_cif.got.tgz:150353.got - 2010.06.03 13:09:07.
