data_PCOD9169750
_publ_section_title
;
Structure prediction by ZEFSAII (Michael W. Deem and Ramdas Pophale) SiO2 
 PCOD9169750
Probable space group: C 2/M
;
_chemical_formula_sum "Si O2"
_cell_formula_units_Z 56
_cell_length_a 17.655689
_cell_length_b 13.615355
_cell_length_c 18.001677
_cell_angle_alpha 90.000000
_cell_angle_beta 48.831213
_cell_angle_gamma 90.000000
_cell_volume 3257.549341
_symmetry_space_group_name_H-M "C 2/M"
_symmetry_group_IT_number 12
_symmetry_cell_setting 'monoclinic'
loop_
_space_group_symop_operation_xyz
x,y,z
-x,y,-z
-x,-y,-z
x,-y,z
1/2+x,1/2+y,z
1/2-x,1/2+y,-z
1/2-x,1/2-y,-z
1/2+x,1/2-y,z
loop_
_atom_site_type_symbol
_atom_site_label
_atom_site_fract_x
_atom_site_fract_y
_atom_site_fract_z
Si Si1 0.731895 0.886821 0.826142
Si Si2 0.598104 0.884710 0.772562
Si Si3 0.849718 0.697189 0.740612
Si Si4 0.726824 0.387886 0.948875
Si Si5 0.378512 0.886965 0.567345
Si Si6 0.572908 0.881450 0.622581
Si Si7 0.389228 0.192500 0.961144
O O1 0.689635 0.875022 0.770261
O O2 0.820403 0.808340 0.780389
O O3 0.642708 0.856485 0.940245
O O4 0.759735 0.000000 0.820965
O O5 0.619087 0.859887 0.673206
O O6 0.567836 0.000000 0.793543
O O7 0.503001 0.825143 0.864437
O O8 0.774874 0.629599 0.836793
O O9 0.836424 0.676856 0.661770
O O10 0.963331 0.668531 0.688588
O O11 0.696364 0.500000 0.979402
O O12 0.640705 0.306910 0.016220
O O13 0.816045 0.358883 0.948183
O O14 0.500000 0.887127 0.500000
O O15 0.364305 0.853575 0.491497
O O16 0.344679 0.000000 0.597591
O O17 0.557735 0.000000 0.626471
#
# Coordination Sequence:
#
# PCOD9169750 Si02
#       7
#     8   8   8   8   8   8   8
#     4  10  21  32  44  66  93 124 157 188 223 266
#     4  10  18  31  49  67  92 120 153 193 227 265
#     4  10  17  28  47  69  93 119 146 187 231 271
#     4  10  18  28  45  71  96 117 147 187 230 269
#     4   8  14  25  45  72  94 111 140 186 235 275
#     4   9  16  28  50  75  92 111 145 190 236 273
#     4  10  19  29  46  68  91 122 154 187 222 266
#
# _framework density 17.190836999999998
#
# number of rings (size 3 to 8) (size 9 to 14) (size 15 to 20)
#    0.000    2.429    1.429    3.857    0.000    1.143 
#    0.000    0.714    0.000   12.429    0.000    0.000 
#    0.000    0.000    0.000    0.000    0.000    0.000 
#
# Total GULP energy -156051.180503 kJ/mol
# GULP energy per Si atom -5573.256447 kJ/mol
# Density = 1.715171 g / cm^3
# Si number density = 17.190837 Si / 1000 Ang^3
#
#
#
# Elastic Constant Matrix: (Units=GPa)
#
#
# Indices 1 2 3 4 5 6 
#
# 1 23.5454 7.7974 11.9788 0.0000 17.0104 0.0000
# 2 7.7974 89.2170 16.3213 0.0000 5.2545 0.0000
# 3 11.9788 16.3213 69.6561 0.0000 31.7586 0.0000
# 4 0.0000 0.0000 0.0000 18.5060 0.0000 3.2482
# 5 17.0104 5.2545 31.7586 0.0000 24.1479 0.0000
# 6 0.0000 0.0000 0.0000 3.2482 0.0000 13.1015
#
#
#
# Elastic Compliance Matrix: (Units=1/GPa)
#
#
# Indices 1 2 3 4 5 6 
#
# 1 0.142675 -0.012777 0.057481 0.000000 -0.173320 0.000000
# 2 -0.012777 0.012923 -0.009122 0.000000 0.018186 0.000000
# 3 0.057481 -0.009122 0.060357 0.000000 -0.117885 0.000000
# 4 0.000000 0.000000 0.000000 0.056495 0.000000 -0.014007
# 5 -0.173320 0.018186 -0.117885 0.000000 0.314585 0.000000
# 6 0.000000 0.000000 0.000000 -0.014007 0.000000 0.079800
#
#
# Mechanical properties :
#
#
# Convention : Reuss Voigt Hill
#
# Bulk Modulus (GPa) = 3.48290 28.29038 15.88664
# Shear Modulus (GPa) = 7.23195 20.90584 14.06890
#
# Velocity S-wave (km/s) = 2.05329 3.49105 2.86386
# Velocity P-wave (km/s) = 2.76618 5.72209 4.49411
#
# Compressibility (1/GPa) = 0.28711689
#
# Stress axis : x y z
#
# Youngs Moduli (GPa) = 7.00896 77.38095 16.56818
#
# Poissons Ratio (x) = 0.98870 -0.95235
# Poissons Ratio (y) = 0.08955 0.15114
# Poissons Ratio (z) = -0.40288 0.70590
#
# Static dielectric constant tensor:
#      x y z
#    x 1.589400 0.000000 0.053990 
#    y 0.000000 1.579310 0.000000 
#    z 0.053990 0.000000 1.600790 
# 
# From -- ./inp_files/223110.got.cif
#   From: 2010.05.17/outbox.cif.g08.bks.cpg/sg12_112_cif.got.tgz:223110.got - 2010.06.03 13:09:07.
