data_PCOD9169409
_publ_section_title
;
Structure prediction by ZEFSAII (Michael W. Deem and Ramdas Pophale) SiO2 
 PCOD9169409
Probable space group: C 2/M
;
_chemical_formula_sum "Si O2"
_cell_formula_units_Z 64
_cell_length_a 21.028965
_cell_length_b 18.202747
_cell_length_c 11.560216
_cell_angle_alpha 90.000000
_cell_angle_beta 38.741256
_cell_angle_gamma 90.000000
_cell_volume 2769.232525
_symmetry_space_group_name_H-M "C 2/M"
_symmetry_group_IT_number 12
_symmetry_cell_setting 'monoclinic'
loop_
_space_group_symop_operation_xyz
x,y,z
-x,y,-z
-x,-y,-z
x,-y,z
1/2+x,1/2+y,z
1/2-x,1/2+y,-z
1/2-x,1/2-y,-z
1/2+x,1/2-y,z
loop_
_atom_site_type_symbol
_atom_site_label
_atom_site_fract_x
_atom_site_fract_y
_atom_site_fract_z
Si Si1 0.229899 0.919841 0.168805
Si Si2 0.857289 0.921141 0.188780
Si Si3 0.143467 0.387682 0.405236
Si Si4 0.251626 0.233901 0.246428
Si Si5 0.417140 0.110353 0.760639
Si Si6 0.903157 0.761725 0.214231
Si Si7 0.548509 0.260495 0.201434
Si Si8 0.075292 0.079338 0.177042
O O1 0.347709 0.913394 0.964719
O O2 0.210486 0.000000 0.251122
O O3 0.209545 0.844495 0.265762
O O4 0.169030 0.919228 0.133878
O O5 0.736346 0.918999 0.345831
O O6 0.892033 0.849993 0.210838
O O7 0.889414 0.000000 0.192328
O O8 0.894976 0.916976 0.001221
O O9 0.174294 0.301480 0.351855
O O10 0.132509 0.414850 0.288376
O O11 0.034203 0.408996 0.609486
O O12 0.302166 0.228007 0.302309
O O13 0.349407 0.257950 0.026046
O O14 0.423618 0.199268 0.746010
O O15 0.946379 0.740076 0.276542
O O16 0.000000 0.738954 0.000000
O O17 0.526028 0.342626 0.273670
O O18 0.023865 0.000000 0.268979
#
# Coordination Sequence:
#
# PCOD9169409 Si02
#       8
#     8   8   8   8   8   8   8   8
#     4  10  19  31  48  74  98 124 159 195 240 283
#     4  10  18  28  43  67  98 125 147 180 229 286
#     4  10  18  32  46  72  97 126 157 187 239 291
#     4   9  17  31  49  64  93 124 159 200 228 271
#     4  10  20  29  49  70  97 125 155 196 239 281
#     4   9  16  29  45  68  92 121 161 194 230 270
#     4  10  17  31  48  70  93 124 157 199 233 272
#     4  10  17  26  45  71  99 122 145 183 236 287
#
# _framework density 23.111097000000001
#
# number of rings (size 3 to 8) (size 9 to 14) (size 15 to 20)
#    0.000    2.250    5.000    0.750    0.000    3.250 
#    0.000    3.750    0.000   10.125    0.000    5.250 
#    0.000    0.000    0.000    0.000    0.000    0.000 
#
# Total GULP energy -178485.210059 kJ/mol
# GULP energy per Si atom -5577.662814 kJ/mol
# Density = 2.305849 g / cm^3
# Si number density = 23.111097 Si / 1000 Ang^3
#
#
#
# Elastic Constant Matrix: (Units=GPa)
#
#
# Indices 1 2 3 4 5 6 
#
# 1 79.5332 18.5535 16.5099 0.0000 -16.3302 0.0000
# 2 18.5535 140.6670 -7.8601 0.0000 15.5415 0.0000
# 3 16.5099 -7.8601 62.7713 0.0000 -12.6064 0.0000
# 4 0.0000 0.0000 0.0000 0.3883 0.0000 -0.2131
# 5 -16.3302 15.5415 -12.6064 0.0000 15.6804 0.0000
# 6 0.0000 0.0000 0.0000 -0.2131 0.0000 16.6976
#
#
#
# Elastic Compliance Matrix: (Units=1/GPa)
#
#
# Indices 1 2 3 4 5 6 
#
# 1 0.018936 -0.005224 -0.000756 0.000000 0.024290 0.000000
# 2 -0.005224 0.009450 -0.000497 0.000000 -0.015206 0.000000
# 3 -0.000756 -0.000497 0.019091 0.000000 0.015052 0.000000
# 4 0.000000 0.000000 0.000000 2.593253 0.000000 0.033093
# 5 0.024290 -0.015206 0.015052 0.000000 0.116244 0.000000
# 6 0.000000 0.000000 0.000000 0.033093 0.000000 0.060311
#
#
# Mechanical properties :
#
#
# Convention : Reuss Voigt Hill
#
# Bulk Modulus (GPa) = 28.96532 37.48645 33.22589
# Shear Modulus (GPa) = 1.75948 23.60447 12.68198
#
# Velocity S-wave (km/s) = 0.87348 3.19932 2.34506
# Velocity P-wave (km/s) = 3.68478 5.46835 4.66264
#
# Compressibility (1/GPa) = 0.03452404
#
# Stress axis : x y z
#
# Youngs Moduli (GPa) = 52.80835 105.81767 52.38175
#
# Poissons Ratio (x) = 0.55275 0.03962
# Poissons Ratio (y) = 0.27585 0.02601
# Poissons Ratio (z) = 0.03995 0.05254
#
# Static dielectric constant tensor:
#      x y z
#    x 1.842090 0.000000 0.028010 
#    y 0.000000 1.915840 0.000000 
#    z 0.028010 0.000000 1.907160 
# 
# From -- ./inp_files/293715.got.cif
#   From: 2010.05.17/outbox.cif.g08.bks.cpg/sg12_147_cif.got.tgz:293715.got - 2010.06.03 13:09:07.
