data_PCOD9169602
_publ_section_title
;
Structure prediction by ZEFSAII (Michael W. Deem and Ramdas Pophale) SiO2 
 PCOD9169602
Probable space group: C 2/M
;
_chemical_formula_sum "Si O2"
_cell_formula_units_Z 56
_cell_length_a 20.711354
_cell_length_b 8.897796
_cell_length_c 21.335759
_cell_angle_alpha 90.000000
_cell_angle_beta 118.844206
_cell_angle_gamma 90.000000
_cell_volume 3444.060547
_symmetry_space_group_name_H-M "C 2/M"
_symmetry_group_IT_number 12
_symmetry_cell_setting 'monoclinic'
loop_
_space_group_symop_operation_xyz
x,y,z
-x,y,-z
-x,-y,-z
x,-y,z
1/2+x,1/2+y,z
1/2-x,1/2+y,-z
1/2-x,1/2-y,-z
1/2+x,1/2-y,z
loop_
_atom_site_type_symbol
_atom_site_label
_atom_site_fract_x
_atom_site_fract_y
_atom_site_fract_z
Si Si1 0.533251 0.322368 0.583961
Si Si2 0.580760 0.826773 0.804369
Si Si3 0.285843 0.321806 0.077949
Si Si4 0.208727 0.821625 0.662402
Si Si5 0.051590 0.319922 0.340664
Si Si6 0.275011 0.173355 0.200590
Si Si7 0.713132 0.320398 0.420820
O O1 0.500000 0.291803 0.500000
O O2 0.521748 0.500000 0.592625
O O3 0.620717 0.296282 0.622828
O O4 0.491366 0.227422 0.616647
O O5 0.628075 0.727696 0.874663
O O6 0.501664 0.776870 0.742632
O O7 0.636200 0.826238 0.770208
O O8 0.577307 0.000000 0.824509
O O9 0.279563 0.500000 0.074312
O O10 0.249351 0.253848 0.124438
O O11 0.250000 0.250000 0.000000
O O12 0.240510 0.760029 0.742934
O O13 0.243210 0.736558 0.619731
O O14 0.221721 0.000000 0.662728
O O15 0.061004 0.500000 0.343263
O O16 0.129662 0.238536 0.376265
O O17 0.251341 0.000000 0.192146
O O18 0.714849 0.500000 0.425891
O O19 0.750000 0.250000 0.500000
#
# Coordination Sequence:
#
# PCOD9169602 Si02
#       7
#     8   8   8   8   8   8   8
#     4  10  20  32  49  73 100 130 167 214 265 317
#     4   8  17  31  49  74 105 136 171 212 257 311
#     4  10  17  27  46  76 113 146 176 216 265 314
#     4  11  21  35  55  78 105 138 177 221 269 322
#     4  11  21  36  56  77 103 136 175 220 268 321
#     4   9  17  31  49  74 106 138 173 212 257 308
#     4  12  26  42  57  75 104 140 182 230 279 327
#
# _framework density 16.259876999999999
#
# number of rings (size 3 to 8) (size 9 to 14) (size 15 to 20)
#    0.857    1.000    1.429    4.286    0.000    3.143 
#    0.000    0.000    0.000    0.000    0.000    1.000 
#    0.000    8.000    0.000    0.000    0.000    0.000 
#
# Total GULP energy -156006.495173 kJ/mol
# GULP energy per Si atom -5571.660542 kJ/mol
# Density = 1.622287 g / cm^3
# Si number density = 16.259877 Si / 1000 Ang^3
#
#
#
# Elastic Constant Matrix: (Units=GPa)
#
#
# Indices 1 2 3 4 5 6 
#
# 1 42.8609 49.8237 43.2372 0.0000 -1.1130 0.0000
# 2 49.8237 128.6004 80.6612 0.0000 1.3270 0.0000
# 3 43.2372 80.6612 143.7653 0.0000 -4.5103 0.0000
# 4 0.0000 0.0000 0.0000 29.1924 0.0000 -2.6707
# 5 -1.1130 1.3270 -4.5103 0.0000 21.2018 0.0000
# 6 0.0000 0.0000 0.0000 -2.6707 0.0000 26.5426
#
#
#
# Elastic Compliance Matrix: (Units=1/GPa)
#
#
# Indices 1 2 3 4 5 6 
#
# 1 0.045510 -0.014054 -0.005737 0.000000 0.002048 0.000000
# 2 -0.014054 0.016441 -0.005087 0.000000 -0.002849 0.000000
# 3 -0.005737 -0.005087 0.011614 0.000000 0.002488 0.000000
# 4 0.000000 0.000000 0.000000 0.034574 0.000000 0.003479
# 5 0.002048 -0.002849 0.002488 0.000000 0.047981 0.000000
# 6 0.000000 0.000000 0.000000 0.003479 0.000000 0.038025
#
#
# Mechanical properties :
#
#
# Convention : Reuss Voigt Hill
#
# Bulk Modulus (GPa) = 42.00474 73.63009 57.81741
# Shear Modulus (GPa) = 19.85404 24.82099 22.33752
#
# Velocity S-wave (km/s) = 3.49814 3.91131 3.71048
# Velocity P-wave (km/s) = 6.49657 8.11045 7.34795
#
# Compressibility (1/GPa) = 0.02380684
#
# Stress axis : x y z
#
# Youngs Moduli (GPa) = 21.97330 60.82256 86.10654
#
# Poissons Ratio (x) = 0.85482 0.49403
# Poissons Ratio (y) = 0.30882 0.43803
# Poissons Ratio (z) = 0.12607 0.30941
#
# Static dielectric constant tensor:
#      x y z
#    x 1.527670 0.000000 0.010340 
#    y 0.000000 1.546540 0.000000 
#    z 0.010340 0.000000 1.542420 
# 
# From -- ./inp_files/319329.got.cif
#   From: 2010.05.17/outbox.cif.g08.bks.cpg/sg12_160_cif.got.tgz:319329.got - 2010.06.03 13:09:07.
