data_PCOD9169389
_publ_section_title
;
Structure prediction by ZEFSAII (Michael W. Deem and Ramdas Pophale) SiO2 
 PCOD9169389
Probable space group: C 2/M
;
_chemical_formula_sum "Si O2"
_cell_formula_units_Z 48
_cell_length_a 10.640443
_cell_length_b 22.599585
_cell_length_c 15.547568
_cell_angle_alpha 90.000000
_cell_angle_beta 150.210874
_cell_angle_gamma 90.000000
_cell_volume 1857.429428
_symmetry_space_group_name_H-M "C 2/M"
_symmetry_group_IT_number 12
_symmetry_cell_setting 'monoclinic'
loop_
_space_group_symop_operation_xyz
x,y,z
-x,y,-z
-x,-y,-z
x,-y,z
1/2+x,1/2+y,z
1/2-x,1/2+y,-z
1/2-x,1/2-y,-z
1/2+x,1/2-y,z
loop_
_atom_site_type_symbol
_atom_site_label
_atom_site_fract_x
_atom_site_fract_y
_atom_site_fract_z
Si Si1 0.280352 0.695970 0.210750
Si Si2 0.277353 0.435548 0.209888
Si Si3 0.031661 0.567887 0.613305
Si Si4 0.486074 0.368772 0.086826
Si Si5 0.028722 0.755588 0.208819
Si Si6 0.524949 0.068718 0.235147
O O1 0.379167 0.629534 0.250303
O O2 0.467498 0.741580 0.273444
O O3 0.219958 0.711436 0.274393
O O4 0.000000 0.698645 0.000000
O O5 0.395245 0.500000 0.257754
O O6 0.235134 0.433132 0.287249
O O7 0.000000 0.437385 0.000000
O O8 0.955125 0.500000 0.561284
O O9 0.329949 0.575357 0.807727
O O10 0.908724 0.590398 0.629439
O O11 0.000000 0.594227 0.500000
O O12 0.596705 0.320996 0.216765
O O13 0.500000 0.341135 0.000000
O O14 0.203329 0.390637 0.935135
O O15 0.750000 0.750000 0.000000
O O16 0.438600 0.000000 0.192232
#
# Coordination Sequence:
#
# PCOD9169389 Si02
#       6
#     8   8   8   8   8   8
#     4   9  17  28  42  65  99 137 170 202 252 312
#     4   9  16  26  42  67  99 131 163 206 259 309
#     4   9  18  31  45  66 101 141 176 213 260 313
#     4  10  17  26  44  70  96 128 170 215 260 304
#     4  10  18  28  43  69 102 133 166 208 258 310
#     4   9  16  26  43  68  96 128 170 215 257 304
#
# _framework density 25.842167
#
# number of rings (size 3 to 8) (size 9 to 14) (size 15 to 20)
#    0.000    2.667    0.000    5.000    0.000    3.333 
#    0.000    0.833    0.000    0.000    0.000   24.500 
#    0.000   24.000    0.000    0.000    0.000    0.000 
#
# Total GULP energy -133888.391549 kJ/mol
# GULP energy per Si atom -5578.682981 kJ/mol
# Density = 2.578335 g / cm^3
# Si number density = 25.842167 Si / 1000 Ang^3
#
#
#
# Elastic Constant Matrix: (Units=GPa)
#
#
# Indices 1 2 3 4 5 6 
#
# 1 105.8349 30.8968 30.5477 0.0016 -32.5399 0.0015
# 2 30.8968 118.8554 10.0495 0.0005 4.5831 0.0002
# 3 30.5477 10.0495 70.6827 0.0034 -10.1891 0.0011
# 4 0.0016 0.0005 0.0034 -6.2958 0.0023 -8.7402
# 5 -32.5399 4.5831 -10.1891 0.0023 31.7902 0.0011
# 6 0.0015 0.0002 0.0011 -8.7402 0.0011 26.0937
#
#
#
# Elastic Compliance Matrix: (Units=1/GPa)
#
#
# Indices 1 2 3 4 5 6 
#
# 1 0.017352 -0.004800 -0.004358 0.000007 0.017056 0.000001
# 2 -0.004800 0.009932 -0.000264 -0.000002 -0.006430 0.000000
# 3 -0.004358 -0.000264 0.016179 0.000006 0.000763 0.000001
# 4 0.000007 -0.000002 0.000006 -0.108420 0.000019 -0.036316
# 5 0.017056 -0.006430 0.000763 0.000019 0.050086 0.000003
# 6 0.000001 0.000000 0.000001 -0.036316 0.000003 0.026159
#
#
# Mechanical properties :
#
#
# Convention : Reuss Voigt Hill
#
# Bulk Modulus (GPa) = 40.62151 48.70677 44.66414
# Shear Modulus (GPa) = 130.41640 25.24287 77.82964
#
# Velocity S-wave (km/s) = 7.11169 3.12879 5.49388
# Velocity P-wave (km/s) = 9.12074 5.65165 7.58713
#
# Compressibility (1/GPa) = 0.02461750
#
# Stress axis : x y z
#
# Youngs Moduli (GPa) = 57.63048 100.68847 61.80951
#
# Poissons Ratio (x) = 0.48329 0.26937
# Poissons Ratio (y) = 0.27662 0.01635
# Poissons Ratio (z) = 0.25115 0.02663
#
# Static dielectric constant tensor:
#      x y z
#    x 2.084380 0.000000 -0.029980 
#    y 0.000000 2.082600 0.000000 
#    z -0.029980 0.000000 2.094720 
# 
# From -- ./inp_files/50824.got.cif
#   From: 2010.05.17/outbox.cif.g08.bks.cpg/sg12_26_cif.got.tgz:50824.got - 2010.06.03 13:09:07.
