data_PCOD9169652
_publ_section_title
;
Structure prediction by ZEFSAII (Michael W. Deem and Ramdas Pophale) SiO2 
 PCOD9169652
Probable space group: C 2/M
;
_chemical_formula_sum "Si O2"
_cell_formula_units_Z 48
_cell_length_a 12.430958
_cell_length_b 28.106088
_cell_length_c 14.360270
_cell_angle_alpha 90.000000
_cell_angle_beta 28.784905
_cell_angle_gamma 90.000000
_cell_volume 2415.930581
_symmetry_space_group_name_H-M "C 2/M"
_symmetry_group_IT_number 12
_symmetry_cell_setting 'monoclinic'
loop_
_space_group_symop_operation_xyz
x,y,z
-x,y,-z
-x,-y,-z
x,-y,z
1/2+x,1/2+y,z
1/2-x,1/2+y,-z
1/2-x,1/2-y,-z
1/2+x,1/2-y,z
loop_
_atom_site_type_symbol
_atom_site_label
_atom_site_fract_x
_atom_site_fract_y
_atom_site_fract_z
Si Si1 0.492443 0.143412 0.820700
Si Si2 0.199064 0.802354 0.274309
Si Si3 0.282709 0.150535 0.629663
Si Si4 0.440686 0.613872 0.373273
Si Si5 0.838694 0.699895 0.763561
Si Si6 0.185926 0.552704 0.939320
O O1 0.590001 0.178032 0.827317
O O2 0.351329 0.174096 0.853025
O O3 0.713681 0.122193 0.602222
O O4 0.368121 0.096942 0.952851
O O5 0.107321 0.845085 0.281457
O O6 0.221456 0.754905 0.196351
O O7 0.000000 0.792382 0.500000
O O8 0.500000 0.120949 0.500000
O O9 0.196813 0.174646 0.788678
O O10 0.407190 0.190770 0.471165
O O11 0.121014 0.122067 0.687387
O O12 0.571503 0.564949 0.287394
O O13 0.182481 0.500000 0.984101
O O14 0.000000 0.554265 0.000000
#
# Coordination Sequence:
#
# PCOD9169652 Si02
#       6
#     8   8   8   8   8   8
#     4  10  21  36  60  87 120 152 198 235 283 353
#     4  10  17  27  53  88 119 155 193 220 277 343
#     4   7  15  30  52  84 116 153 191 220 274 333
#     4  10  20  35  61  85 114 155 191 236 285 352
#     4   8  16  29  53  85 119 161 185 225 274 336
#     4  11  24  43  61  83 116 146 191 261 308 335
#
# _framework density 19.868120999999999
#
# number of rings (size 3 to 8) (size 9 to 14) (size 15 to 20)
#    1.000    1.500    3.333    0.000    2.333    2.667 
#    0.000    3.333    3.667    2.500    0.000    0.000 
#    0.000    0.000    0.000    0.000    0.000    0.000 
#
# Total GULP energy -133699.531020 kJ/mol
# GULP energy per Si atom -5570.813793 kJ/mol
# Density = 1.982290 g / cm^3
# Si number density = 19.868121 Si / 1000 Ang^3
#
#
#
# Elastic Constant Matrix: (Units=GPa)
#
#
# Indices 1 2 3 4 5 6 
#
# 1 113.2362 54.0129 16.5246 -0.0001 -0.8418 0.0000
# 2 54.0129 124.0120 37.4943 0.0000 3.1388 0.0000
# 3 16.5246 37.4943 67.3527 -0.0002 -3.0507 0.0000
# 4 -0.0001 0.0000 -0.0002 12.4956 0.0002 1.4356
# 5 -0.8418 3.1388 -3.0507 0.0002 20.2683 0.0000
# 6 0.0000 0.0000 0.0000 1.4356 0.0000 14.1745
#
#
#
# Elastic Compliance Matrix: (Units=1/GPa)
#
#
# Indices 1 2 3 4 5 6 
#
# 1 0.011177 -0.004914 0.000049 0.000000 0.001233 0.000000
# 2 -0.004914 0.011967 -0.005587 0.000000 -0.002898 0.000000
# 3 0.000049 -0.005587 0.018108 0.000000 0.003593 0.000000
# 4 0.000000 0.000000 0.000000 0.080970 -0.000001 -0.008200
# 5 0.001233 -0.002898 0.003593 -0.000001 0.050379 0.000000
# 6 0.000000 0.000000 0.000000 -0.008200 0.000000 0.071380
#
#
# Mechanical properties :
#
#
# Convention : Reuss Voigt Hill
#
# Bulk Modulus (GPa) = 49.14592 57.85161 53.49876
# Shear Modulus (GPa) = 18.40479 22.49228 20.44853
#
# Velocity S-wave (km/s) = 3.04690 3.36829 3.21162
# Velocity P-wave (km/s) = 6.09655 6.65644 6.38263
#
# Compressibility (1/GPa) = 0.02034757
#
# Stress axis : x y z
#
# Youngs Moduli (GPa) = 89.46839 83.56478 55.22343
#
# Poissons Ratio (x) = 0.41066 -0.00272
# Poissons Ratio (y) = 0.43967 0.30855
# Poissons Ratio (z) = -0.00441 0.46690
#
# Static dielectric constant tensor:
#      x y z
#    x 1.710040 0.000000 0.018730 
#    y 0.000000 1.656010 0.000000 
#    z 0.018730 0.000000 1.839520 
# 
# From -- ./inp_files/272521.got.cif
#   From: 2010.05.17/outbox.cif.g08.bks.cpg/sg12_137_cif.got.tgz:272521.got - 2010.06.03 13:09:07.
