data_PCOD9169989
_publ_section_title
;
Structure prediction by ZEFSAII (Michael W. Deem and Ramdas Pophale) SiO2 
 PCOD9169989
Probable space group: C 2/M
;
_chemical_formula_sum "Si O2"
_cell_formula_units_Z 56
_cell_length_a 14.051562
_cell_length_b 15.726590
_cell_length_c 18.239767
_cell_angle_alpha 90.000000
_cell_angle_beta 139.908803
_cell_angle_gamma 90.000000
_cell_volume 2595.783305
_symmetry_space_group_name_H-M "C 2/M"
_symmetry_group_IT_number 12
_symmetry_cell_setting 'monoclinic'
loop_
_space_group_symop_operation_xyz
x,y,z
-x,y,-z
-x,-y,-z
x,-y,z
1/2+x,1/2+y,z
1/2-x,1/2+y,-z
1/2-x,1/2-y,-z
1/2+x,1/2-y,z
loop_
_atom_site_type_symbol
_atom_site_label
_atom_site_fract_x
_atom_site_fract_y
_atom_site_fract_z
Si Si1 0.834701 0.792647 0.203789
Si Si2 0.521965 0.374588 0.127490
Si Si3 0.280823 0.094026 0.996791
Si Si4 0.199623 0.594264 0.807865
Si Si5 0.448486 0.822161 0.885684
Si Si6 0.889847 0.900869 0.651736
Si Si7 0.936031 0.401737 0.534868
O O1 0.777287 0.839198 0.096738
O O2 0.820229 0.692629 0.177630
O O3 0.727749 0.820343 0.207889
O O4 0.994175 0.832948 0.311035
O O5 0.350969 0.403929 0.020854
O O6 0.641045 0.406466 0.139024
O O7 0.514298 0.273716 0.113893
O O8 0.583894 0.398779 0.244245
O O9 0.277459 0.000000 0.962233
O O10 0.452585 0.118704 0.108805
O O11 0.174162 0.500000 0.828906
O O12 0.066830 0.596273 0.669575
O O13 0.500000 0.840048 0.000000
O O14 0.724391 0.870369 0.536203
O O15 0.915479 0.000000 0.644023
O O16 0.898748 0.500000 0.493049
O O17 0.000000 0.358131 0.500000
#
# Coordination Sequence:
#
# PCOD9169989 Si02
#       7
#     8   8   8   8   8   8   8
#     4   9  19  30  45  71  97 125 156 191 236 282
#     4  10  17  29  50  70  92 123 158 194 237 278
#     4  10  19  32  52  72  93 124 160 200 237 273
#     4  10  18  30  48  70 100 129 154 191 240 284
#     4   9  19  32  46  67  97 127 151 191 239 283
#     4  10  18  30  50  73  96 124 158 198 235 273
#     4   9  16  27  46  74 100 121 154 196 235 277
#
# _framework density 21.573450000000001
#
# number of rings (size 3 to 8) (size 9 to 14) (size 15 to 20)
#    0.000    2.429    1.429    3.000    0.000    3.714 
#    0.000    0.000    0.000   58.286    0.000    0.000 
#    0.000    2.857    0.000    0.000    0.000    0.000 
#
# Total GULP energy -155974.757575 kJ/mol
# GULP energy per Si atom -5570.527056 kJ/mol
# Density = 2.152435 g / cm^3
# Si number density = 21.573450 Si / 1000 Ang^3
#
#
#
# Elastic Constant Matrix: (Units=GPa)
#
#
# Indices 1 2 3 4 5 6 
#
# 1 99.2182 53.1779 40.6099 0.0000 42.4588 0.0000
# 2 53.1779 147.8859 37.8262 0.0000 24.4303 0.0000
# 3 40.6099 37.8262 82.2756 0.0001 38.4718 0.0000
# 4 0.0000 0.0000 0.0001 12.1012 0.0000 -1.5035
# 5 42.4588 24.4303 38.4718 0.0000 41.2808 0.0000
# 6 0.0000 0.0000 0.0000 -1.5035 0.0000 25.6086
#
#
#
# Elastic Compliance Matrix: (Units=1/GPa)
#
#
# Indices 1 2 3 4 5 6 
#
# 1 0.020182 -0.004351 0.000959 0.000000 -0.019076 0.000000
# 2 -0.004351 0.008718 -0.002730 0.000000 0.001861 0.000000
# 3 0.000959 -0.002730 0.022406 0.000000 -0.020252 0.000000
# 4 0.000000 0.000000 0.000000 0.083243 0.000000 0.004887
# 5 -0.019076 0.001861 -0.020252 0.000000 0.061618 0.000000
# 6 0.000000 0.000000 0.000000 0.004887 0.000000 0.039336
#
#
# Mechanical properties :
#
#
# Convention : Reuss Voigt Hill
#
# Bulk Modulus (GPa) = 25.60122 65.84528 45.72325
# Shear Modulus (GPa) = 19.17420 28.98252 24.07836
#
# Velocity S-wave (km/s) = 2.98449 3.66927 3.34445
# Velocity P-wave (km/s) = 4.87534 6.96700 6.01282
#
# Compressibility (1/GPa) = 0.03906064
#
# Stress axis : x y z
#
# Youngs Moduli (GPa) = 49.54980 114.71127 44.63129
#
# Poissons Ratio (x) = 0.49911 -0.04281
# Poissons Ratio (y) = 0.21559 0.12186
# Poissons Ratio (z) = -0.04752 0.31320
#
# Static dielectric constant tensor:
#      x y z
#    x 1.942700 0.000000 -0.005230 
#    y 0.000000 1.761380 0.000000 
#    z -0.005230 0.000000 1.859650 
# 
# From -- ./inp_files/276384.got.cif
#   From: 2010.05.17/outbox.cif.g08.bks.cpg/sg12_139_cif.got.tgz:276384.got - 2010.06.03 13:09:07.
