data_PCOD9169198
_publ_section_title
;
Structure prediction by ZEFSAII (Michael W. Deem and Ramdas Pophale) SiO2 
 PCOD9169198
Probable space group: C 2/M
;
_chemical_formula_sum "Si O2"
_cell_formula_units_Z 44
_cell_length_a 9.755458
_cell_length_b 32.234572
_cell_length_c 8.219533
_cell_angle_alpha 90.000000
_cell_angle_beta 135.396773
_cell_angle_gamma 90.000000
_cell_volume 1814.986113
_symmetry_space_group_name_H-M "C 2/M"
_symmetry_group_IT_number 12
_symmetry_cell_setting 'monoclinic'
loop_
_space_group_symop_operation_xyz
x,y,z
-x,y,-z
-x,-y,-z
x,-y,z
1/2+x,1/2+y,z
1/2-x,1/2+y,-z
1/2-x,1/2-y,-z
1/2+x,1/2-y,z
loop_
_atom_site_type_symbol
_atom_site_label
_atom_site_fract_x
_atom_site_fract_y
_atom_site_fract_z
Si Si1 0.597354 0.316794 0.861071
Si Si2 0.206214 0.088469 0.013381
Si Si3 0.778165 0.951705 0.653518
Si Si4 0.500000 0.749674 0.000000
Si Si5 0.257328 0.591991 0.312200
Si Si6 0.722821 0.816252 0.347665
O O1 0.651408 0.362734 0.967299
O O2 0.646419 0.282512 0.035909
O O3 0.368025 0.313090 0.621511
O O4 0.684773 0.310818 0.755311
O O5 0.304042 0.080719 0.921695
O O6 0.006532 0.061742 0.839578
O O7 0.303730 0.074266 0.262879
O O8 0.714424 0.940088 0.417923
O O9 0.753641 0.000000 0.665376
O O10 0.568276 0.779741 0.204214
O O11 0.500000 0.598897 0.500000
O O12 0.164943 0.635620 0.291620
#
# Coordination Sequence:
#
# PCOD9169198 Si02
#       6
#     8   8   8   4   8   8
#     4  10  19  35  50  68 101 138 161 199 256 307
#     4   9  16  28  44  64  97 136 155 187 254 304
#     4  10  17  24  42  75 102 121 159 204 247 303
#     4  12  22  28  54  80  90 130 174 218 238 284
#     4   9  16  31  48  61  97 142 156 192 252 305
#     4  10  19  36  48  69 104 130 169 204 248 299
#
# _framework density 24.242609000000002
#
# number of rings (size 3 to 8) (size 9 to 14) (size 15 to 20)
#    0.000    2.182    5.455    3.273    0.000    4.000 
#    0.000    0.000    0.000    0.000    0.000    0.636 
#    0.000    5.818    0.000    0.000    0.000    0.000 
#
# Total GULP energy -122801.976723 kJ/mol
# GULP energy per Si atom -5581.908033 kJ/mol
# Density = 2.418743 g / cm^3
# Si number density = 24.242609 Si / 1000 Ang^3
#
#
#
# Elastic Constant Matrix: (Units=GPa)
#
#
# Indices 1 2 3 4 5 6 
#
# 1 70.5444 37.7425 44.7242 0.0000 -27.1322 0.0000
# 2 37.7425 149.1907 58.7341 0.0000 -20.7243 0.0000
# 3 44.7242 58.7341 125.9412 0.0000 -17.3197 0.0000
# 4 0.0000 0.0000 0.0000 19.9823 0.0000 -33.6170
# 5 -27.1322 -20.7243 -17.3197 0.0000 39.6963 0.0000
# 6 0.0000 0.0000 0.0000 -33.6170 0.0000 -16.3772
#
#
#
# Elastic Compliance Matrix: (Units=1/GPa)
#
#
# Indices 1 2 3 4 5 6 
#
# 1 0.023780 -0.001978 -0.005776 0.000000 0.012701 0.000000
# 2 -0.001978 0.008674 -0.003092 0.000000 0.001828 0.000000
# 3 -0.005776 -0.003092 0.011349 0.000000 -0.000610 0.000000
# 4 0.000000 0.000000 0.000000 0.011238 0.000000 -0.023067
# 5 0.012701 0.001828 -0.000610 0.000000 0.034561 0.000000
# 6 0.000000 0.000000 0.000000 -0.023067 0.000000 -0.013711
#
#
# Mechanical properties :
#
#
# Convention : Reuss Voigt Hill
#
# Bulk Modulus (GPa) = 45.22141 69.78645 57.50393
# Shear Modulus (GPa) = 47.64064 22.29196 34.96630
#
# Velocity S-wave (km/s) = 4.43782 3.03568 3.80195
# Velocity P-wave (km/s) = 6.70472 6.41376 6.56085
#
# Compressibility (1/GPa) = 0.02211342
#
# Stress axis : x y z
#
# Youngs Moduli (GPa) = 42.05133 115.28443 88.11169
#
# Poissons Ratio (x) = 0.22801 0.50892
# Poissons Ratio (y) = 0.08317 0.27240
# Poissons Ratio (z) = 0.24288 0.35641
#
# Static dielectric constant tensor:
#      x y z
#    x 2.045120 0.000000 0.096570 
#    y 0.000000 1.875570 0.000000 
#    z 0.096570 0.000000 2.006160 
# 
# From -- ./inp_files/67185.got.cif
#   From: 2010.05.17/outbox.cif.g08.bks.cpg/sg12_34_cif.got.tgz:67185.got - 2010.06.03 13:09:07.
