data_PCOD9169837
_publ_section_title
;
Structure prediction by ZEFSAII (Michael W. Deem and Ramdas Pophale) SiO2 
 PCOD9169837
Probable space group: C 2/M
;
_chemical_formula_sum "Si O2"
_cell_formula_units_Z 64
_cell_length_a 29.974201
_cell_length_b 7.480141
_cell_length_c 17.538625
_cell_angle_alpha 90.000000
_cell_angle_beta 133.333251
_cell_angle_gamma 90.000000
_cell_volume 2860.296732
_symmetry_space_group_name_H-M "C 2/M"
_symmetry_group_IT_number 12
_symmetry_cell_setting 'monoclinic'
loop_
_space_group_symop_operation_xyz
x,y,z
-x,y,-z
-x,-y,-z
x,-y,z
1/2+x,1/2+y,z
1/2-x,1/2+y,-z
1/2-x,1/2-y,-z
1/2+x,1/2-y,z
loop_
_atom_site_type_symbol
_atom_site_label
_atom_site_fract_x
_atom_site_fract_y
_atom_site_fract_z
Si Si1 0.540030 0.791725 0.379150
Si Si2 0.662256 0.282529 0.966805
Si Si3 0.617314 0.205539 0.609198
Si Si4 0.052193 0.216790 0.952303
Si Si5 0.752667 0.218976 0.802225
Si Si6 0.360346 0.282286 0.814667
Si Si7 0.092801 0.795416 0.745129
Si Si8 0.579415 0.716229 0.262167
O O1 0.575281 0.714622 0.493816
O O2 0.472986 0.707120 0.290341
O O3 0.580570 0.773986 0.350912
O O4 0.527063 0.000000 0.377199
O O5 0.663977 0.500000 0.964682
O O6 0.604310 0.235118 0.952225
O O7 0.644783 0.217269 0.862078
O O8 0.721231 0.223583 0.084416
O O9 0.684971 0.282285 0.702489
O O10 0.586034 0.206794 0.655166
O O11 0.627122 0.000000 0.596734
O O12 0.985892 0.279209 0.848590
O O13 0.049078 0.000000 0.950614
O O14 0.079776 0.271824 0.066014
O O15 0.801225 0.273468 0.793947
O O16 0.752309 0.000000 0.803948
O O17 0.359172 0.500000 0.813713
O O18 0.368990 0.225159 0.737638
O O19 0.108866 0.000000 0.748248
O O20 0.579157 0.500000 0.262473
#
# Coordination Sequence:
#
# PCOD9169837 Si02
#       8
#     8   8   8   8   8   8   8   8
#     4  11  23  37  51  71 104 142 176 207 250 306
#     4   8  14  26  48  79 107 128 155 203 259 305
#     4  10  22  38  54  72  99 140 180 210 246 303
#     4   8  12  22  42  74 109 130 153 198 255 302
#     4   8  15  31  52  75 105 137 171 207 246 299
#     4   8  14  24  47  80 105 130 166 210 253 297
#     4  11  21  35  57  83 104 124 162 217 270 309
#     4  10  17  28  50  80 106 129 168 216 258 295
#
# _framework density 22.375301
#
# number of rings (size 3 to 8) (size 9 to 14) (size 15 to 20)
#    0.000    2.750    1.250    3.000    0.000    4.500 
#    0.000    0.625    0.000    3.000    0.000    0.000 
#    0.000    0.000    0.000    0.000    0.000    0.000 
#
# Total GULP energy -178597.726738 kJ/mol
# GULP energy per Si atom -5581.178961 kJ/mol
# Density = 2.232437 g / cm^3
# Si number density = 22.375301 Si / 1000 Ang^3
#
#
#
# Elastic Constant Matrix: (Units=GPa)
#
#
# Indices 1 2 3 4 5 6 
#
# 1 188.2490 -47.7409 -125.6250 0.0001 11.0625 -0.0001
# 2 -47.7409 83.0509 68.5237 0.0000 -6.4063 0.0000
# 3 -125.6250 68.5237 360.3738 -0.0001 -56.1629 0.0001
# 4 0.0001 0.0000 -0.0001 84.0501 0.0000 -53.2296
# 5 11.0625 -6.4063 -56.1629 0.0000 41.5038 0.0000
# 6 -0.0001 0.0000 0.0001 -53.2296 0.0000 39.6935
#
#
#
# Elastic Compliance Matrix: (Units=1/GPa)
#
#
# Indices 1 2 3 4 5 6 
#
# 1 0.007419 0.002429 0.002375 0.000000 0.001612 0.000000
# 2 0.002429 0.015191 -0.002252 0.000000 -0.001350 0.000000
# 3 0.002375 -0.002252 0.004915 0.000000 0.005670 0.000000
# 4 0.000000 0.000000 0.000000 0.078937 0.000000 0.105856
# 5 0.001612 -0.001350 0.005670 0.000000 0.031129 0.000000
# 6 0.000000 0.000000 0.000000 0.105856 0.000000 0.167148
#
#
# Mechanical properties :
#
#
# Convention : Reuss Voigt Hill
#
# Bulk Modulus (GPa) = 30.64774 46.88768 38.76771
# Shear Modulus (GPa) = 16.10253 82.15055 49.12654
#
# Velocity S-wave (km/s) = 2.68555 6.06585 4.69077
# Velocity P-wave (km/s) = 4.83147 8.37018 6.83385
#
# Compressibility (1/GPa) = 0.03262883
#
# Stress axis : x y z
#
# Youngs Moduli (GPa) = 134.79624 65.82765 203.46303
#
# Poissons Ratio (x) = -0.15989 -0.48332
# Poissons Ratio (y) = -0.32740 0.45826
# Poissons Ratio (z) = -0.32021 0.14826
#
# Static dielectric constant tensor:
#      x y z
#    x 1.811740 0.000000 -0.014730 
#    y 0.000000 1.865980 0.000000 
#    z -0.014730 0.000000 1.832760 
# 
# From -- ./inp_files/249981.got.cif
#   From: 2010.05.17/outbox.cif.g08.bks.cpg/sg12_125_cif.got.tgz:249981.got - 2010.06.03 13:09:07.
