data_PCOD9169122
_publ_section_title
;
Structure prediction by ZEFSAII (Michael W. Deem and Ramdas Pophale) SiO2 
 PCOD9169122
Probable space group: C 2/M
;
_chemical_formula_sum "Si O2"
_cell_formula_units_Z 38
_cell_length_a 21.149762
_cell_length_b 10.246322
_cell_length_c 23.225381
_cell_angle_alpha 90.000000
_cell_angle_beta 159.698820
_cell_angle_gamma 90.000000
_cell_volume 1746.262151
_symmetry_space_group_name_H-M "C 2/M"
_symmetry_group_IT_number 12
_symmetry_cell_setting 'monoclinic'
loop_
_space_group_symop_operation_xyz
x,y,z
-x,y,-z
-x,-y,-z
x,-y,z
1/2+x,1/2+y,z
1/2-x,1/2+y,-z
1/2-x,1/2-y,-z
1/2+x,1/2-y,z
loop_
_atom_site_type_symbol
_atom_site_label
_atom_site_fract_x
_atom_site_fract_y
_atom_site_fract_z
Si Si1 0.304191 0.856009 0.304594
Si Si2 0.934787 0.500000 0.139634
Si Si3 0.491531 0.215398 0.097504
Si Si4 0.611967 0.240351 0.741674
Si Si5 0.000000 0.500000 0.000000
Si Si6 0.034610 0.000000 0.745939
Si Si7 0.381135 0.000000 0.577845
O O1 0.500000 0.865203 0.500000
O O2 0.157831 0.809065 0.225631
O O3 0.328806 0.753510 0.274117
O O4 0.252261 0.000000 0.237110
O O5 0.005416 0.628538 0.166373
O O6 0.023033 0.500000 0.277501
O O7 0.714198 0.500000 0.940578
O O8 0.300625 0.292720 0.935443
O O9 0.484946 0.112927 0.038565
O O10 0.548347 0.373793 0.716395
O O11 0.460573 0.129349 0.616243
O O12 0.837079 0.000000 0.606428
#
# Coordination Sequence:
#
# PCOD9169122 Si02
#       7
#     8   4   8   8   2   4   4
#     4  11  24  40  61 100 133 168 216 275 342 400
#     4   9  24  44  65 104 121 175 224 264 330 395
#     4  10  21  39  68  91 133 159 213 274 328 399
#     4  11  23  43  66  95 128 177 215 270 335 392
#     4  10  16  36  64  92 120 160 200 264 322 388
#     4  10  25  44  65  94 136 170 223 278 318 385
#     4  12  25  45  69  92 131 180 229 261 325 395
#
# _framework density 21.760766
#
# number of rings (size 3 to 8) (size 9 to 14) (size 15 to 20)
#    0.000    1.474    3.158    1.263    4.421    4.211 
#    3.789    2.632    0.000    0.000    0.000    0.000 
#    0.000    0.000    0.000    0.000    0.000    0.000 
#
# Total GULP energy -105879.487579 kJ/mol
# GULP energy per Si atom -5572.604609 kJ/mol
# Density = 2.171124 g / cm^3
# Si number density = 21.760766 Si / 1000 Ang^3
#
#
#
# Elastic Constant Matrix: (Units=GPa)
#
#
# Indices 1 2 3 4 5 6 
#
# 1 49.5975 1.7164 29.2799 0.0004 15.3464 0.0005
# 2 1.7164 56.4049 44.2839 -0.0021 28.1481 0.0024
# 3 29.2799 44.2839 80.5871 -0.0051 45.0331 0.0043
# 4 0.0004 -0.0021 -0.0051 11.0243 0.0000 7.4786
# 5 15.3464 28.1481 45.0331 0.0000 47.9506 0.0006
# 6 0.0005 0.0024 0.0043 7.4786 0.0006 32.0370
#
#
#
# Elastic Compliance Matrix: (Units=1/GPa)
#
#
# Indices 1 2 3 4 5 6 
#
# 1 0.030764 0.013862 -0.018405 -0.000009 -0.000698 0.000003
# 2 0.013862 0.037929 -0.023060 -0.000004 -0.005045 0.000001
# 3 -0.018405 -0.023060 0.044007 0.000022 -0.021903 -0.000009
# 4 -0.000009 -0.000004 0.000022 0.107775 -0.000015 -0.025159
# 5 -0.000698 -0.005045 -0.021903 -0.000015 0.044609 0.000006
# 6 0.000003 0.000001 -0.000009 -0.025159 0.000006 0.037087
#
#
# Mechanical properties :
#
#
# Convention : Reuss Voigt Hill
#
# Bulk Modulus (GPa) = 17.39292 37.46109 27.42701
# Shear Modulus (GPa) = 13.27869 25.62301 19.45085
#
# Velocity S-wave (km/s) = 2.47293 3.43518 2.99298
# Velocity P-wave (km/s) = 4.02044 5.74337 4.95733
#
# Compressibility (1/GPa) = 0.05749464
#
# Stress axis : x y z
#
# Youngs Moduli (GPa) = 32.50562 26.36474 22.72344
#
# Poissons Ratio (x) = -0.36547 0.41822
# Poissons Ratio (y) = -0.45059 0.52401
# Poissons Ratio (z) = 0.59826 0.60798
#
# Static dielectric constant tensor:
#      x y z
#    x 1.781850 0.000000 0.008280 
#    y 0.000000 1.802530 0.000000 
#    z 0.008280 0.000000 1.799980 
# 
# From -- ./inp_files/110254.got.cif
#   From: 2010.05.17/outbox.cif.g08.bks.cpg/sg12_56_cif.got.tgz:110254.got - 2010.06.03 13:09:07.
