data_PCOD9169601
_publ_section_title
;
Structure prediction by ZEFSAII (Michael W. Deem and Ramdas Pophale) SiO2 
 PCOD9169601
Probable space group: C 2/M
;
_chemical_formula_sum "Si O2"
_cell_formula_units_Z 50
_cell_length_a 18.863726
_cell_length_b 17.129611
_cell_length_c 7.129415
_cell_angle_alpha 90.000000
_cell_angle_beta 113.873573
_cell_angle_gamma 90.000000
_cell_volume 2106.611423
_symmetry_space_group_name_H-M "C 2/M"
_symmetry_group_IT_number 12
_symmetry_cell_setting 'monoclinic'
loop_
_space_group_symop_operation_xyz
x,y,z
-x,y,-z
-x,-y,-z
x,-y,z
1/2+x,1/2+y,z
1/2-x,1/2+y,-z
1/2-x,1/2-y,-z
1/2+x,1/2-y,z
loop_
_atom_site_type_symbol
_atom_site_label
_atom_site_fract_x
_atom_site_fract_y
_atom_site_fract_z
Si Si1 0.301070 0.915953 0.859899
Si Si2 0.412080 0.765119 0.384581
Si Si3 0.090211 0.281796 0.060178
Si Si4 0.809735 0.412359 0.323355
Si Si5 0.000000 0.000000 0.000000
Si Si6 0.868918 0.886846 0.851684
Si Si7 0.120930 0.088949 0.683954
O O1 0.354418 0.851663 0.827248
O O2 0.210781 0.908679 0.721582
O O3 0.329287 0.000000 0.829246
O O4 0.306988 0.912379 0.092268
O O5 0.500000 0.792849 0.500000
O O6 0.356299 0.831592 0.414666
O O7 0.410325 0.671792 0.427601
O O8 0.395323 0.767483 0.144757
O O9 0.117419 0.202421 0.181984
O O10 0.000000 0.296322 0.000000
O O11 0.839955 0.500000 0.407197
O O12 0.719530 0.408226 0.288608
O O13 0.941085 0.066312 0.848454
O O14 0.879964 0.905441 0.088078
O O15 0.091643 0.000000 0.611374
#
# Coordination Sequence:
#
# PCOD9169601 Si02
#       7
#     8   8   8   8   2   8   8
#     4   8  15  28  48  72  93 119 160 205 241 283
#     4  10  21  33  48  72  99 129 168 199 228 283
#     4  10  19  30  48  74  98 126 155 200 249 281
#     4   9  16  30  49  69  96 127 162 200 241 280
#     4  12  16  24  44  80 106 116 142 208 256 292
#     4  10  17  27  46  76 102 121 152 201 251 293
#     4   9  16  30  49  69  95 125 160 201 244 283
#
# _framework density 23.734798999999999
#
# number of rings (size 3 to 8) (size 9 to 14) (size 15 to 20)
#    0.000    2.560    2.400    1.920    0.000    4.800 
#    0.000    0.000    0.000    3.840    0.000    2.240 
#    0.000    0.000    0.000    0.000    0.000    0.000 
#
# Total GULP energy -139257.190675 kJ/mol
# GULP energy per Si atom -5570.287627 kJ/mol
# Density = 2.368078 g / cm^3
# Si number density = 23.734799 Si / 1000 Ang^3
#
#
#
# Elastic Constant Matrix: (Units=GPa)
#
#
# Indices 1 2 3 4 5 6 
#
# 1 90.6382 84.0300 27.2258 0.0000 22.7950 0.0000
# 2 84.0300 203.8957 22.1857 0.0000 44.5305 0.0000
# 3 27.2258 22.1857 51.2433 0.0000 -22.2239 0.0000
# 4 0.0000 0.0000 0.0000 6.4240 0.0000 14.6596
# 5 22.7950 44.5305 -22.2239 0.0000 49.2218 0.0000
# 6 0.0000 0.0000 0.0000 14.6596 0.0000 14.9730
#
#
#
# Elastic Compliance Matrix: (Units=1/GPa)
#
#
# Indices 1 2 3 4 5 6 
#
# 1 0.024531 -0.005082 -0.017118 0.000000 -0.014491 0.000000
# 2 -0.005082 0.009372 -0.004991 0.000000 -0.008379 0.000000
# 3 -0.017118 -0.004991 0.044973 0.000000 0.032748 0.000000
# 4 0.000000 0.000000 0.000000 -0.126122 0.000000 0.123483
# 5 -0.014491 -0.008379 0.032748 0.000000 0.049393 0.000000
# 6 0.000000 0.000000 0.000000 0.123483 0.000000 -0.054111
#
#
# Mechanical properties :
#
#
# Convention : Reuss Voigt Hill
#
# Bulk Modulus (GPa) = 40.82681 68.07335 54.45008
# Shear Modulus (GPa) = 472.45579 28.27946 250.36762
#
# Velocity S-wave (km/s) = 14.12403 3.45552 10.28175
# Velocity P-wave (km/s) = 16.82923 6.68311 12.80404
#
# Compressibility (1/GPa) = 0.02449371
#
# Stress axis : x y z
#
# Youngs Moduli (GPa) = 40.76471 106.70176 22.23544
#
# Poissons Ratio (x) = 0.54229 0.38062
# Poissons Ratio (y) = 0.20718 0.11098
# Poissons Ratio (z) = 0.69781 0.53255
#
# Static dielectric constant tensor:
#      x y z
#    x 2.766360 0.000000 -1.515790 
#    y 0.000000 1.892440 0.000000 
#    z -1.515790 0.000000 4.318720 
# 
# From -- ./inp_files/76064.got.cif
#   From: 2010.05.17/outbox.cif.g08.bks.cpg/sg12_39_cif.got.tgz:76064.got - 2010.06.03 13:09:07.
