data_PCOD9169585
_publ_section_title
;
Structure prediction by ZEFSAII (Michael W. Deem and Ramdas Pophale) SiO2 
 PCOD9169585
Probable space group: C 2/M
;
_chemical_formula_sum "Si O2"
_cell_formula_units_Z 56
_cell_length_a 23.641339
_cell_length_b 17.007178
_cell_length_c 20.756770
_cell_angle_alpha 90.000000
_cell_angle_beta 23.698920
_cell_angle_gamma 90.000000
_cell_volume 3354.401798
_symmetry_space_group_name_H-M "C 2/M"
_symmetry_group_IT_number 12
_symmetry_cell_setting 'monoclinic'
loop_
_space_group_symop_operation_xyz
x,y,z
-x,y,-z
-x,-y,-z
x,-y,z
1/2+x,1/2+y,z
1/2-x,1/2+y,-z
1/2-x,1/2-y,-z
1/2+x,1/2-y,z
loop_
_atom_site_type_symbol
_atom_site_label
_atom_site_fract_x
_atom_site_fract_y
_atom_site_fract_z
Si Si1 0.519127 0.411650 0.274273
Si Si2 0.157056 0.500000 0.416715
Si Si3 0.822304 0.500000 0.757549
Si Si4 0.949535 0.745946 0.219932
Si Si5 0.327539 0.358845 0.013276
Si Si6 0.433477 0.756994 0.755277
Si Si7 0.179851 0.587849 0.623458
Si Si8 0.315827 0.857260 0.524524
O O1 0.554545 0.500000 0.259980
O O2 0.580218 0.335207 0.247209
O O3 0.349346 0.403456 0.452736
O O4 0.579159 0.402590 0.138782
O O5 0.183513 0.500000 0.313412
O O6 0.217275 0.422723 0.388394
O O7 0.987410 0.500000 0.604776
O O8 0.745708 0.423360 0.866111
O O9 0.903082 0.657161 0.253767
O O10 0.810834 0.798700 0.359343
O O11 0.005353 0.743526 0.235622
O O12 0.071577 0.795003 0.057321
O O13 0.207092 0.307219 0.104175
O O14 0.552368 0.803836 0.592072
O O15 0.140975 0.500000 0.684202
O O16 0.149458 0.598573 0.578836
#
# Coordination Sequence:
#
# PCOD9169585 Si02
#       8
#     8   4   4   8   8   8   8   8
#     4  10  17  27  46  72 105 134 162 203 249 308
#     4  11  24  37  57  71  99 141 195 221 256 304
#     4  11  24  41  49  75 101 141 189 231 250 301
#     4  10  19  31  48  73 104 129 170 211 249 320
#     4  11  20  33  51  66 104 140 170 212 266 290
#     4  10  18  30  45  73  96 137 171 193 254 328
#     4  10  17  27  47  74 104 132 167 196 252 314
#     4  11  17  32  50  70  97 135 171 215 254 295
#
# _framework density 16.694483000000002
#
# number of rings (size 3 to 8) (size 9 to 14) (size 15 to 20)
#    0.000    1.571    7.143    2.571    0.000    0.571 
#    0.000    2.143    0.000    0.000    0.000    0.000 
#    0.000    6.857    0.000    0.000    0.000    0.000 
#
# Total GULP energy -155923.606329 kJ/mol
# GULP energy per Si atom -5568.700226 kJ/mol
# Density = 1.665649 g / cm^3
# Si number density = 16.694483 Si / 1000 Ang^3
#
#
#
# Elastic Constant Matrix: (Units=GPa)
#
#
# Indices 1 2 3 4 5 6 
#
# 1 19.4963 21.9254 13.0987 0.0001 -2.4518 0.0002
# 2 21.9254 168.5577 52.5729 0.0026 -5.1866 -0.0013
# 3 13.0987 52.5729 72.1590 0.0005 -12.6761 -0.0006
# 4 0.0001 0.0026 0.0005 23.9013 -0.0006 -2.4458
# 5 -2.4518 -5.1866 -12.6761 -0.0006 16.6139 0.0004
# 6 0.0002 -0.0013 -0.0006 -2.4458 0.0004 8.0034
#
#
#
# Elastic Compliance Matrix: (Units=1/GPa)
#
#
# Indices 1 2 3 4 5 6 
#
# 1 0.062809 -0.006044 -0.006584 0.000000 0.002359 -0.000003
# 2 -0.006044 0.008327 -0.005392 -0.000001 -0.002407 0.000001
# 3 -0.006584 -0.005392 0.021381 0.000001 0.013659 0.000000
# 4 0.000000 -0.000001 0.000001 0.043189 0.000001 0.013198
# 5 0.002359 -0.002407 0.013659 0.000001 0.070209 -0.000003
# 6 -0.000003 0.000001 0.000000 0.013198 -0.000003 0.128979
#
#
# Mechanical properties :
#
#
# Convention : Reuss Voigt Hill
#
# Bulk Modulus (GPa) = 17.70620 48.37856 33.04238
# Shear Modulus (GPa) = 12.82843 21.21147 17.01995
#
# Velocity S-wave (km/s) = 2.77505 3.56837 3.19642
# Velocity P-wave (km/s) = 4.57132 6.78376 5.78430
#
# Compressibility (1/GPa) = 0.05647739
#
# Stress axis : x y z
#
# Youngs Moduli (GPa) = 15.92133 120.09683 46.76968
#
# Poissons Ratio (x) = 0.72586 0.30791
# Poissons Ratio (y) = 0.09623 0.25219
# Poissons Ratio (z) = 0.10482 0.64758
#
# Static dielectric constant tensor:
#      x y z
#    x 1.535150 0.000000 -0.020110 
#    y 0.000000 1.624360 0.000000 
#    z -0.020110 0.000000 1.601070 
# 
# From -- ./inp_files/326007.got.cif
#   From: 2010.05.17/outbox.cif.g08.bks.cpg/sg12_164_cif.got.tgz:326007.got - 2010.06.03 13:09:07.
