data_PCOD9169319
_publ_section_title
;
Structure prediction by ZEFSAII (Michael W. Deem and Ramdas Pophale) SiO2 
 PCOD9169319
Probable space group: C 2/M
;
_chemical_formula_sum "Si O2"
_cell_formula_units_Z 32
_cell_length_a 23.752525
_cell_length_b 5.377080
_cell_length_c 25.074358
_cell_angle_alpha 90.000000
_cell_angle_beta 36.033365
_cell_angle_gamma 90.000000
_cell_volume 1883.877532
_symmetry_space_group_name_H-M "C 2/M"
_symmetry_group_IT_number 12
_symmetry_cell_setting 'monoclinic'
loop_
_space_group_symop_operation_xyz
x,y,z
-x,y,-z
-x,-y,-z
x,-y,z
1/2+x,1/2+y,z
1/2-x,1/2+y,-z
1/2-x,1/2-y,-z
1/2+x,1/2-y,z
loop_
_atom_site_type_symbol
_atom_site_label
_atom_site_fract_x
_atom_site_fract_y
_atom_site_fract_z
Si Si1 0.096465 0.500000 0.960764
Si Si2 0.709044 0.000000 0.098199
Si Si3 0.665833 0.000000 0.015739
Si Si4 0.842171 0.000000 0.606551
Si Si5 0.745157 0.000000 0.288785
Si Si6 0.017400 0.000000 0.397773
Si Si7 0.394131 0.000000 0.709075
Si Si8 0.385807 0.500000 0.097601
O O1 0.083302 0.500000 0.034111
O O2 0.150630 0.251938 0.901523
O O3 0.000000 0.500000 0.000000
O O4 0.772704 0.250354 0.043121
O O5 0.655371 0.000000 0.195416
O O6 0.642095 0.000000 0.096433
O O7 0.781073 0.748942 0.659460
O O8 0.913669 0.000000 0.602825
O O9 0.910123 0.000000 0.502978
O O10 0.681159 0.000000 0.283080
O O11 0.852961 0.000000 0.183618
O O12 0.043656 0.250339 0.346255
O O13 0.500000 0.500000 0.000000
#
# Coordination Sequence:
#
# PCOD9169319 Si02
#       8
#     4   4   4   4   4   4   4   4
#     4  10  19  31  47  64  87 121 152 187 230 268
#     4  10  20  30  45  65  89 123 156 191 224 262
#     4  10  19  32  45  63  91 120 158 194 223 263
#     4   9  17  27  39  58  80 112 146 176 220 261
#     4  10  17  26  42  58  81 115 149 177 211 270
#     4   9  17  27  39  57  84 109 142 186 216 255
#     4  10  17  26  41  60  81 113 150 179 213 258
#     4  10  20  31  44  65  89 117 150 188 227 265
#
# _framework density 16.986242000000001
#
# number of rings (size 3 to 8) (size 9 to 14) (size 15 to 20)
#    0.000    2.250    0.000    4.500    0.000    5.000 
#    0.000    0.000    0.000    0.000    0.000    0.000 
#    0.000    0.000    0.000   90.000    0.000   15.000 
#
# Total GULP energy -89111.829664 kJ/mol
# GULP energy per Si atom -5569.489354 kJ/mol
# Density = 1.694758 g / cm^3
# Si number density = 16.986242 Si / 1000 Ang^3
#
#
#
# Elastic Constant Matrix: (Units=GPa)
#
#
# Indices 1 2 3 4 5 6 
#
# 1 62.3089 8.1725 15.6164 -0.0122 15.9326 0.0239
# 2 8.1725 173.8159 58.2886 -0.0267 7.3111 -0.0482
# 3 15.6164 58.2886 123.8689 0.0128 11.4776 -0.0239
# 4 -0.0122 -0.0267 0.0128 25.8235 -0.0093 8.8433
# 5 15.9326 7.3111 11.4776 -0.0093 21.6954 -0.0265
# 6 0.0239 -0.0482 -0.0239 8.8433 -0.0265 7.0989
#
#
#
# Elastic Compliance Matrix: (Units=1/GPa)
#
#
# Indices 1 2 3 4 5 6 
#
# 1 0.019933 0.000070 -0.001249 0.000082 -0.014002 -0.000226
# 2 0.000070 0.006840 -0.003164 -0.000005 -0.000683 0.000039
# 3 -0.001249 -0.003164 0.010027 -0.000020 -0.003321 0.000029
# 4 0.000082 -0.000005 -0.000020 0.067536 -0.000122 -0.084133
# 5 -0.014002 -0.000683 -0.003321 -0.000122 0.058363 0.000402
# 6 -0.000226 0.000039 0.000029 -0.084133 0.000402 0.245677
#
#
# Mechanical properties :
#
#
# Convention : Reuss Voigt Hill
#
# Bulk Modulus (GPa) = 35.56813 58.23874 46.90344
# Shear Modulus (GPa) = 11.72517 29.45130 20.58823
#
# Velocity S-wave (km/s) = 2.63016 4.16845 3.48523
# Velocity P-wave (km/s) = 5.49622 7.58474 6.62332
#
# Compressibility (1/GPa) = 0.02811506
#
# Stress axis : x y z
#
# Youngs Moduli (GPa) = 50.16754 146.20494 99.72866
#
# Poissons Ratio (x) = -0.01030 0.12454
# Poissons Ratio (y) = -0.00354 0.31556
# Poissons Ratio (z) = 0.06265 0.46262
#
# Static dielectric constant tensor:
#      x y z
#    x 1.502590 -0.000510 0.046650 
#    y -0.000510 1.619660 0.000340 
#    z 0.046650 0.000340 1.553750 
# 
# From -- ./inp_files/219799.got.cif
#   From: 2010.05.17/outbox.cif.g08.bks.cpg/sg12_110_cif.got.tgz:219799.got - 2010.06.03 13:09:07.
