data_PCOD9169770
_publ_section_title
;
Structure prediction by ZEFSAII (Michael W. Deem and Ramdas Pophale) SiO2 
 PCOD9169770
Probable space group: C 2/M
;
_chemical_formula_sum "Si O2"
_cell_formula_units_Z 56
_cell_length_a 28.010158
_cell_length_b 7.606409
_cell_length_c 13.267805
_cell_angle_alpha 90.000000
_cell_angle_beta 60.322075
_cell_angle_gamma 90.000000
_cell_volume 2455.982638
_symmetry_space_group_name_H-M "C 2/M"
_symmetry_group_IT_number 12
_symmetry_cell_setting 'monoclinic'
loop_
_space_group_symop_operation_xyz
x,y,z
-x,y,-z
-x,-y,-z
x,-y,z
1/2+x,1/2+y,z
1/2-x,1/2+y,-z
1/2-x,1/2-y,-z
1/2+x,1/2-y,z
loop_
_atom_site_type_symbol
_atom_site_label
_atom_site_fract_x
_atom_site_fract_y
_atom_site_fract_z
Si Si1 0.278338 0.283688 0.763818
Si Si2 0.981665 0.208053 0.763623
Si Si3 0.418475 0.711426 0.026764
Si Si4 0.286428 0.789023 0.365374
Si Si5 0.613910 0.300666 0.262806
Si Si6 0.318336 0.206095 0.001756
Si Si7 0.091007 0.295989 0.738216
O O1 0.279221 0.500000 0.764109
O O2 0.246650 0.223772 0.697634
O O3 0.341137 0.221028 0.708579
O O4 0.240960 0.230179 0.898719
O O5 0.944256 0.280267 0.711150
O O6 0.046715 0.227768 0.704456
O O7 0.970365 0.000000 0.774160
O O8 0.956386 0.277246 0.895371
O O9 0.420905 0.500000 0.026135
O O10 0.357721 0.772575 0.058399
O O11 0.432057 0.773521 0.124173
O O12 0.250000 0.750000 0.500000
O O13 0.347857 0.716966 0.319257
O O14 0.291538 0.000000 0.346483
O O15 0.603534 0.500000 0.308815
O O16 0.649632 0.302938 0.121173
O O17 0.316189 0.000000 0.978848
O O18 0.096713 0.500000 0.709599
#
# Coordination Sequence:
#
# PCOD9169770 Si02
#       7
#     8   8   8   8   8   8   8
#     4   9  17  33  54  73 103 138 171 216 266 307
#     4   9  19  32  47  74 108 140 177 209 243 303
#     4  10  19  31  48  73 107 143 180 215 251 304
#     4  10  22  40  58  80 103 129 172 223 273 318
#     4   9  18  32  50  74 106 144 176 208 249 305
#     4  10  17  28  47  74 109 142 174 213 255 307
#     4  11  21  34  53  75 103 136 172 216 267 314
#
# _framework density 22.801462999999998
#
# number of rings (size 3 to 8) (size 9 to 14) (size 15 to 20)
#    0.000    2.286    1.429    3.000    0.000    5.714 
#    0.000    1.429    0.000    0.857    0.000    6.000 
#    0.000    0.000    0.000    0.000    0.000    0.000 
#
# Total GULP energy -156234.177313 kJ/mol
# GULP energy per Si atom -5579.792047 kJ/mol
# Density = 2.274957 g / cm^3
# Si number density = 22.801463 Si / 1000 Ang^3
#
#
#
# Elastic Constant Matrix: (Units=GPa)
#
#
# Indices 1 2 3 4 5 6 
#
# 1 223.3423 11.0692 26.0576 0.0000 -19.6797 0.0000
# 2 11.0692 35.1316 -4.6964 0.0000 -4.7122 0.0000
# 3 26.0576 -4.6964 30.5871 0.0000 1.7355 0.0000
# 4 0.0000 0.0000 0.0000 13.4299 0.0000 -1.3071
# 5 -19.6797 -4.7122 1.7355 0.0000 14.2415 0.0000
# 6 0.0000 0.0000 0.0000 -1.3071 0.0000 21.3332
#
#
#
# Elastic Compliance Matrix: (Units=1/GPa)
#
#
# Indices 1 2 3 4 5 6 
#
# 1 0.005976 -0.001524 -0.005805 0.000000 0.008461 0.000000
# 2 -0.001524 0.030680 0.005591 0.000000 0.007364 0.000000
# 3 -0.005805 0.005591 0.039118 0.000000 -0.010939 0.000000
# 4 0.000000 0.000000 0.000000 0.074907 0.000000 0.004590
# 5 0.008461 0.007364 -0.010939 0.000000 0.085679 0.000000
# 6 0.000000 0.000000 0.000000 0.004590 0.000000 0.047157
#
#
# Mechanical properties :
#
#
# Convention : Reuss Voigt Hill
#
# Bulk Modulus (GPa) = 13.83167 39.32463 26.57815
# Shear Modulus (GPa) = 16.07249 26.90963 21.49106
#
# Velocity S-wave (km/s) = 2.65785 3.43909 3.07340
# Velocity P-wave (km/s) = 3.93678 5.74924 4.92707
#
# Compressibility (1/GPa) = 0.07229783
#
# Stress axis : x y z
#
# Youngs Moduli (GPa) = 167.34342 32.59478 25.56374
#
# Poissons Ratio (x) = 0.04967 0.14839
# Poissons Ratio (y) = 0.25502 -0.14293
# Poissons Ratio (z) = 0.97141 -0.18224
#
# Static dielectric constant tensor:
#      x y z
#    x 1.986200 0.000000 -0.020830 
#    y 0.000000 1.819600 0.000000 
#    z -0.020830 0.000000 1.815330 
# 
# From -- ./inp_files/243650.got.cif
#   From: 2010.05.17/outbox.cif.g08.bks.cpg/sg12_122_cif.got.tgz:243650.got - 2010.06.03 13:09:07.
