data_PCOD9169528
_publ_section_title
;
Structure prediction by ZEFSAII (Michael W. Deem and Ramdas Pophale) SiO2 
 PCOD9169528
Probable space group: C 2/M
;
_chemical_formula_sum "Si O2"
_cell_formula_units_Z 64
_cell_length_a 31.100155
_cell_length_b 7.286101
_cell_length_c 22.146392
_cell_angle_alpha 90.000000
_cell_angle_beta 152.069845
_cell_angle_gamma 90.000000
_cell_volume 2350.568228
_symmetry_space_group_name_H-M "C 2/M"
_symmetry_group_IT_number 12
_symmetry_cell_setting 'monoclinic'
loop_
_space_group_symop_operation_xyz
x,y,z
-x,y,-z
-x,-y,-z
x,-y,z
1/2+x,1/2+y,z
1/2-x,1/2+y,-z
1/2-x,1/2-y,-z
1/2+x,1/2-y,z
loop_
_atom_site_type_symbol
_atom_site_label
_atom_site_fract_x
_atom_site_fract_y
_atom_site_fract_z
Si Si1 0.627931 0.221284 0.057135
Si Si2 0.670295 0.276771 0.648824
Si Si3 0.594265 0.707537 0.675684
Si Si4 0.901938 0.777997 0.661804
Si Si5 0.206782 0.212356 0.029757
Si Si6 0.445054 0.275156 0.245767
Si Si7 0.233728 0.775818 0.603107
Si Si8 0.066890 0.708192 0.160674
O O1 0.725867 0.278623 0.204642
O O2 0.633744 0.274886 0.994178
O O3 0.624982 0.000000 0.056254
O O4 0.534865 0.288450 0.973250
O O5 0.666030 0.500000 0.646156
O O6 0.603648 0.212268 0.619917
O O7 0.666061 0.224392 0.573800
O O8 0.559379 0.500000 0.626924
O O9 0.700466 0.696993 0.831024
O O10 0.544778 0.789779 0.672745
O O11 0.807617 0.720344 0.512193
O O12 0.919474 0.702659 0.749714
O O13 0.978638 0.723255 0.707937
O O14 0.903625 0.000000 0.668930
O O15 0.228854 0.000000 0.048819
O O16 0.152976 0.281635 0.904414
O O17 0.445233 0.500000 0.247964
O O18 0.337224 0.709622 0.742322
O O19 0.236843 0.000000 0.606995
O O20 0.065113 0.500000 0.134855
#
# Coordination Sequence:
#
# PCOD9169528 Si02
#       8
#     8   8   8   8   8   8   8   8
#     4   9  17  29  47  70  97 126 153 192 238 276
#     4   8  15  29  47  68  94 124 156 193 233 275
#     4   9  17  30  47  67  94 124 156 192 230 275
#     4  10  19  33  50  69  97 128 155 192 237 280
#     4  10  17  27  44  68  98 127 153 186 231 283
#     4   9  17  28  44  68  95 124 154 189 233 278
#     4   9  18  31  49  71  94 123 161 198 234 275
#     4  10  19  31  49  74  97 120 156 199 237 279
#
# _framework density 27.227456
#
# number of rings (size 3 to 8) (size 9 to 14) (size 15 to 20)
#    0.000    2.750    1.250    1.875    0.000    0.500 
#    0.000    4.375    0.000    9.750    0.000    4.375 
#    0.000    5.000    0.000    0.000    0.000    0.000 
#
# Total GULP energy -179026.216769 kJ/mol
# GULP energy per Si atom -5594.569274 kJ/mol
# Density = 2.716549 g / cm^3
# Si number density = 27.227456 Si / 1000 Ang^3
#
#
#
# Elastic Constant Matrix: (Units=GPa)
#
#
# Indices 1 2 3 4 5 6 
#
# 1 185.0833 -1.0585 32.7382 0.0000 -0.1467 0.0000
# 2 -1.0585 126.4397 3.1860 0.0000 0.1894 0.0000
# 3 32.7382 3.1860 115.7431 0.0000 10.7463 0.0000
# 4 0.0000 0.0000 0.0000 -0.1591 0.0000 -10.2265
# 5 -0.1467 0.1894 10.7463 0.0000 58.0618 0.0000
# 6 0.0000 0.0000 0.0000 -10.2265 0.0000 19.0096
#
#
#
# Elastic Compliance Matrix: (Units=1/GPa)
#
#
# Indices 1 2 3 4 5 6 
#
# 1 0.005694 0.000089 -0.001643 0.000000 0.000318 0.000000
# 2 0.000089 0.007916 -0.000245 0.000000 0.000020 0.000000
# 3 -0.001643 -0.000245 0.009271 0.000000 -0.001719 0.000000
# 4 0.000000 0.000000 0.000000 -0.176661 0.000000 -0.095038
# 5 0.000318 0.000020 -0.001719 0.000000 0.017542 0.000000
# 6 0.000000 0.000000 0.000000 -0.095038 0.000000 0.001478
#
#
# Mechanical properties :
#
#
# Convention : Reuss Voigt Hill
#
# Bulk Modulus (GPa) = 51.85849 55.22196 53.54022
# Shear Modulus (GPa) = -40.08509 41.54249 0.72870
#
# Velocity S-wave (km/s) = -3.84113 3.91033 0.51789
# Velocity P-wave (km/s) = 0.76460 6.38070 4.47933
#
# Compressibility (1/GPa) = 0.01928325
#
# Stress axis : x y z
#
# Youngs Moduli (GPa) = 175.61472 126.32982 107.86553
#
# Poissons Ratio (x) = -0.01119 0.17718
# Poissons Ratio (y) = -0.01556 0.02640
# Poissons Ratio (z) = 0.28847 0.03092
#
# Static dielectric constant tensor:
#      x y z
#    x 2.108560 0.000000 0.017420 
#    y 0.000000 2.127890 0.000000 
#    z 0.017420 0.000000 2.126430 
# 
# From -- ./inp_files/353570.got.cif
#   From: 2010.05.17/outbox.cif.g08.bks.cpg/sg12_177_cif.got.tgz:353570.got - 2010.06.03 13:09:07.
