data_PCOD9169435
_publ_section_title
;
Structure prediction by ZEFSAII (Michael W. Deem and Ramdas Pophale) SiO2 
 PCOD9169435
Probable space group: C 2/M
;
_chemical_formula_sum "Si O2"
_cell_formula_units_Z 40
_cell_length_a 13.891831
_cell_length_b 7.775976
_cell_length_c 16.003936
_cell_angle_alpha 90.000000
_cell_angle_beta 112.928686
_cell_angle_gamma 90.000000
_cell_volume 1592.195326
_symmetry_space_group_name_H-M "C 2/M"
_symmetry_group_IT_number 12
_symmetry_cell_setting 'monoclinic'
loop_
_space_group_symop_operation_xyz
x,y,z
-x,y,-z
-x,-y,-z
x,-y,z
1/2+x,1/2+y,z
1/2-x,1/2+y,-z
1/2-x,1/2-y,-z
1/2+x,1/2-y,z
loop_
_atom_site_type_symbol
_atom_site_label
_atom_site_fract_x
_atom_site_fract_y
_atom_site_fract_z
Si Si1 0.387921 0.305444 0.068155
Si Si2 0.683981 0.707552 0.308694
Si Si3 0.943932 0.210376 0.264648
Si Si4 0.606722 0.196614 0.569065
Si Si5 0.617953 0.804548 0.112237
O O1 0.351081 0.500000 0.060073
O O2 0.386415 0.229051 0.160536
O O3 0.513952 0.306414 0.093122
O O4 0.341708 0.225682 0.967986
O O5 0.690791 0.500000 0.309295
O O6 0.567418 0.751707 0.298293
O O7 0.777051 0.773190 0.399840
O O8 0.692058 0.773152 0.215921
O O9 0.905880 0.298306 0.335397
O O10 0.934135 0.000000 0.266169
O O11 0.500000 0.281403 0.500000
O O12 0.608390 0.000000 0.537422
O O13 0.581343 0.000000 0.103880
#
# Coordination Sequence:
#
# PCOD9169435 Si02
#       5
#     8   8   8   8   8
#     4   9  16  29  49  74 109 149 179 208 261 321
#     4   9  19  37  56  76 109 148 178 212 269 328
#     4   9  19  35  56  80 107 142 180 216 260 320
#     4  10  22  39  58  80 106 137 177 226 276 324
#     4  10  17  26  47  80 110 138 180 224 257 301
#
# _framework density 25.122544999999999
#
# number of rings (size 3 to 8) (size 9 to 14) (size 15 to 20)
#    0.000    2.600    0.000    4.800    0.000    6.000 
#    0.000    1.000    0.000    0.000    0.000    0.000 
#    0.000    0.000    0.000    0.000    0.000    0.000 
#
# Total GULP energy -111706.836348 kJ/mol
# GULP energy per Si atom -5585.341817 kJ/mol
# Density = 2.506537 g / cm^3
# Si number density = 25.122545 Si / 1000 Ang^3
#
#
#
# Elastic Constant Matrix: (Units=GPa)
#
#
# Indices 1 2 3 4 5 6 
#
# 1 57.3930 2.5410 16.8036 0.0000 20.2917 0.0000
# 2 2.5410 60.0665 -2.4557 0.0000 7.1256 0.0000
# 3 16.8036 -2.4557 82.6332 0.0000 37.9401 0.0000
# 4 0.0000 0.0000 0.0000 101.3687 0.0000 -1.1167
# 5 20.2917 7.1256 37.9401 0.0000 58.2760 0.0000
# 6 0.0000 0.0000 0.0000 -1.1167 0.0000 13.2567
#
#
#
# Elastic Compliance Matrix: (Units=1/GPa)
#
#
# Indices 1 2 3 4 5 6 
#
# 1 0.019960 -0.000171 -0.001259 0.000000 -0.006110 0.000000
# 2 -0.000171 0.017146 0.002110 0.000000 -0.003411 0.000000
# 3 -0.001259 0.002110 0.017598 0.000000 -0.011277 0.000000
# 4 0.000000 0.000000 0.000000 0.009874 0.000000 0.000832
# 5 -0.006110 -0.003411 -0.011277 0.000000 0.027046 0.000000
# 6 0.000000 0.000000 0.000000 0.000832 0.000000 0.075504
#
#
# Mechanical properties :
#
#
# Convention : Reuss Voigt Hill
#
# Bulk Modulus (GPa) = 17.83630 25.98562 21.91096
# Shear Modulus (GPa) = 27.10685 46.79386 36.95035
#
# Velocity S-wave (km/s) = 3.28835 4.32050 3.83927
# Velocity P-wave (km/s) = 4.64035 5.93758 5.32859
#
# Compressibility (1/GPa) = 0.05606542
#
# Stress axis : x y z
#
# Youngs Moduli (GPa) = 50.10033 58.32135 56.82468
#
# Poissons Ratio (x) = 0.00998 0.07153
# Poissons Ratio (y) = 0.00857 -0.11993
# Poissons Ratio (z) = 0.06307 -0.12308
#
# Static dielectric constant tensor:
#      x y z
#    x 2.083070 0.000000 0.048900 
#    y 0.000000 1.874050 0.000000 
#    z 0.048900 0.000000 2.006400 
# 
# From -- ./inp_files/221236.got.cif
#   From: 2010.05.17/outbox.cif.g08.bks.cpg/sg12_111_cif.got.tgz:221236.got - 2010.06.03 13:09:07.
