data_PCOD9169209
_publ_section_title
;
Structure prediction by ZEFSAII (Michael W. Deem and Ramdas Pophale) SiO2 
 PCOD9169209
Probable space group: C 2/M
;
_chemical_formula_sum "Si O2"
_cell_formula_units_Z 64
_cell_length_a 28.376284
_cell_length_b 9.109085
_cell_length_c 20.775002
_cell_angle_alpha 90.000000
_cell_angle_beta 125.578653
_cell_angle_gamma 90.000000
_cell_volume 4367.485941
_symmetry_space_group_name_H-M "C 2/M"
_symmetry_group_IT_number 12
_symmetry_cell_setting 'monoclinic'
loop_
_space_group_symop_operation_xyz
x,y,z
-x,y,-z
-x,-y,-z
x,-y,z
1/2+x,1/2+y,z
1/2-x,1/2+y,-z
1/2-x,1/2-y,-z
1/2+x,1/2-y,z
loop_
_atom_site_type_symbol
_atom_site_label
_atom_site_fract_x
_atom_site_fract_y
_atom_site_fract_z
Si Si1 0.687436 0.176948 0.445038
Si Si2 0.977640 0.324399 0.197887
Si Si3 0.390432 0.824808 0.737583
Si Si4 0.416253 0.328151 0.884793
Si Si5 0.531105 0.326761 0.674236
Si Si6 0.552020 0.327019 0.952676
Si Si7 0.567173 0.169390 0.576876
Si Si8 0.602233 0.673349 0.478436
O O1 0.750000 0.250000 0.500000
O O2 0.656913 0.217108 0.352971
O O3 0.646315 0.239544 0.468345
O O4 0.690653 0.000000 0.451420
O O5 0.973505 0.500000 0.199362
O O6 0.959225 0.248276 0.249361
O O7 0.942856 0.264334 0.108463
O O8 0.045558 0.285711 0.238865
O O9 0.383026 0.754302 0.801805
O O10 0.389820 0.000000 0.744052
O O11 0.401498 0.500000 0.872194
O O12 0.484269 0.316565 0.919443
O O13 0.412694 0.276218 0.956032
O O14 0.543441 0.500000 0.685939
O O15 0.566326 0.248143 0.645150
O O16 0.462823 0.309815 0.601975
O O17 0.563759 0.500000 0.951004
O O18 0.500000 0.169029 0.500000
O O19 0.600845 0.258936 0.548834
O O20 0.585992 0.000000 0.595706
O O21 0.615534 0.500000 0.490296
#
# Coordination Sequence:
#
# PCOD9169209 Si02
#       8
#     8   8   8   8   8   8   8   8
#     4  11  22  35  47  62  83 108 142 183 223 259
#     4  10  17  25  38  57  81 110 140 171 207 247
#     4   9  18  29  41  56  77 103 135 175 215 251
#     4   8  14  24  39  54  73 100 134 168 201 244
#     4  10  18  27  41  61  84 110 141 174 206 249
#     4   8  14  24  35  53  77 103 133 167 201 238
#     4   9  17  28  43  61  82 107 135 170 209 249
#     4  10  19  31  46  62  80 106 139 175 215 256
#
# _framework density 14.653740000000001
#
# number of rings (size 3 to 8) (size 9 to 14) (size 15 to 20)
#    0.000    2.625    1.250    2.625    0.000    4.500 
#    0.000    2.500    0.000    0.000    0.000    0.000 
#    0.000    0.000    0.000    1.125    0.000   15.250 
#
# Total GULP energy -178240.770116 kJ/mol
# GULP energy per Si atom -5570.024066 kJ/mol
# Density = 1.462039 g / cm^3
# Si number density = 14.653740 Si / 1000 Ang^3
#
#
#
# Elastic Constant Matrix: (Units=GPa)
#
#
# Indices 1 2 3 4 5 6 
#
# 1 43.6211 38.3376 54.4480 0.0000 -20.5123 0.0000
# 2 38.3376 71.7658 56.7150 0.0000 -22.6496 0.0000
# 3 54.4480 56.7150 117.0488 0.0000 -38.9513 0.0000
# 4 0.0000 0.0000 0.0000 25.2921 0.0000 -8.3821
# 5 -20.5123 -22.6496 -38.9513 0.0000 29.1358 0.0000
# 6 0.0000 0.0000 0.0000 -8.3821 0.0000 21.0602
#
#
#
# Elastic Compliance Matrix: (Units=1/GPa)
#
#
# Indices 1 2 3 4 5 6 
#
# 1 0.066904 -0.017567 -0.020681 0.000000 0.005798 0.000000
# 2 -0.017567 0.027652 -0.003944 0.000000 0.003857 0.000000
# 3 -0.020681 -0.003944 0.025597 0.000000 0.016595 0.000000
# 4 0.000000 0.000000 0.000000 0.045546 0.000000 0.018127
# 5 0.005798 0.003857 0.016595 0.000000 0.063587 0.000000
# 6 0.000000 0.000000 0.000000 0.018127 0.000000 0.054698
#
#
# Mechanical properties :
#
#
# Convention : Reuss Voigt Hill
#
# Bulk Modulus (GPa) = 27.95588 59.04856 43.50222
# Shear Modulus (GPa) = 13.14787 20.62661 16.88724
#
# Velocity S-wave (km/s) = 2.99864 3.75587 3.39841
# Velocity P-wave (km/s) = 5.57747 7.69364 6.71939
#
# Compressibility (1/GPa) = 0.03577065
#
# Stress axis : x y z
#
# Youngs Moduli (GPa) = 14.94678 36.16330 39.06769
#
# Poissons Ratio (x) = 0.63529 0.80794
# Poissons Ratio (y) = 0.26257 0.15406
# Poissons Ratio (z) = 0.30911 0.14261
#
# Static dielectric constant tensor:
#      x y z
#    x 1.459800 0.000000 -0.018220 
#    y 0.000000 1.486220 0.000000 
#    z -0.018220 0.000000 1.490220 
# 
# From -- ./inp_files/323775.got.cif
#   From: 2010.05.17/outbox.cif.g08.bks.cpg/sg12_162_cif.got.tgz:323775.got - 2010.06.03 13:09:07.
