data_PCOD9169699
_publ_section_title
;
Structure prediction by ZEFSAII (Michael W. Deem and Ramdas Pophale) SiO2 
 PCOD9169699
Probable space group: C 2/M
;
_chemical_formula_sum "Si O2"
_cell_formula_units_Z 48
_cell_length_a 28.978047
_cell_length_b 9.235445
_cell_length_c 12.490100
_cell_angle_alpha 90.000000
_cell_angle_beta 69.044738
_cell_angle_gamma 90.000000
_cell_volume 3121.581021
_symmetry_space_group_name_H-M "C 2/M"
_symmetry_group_IT_number 12
_symmetry_cell_setting 'monoclinic'
loop_
_space_group_symop_operation_xyz
x,y,z
-x,y,-z
-x,-y,-z
x,-y,z
1/2+x,1/2+y,z
1/2-x,1/2+y,-z
1/2-x,1/2-y,-z
1/2+x,1/2-y,z
loop_
_atom_site_type_symbol
_atom_site_label
_atom_site_fract_x
_atom_site_fract_y
_atom_site_fract_z
Si Si1 0.724346 0.326523 0.922152
Si Si2 0.750440 0.671852 0.662194
Si Si3 0.918878 0.171830 0.250574
Si Si4 0.389056 0.672005 0.027356
Si Si5 0.515486 0.166648 0.112918
Si Si6 0.170853 0.328512 0.578942
O O1 0.726847 0.500000 0.933357
O O2 0.749963 0.290721 0.787343
O O3 0.666498 0.287171 0.958071
O O4 0.750000 0.250000 0.000000
O O5 0.737687 0.500000 0.663478
O O6 0.801901 0.693978 0.557410
O O7 0.709063 0.762804 0.633956
O O8 0.897573 0.196340 0.147499
O O9 0.880606 0.247095 0.362334
O O10 0.972859 0.243774 0.207687
O O11 0.921545 0.000000 0.265001
O O12 0.395639 0.500000 0.004460
O O13 0.431065 0.758885 0.929398
O O14 0.516867 0.000000 0.146654
O O15 0.500000 0.168522 0.000000
O O16 0.164756 0.500000 0.601102
#
# Coordination Sequence:
#
# PCOD9169699 Si02
#       6
#     8   8   8   8   8   8
#     4  10  20  34  49  67  92 125 163 196 229 271
#     4   9  18  33  46  63  93 126 155 189 235 281
#     4  10  17  28  45  65  94 127 153 180 230 286
#     4   9  17  30  45  61  89 126 156 185 229 279
#     4   9  17  27  41  65  93 117 151 192 227 270
#     4  10  18  27  46  70  93 121 155 192 230 275
#
# _framework density 15.376823999999999
#
# number of rings (size 3 to 8) (size 9 to 14) (size 15 to 20)
#    0.000    2.500    1.667    1.500    0.000    4.667 
#    0.000    0.000    0.000    0.000    0.000    1.167 
#    0.000    9.333    0.000    0.000    0.000    0.000 
#
# Total GULP energy -133773.447821 kJ/mol
# GULP energy per Si atom -5573.893659 kJ/mol
# Density = 1.534183 g / cm^3
# Si number density = 15.376824 Si / 1000 Ang^3
#
#
#
# Elastic Constant Matrix: (Units=GPa)
#
#
# Indices 1 2 3 4 5 6 
#
# 1 83.8939 55.7897 66.0036 0.0000 -20.0823 0.0000
# 2 55.7897 74.7364 61.1414 0.0000 -23.4845 0.0000
# 3 66.0036 61.1414 105.1220 0.0000 -21.8268 0.0000
# 4 0.0000 0.0000 0.0000 23.9346 0.0000 -6.4231
# 5 -20.0823 -23.4845 -21.8268 0.0000 29.7708 0.0000
# 6 0.0000 0.0000 0.0000 -6.4231 0.0000 28.2130
#
#
#
# Elastic Compliance Matrix: (Units=1/GPa)
#
#
# Indices 1 2 3 4 5 6 
#
# 1 0.028893 -0.012267 -0.010580 0.000000 0.002057 0.000000
# 2 -0.012267 0.034141 -0.009768 0.000000 0.011495 0.000000
# 3 -0.010580 -0.009768 0.022123 0.000000 0.001377 0.000000
# 4 0.000000 0.000000 0.000000 0.044499 0.000000 0.010131
# 5 0.002057 0.011495 0.001377 0.000000 0.045056 0.000000
# 6 0.000000 0.000000 0.000000 0.010131 0.000000 0.037751
#
#
# Mechanical properties :
#
#
# Convention : Reuss Voigt Hill
#
# Bulk Modulus (GPa) = 50.18154 69.95798 60.06976
# Shear Modulus (GPa) = 17.58487 21.77151 19.67819
#
# Velocity S-wave (km/s) = 3.38538 3.76688 3.58121
# Velocity P-wave (km/s) = 6.92722 8.03204 7.50000
#
# Compressibility (1/GPa) = 0.01992764
#
# Stress axis : x y z
#
# Youngs Moduli (GPa) = 34.61013 29.29019 45.20212
#
# Poissons Ratio (x) = 0.35930 0.47822
# Poissons Ratio (y) = 0.42456 0.44155
# Poissons Ratio (z) = 0.36616 0.28612
#
# Static dielectric constant tensor:
#      x y z
#    x 1.489020 0.000000 -0.026260 
#    y 0.000000 1.514010 0.000000 
#    z -0.026260 0.000000 1.506670 
# 
# From -- ./inp_files/179223.got.cif
#   From: 2010.05.17/outbox.cif.g08.bks.cpg/sg12_90_cif.got.tgz:179223.got - 2010.06.03 13:09:07.
