data_PCOD9169338
_publ_section_title
;
Structure prediction by ZEFSAII (Michael W. Deem and Ramdas Pophale) SiO2 
 PCOD9169338
Probable space group: C 2/M
;
_chemical_formula_sum "Si O2"
_cell_formula_units_Z 32
_cell_length_a 23.934862
_cell_length_b 8.338733
_cell_length_c 12.036072
_cell_angle_alpha 90.000000
_cell_angle_beta 45.831722
_cell_angle_gamma 90.000000
_cell_volume 1723.115845
_symmetry_space_group_name_H-M "C 2/M"
_symmetry_group_IT_number 12
_symmetry_cell_setting 'monoclinic'
loop_
_space_group_symop_operation_xyz
x,y,z
-x,y,-z
-x,-y,-z
x,-y,z
1/2+x,1/2+y,z
1/2-x,1/2+y,-z
1/2-x,1/2-y,-z
1/2+x,1/2-y,z
loop_
_atom_site_type_symbol
_atom_site_label
_atom_site_fract_x
_atom_site_fract_y
_atom_site_fract_z
Si Si1 0.894189 0.687188 0.081165
Si Si2 0.057750 0.811849 0.765079
Si Si3 0.820918 0.808028 0.976344
Si Si4 0.487070 0.695725 0.643136
O O1 0.911730 0.500000 0.043771
O O2 0.887715 0.725866 0.220602
O O3 0.824812 0.735571 0.095039
O O4 0.969356 0.786137 0.933346
O O5 0.050226 0.752876 0.648480
O O6 0.075741 0.000000 0.740897
O O7 0.901498 0.757436 0.804563
O O8 0.820232 0.000000 0.985466
O O9 0.750000 0.750000 0.000000
O O10 0.500000 0.751515 0.500000
O O11 0.489260 0.500000 0.640042
#
# Coordination Sequence:
#
# PCOD9169338 Si02
#       4
#     8   8   8   8
#     4  10  17  26  42  64  91 119 151 189 226 266
#     4   9  15  25  43  66  91 117 149 189 229 267
#     4  10  19  31  48  69  94 121 151 187 227 272
#     4   8  15  28  47  70  93 119 150 184 225 271
#
# _framework density 18.571009
#
# number of rings (size 3 to 8) (size 9 to 14) (size 15 to 20)
#    0.000    2.750    0.000    6.750    0.000    0.000 
#    0.000    0.000    0.000   28.500    0.000    0.000 
#    0.000    0.000    0.000    0.000    0.000    0.000 
#
# Total GULP energy -89093.703578 kJ/mol
# GULP energy per Si atom -5568.356474 kJ/mol
# Density = 1.852874 g / cm^3
# Si number density = 18.571009 Si / 1000 Ang^3
#
#
#
# Elastic Constant Matrix: (Units=GPa)
#
#
# Indices 1 2 3 4 5 6 
#
# 1 184.9333 22.1456 48.6123 0.0000 48.3130 0.0000
# 2 22.1456 34.3710 6.9211 0.0000 4.9059 0.0000
# 3 48.6123 6.9211 46.6189 0.0000 33.1828 0.0000
# 4 0.0000 0.0000 0.0000 -1.2834 0.0000 3.5448
# 5 48.3130 4.9059 33.1828 0.0000 35.1108 0.0000
# 6 0.0000 0.0000 0.0000 3.5448 0.0000 31.6749
#
#
#
# Elastic Compliance Matrix: (Units=1/GPa)
#
#
# Indices 1 2 3 4 5 6 
#
# 1 0.008995 -0.004034 -0.001136 0.000000 -0.010739 0.000000
# 2 -0.004034 0.031800 -0.003981 0.000000 0.004869 0.000000
# 3 -0.001136 -0.003981 0.066354 0.000000 -0.060591 0.000000
# 4 0.000000 0.000000 0.000000 -0.595216 0.000000 0.066612
# 5 -0.010739 0.004869 -0.060591 0.000000 0.099842 0.000000
# 6 0.000000 0.000000 0.000000 0.066612 0.000000 0.024116
#
#
# Mechanical properties :
#
#
# Convention : Reuss Voigt Hill
#
# Bulk Modulus (GPa) = 11.25530 46.80903 29.03217
# Shear Modulus (GPa) = -15.81319 25.65006 4.91843
#
# Velocity S-wave (km/s) = -2.92121 3.72047 1.62917
# Velocity P-wave (km/s) = 2.30307 6.61181 4.38246
#
# Compressibility (1/GPa) = 0.08884700
#
# Stress axis : x y z
#
# Youngs Moduli (GPa) = 111.17677 31.44672 15.07061
#
# Poissons Ratio (x) = 0.12685 0.01713
# Poissons Ratio (y) = 0.44845 0.05999
# Poissons Ratio (z) = 0.12634 0.12518
#
# Static dielectric constant tensor:
#      x y z
#    x 1.699090 0.000000 0.051190 
#    y 0.000000 1.623760 0.000000 
#    z 0.051190 0.000000 1.655170 
# 
# From -- ./inp_files/150878.got.cif
#   From: 2010.05.17/outbox.cif.g08.bks.cpg/sg12_76_cif.got.tgz:150878.got - 2010.06.03 13:09:07.
