data_PCOD9169432
_publ_section_title
;
Structure prediction by ZEFSAII (Michael W. Deem and Ramdas Pophale) SiO2 
 PCOD9169432
Probable space group: C 2/M
;
_chemical_formula_sum "Si O2"
_cell_formula_units_Z 52
_cell_length_a 23.776517
_cell_length_b 7.687378
_cell_length_c 21.399929
_cell_angle_alpha 90.000000
_cell_angle_beta 39.028409
_cell_angle_gamma 90.000000
_cell_volume 2463.067944
_symmetry_space_group_name_H-M "C 2/M"
_symmetry_group_IT_number 12
_symmetry_cell_setting 'monoclinic'
loop_
_space_group_symop_operation_xyz
x,y,z
-x,y,-z
-x,-y,-z
x,-y,z
1/2+x,1/2+y,z
1/2-x,1/2+y,-z
1/2-x,1/2-y,-z
1/2+x,1/2-y,z
loop_
_atom_site_type_symbol
_atom_site_label
_atom_site_fract_x
_atom_site_fract_y
_atom_site_fract_z
Si Si1 0.753814 0.289103 0.828676
Si Si2 0.285243 0.290744 0.400303
Si Si3 0.500000 0.743724 0.500000
Si Si4 0.665685 0.709721 0.028310
Si Si5 0.017007 0.790162 0.751428
Si Si6 0.041014 0.705782 0.334213
Si Si7 0.292007 0.801794 0.661244
O O1 0.745661 0.500000 0.832345
O O2 0.854494 0.256461 0.766193
O O3 0.750411 0.221047 0.760430
O O4 0.687156 0.225951 0.939712
O O5 0.283519 0.500000 0.399752
O O6 0.250000 0.250000 0.500000
O O7 0.387747 0.230366 0.305110
O O8 0.229791 0.225131 0.387915
O O9 0.491213 0.683082 0.579189
O O10 0.398143 0.813476 0.581888
O O11 0.659978 0.500000 0.030392
O O12 0.572325 0.775285 0.137111
O O13 0.750000 0.750000 0.000000
O O14 0.010785 0.739020 0.684351
O O15 0.015618 0.000000 0.756010
O O16 0.031060 0.500000 0.360002
O O17 0.258026 0.000000 0.688848
#
# Coordination Sequence:
#
# PCOD9169432 Si02
#       7
#     8   8   4   8   8   8   8
#     4   8  15  27  46  72  97 122 160 207 244 282
#     4  10  21  36  52  72 100 135 168 202 245 296
#     4  10  17  26  47  76  95 116 161 218 253 276
#     4  10  18  31  50  74 103 131 162 205 250 294
#     4  10  21  33  47  72 106 133 159 200 252 299
#     4  10  17  28  48  73  97 126 166 204 242 291
#     4   9  16  28  46  69  97 125 160 205 249 287
#
# _framework density 21.111882000000001
#
# number of rings (size 3 to 8) (size 9 to 14) (size 15 to 20)
#    0.000    2.462    1.538    3.231    0.000    1.846 
#    0.000    1.154    0.000    9.231    0.000    0.000 
#    0.000    3.692    0.000    0.000    0.000    0.000 
#
# Total GULP energy -144742.898473 kJ/mol
# GULP energy per Si atom -5567.034557 kJ/mol
# Density = 2.106383 g / cm^3
# Si number density = 21.111882 Si / 1000 Ang^3
#
#
#
# Elastic Constant Matrix: (Units=GPa)
#
#
# Indices 1 2 3 4 5 6 
#
# 1 159.9758 7.7254 72.0628 -0.0004 20.6951 0.0001
# 2 7.7254 42.8134 13.4493 0.0019 -1.0486 0.0016
# 3 72.0628 13.4493 154.6696 0.0035 20.5141 -0.0012
# 4 -0.0004 0.0019 0.0035 11.2468 -0.0001 13.1524
# 5 20.6951 -1.0486 20.5141 -0.0001 35.5035 -0.0008
# 6 0.0001 0.0016 -0.0012 13.1524 -0.0008 23.3128
#
#
#
# Elastic Compliance Matrix: (Units=1/GPa)
#
#
# Indices 1 2 3 4 5 6 
#
# 1 0.008165 -0.000478 -0.003389 0.000005 -0.002815 -0.000003
# 2 -0.000478 0.024183 -0.002179 -0.000004 0.002252 0.000001
# 3 -0.003389 -0.002179 0.008643 -0.000009 -0.003083 0.000006
# 4 0.000005 -0.000004 -0.000009 0.261331 -0.000001 -0.147435
# 5 -0.002815 0.002252 -0.003083 -0.000001 0.031655 0.000001
# 6 -0.000003 0.000001 0.000006 -0.147435 0.000001 0.126074
#
#
# Mechanical properties :
#
#
# Convention : Reuss Voigt Hill
#
# Bulk Modulus (GPa) = 34.60311 60.43708 47.52009
# Shear Modulus (GPa) = 10.37830 31.62736 21.00283
#
# Velocity S-wave (km/s) = 2.21958 3.87471 3.15752
# Velocity P-wave (km/s) = 4.79527 6.97904 5.98756
#
# Compressibility (1/GPa) = 0.02889914
#
# Stress axis : x y z
#
# Youngs Moduli (GPa) = 122.47546 41.35142 115.70302
#
# Poissons Ratio (x) = 0.01975 0.39215
# Poissons Ratio (y) = 0.05849 0.25211
# Poissons Ratio (z) = 0.41510 0.09010
#
# Static dielectric constant tensor:
#      x y z
#    x 1.740870 0.000000 0.028520 
#    y 0.000000 1.839950 0.000000 
#    z 0.028520 0.000000 1.774290 
# 
# From -- ./inp_files/324045.got.cif
#   From: 2010.05.17/outbox.cif.g08.bks.cpg/sg12_163_cif.got.tgz:324045.got - 2010.06.03 13:09:07.
