data_PCOD9169309
_publ_section_title
;
Structure prediction by ZEFSAII (Michael W. Deem and Ramdas Pophale) SiO2 
 PCOD9169309
Probable space group: C 2/M
;
_chemical_formula_sum "Si O2"
_cell_formula_units_Z 56
_cell_length_a 25.185693
_cell_length_b 9.159886
_cell_length_c 18.101719
_cell_angle_alpha 90.000000
_cell_angle_beta 116.111821
_cell_angle_gamma 90.000000
_cell_volume 3749.812554
_symmetry_space_group_name_H-M "C 2/M"
_symmetry_group_IT_number 12
_symmetry_cell_setting 'monoclinic'
loop_
_space_group_symop_operation_xyz
x,y,z
-x,y,-z
-x,-y,-z
x,-y,z
1/2+x,1/2+y,z
1/2-x,1/2+y,-z
1/2-x,1/2-y,-z
1/2+x,1/2-y,z
loop_
_atom_site_type_symbol
_atom_site_label
_atom_site_fract_x
_atom_site_fract_y
_atom_site_fract_z
Si Si1 0.713694 0.826574 0.867932
Si Si2 0.191100 0.668392 0.554674
Si Si3 0.353445 0.174320 0.766561
Si Si4 0.067087 0.322495 0.046926
Si Si5 0.332175 0.668091 0.605126
Si Si6 0.284893 0.673442 0.282165
Si Si7 0.331299 0.825598 0.001067
O O1 0.695176 0.747629 0.781533
O O2 0.776947 0.760699 0.931340
O O3 0.718617 0.000000 0.859239
O O4 0.671516 0.800725 0.912852
O O5 0.173313 0.500000 0.551340
O O6 0.261453 0.670084 0.578707
O O7 0.159809 0.745627 0.466323
O O8 0.185491 0.755305 0.627680
O O9 0.398809 0.222767 0.857708
O O10 0.361108 0.255033 0.693551
O O11 0.286109 0.199668 0.753158
O O12 0.359216 0.000000 0.759195
O O13 0.065319 0.500000 0.047767
O O14 0.108313 0.283587 0.002614
O O15 0.000000 0.269362 0.000000
O O16 0.350130 0.500000 0.609056
O O17 0.293866 0.500000 0.286421
O O18 0.321527 0.000000 0.982747
#
# Coordination Sequence:
#
# PCOD9169309 Si02
#       7
#     8   8   8   8   8   8   8
#     4  10  18  26  41  61  84 111 141 175 212 255
#     4   9  16  25  37  56  81 108 139 170 204 246
#     4   9  16  26  40  57  78 107 141 176 210 247
#     4   9  16  28  46  64  82 108 145 185 219 249
#     4   9  16  25  37  54  78 109 140 169 204 247
#     4  10  17  26  40  58  84 112 141 173 207 250
#     4   9  17  30  43  60  82 108 142 179 216 253
#
# _framework density 14.93408
#
# number of rings (size 3 to 8) (size 9 to 14) (size 15 to 20)
#    0.000    2.714    1.429    1.714    0.000    4.571 
#    0.000    0.000    0.000    1.714    0.000    0.000 
#    0.000    1.143    0.000   13.429    0.000    3.143 
#
# Total GULP energy -155961.171214 kJ/mol
# GULP energy per Si atom -5570.041829 kJ/mol
# Density = 1.490009 g / cm^3
# Si number density = 14.934080 Si / 1000 Ang^3
#
#
#
# Elastic Constant Matrix: (Units=GPa)
#
#
# Indices 1 2 3 4 5 6 
#
# 1 66.6016 33.0347 57.6493 0.0000 -13.0110 0.0000
# 2 33.0347 70.1617 63.9453 0.0000 -20.9036 0.0000
# 3 57.6493 63.9453 128.0744 0.0000 -33.3974 0.0000
# 4 0.0000 0.0000 0.0000 26.4533 0.0000 -7.6543
# 5 -13.0110 -20.9036 -33.3974 0.0000 23.2155 0.0000
# 6 0.0000 0.0000 0.0000 -7.6543 0.0000 11.0208
#
#
#
# Elastic Compliance Matrix: (Units=1/GPa)
#
#
# Indices 1 2 3 4 5 6 
#
# 1 0.025165 -0.003292 -0.010849 0.000000 -0.004467 0.000000
# 2 -0.003292 0.027456 -0.010020 0.000000 0.008463 0.000000
# 3 -0.010849 -0.010020 0.022014 0.000000 0.016567 0.000000
# 4 0.000000 0.000000 0.000000 0.047310 0.000000 0.032858
# 5 -0.004467 0.008463 0.016567 0.000000 0.072024 0.000000
# 6 0.000000 0.000000 0.000000 0.032858 0.000000 0.113558
#
#
# Mechanical properties :
#
#
# Convention : Reuss Voigt Hill
#
# Bulk Modulus (GPa) = 38.00224 63.78848 50.89536
# Shear Modulus (GPa) = 13.71291 19.48517 16.59904
#
# Velocity S-wave (km/s) = 3.03352 3.61604 3.33751
# Velocity P-wave (km/s) = 6.14586 7.76147 7.00043
#
# Compressibility (1/GPa) = 0.02631424
#
# Stress axis : x y z
#
# Youngs Moduli (GPa) = 39.73720 36.42168 45.42572
#
# Poissons Ratio (x) = 0.11991 0.49281
# Poissons Ratio (y) = 0.13082 0.45515
# Poissons Ratio (z) = 0.43110 0.36493
#
# Static dielectric constant tensor:
#      x y z
#    x 1.475090 0.000000 -0.020350 
#    y 0.000000 1.498640 0.000000 
#    z -0.020350 0.000000 1.492480 
# 
# From -- ./inp_files/287922.got.cif
#   From: 2010.05.17/outbox.cif.g08.bks.cpg/sg12_144_cif.got.tgz:287922.got - 2010.06.03 13:09:07.
