data_PCOD9169238
_publ_section_title
;
Structure prediction by ZEFSAII (Michael W. Deem and Ramdas Pophale) SiO2 
 PCOD9169238
Probable space group: C 2/M
;
_chemical_formula_sum "Si O2"
_cell_formula_units_Z 64
_cell_length_a 19.922740
_cell_length_b 7.538226
_cell_length_c 23.776175
_cell_angle_alpha 90.000000
_cell_angle_beta 62.603045
_cell_angle_gamma 90.000000
_cell_volume 3170.259696
_symmetry_space_group_name_H-M "C 2/M"
_symmetry_group_IT_number 12
_symmetry_cell_setting 'monoclinic'
loop_
_space_group_symop_operation_xyz
x,y,z
-x,y,-z
-x,-y,-z
x,-y,z
1/2+x,1/2+y,z
1/2-x,1/2+y,-z
1/2-x,1/2-y,-z
1/2+x,1/2-y,z
loop_
_atom_site_type_symbol
_atom_site_label
_atom_site_fract_x
_atom_site_fract_y
_atom_site_fract_z
Si Si1 0.554904 0.290108 0.431033
Si Si2 0.687861 0.703929 0.903599
Si Si3 0.180876 0.287082 0.222045
Si Si4 0.782242 0.786861 0.663662
Si Si5 0.058491 0.214317 0.026218
Si Si6 0.516747 0.785227 0.318789
Si Si7 0.427191 0.791967 0.149976
Si Si8 0.882833 0.282853 0.291625
O O1 0.500000 0.215204 0.500000
O O2 0.562829 0.500000 0.439367
O O3 0.640228 0.216375 0.393239
O O4 0.520172 0.269063 0.382386
O O5 0.705007 0.500000 0.911601
O O6 0.763811 0.784495 0.847831
O O7 0.627030 0.703468 0.875576
O O8 0.640648 0.780439 0.974538
O O9 0.178802 0.500000 0.216399
O O10 0.215669 0.251252 0.270352
O O11 0.094507 0.222962 0.259017
O O12 0.703545 0.723335 0.668233
O O13 0.783454 0.000000 0.658106
O O14 0.015021 0.269068 0.099155
O O15 0.060796 0.000000 0.024539
O O16 0.000000 0.273532 0.000000
O O17 0.442558 0.723534 0.314951
O O18 0.518062 0.000000 0.316968
O O19 0.410122 0.728042 0.219044
O O20 0.408714 0.000000 0.154484
O O21 0.883147 0.500000 0.292124
#
# Coordination Sequence:
#
# PCOD9169238 Si02
#       8
#     8   8   8   8   8   8   8   8
#     4   9  18  33  52  72  94 120 149 181 218 261
#     4   9  16  26  40  60  86 113 145 186 230 268
#     4   9  16  27  45  67  87 112 150 193 227 257
#     4   9  16  29  48  67  90 120 150 180 219 265
#     4   8  15  26  37  54  84 117 146 181 226 270
#     4   9  18  32  49  69  93 119 150 184 219 264
#     4  10  17  25  40  62  86 114 149 184 222 265
#     4   9  17  29  45  67  93 120 148 182 226 269
#
# _framework density 20.187622000000001
#
# number of rings (size 3 to 8) (size 9 to 14) (size 15 to 20)
#    0.000    3.000    1.250    1.125    0.000    2.500 
#    0.000    2.500    0.000    0.750    0.000    0.000 
#    0.000    0.000    0.000    0.000    0.000    1.250 
#
# Total GULP energy -178315.580665 kJ/mol
# GULP energy per Si atom -5572.361896 kJ/mol
# Density = 2.014167 g / cm^3
# Si number density = 20.187622 Si / 1000 Ang^3
#
#
#
# Elastic Constant Matrix: (Units=GPa)
#
#
# Indices 1 2 3 4 5 6 
#
# 1 114.2941 -4.6072 57.7724 -0.0005 -25.1990 0.0020
# 2 -4.6072 52.5395 0.5210 -0.0006 -4.7912 0.0019
# 3 57.7724 0.5210 134.3692 -0.0001 -38.5981 -0.0004
# 4 -0.0005 -0.0006 -0.0001 18.6300 0.0000 0.9548
# 5 -25.1990 -4.7912 -38.5981 0.0000 21.8352 0.0004
# 6 0.0020 0.0019 -0.0004 0.9548 0.0004 9.1942
#
#
#
# Elastic Compliance Matrix: (Units=1/GPa)
#
#
# Indices 1 2 3 4 5 6 
#
# 1 0.012327 0.002085 -0.002215 0.000001 0.010768 -0.000004
# 2 0.002085 0.020142 0.002004 0.000001 0.010367 -0.000005
# 3 -0.002215 0.002004 0.015803 0.000000 0.025819 0.000000
# 4 0.000001 0.000001 0.000000 0.053964 0.000001 -0.005604
# 5 0.010768 0.010367 0.025819 0.000001 0.106139 -0.000008
# 6 -0.000004 -0.000005 0.000000 -0.005604 -0.000008 0.109346
#
#
# Mechanical properties :
#
#
# Convention : Reuss Voigt Hill
#
# Bulk Modulus (GPa) = 19.22373 45.39725 32.31049
# Shear Modulus (GPa) = 15.09142 26.43298 20.76220
#
# Velocity S-wave (km/s) = 2.73712 3.62244 3.21044
# Velocity P-wave (km/s) = 4.41953 6.32713 5.45733
#
# Compressibility (1/GPa) = 0.05201905
#
# Stress axis : x y z
#
# Youngs Moduli (GPa) = 81.12191 49.64833 63.27786
#
# Poissons Ratio (x) = -0.10351 0.14016
# Poissons Ratio (y) = -0.16913 -0.12678
# Poissons Ratio (z) = 0.17968 -0.09947
#
# Static dielectric constant tensor:
#      x y z
#    x 1.708880 0.000000 -0.059760 
#    y 0.000000 1.753050 0.000000 
#    z -0.059760 0.000000 1.737460 
# 
# From -- ./inp_files/345517.got.cif
#   From: 2010.05.17/outbox.cif.g08.bks.cpg/sg12_173_cif.got.tgz:345517.got - 2010.06.03 13:09:07.
