data_PCOD9169697
_publ_section_title
;
Structure prediction by ZEFSAII (Michael W. Deem and Ramdas Pophale) SiO2 
 PCOD9169697
Probable space group: C 2/M
;
_chemical_formula_sum "Si O2"
_cell_formula_units_Z 64
_cell_length_a 8.675020
_cell_length_b 31.279315
_cell_length_c 15.801311
_cell_angle_alpha 90.000000
_cell_angle_beta 90.000014
_cell_angle_gamma 90.000000
_cell_volume 4287.664933
_symmetry_space_group_name_H-M "C 2/M"
_symmetry_group_IT_number 12
_symmetry_cell_setting 'monoclinic'
loop_
_space_group_symop_operation_xyz
x,y,z
-x,y,-z
-x,-y,-z
x,-y,z
1/2+x,1/2+y,z
1/2-x,1/2+y,-z
1/2-x,1/2-y,-z
1/2+x,1/2-y,z
loop_
_atom_site_type_symbol
_atom_site_label
_atom_site_fract_x
_atom_site_fract_y
_atom_site_fract_z
Si Si1 0.566557 0.117226 0.094703
Si Si2 0.065670 0.793796 0.096056
Si Si3 0.434706 0.949664 0.413169
Si Si4 0.065293 0.050336 0.413169
Si Si5 0.935764 0.550791 0.225495
Si Si6 0.934330 0.706204 0.096056
Si Si7 0.435764 0.449209 0.774505
Si Si8 0.433443 0.617226 0.094703
O O1 0.518054 0.078163 0.154021
O O2 0.494416 0.161233 0.131505
O O3 0.750000 0.121686 0.089111
O O4 0.500000 0.111003 0.000000
O O5 0.000000 0.750000 0.135425
O O6 0.005584 0.838767 0.131505
O O7 0.250000 0.792609 0.094116
O O8 0.000000 0.794344 0.000000
O O9 0.500000 0.930496 0.500000
O O10 0.250000 0.947581 0.416749
O O11 0.482243 0.933803 0.320168
O O12 0.478457 0.000000 0.412609
O O13 0.017757 0.066197 0.320167
O O14 0.000000 0.069504 0.500000
O O15 0.021540 0.000000 0.412609
O O16 0.968305 0.500000 0.218479
O O17 0.750000 0.555562 0.218073
O O18 0.000000 0.705655 0.000000
O O19 0.468305 0.500000 0.781521
O O20 0.518054 0.421837 0.845979
O O21 0.500000 0.611003 0.000000
#
# Coordination Sequence:
#
# PCOD9169697 Si02
#       8
#     8   8   8   8   8   8   8   8
#     4  11  21  32  45  62  85 115 150 184 218 256
#     4  10  17  28  45  64  85 108 137 174 217 260
#     4   8  14  25  42  62  83 107 136 173 217 260
#     4   8  14  25  42  62  83 107 136 173 217 260
#     4   9  18  32  46  61  85 117 150 183 218 255
#     4  10  17  28  45  64  85 108 137 174 217 260
#     4   9  18  32  46  61  85 117 150 183 218 255
#     4  11  21  32  45  62  85 115 150 184 218 256
#
# _framework density 14.926539
#
# number of rings (size 3 to 8) (size 9 to 14) (size 15 to 20)
#    0.000    2.500    0.000    8.250    0.000    2.000 
#    0.000    2.500    0.000    0.000    0.000    0.000 
#    0.000    1.000    0.000   10.500    0.000    6.250 
#
# Total GULP energy -178151.997504 kJ/mol
# GULP energy per Si atom -5567.249922 kJ/mol
# Density = 1.489257 g / cm^3
# Si number density = 14.926539 Si / 1000 Ang^3
#
#
#
# Elastic Constant Matrix: (Units=GPa)
#
#
# Indices 1 2 3 4 5 6 
#
# 1 99.9538 39.8647 36.8741 0.0000 0.0000 0.0000
# 2 39.8647 67.3500 39.5074 0.0000 0.0000 0.0000
# 3 36.8741 39.5074 84.0262 0.0000 -0.0001 0.0000
# 4 0.0000 0.0000 0.0000 -0.9604 0.0000 0.0001
# 5 0.0000 0.0000 -0.0001 0.0000 21.6913 0.0000
# 6 0.0000 0.0000 0.0000 0.0001 0.0000 31.7013
#
#
#
# Elastic Compliance Matrix: (Units=1/GPa)
#
#
# Indices 1 2 3 4 5 6 
#
# 1 0.013630 -0.006295 -0.003022 0.000000 0.000000 0.000000
# 2 -0.006295 0.023410 -0.008244 0.000000 0.000000 0.000000
# 3 -0.003022 -0.008244 0.017103 0.000000 0.000000 0.000000
# 4 0.000000 0.000000 0.000000 -1.041189 0.000000 0.000003
# 5 0.000000 0.000000 0.000000 0.000000 0.046101 0.000000
# 6 0.000000 0.000000 0.000000 0.000003 0.000000 0.031544
#
#
# Mechanical properties :
#
#
# Convention : Reuss Voigt Hill
#
# Bulk Modulus (GPa) = 52.57274 53.75804 53.16539
# Shear Modulus (GPa) = -5.76079 19.49201 6.86561
#
# Velocity S-wave (km/s) = -1.96667 3.61759 2.14699
# Velocity P-wave (km/s) = 5.49002 7.31728 6.46850
#
# Compressibility (1/GPa) = 0.01902126
#
# Stress axis : x y z
#
# Youngs Moduli (GPa) = 73.36741 42.71661 58.46815
#
# Poissons Ratio (x) = 0.26891 0.17666
# Poissons Ratio (y) = 0.46187 0.48203
# Poissons Ratio (z) = 0.22168 0.35217
#
# Static dielectric constant tensor:
#      x y z
#    x 1.499720 0.000000 0.000000 
#    y 0.000000 1.520280 0.000000 
#    z 0.000000 0.000000 1.507200 
# 
# From -- ./inp_files/200603.got.cif
#   From: 2010.05.17/outbox.cif.g08.bks.cpg/sg12_101_cif.got.tgz:200603.got - 2010.06.03 13:09:07.
