data_PCOD9169501
_publ_section_title
;
Structure prediction by ZEFSAII (Michael W. Deem and Ramdas Pophale) SiO2 
 PCOD9169501
Probable space group: C 2/M
;
_chemical_formula_sum "Si O2"
_cell_formula_units_Z 56
_cell_length_a 13.454385
_cell_length_b 14.334209
_cell_length_c 11.677254
_cell_angle_alpha 90.000000
_cell_angle_beta 89.568326
_cell_angle_gamma 90.000000
_cell_volume 2251.987545
_symmetry_space_group_name_H-M "C 2/M"
_symmetry_group_IT_number 12
_symmetry_cell_setting 'monoclinic'
loop_
_space_group_symop_operation_xyz
x,y,z
-x,y,-z
-x,-y,-z
x,-y,z
1/2+x,1/2+y,z
1/2-x,1/2+y,-z
1/2-x,1/2-y,-z
1/2+x,1/2-y,z
loop_
_atom_site_type_symbol
_atom_site_label
_atom_site_fract_x
_atom_site_fract_y
_atom_site_fract_z
Si Si1 0.255486 0.610566 0.480426
Si Si2 0.699144 0.112206 0.244381
Si Si3 0.356771 0.101994 0.992985
Si Si4 0.657575 0.392014 0.293492
Si Si5 0.036538 0.187346 0.612358
Si Si6 0.378752 0.605069 0.957791
Si Si7 0.111335 0.771748 0.840719
O O1 0.248750 0.500000 0.495697
O O2 0.178478 0.634657 0.378591
O O3 0.264700 0.648359 0.611579
O O4 0.361155 0.636658 0.421855
O O5 0.785107 0.184473 0.205243
O O6 0.728944 0.000000 0.242351
O O7 0.620454 0.118893 0.141354
O O8 0.237052 0.100355 0.001656
O O9 0.385592 0.183012 0.078131
O O10 0.392343 0.000000 0.028244
O O11 0.686544 0.500000 0.272976
O O12 0.550459 0.385523 0.355640
O O13 0.637442 0.348895 0.168035
O O14 0.051562 0.245650 0.726215
O O15 0.000000 0.239997 0.500000
O O16 0.412733 0.500000 0.937370
O O17 0.428319 0.649028 0.071643
#
# Coordination Sequence:
#
# PCOD9169501 Si02
#       7
#     8   8   8   8   8   8   8
#     4   8  13  22  37  57  84 118 146 162 185 231
#     4   8  13  22  39  62  84 106 134 165 198 241
#     4   9  17  29  45  63  81 105 142 183 215 247
#     4   9  16  25  38  61  94 122 138 158 195 250
#     4   9  17  27  40  58  81 112 149 176 196 232
#     4   9  17  27  41  66  95 115 132 160 207 262
#     4  10  17  27  44  60  82 113 141 174 212 246
#
# _framework density 24.866921999999999
#
# number of rings (size 3 to 8) (size 9 to 14) (size 15 to 20)
#    0.000    3.143    0.000    3.429    0.000    4.000 
#    0.000    1.429    0.000   14.143    0.000    2.000 
#    0.000    0.000    0.000    0.000    0.000    0.000 
#
# Total GULP energy -155947.694581 kJ/mol
# GULP energy per Si atom -5569.560521 kJ/mol
# Density = 2.481032 g / cm^3
# Si number density = 24.866922 Si / 1000 Ang^3
#
#
#
# Elastic Constant Matrix: (Units=GPa)
#
#
# Indices 1 2 3 4 5 6 
#
# 1 19.3947 -13.4814 1.7990 0.0000 -8.0905 0.0000
# 2 -13.4814 104.1053 70.8337 0.0000 10.4806 0.0000
# 3 1.7990 70.8337 285.6658 0.0000 31.9638 0.0000
# 4 0.0000 0.0000 0.0000 27.2356 0.0000 -4.2438
# 5 -8.0905 10.4806 31.9638 0.0000 24.0193 0.0000
# 6 0.0000 0.0000 0.0000 -4.2438 0.0000 13.5513
#
#
#
# Elastic Compliance Matrix: (Units=1/GPa)
#
#
# Indices 1 2 3 4 5 6 
#
# 1 0.070958 0.010609 -0.006150 0.000000 0.027455 0.000000
# 2 0.010609 0.013184 -0.003633 0.000000 0.002655 0.000000
# 3 -0.006150 -0.003633 0.005281 0.000000 -0.007514 0.000000
# 4 0.000000 0.000000 0.000000 0.038600 0.000000 0.012088
# 5 0.027455 0.002655 -0.007514 0.000000 0.059721 0.000000
# 6 0.000000 0.000000 0.000000 0.012088 0.000000 0.077579
#
#
# Mechanical properties :
#
#
# Convention : Reuss Voigt Hill
#
# Bulk Modulus (GPa) = 10.97983 58.60761 34.79372
# Shear Modulus (GPa) = 17.00506 36.29552 26.65029
#
# Velocity S-wave (km/s) = 2.61788 3.82460 3.27726
# Velocity P-wave (km/s) = 3.68276 6.56682 5.32381
#
# Compressibility (1/GPa) = 0.09107608
#
# Stress axis : x y z
#
# Youngs Moduli (GPa) = 14.09281 75.84876 189.36172
#
# Poissons Ratio (x) = -0.80468 1.16448
# Poissons Ratio (y) = -0.14951 0.68796
# Poissons Ratio (z) = 0.08666 0.27556
#
# Static dielectric constant tensor:
#      x y z
#    x 2.049040 0.000000 0.062020 
#    y 0.000000 2.005510 0.000000 
#    z 0.062020 0.000000 2.075070 
# 
# From -- ./inp_files/156147.got.cif
#   From: 2010.05.17/outbox.cif.g08.bks.cpg/sg12_79_cif.got.tgz:156147.got - 2010.06.03 13:09:07.
