data_PCOD9169615
_publ_section_title
;
Structure prediction by ZEFSAII (Michael W. Deem and Ramdas Pophale) SiO2 
 PCOD9169615
Probable space group: C 2/M
;
_chemical_formula_sum "Si O2"
_cell_formula_units_Z 56
_cell_length_a 23.389000
_cell_length_b 13.468059
_cell_length_c 20.132799
_cell_angle_alpha 90.000000
_cell_angle_beta 148.960614
_cell_angle_gamma 90.000000
_cell_volume 3270.066816
_symmetry_space_group_name_H-M "C 2/M"
_symmetry_group_IT_number 12
_symmetry_cell_setting 'monoclinic'
loop_
_space_group_symop_operation_xyz
x,y,z
-x,y,-z
-x,-y,-z
x,-y,z
1/2+x,1/2+y,z
1/2-x,1/2+y,-z
1/2-x,1/2-y,-z
1/2+x,1/2-y,z
loop_
_atom_site_type_symbol
_atom_site_label
_atom_site_fract_x
_atom_site_fract_y
_atom_site_fract_z
Si Si1 0.871243 0.115612 0.618814
Si Si2 0.948778 0.384862 0.191082
Si Si3 0.162402 0.692344 0.334142
Si Si4 0.576015 0.391850 0.511556
Si Si5 0.795205 0.619055 0.911591
Si Si6 0.166850 0.385431 0.197173
Si Si7 0.561114 0.705132 0.726626
O O1 0.841232 0.192685 0.647723
O O2 0.781707 0.145029 0.472068
O O3 0.996180 0.141472 0.718674
O O4 0.860482 0.000000 0.624037
O O5 0.933505 0.500000 0.191963
O O6 0.920398 0.312139 0.223056
O O7 0.074364 0.363180 0.293616
O O8 0.874309 0.360241 0.052604
O O9 0.128443 0.673552 0.224121
O O10 0.500000 0.396069 0.500000
O O11 0.562646 0.500000 0.462585
O O12 0.700600 0.385413 0.660342
O O13 0.528874 0.302136 0.421546
O O14 0.783103 0.500000 0.892628
O O15 0.846983 0.651930 0.892105
O O16 0.674745 0.661911 0.810413
O O17 0.126630 0.500000 0.162428
#
# Coordination Sequence:
#
# PCOD9169615 Si02
#       7
#     8   8   8   8   8   8   8
#     4  10  19  31  50  74  99 127 162 204 245 286
#     4  10  22  36  48  68 103 139 168 195 231 291
#     4  10  20  32  48  72 101 132 162 196 242 294
#     4  10  17  27  47  78 105 120 147 203 261 295
#     4  10  20  33  51  76 101 128 161 202 249 292
#     4  10  18  29  49  75 102 126 155 200 251 296
#     4  11  19  31  53  76  99 125 163 206 251 286
#
# _framework density 17.125032999999998
#
# number of rings (size 3 to 8) (size 9 to 14) (size 15 to 20)
#    0.000    1.857    2.857    3.000    0.000    0.571 
#    0.000    2.143    0.000    1.286    0.000    4.000 
#    0.000    0.000    0.000    0.000    0.000    0.000 
#
# Total GULP energy -156039.288100 kJ/mol
# GULP energy per Si atom -5572.831718 kJ/mol
# Density = 1.708606 g / cm^3
# Si number density = 17.125033 Si / 1000 Ang^3
#
#
#
# Elastic Constant Matrix: (Units=GPa)
#
#
# Indices 1 2 3 4 5 6 
#
# 1 64.2538 28.6945 4.9832 0.0000 -17.5208 0.0000
# 2 28.6945 85.6804 23.0521 0.0000 -25.2392 0.0000
# 3 4.9832 23.0521 49.8342 0.0000 -14.2821 0.0000
# 4 0.0000 0.0000 0.0000 12.7936 0.0000 -8.8515
# 5 -17.5208 -25.2392 -14.2821 0.0000 28.9362 0.0000
# 6 0.0000 0.0000 0.0000 -8.8515 0.0000 23.1593
#
#
#
# Elastic Compliance Matrix: (Units=1/GPa)
#
#
# Indices 1 2 3 4 5 6 
#
# 1 0.020011 -0.004694 0.002876 0.000000 0.009442 0.000000
# 2 -0.004694 0.017483 -0.004731 0.000000 0.010072 0.000000
# 3 0.002876 -0.004731 0.024791 0.000000 0.009851 0.000000
# 4 0.000000 0.000000 0.000000 0.106263 0.000000 0.040614
# 5 0.009442 0.010072 0.009851 0.000000 0.053923 0.000000
# 6 0.000000 0.000000 0.000000 0.040614 0.000000 0.058702
#
#
# Mechanical properties :
#
#
# Convention : Reuss Voigt Hill
#
# Bulk Modulus (GPa) = 20.33072 34.80312 27.56692
# Shear Modulus (GPa) = 16.09436 22.51372 19.30404
#
# Velocity S-wave (km/s) = 3.06897 3.62977 3.36108
# Velocity P-wave (km/s) = 4.94528 6.15906 5.58524
#
# Compressibility (1/GPa) = 0.04918665
#
# Stress axis : x y z
#
# Youngs Moduli (GPa) = 49.97195 57.19735 40.33765
#
# Poissons Ratio (x) = 0.26850 -0.11603
# Poissons Ratio (y) = 0.23459 0.19085
# Poissons Ratio (z) = -0.14374 0.27062
#
# Static dielectric constant tensor:
#      x y z
#    x 1.625370 0.000000 0.001610 
#    y 0.000000 1.567330 0.000000 
#    z 0.001610 0.000000 1.609400 
# 
# From -- ./inp_files/174801.got.cif
#   From: 2010.05.17/outbox.cif.g08.bks.cpg/sg12_88_cif.got.tgz:174801.got - 2010.06.03 13:09:07.
