data_PCOD9169821
_publ_section_title
;
Structure prediction by ZEFSAII (Michael W. Deem and Ramdas Pophale) SiO2 
 PCOD9169821
Probable space group: C 2/M
;
_chemical_formula_sum "Si O2"
_cell_formula_units_Z 56
_cell_length_a 18.379585
_cell_length_b 17.577368
_cell_length_c 20.641131
_cell_angle_alpha 90.000000
_cell_angle_beta 152.038403
_cell_angle_gamma 90.000000
_cell_volume 3126.687118
_symmetry_space_group_name_H-M "C 2/M"
_symmetry_group_IT_number 12
_symmetry_cell_setting 'monoclinic'
loop_
_space_group_symop_operation_xyz
x,y,z
-x,y,-z
-x,-y,-z
x,-y,z
1/2+x,1/2+y,z
1/2-x,1/2+y,-z
1/2-x,1/2-y,-z
1/2+x,1/2-y,z
loop_
_atom_site_type_symbol
_atom_site_label
_atom_site_fract_x
_atom_site_fract_y
_atom_site_fract_z
Si Si1 0.157690 0.287355 0.487722
Si Si2 0.156221 0.753785 0.244728
Si Si3 0.554176 0.913105 0.747259
Si Si4 0.056701 0.414495 0.194644
Si Si5 0.653446 0.911640 0.085119
Si Si6 0.150518 0.214812 0.725167
Si Si7 0.295224 0.287815 0.966128
O O1 0.250000 0.250000 0.500000
O O2 0.273308 0.298224 0.638483
O O3 0.055066 0.359821 0.383844
O O4 0.030506 0.229220 0.416377
O O5 0.150122 0.662532 0.253917
O O6 0.260671 0.758977 0.262359
O O7 0.979131 0.782025 0.099636
O O8 0.469488 0.915909 0.749836
O O9 0.715581 0.870059 0.891554
O O10 0.574258 0.000000 0.739579
O O11 0.113016 0.500000 0.219339
O O12 0.893475 0.403922 0.027192
O O13 0.799215 0.872304 0.232072
O O14 0.662360 0.000000 0.105091
O O15 0.500000 0.878823 0.000000
O O16 0.216019 0.241175 0.846019
O O17 0.250000 0.250000 0.000000
#
# Coordination Sequence:
#
# PCOD9169821 Si02
#       7
#     8   8   8   8   8   8   8
#     4  11  23  39  57  81 113 153 200 241 285 335
#     4  12  20  35  56  87 118 150 193 246 286 340
#     4  10  21  39  61  83 114 155 195 236 290 346
#     4  10  18  30  54  84 117 155 190 222 279 344
#     4  10  17  28  49  81 120 155 184 222 275 340
#     4  11  21  34  55  84 116 153 196 237 291 344
#     4  11  19  35  60  87 113 145 194 240 281 334
#
# _framework density 17.910332
#
# number of rings (size 3 to 8) (size 9 to 14) (size 15 to 20)
#    0.000    1.286    5.714    1.714    0.000    0.000 
#    0.000    2.143    0.000   15.429    0.000    0.000 
#    0.000    0.000    0.000    0.000    0.000    0.000 
#
# Total GULP energy -155879.765717 kJ/mol
# GULP energy per Si atom -5567.134490 kJ/mol
# Density = 1.786957 g / cm^3
# Si number density = 17.910332 Si / 1000 Ang^3
#
#
#
# Elastic Constant Matrix: (Units=GPa)
#
#
# Indices 1 2 3 4 5 6 
#
# 1 67.6563 7.8497 0.4628 0.0014 1.5891 0.0001
# 2 7.8497 97.2870 23.3777 -0.0014 3.8136 -0.0005
# 3 0.4628 23.3777 63.2855 -0.0004 5.8132 -0.0007
# 4 0.0014 -0.0014 -0.0004 27.2139 0.0003 -2.2649
# 5 1.5891 3.8136 5.8132 0.0003 35.7098 0.0003
# 6 0.0001 -0.0005 -0.0007 -2.2649 0.0003 14.7930
#
#
#
# Elastic Compliance Matrix: (Units=1/GPa)
#
#
# Indices 1 2 3 4 5 6 
#
# 1 0.014941 -0.001283 0.000419 -0.000001 -0.000596 0.000000
# 2 -0.001283 0.011400 -0.004157 0.000001 -0.000484 0.000000
# 3 0.000419 -0.004157 0.017558 0.000000 -0.002433 0.000001
# 4 -0.000001 0.000001 0.000000 0.037220 0.000000 0.005699
# 5 -0.000596 -0.000484 -0.002433 0.000000 0.028478 -0.000001
# 6 0.000000 0.000000 0.000001 0.005699 -0.000001 0.068472
#
#
# Mechanical properties :
#
#
# Convention : Reuss Voigt Hill
#
# Bulk Modulus (GPa) = 29.53637 32.40100 30.96868
# Shear Modulus (GPa) = 25.07574 28.64592 26.86083
#
# Velocity S-wave (km/s) = 3.74581 4.00360 3.87685
# Velocity P-wave (km/s) = 5.93592 6.28504 6.11297
#
# Compressibility (1/GPa) = 0.03385656
#
# Stress axis : x y z
#
# Youngs Moduli (GPa) = 66.93190 87.71647 56.95536
#
# Poissons Ratio (x) = 0.11253 -0.02389
# Poissons Ratio (y) = 0.08587 0.23679
# Poissons Ratio (z) = -0.02807 0.36468
#
# Static dielectric constant tensor:
#      x y z
#    x 1.659650 0.000000 0.002140 
#    y 0.000000 1.728600 0.000000 
#    z 0.002140 0.000000 1.654560 
# 
# From -- ./inp_files/317200.got.cif
#   From: 2010.05.17/outbox.cif.g08.bks.cpg/sg12_159_cif.got.tgz:317200.got - 2010.06.03 13:09:07.
