data_PCOD9169597
_publ_section_title
;
Structure prediction by ZEFSAII (Michael W. Deem and Ramdas Pophale) SiO2 
 PCOD9169597
Probable space group: C 2/M
;
_chemical_formula_sum "Si O2"
_cell_formula_units_Z 64
_cell_length_a 9.842962
_cell_length_b 23.280039
_cell_length_c 19.605467
_cell_angle_alpha 90.000000
_cell_angle_beta 42.014147
_cell_angle_gamma 90.000000
_cell_volume 3006.883922
_symmetry_space_group_name_H-M "C 2/M"
_symmetry_group_IT_number 12
_symmetry_cell_setting 'monoclinic'
loop_
_space_group_symop_operation_xyz
x,y,z
-x,y,-z
-x,-y,-z
x,-y,z
1/2+x,1/2+y,z
1/2-x,1/2+y,-z
1/2-x,1/2-y,-z
1/2+x,1/2-y,z
loop_
_atom_site_type_symbol
_atom_site_label
_atom_site_fract_x
_atom_site_fract_y
_atom_site_fract_z
Si Si1 0.067655 0.060906 0.132742
Si Si2 0.306990 0.066241 0.376514
Si Si3 0.425472 0.895141 0.931768
Si Si4 0.374302 0.725442 0.117494
Si Si5 0.342296 0.569453 0.714621
Si Si6 0.334764 0.316320 0.882209
Si Si7 0.200155 0.430265 0.466834
Si Si8 0.229489 0.600029 0.163262
O O1 0.048068 0.123775 0.173753
O O2 0.930446 0.069305 0.116256
O O3 0.012630 0.000000 0.186497
O O4 0.304328 0.060221 0.023968
O O5 0.196799 0.089474 0.349504
O O6 0.290354 0.091490 0.458375
O O7 0.543289 0.069976 0.269983
O O8 0.240434 0.000000 0.406676
O O9 0.661120 0.905573 0.829237
O O10 0.350603 0.837253 0.998579
O O11 0.318018 0.900905 0.898780
O O12 0.525795 0.725181 0.124441
O O13 0.240079 0.781270 0.154482
O O14 0.244782 0.667466 0.174747
O O15 0.500000 0.716880 0.000000
O O16 0.313556 0.500000 0.725552
O O17 0.575400 0.581879 0.646031
O O18 0.182952 0.500000 0.476234
O O19 0.000000 0.410330 0.500000
#
# Coordination Sequence:
#
# PCOD9169597 Si02
#       8
#     8   8   8   8   8   8   8   8
#     4   9  17  29  46  75 110 147 185 220 271 330
#     4   9  17  28  46  75 107 135 178 229 276 327
#     4   9  17  28  43  77 105 138 185 220 278 313
#     4  11  18  34  53  74 104 143 189 239 272 319
#     4   9  16  27  48  72 104 139 176 226 269 324
#     4   9  21  31  53  77 101 146 187 236 279 312
#     4   9  17  30  49  71  99 144 182 212 266 334
#     4  10  17  27  46  75 106 143 181 230 277 305
#
# _framework density 21.284493999999999
#
# number of rings (size 3 to 8) (size 9 to 14) (size 15 to 20)
#    0.750    1.875    1.250    1.875    0.000    3.500 
#    0.000    0.000    8.250    0.375    0.000    4.375 
#    0.000    5.000    0.000    2.000    0.000    0.250 
#
# Total GULP energy -178307.832842 kJ/mol
# GULP energy per Si atom -5572.119776 kJ/mol
# Density = 2.123605 g / cm^3
# Si number density = 21.284494 Si / 1000 Ang^3
#
#
#
# Elastic Constant Matrix: (Units=GPa)
#
#
# Indices 1 2 3 4 5 6 
#
# 1 144.1891 30.6760 53.4806 0.0000 -11.0633 0.0000
# 2 30.6760 105.7460 4.3464 0.0000 -0.6324 0.0000
# 3 53.4806 4.3464 81.8795 0.0003 -6.1697 0.0001
# 4 0.0000 0.0000 0.0003 19.1155 0.0001 -10.3046
# 5 -11.0633 -0.6324 -6.1697 0.0001 36.4321 -0.0001
# 6 0.0000 0.0000 0.0001 -10.3046 -0.0001 26.2155
#
#
#
# Elastic Compliance Matrix: (Units=1/GPa)
#
#
# Indices 1 2 3 4 5 6 
#
# 1 0.009943 -0.002618 -0.006211 0.000000 0.001922 0.000000
# 2 -0.002618 0.010167 0.001138 0.000000 -0.000426 0.000000
# 3 -0.006211 0.001138 0.016276 0.000000 0.000890 0.000000
# 4 0.000000 0.000000 0.000000 0.066379 0.000000 0.026092
# 5 0.001922 -0.000426 0.000890 0.000000 0.028175 0.000000
# 6 0.000000 0.000000 0.000000 0.026092 0.000000 0.048401
#
#
# Mechanical properties :
#
#
# Convention : Reuss Voigt Hill
#
# Bulk Modulus (GPa) = 47.60673 56.53563 52.07118
# Shear Modulus (GPa) = 24.78626 32.57339 28.67983
#
# Velocity S-wave (km/s) = 3.41621 3.91625 3.67475
# Velocity P-wave (km/s) = 6.16247 6.86068 6.52093
#
# Compressibility (1/GPa) = 0.02100543
#
# Stress axis : x y z
#
# Youngs Moduli (GPa) = 100.56944 98.36059 61.43862
#
# Poissons Ratio (x) = 0.25748 0.38159
# Poissons Ratio (y) = 0.26326 -0.06992
# Poissons Ratio (z) = 0.62462 -0.11194
#
# Static dielectric constant tensor:
#      x y z
#    x 1.850910 0.000000 0.010210 
#    y 0.000000 1.787640 0.000000 
#    z 0.010210 0.000000 1.780040 
# 
# From -- ./inp_files/302319.got.cif
#   From: 2010.05.17/outbox.cif.g08.bks.cpg/sg12_152_cif.got.tgz:302319.got - 2010.06.03 13:09:07.
