data_PCOD9169114
_publ_section_title
;
Structure prediction by ZEFSAII (Michael W. Deem and Ramdas Pophale) SiO2 
 PCOD9169114
Probable space group: C 2/M
;
_chemical_formula_sum "Si O2"
_cell_formula_units_Z 44
_cell_length_a 17.038903
_cell_length_b 15.221521
_cell_length_c 26.819364
_cell_angle_alpha 90.000000
_cell_angle_beta 160.120818
_cell_angle_gamma 90.000000
_cell_volume 2365.241321
_symmetry_space_group_name_H-M "C 2/M"
_symmetry_group_IT_number 12
_symmetry_cell_setting 'monoclinic'
loop_
_space_group_symop_operation_xyz
x,y,z
-x,y,-z
-x,-y,-z
x,-y,z
1/2+x,1/2+y,z
1/2-x,1/2+y,-z
1/2-x,1/2-y,-z
1/2+x,1/2-y,z
loop_
_atom_site_type_symbol
_atom_site_label
_atom_site_fract_x
_atom_site_fract_y
_atom_site_fract_z
Si Si1 0.881868 0.898702 0.240904
Si Si2 0.000000 0.153929 0.500000
Si Si3 0.043347 0.595001 0.280227
Si Si4 0.143354 0.653962 0.449201
Si Si5 0.664268 0.744105 0.050802
Si Si6 0.267632 0.268894 0.264341
O O1 0.764557 0.837765 0.129054
O O2 0.826243 0.848389 0.260065
O O3 0.159033 0.892359 0.400914
O O4 0.808449 0.000000 0.197368
O O5 0.788205 0.103128 0.398809
O O6 0.871660 0.207361 0.379692
O O7 0.938595 0.500000 0.206247
O O8 0.101742 0.603018 0.373510
O O9 0.869541 0.675078 0.165931
O O10 0.250000 0.750000 0.500000
O O11 0.901559 0.680440 0.328458
O O12 0.500000 0.716080 0.000000
O O13 0.502244 0.753920 0.905971
#
# Coordination Sequence:
#
# PCOD9169114 Si02
#       6
#     8   4   8   8   8   8
#     4  10  18  32  58  86 113 148 193 247 289 330
#     4  12  23  38  58  88 121 156 193 236 298 356
#     4  12  23  37  59  89 122 155 193 241 294 347
#     4  10  16  36  56  81 115 149 201 236 275 340
#     4  10  20  39  58  85 120 148 200 243 289 343
#     4  10  21  36  58  83 120 155 189 242 288 350
#
# _framework density 18.602753
#
# number of rings (size 3 to 8) (size 9 to 14) (size 15 to 20)
#    0.000    1.455    9.091    0.818    0.000    5.091 
#    0.000    0.000    0.000    0.000    0.000   17.818 
#    0.000    0.000    0.000    0.000    0.000    0.000 
#
# Total GULP energy -122586.623559 kJ/mol
# GULP energy per Si atom -5572.119253 kJ/mol
# Density = 1.856041 g / cm^3
# Si number density = 18.602753 Si / 1000 Ang^3
#
#
#
# Elastic Constant Matrix: (Units=GPa)
#
#
# Indices 1 2 3 4 5 6 
#
# 1 52.6493 35.5272 32.9842 -0.0023 -5.6584 -0.0026
# 2 35.5272 101.0758 43.6575 0.0297 10.4261 0.0007
# 3 32.9842 43.6575 148.3124 0.0201 -8.2870 -0.0069
# 4 -0.0023 0.0297 0.0201 3.7128 -0.0037 1.8494
# 5 -5.6584 10.4261 -8.2870 -0.0037 26.3271 -0.0026
# 6 -0.0026 0.0007 -0.0069 1.8494 -0.0026 -12.4460
#
#
#
# Elastic Compliance Matrix: (Units=1/GPa)
#
#
# Indices 1 2 3 4 5 6 
#
# 1 0.028278 -0.009578 -0.002970 0.000114 0.008936 0.000010
# 2 -0.009578 0.015466 -0.002931 -0.000118 -0.009106 -0.000011
# 3 -0.002970 -0.002931 0.008444 -0.000017 0.003180 -0.000007
# 4 0.000114 -0.000118 -0.000017 0.250780 0.000105 0.037265
# 5 0.008936 -0.009106 0.003180 0.000105 0.044512 0.000002
# 6 0.000010 -0.000011 -0.000007 0.037265 0.000002 -0.074809
#
#
# Mechanical properties :
#
#
# Convention : Reuss Voigt Hill
#
# Bulk Modulus (GPa) = 47.10740 58.48612 52.79676
# Shear Modulus (GPa) = 16.09244 16.17666 16.13455
#
# Velocity S-wave (km/s) = 2.94438 2.95207 2.94823
# Velocity P-wave (km/s) = 6.07757 6.56714 6.32710
#
# Compressibility (1/GPa) = 0.02122809
#
# Stress axis : x y z
#
# Youngs Moduli (GPa) = 35.36293 64.65945 118.43332
#
# Poissons Ratio (x) = 0.61934 0.35177
# Poissons Ratio (y) = 0.33872 0.34714
# Poissons Ratio (z) = 0.10503 0.18952
#
# Static dielectric constant tensor:
#      x y z
#    x 1.675140 0.000000 0.023170 
#    y 0.000000 1.646230 -0.000010 
#    z 0.023170 -0.000010 1.677100 
# 
# From -- ./inp_files/156300.got.cif
#   From: 2010.05.17/outbox.cif.g08.bks.cpg/sg12_79_cif.got.tgz:156300.got - 2010.06.03 13:09:07.
