data_PCOD9169067
_publ_section_title
;
Structure prediction by ZEFSAII (Michael W. Deem and Ramdas Pophale) SiO2 
 PCOD9169067
Probable space group: C 2/M
;
_chemical_formula_sum "Si O2"
_cell_formula_units_Z 48
_cell_length_a 17.006766
_cell_length_b 13.707949
_cell_length_c 8.240160
_cell_angle_alpha 90.000000
_cell_angle_beta 88.221213
_cell_angle_gamma 90.000000
_cell_volume 1920.085345
_symmetry_space_group_name_H-M "C 2/M"
_symmetry_group_IT_number 12
_symmetry_cell_setting 'monoclinic'
loop_
_space_group_symop_operation_xyz
x,y,z
-x,y,-z
-x,-y,-z
x,-y,z
1/2+x,1/2+y,z
1/2-x,1/2+y,-z
1/2-x,1/2-y,-z
1/2+x,1/2-y,z
loop_
_atom_site_type_symbol
_atom_site_label
_atom_site_fract_x
_atom_site_fract_y
_atom_site_fract_z
Si Si1 0.194665 0.144097 0.328507
Si Si2 0.047547 0.174171 0.157476
Si Si3 0.402857 0.895182 0.920641
Si Si4 0.376063 0.103517 0.306783
Si Si5 0.100920 0.177262 0.643214
Si Si6 0.746245 0.680343 0.842417
O O1 0.131871 0.126144 0.188676
O O2 0.280739 0.099658 0.311720
O O3 0.146377 0.126297 0.494237
O O4 0.217826 0.258111 0.309732
O O5 0.062825 0.292232 0.145427
O O6 0.987490 0.150543 0.306729
O O7 0.000000 0.146195 0.000000
O O8 0.311588 0.898089 0.874566
O O9 0.438156 0.000000 0.869151
O O10 0.402265 0.888784 0.116604
O O11 0.399896 0.205289 0.386225
O O12 0.404169 0.000000 0.374510
O O13 0.157679 0.159648 0.795979
O O14 0.750000 0.750000 0.000000
#
# Coordination Sequence:
#
# PCOD9169067 Si02
#       6
#     8   8   8   8   8   8
#     4  10  21  35  54  80 110 143 187 223 266 323
#     4  11  21  35  56  80 109 144 185 222 264 323
#     4  10  20  33  54  85 114 141 178 227 271 319
#     4  10  19  34  57  82 110 141 179 227 276 319
#     4  11  20  35  55  83 111 146 180 223 270 324
#     4  10  16  33  55  76 105 140 189 221 253 312
#
# _framework density 24.998891
#
# number of rings (size 3 to 8) (size 9 to 14) (size 15 to 20)
#    0.000    1.667    5.000    3.500    0.000    1.000 
#    0.000    7.500    0.000    8.500    0.000    0.000 
#    0.000    0.000    0.000    0.000    0.000    0.000 
#
# Total GULP energy -134016.618856 kJ/mol
# GULP energy per Si atom -5584.025786 kJ/mol
# Density = 2.494199 g / cm^3
# Si number density = 24.998891 Si / 1000 Ang^3
#
#
#
# Elastic Constant Matrix: (Units=GPa)
#
#
# Indices 1 2 3 4 5 6 
#
# 1 117.1966 -6.8610 2.2677 0.0000 -13.8280 0.0000
# 2 -6.8610 49.1782 -4.9124 0.0000 3.3780 0.0000
# 3 2.2677 -4.9124 81.4767 0.0000 -16.9636 0.0000
# 4 0.0000 0.0000 0.0000 -6.5235 0.0000 0.0343
# 5 -13.8280 3.3780 -16.9636 0.0000 40.8525 0.0000
# 6 0.0000 0.0000 0.0000 0.0343 0.0000 6.0987
#
#
#
# Elastic Compliance Matrix: (Units=1/GPa)
#
#
# Indices 1 2 3 4 5 6 
#
# 1 0.008957 0.001081 0.000469 0.000000 0.003137 0.000000
# 2 0.001081 0.020650 0.001024 0.000000 -0.000916 0.000000
# 3 0.000469 0.001024 0.013505 0.000000 0.005682 0.000000
# 4 0.000000 0.000000 0.000000 -0.153288 0.000000 0.000863
# 5 0.003137 -0.000916 0.005682 0.000000 0.027975 0.000000
# 6 0.000000 0.000000 0.000000 0.000863 0.000000 0.163965
#
#
# Mechanical properties :
#
#
# Convention : Reuss Voigt Hill
#
# Bulk Modulus (GPa) = 20.72072 25.42668 23.07370
# Shear Modulus (GPa) = 53.93553 25.24268 39.58910
#
# Velocity S-wave (km/s) = 4.64995 3.18111 3.98381
# Velocity P-wave (km/s) = 6.09393 4.86680 5.51461
#
# Compressibility (1/GPa) = 0.04826086
#
# Stress axis : x y z
#
# Youngs Moduli (GPa) = 111.64399 48.42553 74.04587
#
# Poissons Ratio (x) = -0.05235 -0.03473
# Poissons Ratio (y) = -0.12069 -0.07584
# Poissons Ratio (z) = -0.05237 -0.04960
#
# Static dielectric constant tensor:
#      x y z
#    x 1.981100 0.000000 0.019570 
#    y 0.000000 2.078120 0.000000 
#    z 0.019570 0.000000 2.026140 
# 
# From -- ./inp_files/74466.got.cif
#   From: 2010.05.17/outbox.cif.g08.bks.cpg/sg12_38_cif.got.tgz:74466.got - 2010.06.03 13:09:07.
