data_PCOD9169647
_publ_section_title
;
Structure prediction by ZEFSAII (Michael W. Deem and Ramdas Pophale) SiO2 
 PCOD9169647
Probable space group: C 2/M
;
_chemical_formula_sum "Si O2"
_cell_formula_units_Z 56
_cell_length_a 19.117019
_cell_length_b 28.317139
_cell_length_c 5.531467
_cell_angle_alpha 90.000000
_cell_angle_beta 58.206524
_cell_angle_gamma 90.000000
_cell_volume 2545.098662
_symmetry_space_group_name_H-M "C 2/M"
_symmetry_group_IT_number 12
_symmetry_cell_setting 'monoclinic'
loop_
_space_group_symop_operation_xyz
x,y,z
-x,y,-z
-x,-y,-z
x,-y,z
1/2+x,1/2+y,z
1/2-x,1/2+y,-z
1/2-x,1/2-y,-z
1/2+x,1/2-y,z
loop_
_atom_site_type_symbol
_atom_site_label
_atom_site_fract_x
_atom_site_fract_y
_atom_site_fract_z
Si Si1 0.237558 0.555673 0.336728
Si Si2 0.387726 0.246595 0.697496
Si Si3 0.624268 0.378204 0.897342
Si Si4 0.254051 0.291178 0.295354
Si Si5 0.044132 0.335507 0.175160
Si Si6 0.210212 0.608179 0.892158
Si Si7 0.105762 0.847880 0.436749
O O1 0.225558 0.500000 0.349055
O O2 0.333213 0.571497 0.143373
O O3 0.212062 0.575350 0.648665
O O4 0.199051 0.579873 0.165812
O O5 0.340067 0.206851 0.626627
O O6 0.446395 0.220244 0.779360
O O7 0.413236 0.292245 0.496906
O O8 0.316115 0.270438 0.985247
O O9 0.701248 0.340174 0.723651
O O10 0.579901 0.375028 0.723322
O O11 0.576953 0.362162 0.222200
O O12 0.250000 0.250000 0.500000
O O13 0.000000 0.354997 0.500000
O O14 0.135138 0.356389 0.991819
O O15 0.000000 0.343048 0.000000
O O16 0.296332 0.636895 0.761815
#
# Coordination Sequence:
#
# PCOD9169647 Si02
#       7
#     8   8   8   8   8   8   8
#     4  10  19  32  55  77  97 125 160 209 268 321
#     4  10  20  31  47  73  99 124 165 199 244 301
#     4   9  17  26  41  73 104 117 146 180 247 302
#     4  10  17  27  52  76  97 120 150 207 246 287
#     4  12  27  39  52  70 100 142 175 216 264 299
#     4  10  20  37  54  73  99 122 171 211 255 313
#     4   9  17  30  50  75  91 121 148 207 244 286
#
# _framework density 22.003076
#
# number of rings (size 3 to 8) (size 9 to 14) (size 15 to 20)
#    0.000    2.000    1.429    4.714    4.000    0.000 
#    0.000    0.000    0.000    8.571    0.000    0.000 
#    0.000    0.000    0.000    0.000    0.000  567.143 
#
# Total GULP energy -156165.985748 kJ/mol
# GULP energy per Si atom -5577.356634 kJ/mol
# Density = 2.195300 g / cm^3
# Si number density = 22.003076 Si / 1000 Ang^3
#
#
#
# Elastic Constant Matrix: (Units=GPa)
#
#
# Indices 1 2 3 4 5 6 
#
# 1 107.9032 26.1888 34.3673 0.0000 31.2029 0.0000
# 2 26.1888 96.6667 22.8956 0.0000 13.6657 0.0000
# 3 34.3673 22.8956 107.1568 0.0000 33.6085 0.0000
# 4 0.0000 0.0000 0.0000 29.5490 0.0000 7.9735
# 5 31.2029 13.6657 33.6085 0.0000 43.1834 0.0000
# 6 0.0000 0.0000 0.0000 7.9735 0.0000 15.9962
#
#
#
# Elastic Compliance Matrix: (Units=1/GPa)
#
#
# Indices 1 2 3 4 5 6 
#
# 1 0.012242 -0.002001 -0.001221 0.000000 -0.007262 0.000000
# 2 -0.002001 0.011378 -0.001473 0.000000 -0.001009 0.000000
# 3 -0.001221 -0.001473 0.012721 0.000000 -0.008552 0.000000
# 4 0.000000 0.000000 0.000000 0.039101 0.000000 -0.019490
# 5 -0.007262 -0.001009 -0.008552 0.000000 0.035379 0.000000
# 6 0.000000 0.000000 0.000000 -0.019490 0.000000 0.072230
#
#
# Mechanical properties :
#
#
# Convention : Reuss Voigt Hill
#
# Bulk Modulus (GPa) = 37.10407 53.18112 45.14260
# Shear Modulus (GPa) = 24.82310 32.96405 28.89358
#
# Velocity S-wave (km/s) = 3.36246 3.87480 3.62769
# Velocity P-wave (km/s) = 5.65461 6.65140 6.17316
#
# Compressibility (1/GPa) = 0.02695122
#
# Stress axis : x y z
#
# Youngs Moduli (GPa) = 81.68505 87.88611 78.61244
#
# Poissons Ratio (x) = 0.17584 0.09599
# Poissons Ratio (y) = 0.16343 0.11581
# Poissons Ratio (z) = 0.09974 0.12947
#
# Static dielectric constant tensor:
#      x y z
#    x 1.939990 0.000000 -0.011640 
#    y 0.000000 1.808000 0.000000 
#    z -0.011640 0.000000 1.923320 
# 
# From -- ./inp_files/17637.got.cif
#   From: 2010.05.17/outbox.cif.g08.bks.cpg/sg12_9_cif.got.tgz:17637.got - 2010.06.03 13:09:07.
