data_PCOD9169254
_publ_section_title
;
Structure prediction by ZEFSAII (Michael W. Deem and Ramdas Pophale) SiO2 
 PCOD9169254
Probable space group: C 2/M
;
_chemical_formula_sum "Si O2"
_cell_formula_units_Z 56
_cell_length_a 29.443917
_cell_length_b 8.780800
_cell_length_c 18.475095
_cell_angle_alpha 90.000000
_cell_angle_beta 129.334486
_cell_angle_gamma 90.000000
_cell_volume 3694.482031
_symmetry_space_group_name_H-M "C 2/M"
_symmetry_group_IT_number 12
_symmetry_cell_setting 'monoclinic'
loop_
_space_group_symop_operation_xyz
x,y,z
-x,y,-z
-x,-y,-z
x,-y,z
1/2+x,1/2+y,z
1/2-x,1/2+y,-z
1/2-x,1/2-y,-z
1/2+x,1/2-y,z
loop_
_atom_site_type_symbol
_atom_site_label
_atom_site_fract_x
_atom_site_fract_y
_atom_site_fract_z
Si Si1 0.186840 0.682922 0.914900
Si Si2 0.282712 0.317548 0.358854
Si Si3 0.931428 0.817654 0.930933
Si Si4 0.850467 0.682298 0.725441
Si Si5 0.722103 0.182376 0.798368
Si Si6 0.813967 0.817275 0.545714
Si Si7 0.650519 0.816833 0.030408
O O1 0.190092 0.500000 0.920519
O O2 0.180024 0.725282 0.823753
O O3 0.250000 0.750000 0.000000
O O4 0.145322 0.727265 0.940032
O O5 0.284410 0.500000 0.351200
O O6 0.214759 0.277413 0.309728
O O7 0.299248 0.238002 0.301033
O O8 0.321637 0.278320 0.468746
O O9 0.898023 0.748536 0.828117
O O10 0.898839 0.754192 0.968879
O O11 0.925900 0.000000 0.923661
O O12 0.000000 0.777154 0.000000
O O13 0.853580 0.500000 0.726086
O O14 0.855285 0.748923 0.649311
O O15 0.785853 0.257719 0.877924
O O16 0.729364 0.000000 0.805303
O O17 0.750000 0.750000 0.500000
O O18 0.812400 0.000000 0.550049
O O19 0.649565 0.000000 0.036110
#
# Coordination Sequence:
#
# PCOD9169254 Si02
#       7
#     8   8   8   8   8   8   8
#     4   8  16  27  39  59  83 111 144 176 211 254
#     4   9  17  27  40  62  89 117 146 176 212 255
#     4  11  23  35  47  64  85 112 150 190 224 261
#     4  10  19  31  46  62  84 113 146 183 223 262
#     4  10  17  25  41  63  88 117 147 176 211 255
#     4   9  17  28  42  60  85 115 148 180 214 258
#     4  10  18  30  45  59  83 114 146 183 220 258
#
# _framework density 15.15774
#
# number of rings (size 3 to 8) (size 9 to 14) (size 15 to 20)
#    0.000    2.429    1.429    3.000    0.000    5.143 
#    0.000    0.000    0.000    0.000    0.000    0.000 
#    0.000    1.143    0.000   12.857    0.000    5.714 
#
# Total GULP energy -155901.171439 kJ/mol
# GULP energy per Si atom -5567.898980 kJ/mol
# Density = 1.512324 g / cm^3
# Si number density = 15.157740 Si / 1000 Ang^3
#
#
#
# Elastic Constant Matrix: (Units=GPa)
#
#
# Indices 1 2 3 4 5 6 
#
# 1 89.0122 33.2367 70.8075 0.0000 -30.7170 0.0000
# 2 33.2367 37.6791 40.2995 0.0000 -12.7050 0.0000
# 3 70.8075 40.2995 105.0168 0.0000 -35.9839 0.0000
# 4 0.0000 0.0000 0.0000 23.7911 0.0000 -7.0300
# 5 -30.7170 -12.7050 -35.9839 0.0000 31.9701 0.0000
# 6 0.0000 0.0000 0.0000 -7.0300 0.0000 17.9353
#
#
#
# Elastic Compliance Matrix: (Units=1/GPa)
#
#
# Indices 1 2 3 4 5 6 
#
# 1 0.026821 -0.007782 -0.011928 0.000000 0.009252 0.000000
# 2 -0.007782 0.047400 -0.014731 0.000000 -0.005221 0.000000
# 3 -0.011928 -0.014731 0.028136 0.000000 0.014354 0.000000
# 4 0.000000 0.000000 0.000000 0.047538 0.000000 0.018633
# 5 0.009252 -0.005221 0.014354 0.000000 0.054250 0.000000
# 6 0.000000 0.000000 0.000000 0.018633 0.000000 0.063060
#
#
# Mechanical properties :
#
#
# Convention : Reuss Voigt Hill
#
# Bulk Modulus (GPa) = 29.87313 57.82173 43.84743
# Shear Modulus (GPa) = 14.39905 20.56360 17.48132
#
# Velocity S-wave (km/s) = 3.08546 3.68726 3.39970
# Velocity P-wave (km/s) = 5.69600 7.50715 6.66340
#
# Compressibility (1/GPa) = 0.03347490
#
# Stress axis : x y z
#
# Youngs Moduli (GPa) = 37.28387 21.09716 35.54186
#
# Poissons Ratio (x) = 0.16418 0.42393
# Poissons Ratio (y) = 0.29015 0.52357
# Poissons Ratio (z) = 0.44471 0.31079
#
# Static dielectric constant tensor:
#      x y z
#    x 1.509560 0.000000 -0.052370 
#    y 0.000000 1.508600 0.000000 
#    z -0.052370 0.000000 1.519330 
# 
# From -- ./inp_files/291798.got.cif
#   From: 2010.05.17/outbox.cif.g08.bks.cpg/sg12_146_cif.got.tgz:291798.got - 2010.06.03 13:09:07.
