data_PCOD9169079
_publ_section_title
;
Structure prediction by ZEFSAII (Michael W. Deem and Ramdas Pophale) SiO2 
 PCOD9169079
Probable space group: C 2/M
;
_chemical_formula_sum "Si O2"
_cell_formula_units_Z 40
_cell_length_a 11.998936
_cell_length_b 29.467852
_cell_length_c 9.578128
_cell_angle_alpha 90.000000
_cell_angle_beta 37.366622
_cell_angle_gamma 90.000000
_cell_volume 2055.409004
_symmetry_space_group_name_H-M "C 2/M"
_symmetry_group_IT_number 12
_symmetry_cell_setting 'monoclinic'
loop_
_space_group_symop_operation_xyz
x,y,z
-x,y,-z
-x,-y,-z
x,-y,z
1/2+x,1/2+y,z
1/2-x,1/2+y,-z
1/2-x,1/2-y,-z
1/2+x,1/2-y,z
loop_
_atom_site_type_symbol
_atom_site_label
_atom_site_fract_x
_atom_site_fract_y
_atom_site_fract_z
Si Si1 0.510931 0.549946 0.754638
Si Si2 0.015001 0.148683 0.644589
Si Si3 0.708218 0.070050 0.274768
Si Si4 0.302164 0.203162 0.519675
Si Si5 0.215410 0.325521 0.166560
O O1 0.538131 0.500000 0.664383
O O2 0.499860 0.594147 0.669362
O O3 0.673182 0.559791 0.705292
O O4 0.324515 0.549568 0.031827
O O5 0.203499 0.164174 0.528516
O O6 0.000000 0.163748 0.500000
O O7 0.858929 0.171064 0.898101
O O8 0.500000 0.054309 0.500000
O O9 0.701701 0.123638 0.244579
O O10 0.250000 0.250000 0.500000
O O11 0.230653 0.203136 0.750702
O O12 0.518578 0.192591 0.312343
#
# Coordination Sequence:
#
# PCOD9169079 Si02
#       5
#     8   8   8   8   8
#     4  10  21  34  56  92 122 157 208 254 303 369
#     4  11  24  42  62  88 128 171 205 251 315 368
#     4  10  16  33  61  87 121 156 199 252 311 361
#     4  11  23  41  66  93 120 159 210 256 314 370
#     4  10  21  42  65  89 124 163 201 259 308 365
#
# _framework density 19.460847000000001
#
# number of rings (size 3 to 8) (size 9 to 14) (size 15 to 20)
#    0.000    1.600    4.000    1.800    2.800    3.600 
#    3.600    0.000    0.000    0.000    0.000    8.400 
#    0.000    0.000    0.000    0.000    0.000    0.000 
#
# Total GULP energy -111655.356661 kJ/mol
# GULP energy per Si atom -5582.767833 kJ/mol
# Density = 1.941655 g / cm^3
# Si number density = 19.460847 Si / 1000 Ang^3
#
#
#
# Elastic Constant Matrix: (Units=GPa)
#
#
# Indices 1 2 3 4 5 6 
#
# 1 120.6385 35.2492 68.7063 0.0000 6.3145 0.0000
# 2 35.2492 114.9025 35.1997 0.0000 3.8017 0.0000
# 3 68.7063 35.1997 86.7900 0.0000 8.0855 0.0000
# 4 0.0000 0.0000 0.0000 50.7525 0.0000 -194.2493
# 5 6.3145 3.8017 8.0855 0.0000 36.8605 0.0000
# 6 0.0000 0.0000 0.0000 -194.2493 0.0000 922.3929
#
#
#
# Elastic Compliance Matrix: (Units=1/GPa)
#
#
# Indices 1 2 3 4 5 6 
#
# 1 0.015219 -0.001117 -0.011600 0.000000 0.000053 0.000000
# 2 -0.001117 0.010020 -0.003166 0.000000 -0.000148 0.000000
# 3 -0.011600 -0.003166 0.022228 0.000000 -0.002562 0.000000
# 4 0.000000 0.000000 0.000000 0.101574 0.000000 0.021391
# 5 0.000053 -0.000148 -0.002562 0.000000 0.027698 0.000000
# 6 0.000000 0.000000 0.000000 0.021391 0.000000 0.005589
#
#
# Mechanical properties :
#
#
# Convention : Reuss Voigt Hill
#
# Bulk Modulus (GPa) = 63.68830 66.73795 65.21312
# Shear Modulus (GPa) = 22.79685 214.21290 118.50488
#
# Velocity S-wave (km/s) = 3.42632 10.50299 7.81193
# Velocity P-wave (km/s) = 6.96062 13.47040 10.72152
#
# Compressibility (1/GPa) = 0.01570147
#
# Stress axis : x y z
#
# Youngs Moduli (GPa) = 65.70566 99.79560 44.98854
#
# Poissons Ratio (x) = 0.11148 0.52187
# Poissons Ratio (y) = 0.07340 0.14243
# Poissons Ratio (z) = 0.76219 0.31595
#
# Static dielectric constant tensor:
#      x y z
#    x 1.645890 0.000000 -0.010270 
#    y 0.000000 1.741100 0.000000 
#    z -0.010270 0.000000 1.682200 
# 
# From -- ./inp_files/53998.got.cif
#   From: 2010.05.17/outbox.cif.g08.bks.cpg/sg12_27_cif.got.tgz:53998.got - 2010.06.03 13:09:07.
