data_PCOD9169506
_publ_section_title
;
Structure prediction by ZEFSAII (Michael W. Deem and Ramdas Pophale) SiO2 
 PCOD9169506
Probable space group: C 2/M
;
_chemical_formula_sum "Si O2"
_cell_formula_units_Z 64
_cell_length_a 25.895213
_cell_length_b 7.386583
_cell_length_c 18.557022
_cell_angle_alpha 90.000000
_cell_angle_beta 103.274769
_cell_angle_gamma 90.000000
_cell_volume 3454.690845
_symmetry_space_group_name_H-M "C 2/M"
_symmetry_group_IT_number 12
_symmetry_cell_setting 'monoclinic'
loop_
_space_group_symop_operation_xyz
x,y,z
-x,y,-z
-x,-y,-z
x,-y,z
1/2+x,1/2+y,z
1/2-x,1/2+y,-z
1/2-x,1/2-y,-z
1/2+x,1/2-y,z
loop_
_atom_site_type_symbol
_atom_site_label
_atom_site_fract_x
_atom_site_fract_y
_atom_site_fract_z
Si Si1 0.969017 0.220957 0.163533
Si Si2 0.259989 0.286048 0.418782
Si Si3 0.588933 0.721045 0.158638
Si Si4 0.062271 0.787335 0.997687
Si Si5 0.953274 0.220828 0.319919
Si Si6 0.648648 0.288048 0.314400
Si Si7 0.431076 0.721175 0.587357
Si Si8 0.877603 0.778519 0.421672
O O1 0.936223 0.285577 0.083118
O O2 0.950080 0.279842 0.235949
O O3 0.030788 0.270058 0.171112
O O4 0.967947 0.000000 0.162089
O O5 0.262341 0.500000 0.411189
O O6 0.250000 0.250000 0.500000
O O7 0.209494 0.225256 0.356719
O O8 0.317306 0.214821 0.412998
O O9 0.589631 0.500000 0.154401
O O10 0.632023 0.783107 0.230682
O O11 0.592763 0.786718 0.077282
O O12 0.075753 0.000000 0.996730
O O13 0.000000 0.776670 0.000000
O O14 0.906270 0.278635 0.357634
O O15 0.009951 0.276288 0.371358
O O16 0.953405 0.000000 0.319261
O O17 0.635291 0.500000 0.307063
O O18 0.611323 0.215391 0.366479
O O19 0.430673 0.500000 0.586822
O O20 0.412039 0.777072 0.502221
O O21 0.877013 0.000000 0.421833
#
# Coordination Sequence:
#
# PCOD9169506 Si02
#       8
#     8   8   8   8   8   8   8   8
#     4   8  11  16  28  50  82 112 131 153 197 250
#     4  11  21  33  46  60  80 107 140 175 208 239
#     4   8  12  19  32  53  82 109 131 159 196 241
#     4   7  10  15  25  45  77 113 134 148 187 245
#     4   9  14  20  33  55  82 108 131 161 204 247
#     4  10  17  27  44  64  84 108 138 167 200 242
#     4   9  14  22  36  56  81 104 129 162 201 243
#     4   9  17  26  36  53  77 104 135 170 203 238
#
# _framework density 18.525535000000001
#
# number of rings (size 3 to 8) (size 9 to 14) (size 15 to 20)
#    0.000    3.125    2.500    2.250    0.000    1.500 
#    0.000    0.000    0.000    0.000    0.000    3.500 
#    0.000    4.500    0.000    0.125    0.000    0.000 
#
# Total GULP energy -178364.485704 kJ/mol
# GULP energy per Si atom -5573.890178 kJ/mol
# Density = 1.848337 g / cm^3
# Si number density = 18.525535 Si / 1000 Ang^3
#
#
#
# Elastic Constant Matrix: (Units=GPa)
#
#
# Indices 1 2 3 4 5 6 
#
# 1 105.5921 -2.7795 90.2582 0.0000 -12.1185 0.0000
# 2 -2.7795 58.0940 1.7049 0.0000 -0.9727 0.0000
# 3 90.2582 1.7049 218.4740 0.0000 1.8206 0.0000
# 4 0.0000 0.0000 0.0000 -9.6204 0.0000 4.6983
# 5 -12.1185 -0.9727 1.8206 0.0000 20.0546 0.0000
# 6 0.0000 0.0000 0.0000 4.6983 0.0000 2.8736
#
#
#
# Elastic Compliance Matrix: (Units=1/GPa)
#
#
# Indices 1 2 3 4 5 6 
#
# 1 0.016738 0.001188 -0.007014 0.000000 0.010809 0.000000
# 2 0.001188 0.017316 -0.000639 0.000000 0.001616 0.000000
# 3 -0.007014 -0.000639 0.007521 0.000000 -0.004952 0.000000
# 4 0.000000 0.000000 0.000000 -0.057797 0.000000 0.094496
# 5 0.010809 0.001616 -0.004952 0.000000 0.056923 0.000000
# 6 0.000000 0.000000 0.000000 0.094496 0.000000 0.193495
#
#
# Mechanical properties :
#
#
# Convention : Reuss Voigt Hill
#
# Bulk Modulus (GPa) = 34.91198 62.28081 48.59639
# Shear Modulus (GPa) = 19.47982 22.19331 20.83657
#
# Velocity S-wave (km/s) = 3.24622 3.46495 3.35737
# Velocity P-wave (km/s) = 5.73906 7.04980 6.42793
#
# Compressibility (1/GPa) = 0.02864346
#
# Stress axis : x y z
#
# Youngs Moduli (GPa) = 59.74522 57.74971 132.95684
#
# Poissons Ratio (x) = -0.06859 0.93259
# Poissons Ratio (y) = -0.07096 0.08499
# Poissons Ratio (z) = 0.41906 0.03692
#
# Static dielectric constant tensor:
#      x y z
#    x 1.596320 0.000000 -0.002260 
#    y 0.000000 1.739080 0.000000 
#    z -0.002260 0.000000 1.666240 
# 
# From -- ./inp_files/288732.got.cif
#   From: 2010.05.17/outbox.cif.g08.bks.cpg/sg12_145_cif.got.tgz:288732.got - 2010.06.03 13:09:07.
