data_PCOD9169360
_publ_section_title
;
Structure prediction by ZEFSAII (Michael W. Deem and Ramdas Pophale) SiO2 
 PCOD9169360
Probable space group: C 2/M
;
_chemical_formula_sum "Si O2"
_cell_formula_units_Z 64
_cell_length_a 28.353895
_cell_length_b 13.961986
_cell_length_c 12.270289
_cell_angle_alpha 90.000000
_cell_angle_beta 63.473097
_cell_angle_gamma 90.000000
_cell_volume 4346.144574
_symmetry_space_group_name_H-M "C 2/M"
_symmetry_group_IT_number 12
_symmetry_cell_setting 'monoclinic'
loop_
_space_group_symop_operation_xyz
x,y,z
-x,y,-z
-x,-y,-z
x,-y,z
1/2+x,1/2+y,z
1/2-x,1/2+y,-z
1/2-x,1/2-y,-z
1/2+x,1/2-y,z
loop_
_atom_site_type_symbol
_atom_site_label
_atom_site_fract_x
_atom_site_fract_y
_atom_site_fract_z
Si Si1 0.134738 0.205091 0.627229
Si Si2 0.707710 0.613015 0.717226
Si Si3 0.458882 0.612802 0.381880
Si Si4 0.075724 0.113168 0.331079
Si Si5 0.302775 0.888668 0.456626
Si Si6 0.785826 0.112117 0.628011
Si Si7 0.750844 0.611758 0.912751
Si Si8 0.185968 0.795916 0.175219
O O1 0.159401 0.171430 0.716384
O O2 0.075110 0.175819 0.665548
O O3 0.149206 0.315643 0.594065
O O4 0.169465 0.146989 0.502002
O O5 0.698679 0.500000 0.704047
O O6 0.760889 0.638501 0.594756
O O7 0.718908 0.625090 0.832725
O O8 0.451941 0.500000 0.363894
O O9 0.521166 0.632799 0.324447
O O10 0.436671 0.627383 0.527733
O O11 0.124704 0.176831 0.244270
O O12 0.088427 0.000000 0.304096
O O13 0.269025 0.877961 0.380301
O O14 0.316819 0.000000 0.455922
O O15 0.789639 0.170872 0.734614
O O16 0.794313 0.000000 0.643050
O O17 0.765232 0.500000 0.906240
O O18 0.799889 0.684854 0.857646
O O19 0.714610 0.644558 0.050461
#
# Coordination Sequence:
#
# PCOD9169360 Si02
#       8
#     8   8   8   8   8   8   8   8
#     4  11  16  25  45  63  85 115 143 176 219 264
#     4   9  17  28  40  60  90 117 141 170 212 267
#     4   9  17  27  43  68  89 108 139 183 228 264
#     4   9  17  29  44  65  91 110 137 184 229 259
#     4   9  18  27  38  60  89 117 144 176 213 257
#     4  10  17  26  43  67  87 107 143 184 221 258
#     4  10  21  32  43  65  92 120 152 176 206 260
#     4  11  19  30  49  65  87 121 148 179 220 255
#
# _framework density 14.725695
#
# number of rings (size 3 to 8) (size 9 to 14) (size 15 to 20)
#    0.000    2.250    1.250    6.750    0.000    0.000 
#    0.000    0.000    0.000    1.500    0.000    5.250 
#    0.000    0.000    0.000   11.875    0.000    0.375 
#
# Total GULP energy -178433.093897 kJ/mol
# GULP energy per Si atom -5576.034184 kJ/mol
# Density = 1.469218 g / cm^3
# Si number density = 14.725695 Si / 1000 Ang^3
#
#
#
# Elastic Constant Matrix: (Units=GPa)
#
#
# Indices 1 2 3 4 5 6 
#
# 1 81.6545 48.7243 24.3230 0.0000 -5.7459 0.0000
# 2 48.7243 90.6671 24.5892 0.0000 -6.4558 0.0000
# 3 24.3230 24.5892 56.7915 0.0000 1.3403 0.0000
# 4 0.0000 0.0000 0.0000 16.3516 0.0000 0.6595
# 5 -5.7459 -6.4558 1.3403 0.0000 16.1705 0.0000
# 6 0.0000 0.0000 0.0000 0.6595 0.0000 20.1385
#
#
#
# Elastic Compliance Matrix: (Units=1/GPa)
#
#
# Indices 1 2 3 4 5 6 
#
# 1 0.019068 -0.008781 -0.004451 0.000000 0.003639 0.000000
# 2 -0.008781 0.017039 -0.003711 0.000000 0.003990 0.000000
# 3 -0.004451 -0.003711 0.021235 0.000000 -0.004823 0.000000
# 4 0.000000 0.000000 0.000000 0.061237 0.000000 -0.002005
# 5 0.003639 0.003990 -0.004823 0.000000 0.065127 0.000000
# 6 0.000000 0.000000 0.000000 -0.002005 0.000000 0.049722
#
#
# Mechanical properties :
#
#
# Convention : Reuss Voigt Hill
#
# Bulk Modulus (GPa) = 42.63090 47.15401 44.89246
# Shear Modulus (GPa) = 18.17318 19.29725 18.73521
#
# Velocity S-wave (km/s) = 3.51681 3.62394 3.57077
# Velocity P-wave (km/s) = 6.74562 7.04284 6.89584
#
# Compressibility (1/GPa) = 0.02345716
#
# Stress axis : x y z
#
# Youngs Moduli (GPa) = 52.44300 58.68972 47.09242
#
# Poissons Ratio (x) = 0.51536 0.20959
# Poissons Ratio (y) = 0.46051 0.17474
# Poissons Ratio (z) = 0.23340 0.21778
#
# Static dielectric constant tensor:
#      x y z
#    x 1.490630 0.000000 0.016880 
#    y 0.000000 1.502450 0.000000 
#    z 0.016880 0.000000 1.477290 
# 
# From -- ./inp_files/183002.got.cif
#   From: 2010.05.17/outbox.cif.g08.bks.cpg/sg12_92_cif.got.tgz:183002.got - 2010.06.03 13:09:07.
