data_PCOD9169179
_publ_section_title
;
Structure prediction by ZEFSAII (Michael W. Deem and Ramdas Pophale) SiO2 
 PCOD9169179
Probable space group: C 2/M
;
_chemical_formula_sum "Si O2"
_cell_formula_units_Z 56
_cell_length_a 15.904582
_cell_length_b 7.928823
_cell_length_c 18.427044
_cell_angle_alpha 90.000000
_cell_angle_beta 114.453642
_cell_angle_gamma 90.000000
_cell_volume 2115.288113
_symmetry_space_group_name_H-M "C 2/M"
_symmetry_group_IT_number 12
_symmetry_cell_setting 'monoclinic'
loop_
_space_group_symop_operation_xyz
x,y,z
-x,y,-z
-x,-y,-z
x,-y,z
1/2+x,1/2+y,z
1/2-x,1/2+y,-z
1/2-x,1/2-y,-z
1/2+x,1/2-y,z
loop_
_atom_site_type_symbol
_atom_site_label
_atom_site_fract_x
_atom_site_fract_y
_atom_site_fract_z
Si Si1 0.780330 0.700247 0.613737
Si Si2 0.946340 0.305426 0.330306
Si Si3 0.114590 0.204179 0.906975
Si Si4 0.938115 0.805900 0.765085
Si Si5 0.730341 0.296752 0.804154
Si Si6 0.098514 0.301607 0.054881
Si Si7 0.899092 0.196042 0.517142
O O1 0.776714 0.500000 0.598662
O O2 0.841710 0.721936 0.707747
O O3 0.839980 0.783780 0.570823
O O4 0.676031 0.767608 0.566753
O O5 0.962877 0.500000 0.319096
O O6 0.838155 0.267795 0.282524
O O7 0.998039 0.201814 0.285341
O O8 0.001204 0.268028 0.424207
O O9 0.175554 0.246783 0.858988
O O10 0.146905 0.285140 0.993294
O O11 0.009729 0.264979 0.850028
O O12 0.113354 0.000000 0.912712
O O13 0.920004 0.000000 0.773827
O O14 0.733786 0.500000 0.798924
O O15 0.833355 0.232149 0.859087
O O16 0.085945 0.500000 0.065457
O O17 0.000000 0.219450 0.000000
O O18 0.912143 0.000000 0.506181
#
# Coordination Sequence:
#
# PCOD9169179 Si02
#       7
#     8   8   8   8   8   8   8
#     4   9  15  21  32  52  78 112 151 184 218 262
#     4  10  17  24  38  60  83 111 151 189 222 263
#     4   9  18  31  48  69  91 121 155 186 225 268
#     4   9  16  26  39  57  84 116 149 184 225 267
#     4   9  18  33  49  66  92 121 151 187 227 272
#     4  10  21  35  51  71  93 118 148 185 230 275
#     4   9  15  22  32  49  79 116 148 180 222 266
#
# _framework density 26.473934
#
# number of rings (size 3 to 8) (size 9 to 14) (size 15 to 20)
#    0.000    2.714    0.000    5.571    0.000    5.429 
#    0.000    0.000    0.000    0.000    0.000    0.000 
#    0.000    1.143    0.000   12.857    0.000   13.857 
#
# Total GULP energy -156549.843148 kJ/mol
# GULP energy per Si atom -5591.065827 kJ/mol
# Density = 2.641368 g / cm^3
# Si number density = 26.473934 Si / 1000 Ang^3
#
#
#
# Elastic Constant Matrix: (Units=GPa)
#
#
# Indices 1 2 3 4 5 6 
#
# 1 101.7757 9.6700 61.5122 0.0000 37.3223 0.0000
# 2 9.6700 67.9005 9.3059 0.0000 11.3637 0.0000
# 3 61.5122 9.3059 263.6401 0.0000 36.9599 0.0000
# 4 0.0000 0.0000 0.0000 32.8024 0.0000 2.4988
# 5 37.3223 11.3637 36.9599 0.0000 67.3282 0.0000
# 6 0.0000 0.0000 0.0000 2.4988 0.0000 2.8088
#
#
#
# Elastic Compliance Matrix: (Units=1/GPa)
#
#
# Indices 1 2 3 4 5 6 
#
# 1 0.013505 -0.000584 -0.002269 0.000000 -0.006142 0.000000
# 2 -0.000584 0.015190 -0.000093 0.000000 -0.002189 0.000000
# 3 -0.002269 -0.000093 0.004493 0.000000 -0.001193 0.000000
# 4 0.000000 0.000000 0.000000 0.032702 0.000000 -0.029093
# 5 -0.006142 -0.002189 -0.001193 0.000000 0.019281 0.000000
# 6 0.000000 0.000000 0.000000 -0.029093 0.000000 0.381908
#
#
# Mechanical properties :
#
#
# Convention : Reuss Voigt Hill
#
# Bulk Modulus (GPa) = 36.63765 66.03248 51.33506
# Shear Modulus (GPa) = 10.37194 44.10976 27.24085
#
# Velocity S-wave (km/s) = 1.98149 4.08629 3.21123
# Velocity P-wave (km/s) = 4.37084 6.87461 5.76040
#
# Compressibility (1/GPa) = 0.02729433
#
# Stress axis : x y z
#
# Youngs Moduli (GPa) = 74.04735 65.83403 222.56746
#
# Poissons Ratio (x) = 0.03847 0.50507
# Poissons Ratio (y) = 0.04327 0.02069
# Poissons Ratio (z) = 0.16803 0.00612
#
# Static dielectric constant tensor:
#      x y z
#    x 2.222850 0.000000 0.007210 
#    y 0.000000 1.894980 0.000000 
#    z 0.007210 0.000000 2.110290 
# 
# From -- ./inp_files/342517.got.cif
#   From: 2010.05.17/outbox.cif.g08.bks.cpg/sg12_172_cif.got.tgz:342517.got - 2010.06.03 13:09:07.
