data_PCOD9169342
_publ_section_title
;
Structure prediction by ZEFSAII (Michael W. Deem and Ramdas Pophale) SiO2 
 PCOD9169342
Probable space group: C 2/M
;
_chemical_formula_sum "Si O2"
_cell_formula_units_Z 56
_cell_length_a 24.855435
_cell_length_b 8.737724
_cell_length_c 23.213811
_cell_angle_alpha 90.000000
_cell_angle_beta 134.884683
_cell_angle_gamma 90.000000
_cell_volume 3572.098845
_symmetry_space_group_name_H-M "C 2/M"
_symmetry_group_IT_number 12
_symmetry_cell_setting 'monoclinic'
loop_
_space_group_symop_operation_xyz
x,y,z
-x,y,-z
-x,-y,-z
x,-y,z
1/2+x,1/2+y,z
1/2-x,1/2+y,-z
1/2-x,1/2-y,-z
1/2+x,1/2-y,z
loop_
_atom_site_type_symbol
_atom_site_label
_atom_site_fract_x
_atom_site_fract_y
_atom_site_fract_z
Si Si1 0.230776 0.682142 0.547580
Si Si2 0.583184 0.315890 0.492760
Si Si3 0.589039 0.316508 0.633409
Si Si4 0.744552 0.815903 0.777963
Si Si5 0.823662 0.317918 0.723191
Si Si6 0.886506 0.180615 0.948561
Si Si7 0.967001 0.818728 0.883844
O O1 0.236180 0.500000 0.550713
O O2 0.250000 0.750000 0.500000
O O3 0.146831 0.733428 0.503934
O O4 0.287919 0.748622 0.638718
O O5 0.591101 0.500000 0.492909
O O6 0.594661 0.280306 0.569301
O O7 0.496267 0.274621 0.412268
O O8 0.596479 0.500000 0.644121
O O9 0.658063 0.236413 0.717891
O O10 0.776892 0.748096 0.742503
O O11 0.801731 0.761149 0.871944
O O12 0.749485 0.000000 0.778456
O O13 0.816118 0.500000 0.717188
O O14 0.911066 0.268675 0.798882
O O15 0.926739 0.192404 0.916275
O O16 0.880659 0.000000 0.957174
O O17 0.947420 0.242079 0.040714
O O18 0.968695 0.000000 0.870806
#
# Coordination Sequence:
#
# PCOD9169342 Si02
#       7
#     8   8   8   8   8   8   8
#     4  12  24  37  52  69  89 118 155 195 234 274
#     4   9  18  33  49  67  92 121 152 188 232 274
#     4   9  17  29  47  68  94 124 151 186 230 273
#     4  10  17  26  42  65  91 121 156 189 222 268
#     4  11  20  30  43  62  89 118 151 190 230 272
#     4   7  12  22  37  57  84 116 148 183 221 261
#     4   8  13  25  41  56  79 115 153 184 219 266
#
# _framework density 15.677058000000001
#
# number of rings (size 3 to 8) (size 9 to 14) (size 15 to 20)
#    0.000    2.571    1.429    5.571    0.000    0.571 
#    0.000    7.857    0.000    0.000    0.000    0.000 
#    0.000    1.143    0.000    3.429    0.000    5.571 
#
# Total GULP energy -155929.024249 kJ/mol
# GULP energy per Si atom -5568.893723 kJ/mol
# Density = 1.564138 g / cm^3
# Si number density = 15.677058 Si / 1000 Ang^3
#
#
#
# Elastic Constant Matrix: (Units=GPa)
#
#
# Indices 1 2 3 4 5 6 
#
# 1 64.5410 38.4672 61.7307 0.0000 16.4103 0.0000
# 2 38.4672 68.7658 46.3781 0.0000 12.3958 0.0000
# 3 61.7307 46.3781 127.9338 0.0000 40.3330 0.0000
# 4 0.0000 0.0000 0.0000 18.0447 0.0000 5.5142
# 5 16.4103 12.3958 40.3330 0.0000 28.1589 0.0000
# 6 0.0000 0.0000 0.0000 5.5142 0.0000 19.9743
#
#
#
# Elastic Compliance Matrix: (Units=1/GPa)
#
#
# Indices 1 2 3 4 5 6 
#
# 1 0.034003 -0.010306 -0.014321 0.000000 0.005233 0.000000
# 2 -0.010306 0.022491 -0.003561 0.000000 0.001205 0.000000
# 3 -0.014321 -0.003561 0.023507 0.000000 -0.023757 0.000000
# 4 0.000000 0.000000 0.000000 0.060524 0.000000 -0.016709
# 5 0.005233 0.001205 -0.023757 0.000000 0.065960 0.000000
# 6 0.000000 0.000000 0.000000 -0.016709 0.000000 0.054677
#
#
# Mechanical properties :
#
#
# Convention : Reuss Voigt Hill
#
# Bulk Modulus (GPa) = 42.32480 61.59919 51.96199
# Shear Modulus (GPa) = 15.36504 20.87988 18.12246
#
# Velocity S-wave (km/s) = 3.13405 3.65345 3.40367
# Velocity P-wave (km/s) = 6.33663 7.56140 6.97595
#
# Compressibility (1/GPa) = 0.02362681
#
# Stress axis : x y z
#
# Youngs Moduli (GPa) = 29.40880 44.46153 42.54014
#
# Poissons Ratio (x) = 0.45822 0.60922
# Poissons Ratio (y) = 0.30309 0.15147
# Poissons Ratio (z) = 0.42116 0.15831
#
# Static dielectric constant tensor:
#      x y z
#    x 1.507580 0.000000 0.048320 
#    y 0.000000 1.524910 0.000000 
#    z 0.048320 0.000000 1.560270 
# 
# From -- ./inp_files/323817.got.cif
#   From: 2010.05.17/outbox.cif.g08.bks.cpg/sg12_162_cif.got.tgz:323817.got - 2010.06.03 13:09:07.
