data_PCOD9169365
_publ_section_title
;
Structure prediction by ZEFSAII (Michael W. Deem and Ramdas Pophale) SiO2 
 PCOD9169365
Probable space group: C 2/M
;
_chemical_formula_sum "Si O2"
_cell_formula_units_Z 60
_cell_length_a 19.631109
_cell_length_b 16.312099
_cell_length_c 14.000378
_cell_angle_alpha 90.000000
_cell_angle_beta 123.799820
_cell_angle_gamma 90.000000
_cell_volume 3725.531716
_symmetry_space_group_name_H-M "C 2/M"
_symmetry_group_IT_number 12
_symmetry_cell_setting 'monoclinic'
loop_
_space_group_symop_operation_xyz
x,y,z
-x,y,-z
-x,-y,-z
x,-y,z
1/2+x,1/2+y,z
1/2-x,1/2+y,-z
1/2-x,1/2-y,-z
1/2+x,1/2-y,z
loop_
_atom_site_type_symbol
_atom_site_label
_atom_site_fract_x
_atom_site_fract_y
_atom_site_fract_z
Si Si1 0.279917 0.176631 0.091906
Si Si2 0.389296 0.718060 0.798437
Si Si3 0.120017 0.092539 0.033166
Si Si4 0.500000 0.840876 0.000000
Si Si5 0.730486 0.294002 0.749780
Si Si6 0.423320 0.404225 0.369339
Si Si7 0.512157 0.404112 0.238244
Si Si8 0.656557 0.906704 0.026184
O O1 0.204612 0.114569 0.047128
O O2 0.299370 0.217494 0.208351
O O3 0.250000 0.250000 0.000000
O O4 0.347480 0.130346 0.083312
O O5 0.387505 0.655694 0.886777
O O6 0.299129 0.760670 0.728891
O O7 0.418241 0.663437 0.731053
O O8 0.456762 0.784467 0.885156
O O9 0.119563 0.000000 0.069602
O O10 0.047941 0.100783 0.900099
O O11 0.569616 0.895086 0.007161
O O12 0.651450 0.345938 0.658177
O O13 0.781155 0.353192 0.861349
O O14 0.500000 0.396002 0.500000
O O15 0.397145 0.500000 0.349104
O O16 0.458150 0.385609 0.290198
O O17 0.540158 0.500000 0.268282
O O18 0.683709 0.000000 0.044891
#
# Coordination Sequence:
#
# PCOD9169365 Si02
#       8
#     8   8   8   4   8   8   8   8
#     4   9  17  26  41  63  89 122 153 187 223 271
#     4  10  18  29  44  70 103 128 154 182 227 282
#     4  10  17  26  43  69 100 127 154 182 222 282
#     4  10  19  26  39  60  96 132 160 182 211 254
#     4   9  19  31  47  67  92 124 152 190 242 279
#     4  10  21  36  53  71  90 116 159 208 247 283
#     4  10  18  28  48  72  97 130 157 193 240 279
#     4  10  18  28  41  62  94 130 161 182 212 269
#
# _framework density 16.105083
#
# number of rings (size 3 to 8) (size 9 to 14) (size 15 to 20)
#    0.000    2.267    1.333    3.800    1.867    2.133 
#    0.000    0.667    0.000    0.000    0.000    0.000 
#    0.000   18.133    0.000    0.000    0.000    0.000 
#
# Total GULP energy -167113.406478 kJ/mol
# GULP energy per Si atom -5570.446883 kJ/mol
# Density = 1.606843 g / cm^3
# Si number density = 16.105083 Si / 1000 Ang^3
#
#
#
# Elastic Constant Matrix: (Units=GPa)
#
#
# Indices 1 2 3 4 5 6 
#
# 1 61.1129 26.4475 16.8183 0.0000 14.1225 0.0000
# 2 26.4475 69.4614 12.2010 0.0000 9.2237 0.0000
# 3 16.8183 12.2010 22.6895 0.0000 12.7148 0.0000
# 4 0.0000 0.0000 0.0000 11.6824 0.0000 1.8169
# 5 14.1225 9.2237 12.7148 0.0000 12.8996 0.0000
# 6 0.0000 0.0000 0.0000 1.8169 0.0000 25.8916
#
#
#
# Elastic Compliance Matrix: (Units=1/GPa)
#
#
# Indices 1 2 3 4 5 6 
#
# 1 0.024412 -0.006097 -0.005099 0.000000 -0.017341 0.000000
# 2 -0.006097 0.017674 -0.003671 0.000000 -0.002344 0.000000
# 3 -0.005099 -0.003671 0.101034 0.000000 -0.091378 0.000000
# 4 0.000000 0.000000 0.000000 0.086543 0.000000 -0.006073
# 5 -0.017341 -0.002344 -0.091378 0.000000 0.188252 0.000000
# 6 0.000000 0.000000 0.000000 -0.006073 0.000000 0.039049
#
#
# Mechanical properties :
#
#
# Convention : Reuss Voigt Hill
#
# Bulk Modulus (GPa) = 8.81945 29.35527 19.08736
# Shear Modulus (GPa) = 9.53301 16.61453 13.07377
#
# Velocity S-wave (km/s) = 2.43559 3.21539 2.85226
# Velocity P-wave (km/s) = 3.66027 5.66144 4.76704
#
# Compressibility (1/GPa) = 0.11338580
#
# Stress axis : x y z
#
# Youngs Moduli (GPa) = 40.96306 56.58060 9.89769
#
# Poissons Ratio (x) = 0.34495 0.05047
# Poissons Ratio (y) = 0.24973 0.03634
# Poissons Ratio (z) = 0.20888 0.20771
#
# Static dielectric constant tensor:
#      x y z
#    x 1.581810 0.000000 0.005040 
#    y 0.000000 1.577910 0.000000 
#    z 0.005040 0.000000 1.506590 
# 
# From -- ./inp_files/226334.got.cif
#   From: 2010.05.17/outbox.cif.g08.bks.cpg/sg12_114_cif.got.tgz:226334.got - 2010.06.03 13:09:07.
