data_PCOD9169571
_publ_section_title
;
Structure prediction by ZEFSAII (Michael W. Deem and Ramdas Pophale) SiO2 
 PCOD9169571
Probable space group: C 2/M
;
_chemical_formula_sum "Si O2"
_cell_formula_units_Z 48
_cell_length_a 24.893029
_cell_length_b 7.955722
_cell_length_c 15.581673
_cell_angle_alpha 90.000000
_cell_angle_beta 105.764205
_cell_angle_gamma 90.000000
_cell_volume 2969.761609
_symmetry_space_group_name_H-M "C 2/M"
_symmetry_group_IT_number 12
_symmetry_cell_setting 'monoclinic'
loop_
_space_group_symop_operation_xyz
x,y,z
-x,y,-z
-x,-y,-z
x,-y,z
1/2+x,1/2+y,z
1/2-x,1/2+y,-z
1/2-x,1/2-y,-z
1/2+x,1/2-y,z
loop_
_atom_site_type_symbol
_atom_site_label
_atom_site_fract_x
_atom_site_fract_y
_atom_site_fract_z
Si Si1 0.215637 0.803659 0.352416
Si Si2 0.049344 0.702600 0.459146
Si Si3 0.975421 0.695665 0.748759
Si Si4 0.907559 0.000000 0.936589
Si Si5 0.020503 0.000000 0.869461
Si Si6 0.634363 0.812829 0.178980
Si Si7 0.325615 0.301506 0.479255
O O1 0.189569 0.711710 0.259924
O O2 0.281494 0.782591 0.396214
O O3 0.188025 0.739612 0.429668
O O4 0.201083 0.000000 0.337191
O O5 0.052085 0.500000 0.464970
O O6 0.036228 0.745007 0.354596
O O7 0.109920 0.769946 0.510953
O O8 0.000000 0.761153 0.500000
O O9 0.994441 0.500000 0.759981
O O10 0.015655 0.831636 0.810411
O O11 0.917110 0.702601 0.775811
O O12 0.874309 0.165919 0.893444
O O13 0.927651 0.000000 0.043258
O O14 0.964571 0.000000 0.904508
O O15 0.632140 0.000000 0.140735
O O16 0.313876 0.500000 0.473298
#
# Coordination Sequence:
#
# PCOD9169571 Si02
#       7
#     8   8   8   4   4   8   8
#     4  10  18  29  45  65  95 128 160 196 235 282
#     4  10  20  33  47  65  94 131 166 202 239 276
#     4   9  18  30  46  65  90 127 163 195 233 282
#     4   9  18  30  42  68  92 122 153 196 244 285
#     4   9  18  30  47  62  92 122 159 198 236 288
#     4  10  17  27  46  66  93 126 157 190 235 290
#     4  10  20  29  44  67  92 125 165 200 232 276
#
# _framework density 16.162915000000002
#
# number of rings (size 3 to 8) (size 9 to 14) (size 15 to 20)
#    0.000    2.333    2.500    1.000    1.167    2.333 
#    0.000    3.333    0.000    0.000    0.000    0.000 
#    0.000    1.333    0.667    0.000    0.000    0.000 
#
# Total GULP energy -133800.928994 kJ/mol
# GULP energy per Si atom -5575.038708 kJ/mol
# Density = 1.612613 g / cm^3
# Si number density = 16.162915 Si / 1000 Ang^3
#
#
#
# Elastic Constant Matrix: (Units=GPa)
#
#
# Indices 1 2 3 4 5 6 
#
# 1 61.1685 16.9854 26.9847 0.0000 12.2113 0.0000
# 2 16.9854 81.7180 47.4897 0.0000 15.0363 0.0000
# 3 26.9847 47.4897 77.1753 0.0000 28.3353 0.0000
# 4 0.0000 0.0000 0.0000 20.6894 0.0000 5.5754
# 5 12.2113 15.0363 28.3353 0.0000 20.2517 0.0000
# 6 0.0000 0.0000 0.0000 5.5754 0.0000 14.8083
#
#
#
# Elastic Compliance Matrix: (Units=1/GPa)
#
#
# Indices 1 2 3 4 5 6 
#
# 1 0.019540 -0.000355 -0.004904 0.000000 -0.004657 0.000000
# 2 -0.000355 0.019270 -0.013489 0.000000 0.004779 0.000000
# 3 -0.004904 -0.013489 0.037446 0.000000 -0.039421 0.000000
# 4 0.000000 0.000000 0.000000 0.053792 0.000000 -0.020253
# 5 -0.004657 0.004779 -0.039421 0.000000 0.103795 0.000000
# 6 0.000000 0.000000 0.000000 -0.020253 0.000000 0.075155
#
#
# Mechanical properties :
#
#
# Convention : Reuss Voigt Hill
#
# Bulk Modulus (GPa) = 25.79855 44.77571 35.28713
# Shear Modulus (GPa) = 13.91158 19.72337 16.81748
#
# Velocity S-wave (km/s) = 2.93697 3.49705 3.22917
# Velocity P-wave (km/s) = 5.24378 6.63842 5.98189
#
# Compressibility (1/GPa) = 0.03876187
#
# Stress axis : x y z
#
# Youngs Moduli (GPa) = 51.17722 51.89310 26.70506
#
# Poissons Ratio (x) = 0.01840 0.13097
# Poissons Ratio (y) = 0.01814 0.36021
# Poissons Ratio (z) = 0.25098 0.69997
#
# Static dielectric constant tensor:
#      x y z
#    x 1.519950 0.000000 0.010270 
#    y 0.000000 1.570770 0.000000 
#    z 0.010270 0.000000 1.523900 
# 
# From -- ./inp_files/173132.got.cif
#   From: 2010.05.17/outbox.cif.g08.bks.cpg/sg12_87_cif.got.tgz:173132.got - 2010.06.03 13:09:07.
