data_PCOD9169402
_publ_section_title
;
Structure prediction by ZEFSAII (Michael W. Deem and Ramdas Pophale) SiO2 
 PCOD9169402
Probable space group: C 2/M
;
_chemical_formula_sum "Si O2"
_cell_formula_units_Z 64
_cell_length_a 23.419456
_cell_length_b 8.696754
_cell_length_c 21.016001
_cell_angle_alpha 90.000000
_cell_angle_beta 60.720423
_cell_angle_gamma 90.000000
_cell_volume 3733.549285
_symmetry_space_group_name_H-M "C 2/M"
_symmetry_group_IT_number 12
_symmetry_cell_setting 'monoclinic'
loop_
_space_group_symop_operation_xyz
x,y,z
-x,y,-z
-x,-y,-z
x,-y,z
1/2+x,1/2+y,z
1/2-x,1/2+y,-z
1/2-x,1/2-y,-z
1/2+x,1/2-y,z
loop_
_atom_site_type_symbol
_atom_site_label
_atom_site_fract_x
_atom_site_fract_y
_atom_site_fract_z
Si Si1 0.542896 0.314250 0.413922
Si Si2 0.579025 0.815389 0.754647
Si Si3 0.688166 0.182903 0.344187
Si Si4 0.485083 0.184220 0.913254
Si Si5 0.307691 0.815410 0.207094
Si Si6 0.567683 0.684342 0.620631
Si Si7 0.800149 0.184561 0.524063
Si Si8 0.100020 0.183304 0.940938
O O1 0.500000 0.276798 0.500000
O O2 0.551286 0.500000 0.409493
O O3 0.613540 0.237418 0.376550
O O4 0.499650 0.267886 0.376493
O O5 0.512176 0.773244 0.828816
O O6 0.640661 0.766879 0.765134
O O7 0.579908 0.750884 0.683541
O O8 0.581664 0.000000 0.750256
O O9 0.736785 0.258318 0.266626
O O10 0.710454 0.242016 0.401472
O O11 0.692726 0.000000 0.338577
O O12 0.544478 0.240192 0.926201
O O13 0.479752 0.000000 0.920404
O O14 0.420166 0.260510 0.977634
O O15 0.333464 0.742928 0.127192
O O16 0.310145 0.000000 0.201360
O O17 0.566891 0.500000 0.626011
O O18 0.627407 0.723547 0.540981
O O19 0.750000 0.250000 0.500000
O O20 0.794305 0.000000 0.531988
O O21 0.095599 0.000000 0.939821
#
# Coordination Sequence:
#
# PCOD9169402 Si02
#       8
#     8   8   8   8   8   8   8   8
#     4  10  20  40  60  73  95 132 174 217 263 313
#     4   9  19  32  49  74 105 137 171 211 253 300
#     4  12  24  36  53  79 103 131 171 219 264 307
#     4   9  16  28  44  66 100 143 178 202 245 311
#     4  10  20  35  52  72 104 145 175 206 256 316
#     4  10  21  35  54  74  97 132 172 212 258 306
#     4  11  22  37  53  75 104 138 172 209 255 313
#     4  10  17  26  44  72 102 133 171 217 255 293
#
# _framework density 17.141866
#
# number of rings (size 3 to 8) (size 9 to 14) (size 15 to 20)
#    0.000    1.875    1.250    5.625    0.000    6.750 
#    0.000    0.000    0.000    0.000    0.000    0.875 
#    0.000    0.000    0.000    0.000    0.000    0.000 
#
# Total GULP energy -178543.893913 kJ/mol
# GULP energy per Si atom -5579.496685 kJ/mol
# Density = 1.710285 g / cm^3
# Si number density = 17.141866 Si / 1000 Ang^3
#
#
#
# Elastic Constant Matrix: (Units=GPa)
#
#
# Indices 1 2 3 4 5 6 
#
# 1 50.0627 11.4254 5.6290 0.0000 -18.0988 -0.0003
# 2 11.4254 42.5471 26.7170 0.0000 -10.2088 -0.0012
# 3 5.6290 26.7170 94.6348 0.0000 -29.8616 0.0000
# 4 0.0000 0.0000 0.0000 34.3150 0.0000 -7.7684
# 5 -18.0988 -10.2088 -29.8616 0.0000 20.2908 0.0000
# 6 -0.0003 -0.0012 0.0000 -7.7684 0.0000 27.4134
#
#
#
# Elastic Compliance Matrix: (Units=1/GPa)
#
#
# Indices 1 2 3 4 5 6 
#
# 1 0.042133 -0.008697 0.019468 0.000000 0.061856 0.000000
# 2 -0.008697 0.030602 -0.010664 0.000000 -0.008054 0.000001
# 3 0.019468 -0.010664 0.030256 0.000000 0.056527 0.000000
# 4 0.000000 0.000000 0.000000 0.031139 0.000000 0.008824
# 5 0.061856 -0.008054 0.056527 0.000000 0.183596 0.000001
# 6 0.000000 0.000001 0.000000 0.008824 0.000001 0.038979
#
#
# Mechanical properties :
#
#
# Convention : Reuss Voigt Hill
#
# Bulk Modulus (GPa) = 9.68931 30.53191 20.11061
# Shear Modulus (GPa) = 12.79117 25.96873 19.37995
#
# Velocity S-wave (km/s) = 2.73462 3.89643 3.36603
# Velocity P-wave (km/s) = 3.95418 6.17194 5.18307
#
# Compressibility (1/GPa) = 0.10320654
#
# Stress axis : x y z
#
# Youngs Moduli (GPa) = 23.73416 32.67713 33.05076
#
# Poissons Ratio (x) = 0.28419 -0.64342
# Poissons Ratio (y) = 0.20641 0.35244
# Poissons Ratio (z) = -0.46205 0.34846
#
# Static dielectric constant tensor:
#      x y z
#    x 1.567740 0.000000 -0.019960 
#    y 0.000000 1.571370 0.000000 
#    z -0.019960 0.000000 1.617910 
# 
# From -- ./inp_files/319801.got.cif
#   From: 2010.05.17/outbox.cif.g08.bks.cpg/sg12_160_cif.got.tgz:319801.got - 2010.06.03 13:09:07.
