data_PCOD9169741
_publ_section_title
;
Structure prediction by ZEFSAII (Michael W. Deem and Ramdas Pophale) SiO2 
 PCOD9169741
Probable space group: C 2/M
;
_chemical_formula_sum "Si O2"
_cell_formula_units_Z 60
_cell_length_a 19.228190
_cell_length_b 11.279931
_cell_length_c 17.527620
_cell_angle_alpha 90.000000
_cell_angle_beta 135.107291
_cell_angle_gamma 90.000000
_cell_volume 2683.107188
_symmetry_space_group_name_H-M "C 2/M"
_symmetry_group_IT_number 12
_symmetry_cell_setting 'monoclinic'
loop_
_space_group_symop_operation_xyz
x,y,z
-x,y,-z
-x,-y,-z
x,-y,z
1/2+x,1/2+y,z
1/2-x,1/2+y,-z
1/2-x,1/2-y,-z
1/2+x,1/2-y,z
loop_
_atom_site_type_symbol
_atom_site_label
_atom_site_fract_x
_atom_site_fract_y
_atom_site_fract_z
Si Si1 0.344171 0.134598 0.246426
Si Si2 0.924806 0.364228 0.145875
Si Si3 0.871942 0.876150 0.563196
Si Si4 0.644124 0.634475 0.994661
Si Si5 0.142935 0.626524 0.434277
Si Si6 0.500000 0.721243 0.000000
Si Si7 0.166675 0.749760 0.605304
Si Si8 0.625929 0.863118 0.206599
O O1 0.415197 0.146492 0.229416
O O2 0.364922 0.219294 0.333989
O O3 0.350344 0.000000 0.280771
O O4 0.236480 0.148539 0.124125
O O5 0.887197 0.500000 0.098891
O O6 0.864828 0.251286 0.065437
O O7 0.032279 0.359934 0.190346
O O8 0.901255 0.753154 0.624136
O O9 0.753998 0.878853 0.487328
O O10 0.884778 0.855188 0.482584
O O11 0.915314 0.000000 0.623393
O O12 0.651389 0.500000 0.966953
O O13 0.545242 0.642929 0.968443
O O14 0.096958 0.500000 0.379996
O O15 0.151994 0.643235 0.533068
O O16 0.415639 0.808223 0.903408
O O17 0.281673 0.784258 0.697731
O O18 0.656903 0.000000 0.223464
#
# Coordination Sequence:
#
# PCOD9169741 Si02
#       8
#     8   8   8   8   8   4   8   8
#     4  10  19  32  48  69  94 121 161 200 238 281
#     4   9  20  36  50  64  89 128 163 198 238 284
#     4   8  15  27  43  68  99 122 145 186 235 280
#     4  10  19  32  48  67  90 122 158 201 244 284
#     4   8  15  27  44  68  97 124 147 181 234 288
#     4  10  18  32  44  68  93 124 157 200 241 286
#     4  10  17  28  46  74  95 119 153 194 236 274
#     4  10  19  31  47  68  95 125 160 198 241 279
#
# _framework density 22.362131999999999
#
# number of rings (size 3 to 8) (size 9 to 14) (size 15 to 20)
#    0.800    1.867    1.333    1.600    0.000    0.533 
#    0.000    2.000    0.000    0.000    0.000    3.733 
#    0.000   17.067    0.000    0.000    0.000    0.000 
#
# Total GULP energy -167091.589102 kJ/mol
# GULP energy per Si atom -5569.719637 kJ/mol
# Density = 2.231123 g / cm^3
# Si number density = 22.362132 Si / 1000 Ang^3
#
#
#
# Elastic Constant Matrix: (Units=GPa)
#
#
# Indices 1 2 3 4 5 6 
#
# 1 61.7717 26.6361 -5.1536 0.0000 -10.8070 0.0000
# 2 26.6361 194.1772 40.4943 0.0000 -9.9954 0.0000
# 3 -5.1536 40.4943 42.2442 0.0000 -16.2136 0.0000
# 4 0.0000 0.0000 0.0000 22.1378 0.0000 5.2439
# 5 -10.8070 -9.9954 -16.2136 0.0000 31.6362 0.0000
# 6 0.0000 0.0000 0.0000 5.2439 0.0000 -0.1157
#
#
#
# Elastic Compliance Matrix: (Units=1/GPa)
#
#
# Indices 1 2 3 4 5 6 
#
# 1 0.021254 -0.004739 0.011636 0.000000 0.011727 0.000000
# 2 -0.004739 0.007544 -0.009356 0.000000 -0.004030 0.000000
# 3 0.011636 -0.009356 0.042887 0.000000 0.022998 0.000000
# 4 0.000000 0.000000 0.000000 0.003847 0.000000 0.174454
# 5 0.011727 -0.004030 0.022998 0.000000 0.046129 0.000000
# 6 0.000000 0.000000 0.000000 0.174454 0.000000 -0.736472
#
#
# Mechanical properties :
#
#
# Convention : Reuss Voigt Hill
#
# Bulk Modulus (GPa) = 14.97729 46.90519 30.94124
# Shear Modulus (GPa) = -8.50865 26.47943 8.98539
#
# Velocity S-wave (km/s) = -1.95274 3.44484 2.00670
# Velocity P-wave (km/s) = 1.27589 6.06987 4.38584
#
# Compressibility (1/GPa) = 0.06676776
#
# Stress axis : x y z
#
# Youngs Moduli (GPa) = 47.04931 132.56234 23.31711
#
# Poissons Ratio (x) = 0.62815 -0.27132
# Poissons Ratio (y) = 0.22294 0.21816
# Poissons Ratio (z) = -0.54747 1.24026
#
# Static dielectric constant tensor:
#      x y z
#    x 1.876600 0.000000 0.007390 
#    y 0.000000 1.848670 0.000000 
#    z 0.007390 0.000000 1.816850 
# 
# From -- ./inp_files/282607.got.cif
#   From: 2010.05.17/outbox.cif.g08.bks.cpg/sg12_142_cif.got.tgz:282607.got - 2010.06.03 13:09:07.
