data_PCOD9169041
_publ_section_title
;
Structure prediction by ZEFSAII (Michael W. Deem and Ramdas Pophale) SiO2 
 PCOD9169041
Probable space group: C 2/M
;
_chemical_formula_sum "Si O2"
_cell_formula_units_Z 44
_cell_length_a 25.510724
_cell_length_b 9.039143
_cell_length_c 12.971817
_cell_angle_alpha 90.000000
_cell_angle_beta 129.344425
_cell_angle_gamma 90.000000
_cell_volume 2313.269937
_symmetry_space_group_name_H-M "C 2/M"
_symmetry_group_IT_number 12
_symmetry_cell_setting 'monoclinic'
loop_
_space_group_symop_operation_xyz
x,y,z
-x,y,-z
-x,-y,-z
x,-y,z
1/2+x,1/2+y,z
1/2-x,1/2+y,-z
1/2-x,1/2-y,-z
1/2+x,1/2-y,z
loop_
_atom_site_type_symbol
_atom_site_label
_atom_site_fract_x
_atom_site_fract_y
_atom_site_fract_z
Si Si1 0.858101 0.666340 0.900066
Si Si2 0.500000 0.252459 0.000000
Si Si3 0.555753 0.334654 0.284617
Si Si4 0.954323 0.177935 0.342941
Si Si5 0.685148 0.822616 0.369963
Si Si6 0.825126 0.319976 0.086952
O O1 0.831150 0.500000 0.875364
O O2 0.821590 0.736970 0.756169
O O3 0.935746 0.662464 0.960414
O O4 0.850707 0.729216 0.004532
O O5 0.476768 0.339139 0.869787
O O6 0.579387 0.500000 0.342320
O O7 0.500745 0.288124 0.300648
O O8 0.618892 0.226007 0.350842
O O9 0.881737 0.257707 0.237077
O O10 0.000000 0.217345 0.500000
O O11 0.943038 0.000000 0.331874
O O12 0.750000 0.750000 0.500000
O O13 0.688902 0.000000 0.372021
O O14 0.822903 0.500000 0.092025
O O15 0.750000 0.250000 0.000000
#
# Coordination Sequence:
#
# PCOD9169041 Si02
#       6
#     8   4   8   8   8   8
#     4   9  19  34  57  84 113 148 188 236 293 353
#     4  10  16  32  58  88 111 140 183 238 289 338
#     4  10  20  34  56  86 115 146 186 238 294 347
#     4  10  22  41  62  86 120 163 204 247 302 366
#     4  10  21  37  56  82 116 153 191 236 296 359
#     4  11  23  41  62  88 120 160 207 256 304 359
#
# _framework density 19.020693999999999
#
# number of rings (size 3 to 8) (size 9 to 14) (size 15 to 20)
#    0.000    2.000    1.818    1.636    0.000    3.273 
#    0.000   10.000    0.000    0.000    0.000    0.000 
#    0.000    0.000    0.000    0.000    0.000    0.000 
#
# Total GULP energy -122538.264606 kJ/mol
# GULP energy per Si atom -5569.921118 kJ/mol
# Density = 1.897740 g / cm^3
# Si number density = 19.020694 Si / 1000 Ang^3
#
#
#
# Elastic Constant Matrix: (Units=GPa)
#
#
# Indices 1 2 3 4 5 6 
#
# 1 103.0159 31.2210 72.6300 0.0000 1.6224 0.0000
# 2 31.2210 65.1795 45.1184 0.0000 14.2831 0.0000
# 3 72.6300 45.1184 147.9935 0.0000 21.0130 0.0000
# 4 0.0000 0.0000 0.0000 12.0891 0.0000 4.3258
# 5 1.6224 14.2831 21.0130 0.0000 29.9948 0.0000
# 6 0.0000 0.0000 0.0000 4.3258 0.0000 25.4554
#
#
#
# Elastic Compliance Matrix: (Units=1/GPa)
#
#
# Indices 1 2 3 4 5 6 
#
# 1 0.016173 -0.003823 -0.007669 0.000000 0.006318 0.000000
# 2 -0.003823 0.021259 -0.003550 0.000000 -0.007429 0.000000
# 3 -0.007669 -0.003550 0.012553 0.000000 -0.006688 0.000000
# 4 0.000000 0.000000 0.000000 0.088075 0.000000 -0.014967
# 5 0.006318 -0.007429 -0.006688 0.000000 0.041221 0.000000
# 6 0.000000 0.000000 0.000000 -0.014967 0.000000 0.041828
#
#
# Mechanical properties :
#
#
# Convention : Reuss Voigt Hill
#
# Bulk Modulus (GPa) = 50.24885 68.23641 59.24263
# Shear Modulus (GPa) = 19.39298 24.65583 22.02441
#
# Velocity S-wave (km/s) = 3.19654 3.60427 3.40651
# Velocity P-wave (km/s) = 6.33239 7.29889 6.83275
#
# Compressibility (1/GPa) = 0.01990095
#
# Stress axis : x y z
#
# Youngs Moduli (GPa) = 61.83096 47.03900 79.66476
#
# Poissons Ratio (x) = 0.17983 0.61093
# Poissons Ratio (y) = 0.23638 0.28282
# Poissons Ratio (z) = 0.47417 0.16699
#
# Static dielectric constant tensor:
#      x y z
#    x 1.655810 0.000000 -0.014430 
#    y 0.000000 1.677020 0.000000 
#    z -0.014430 0.000000 1.688660 
# 
# From -- ./inp_files/181305.got.cif
#   From: 2010.05.17/outbox.cif.g08.bks.cpg/sg12_91_cif.got.tgz:181305.got - 2010.06.03 13:09:07.
