data_PCOD9169975
_publ_section_title
;
Structure prediction by ZEFSAII (Michael W. Deem and Ramdas Pophale) SiO2 
 PCOD9169975
Probable space group: C 2/M
;
_chemical_formula_sum "Si O2"
_cell_formula_units_Z 56
_cell_length_a 30.899419
_cell_length_b 7.656505
_cell_length_c 17.377982
_cell_angle_alpha 90.000000
_cell_angle_beta 133.523535
_cell_angle_gamma 90.000000
_cell_volume 2981.076194
_symmetry_space_group_name_H-M "C 2/M"
_symmetry_group_IT_number 12
_symmetry_cell_setting 'monoclinic'
loop_
_space_group_symop_operation_xyz
x,y,z
-x,y,-z
-x,-y,-z
x,-y,z
1/2+x,1/2+y,z
1/2-x,1/2+y,-z
1/2-x,1/2-y,-z
1/2+x,1/2-y,z
loop_
_atom_site_type_symbol
_atom_site_label
_atom_site_fract_x
_atom_site_fract_y
_atom_site_fract_z
Si Si1 0.195994 0.709650 0.491713
Si Si2 0.111243 0.702602 0.122101
Si Si3 0.724442 0.293960 0.848411
Si Si4 0.052470 0.286010 0.892927
Si Si5 0.658622 0.789358 0.916058
Si Si6 0.247318 0.202895 0.282817
Si Si7 0.082540 0.285638 0.258175
O O1 0.189998 0.500000 0.489761
O O2 0.250000 0.750000 0.500000
O O3 0.215032 0.774878 0.599304
O O4 0.134717 0.775371 0.379042
O O5 0.092736 0.500000 0.102639
O O6 0.182338 0.710389 0.196882
O O7 0.095770 0.775623 0.187132
O O8 0.078057 0.776203 0.006695
O O9 0.731895 0.500000 0.847286
O O10 0.671715 0.262430 0.844525
O O11 0.719341 0.216809 0.757524
O O12 0.784863 0.225459 0.963931
O O13 0.054055 0.500000 0.895613
O O14 0.097865 0.229529 0.881701
O O15 0.984014 0.233860 0.799691
O O16 0.659771 0.000000 0.920036
O O17 0.234747 0.000000 0.283436
O O18 0.084673 0.500000 0.259952
#
# Coordination Sequence:
#
# PCOD9169975 Si02
#       7
#     8   8   8   8   8   8   8
#     4  10  20  33  50  72  97 130 169 206 242 281
#     4  10  17  29  49  74 100 130 165 197 239 292
#     4  10  19  32  50  73  98 127 163 199 245 297
#     4   9  16  28  48  76 102 126 160 202 245 289
#     4   9  17  30  49  74 101 124 154 200 250 296
#     4  11  21  31  47  72 103 132 162 202 245 285
#     4   9  17  29  49  73  99 130 166 205 240 282
#
# _framework density 18.785162
#
# number of rings (size 3 to 8) (size 9 to 14) (size 15 to 20)
#    0.000    2.286    2.857    1.286    0.000    2.857 
#    0.000    0.000    0.000    5.143    0.000    6.000 
#    0.000    0.000    0.000    0.000    0.000    0.000 
#
# Total GULP energy -156241.438688 kJ/mol
# GULP energy per Si atom -5580.051382 kJ/mol
# Density = 1.874241 g / cm^3
# Si number density = 18.785162 Si / 1000 Ang^3
#
#
#
# Elastic Constant Matrix: (Units=GPa)
#
#
# Indices 1 2 3 4 5 6 
#
# 1 133.0483 -5.9568 93.2719 0.0000 -3.8246 0.0000
# 2 -5.9568 32.1690 -4.2226 0.0000 1.8743 0.0000
# 3 93.2719 -4.2226 136.4800 0.0000 3.1381 0.0000
# 4 0.0000 0.0000 0.0000 3.1382 0.0000 -0.2306
# 5 -3.8246 1.8743 3.1381 0.0000 33.1467 0.0000
# 6 0.0000 0.0000 0.0000 -0.2306 0.0000 17.2465
#
#
#
# Elastic Compliance Matrix: (Units=1/GPa)
#
#
# Indices 1 2 3 4 5 6 
#
# 1 0.014707 0.001251 -0.010071 0.000000 0.002580 0.000000
# 2 0.001251 0.031434 0.000156 0.000000 -0.001648 0.000000
# 3 -0.010071 0.000156 0.014273 0.000000 -0.002522 0.000000
# 4 0.000000 0.000000 0.000000 0.318967 0.000000 0.004265
# 5 0.002580 -0.001648 -0.002522 0.000000 0.030799 0.000000
# 6 0.000000 0.000000 0.000000 0.004265 0.000000 0.058040
#
#
# Mechanical properties :
#
#
# Convention : Reuss Voigt Hill
#
# Bulk Modulus (GPa) = 23.21071 51.98695 37.59883
# Shear Modulus (GPa) = 10.00182 25.27993 17.64087
#
# Velocity S-wave (km/s) = 2.30995 3.67241 3.06777
# Velocity P-wave (km/s) = 4.41556 6.76141 5.71025
#
# Compressibility (1/GPa) = 0.04308356
#
# Stress axis : x y z
#
# Youngs Moduli (GPa) = 67.99706 31.81282 70.06409
#
# Poissons Ratio (x) = -0.03980 0.70563
# Poissons Ratio (y) = -0.08506 -0.01090
# Poissons Ratio (z) = 0.68481 -0.00495
#
# Static dielectric constant tensor:
#      x y z
#    x 1.633230 0.000000 -0.012450 
#    y 0.000000 1.716150 0.000000 
#    z -0.012450 0.000000 1.646840 
# 
# From -- ./inp_files/237867.got.cif
#   From: 2010.05.17/outbox.cif.g08.bks.cpg/sg12_119_cif.got.tgz:237867.got - 2010.06.03 13:09:07.
