data_PCOD9169217
_publ_section_title
;
Structure prediction by ZEFSAII (Michael W. Deem and Ramdas Pophale) SiO2 
 PCOD9169217
Probable space group: C 2/M
;
_chemical_formula_sum "Si O2"
_cell_formula_units_Z 48
_cell_length_a 11.511177
_cell_length_b 33.642794
_cell_length_c 7.648135
_cell_angle_alpha 90.000000
_cell_angle_beta 48.358076
_cell_angle_gamma 90.000000
_cell_volume 2213.448085
_symmetry_space_group_name_H-M "C 2/M"
_symmetry_group_IT_number 12
_symmetry_cell_setting 'monoclinic'
loop_
_space_group_symop_operation_xyz
x,y,z
-x,y,-z
-x,-y,-z
x,-y,z
1/2+x,1/2+y,z
1/2-x,1/2+y,-z
1/2-x,1/2-y,-z
1/2+x,1/2-y,z
loop_
_atom_site_type_symbol
_atom_site_label
_atom_site_fract_x
_atom_site_fract_y
_atom_site_fract_z
Si Si1 0.934980 0.875119 0.864658
Si Si2 0.063830 0.705765 0.631057
Si Si3 0.565046 0.124883 0.234592
Si Si4 0.936489 0.456641 0.363817
Si Si5 0.063849 0.794237 0.741262
Si Si6 0.436460 0.543359 0.263234
O O1 0.996442 0.834023 0.719941
O O2 0.993083 0.916635 0.725882
O O3 0.750013 0.874305 0.055927
O O4 0.000000 0.876034 0.000000
O O5 0.014820 0.750002 0.735180
O O6 0.249990 0.703639 0.451476
O O7 0.000000 0.703222 0.500000
O O8 0.996402 0.665980 0.787212
O O9 0.500000 0.123968 0.500000
O O10 0.506955 0.083366 0.212010
O O11 0.977049 0.500000 0.245538
O O12 0.000000 0.457888 0.500000
O O13 0.750014 0.453057 0.555242
O O14 0.000000 0.796782 0.000000
O O15 0.477007 0.500000 0.300408
O O16 0.500000 0.542112 0.000000
#
# Coordination Sequence:
#
# PCOD9169217 Si02
#       6
#     8   8   8   8   8   8
#     4  10  17  25  39  57  81 112 144 180 220 264
#     4  10  20  33  49  68  91 120 153 189 228 270
#     4  10  17  25  39  57  81 112 144 180 220 264
#     4   9  15  22  33  50  75 107 141 176 214 259
#     4  10  20  33  49  68  91 120 153 189 228 270
#     4   9  15  22  33  50  75 107 141 176 214 259
#
# _framework density 21.685624000000001
#
# number of rings (size 3 to 8) (size 9 to 14) (size 15 to 20)
#    0.000    2.333    0.000    9.000    0.000    4.667 
#    0.000    0.000    0.000    0.000    0.000    0.000 
#    0.000    1.333    0.000    4.333    0.000   16.333 
#
# Total GULP energy -133774.684009 kJ/mol
# GULP energy per Si atom -5573.945167 kJ/mol
# Density = 2.163627 g / cm^3
# Si number density = 21.685624 Si / 1000 Ang^3
#
#
#
# Elastic Constant Matrix: (Units=GPa)
#
#
# Indices 1 2 3 4 5 6 
#
# 1 27.1074 40.6584 30.1427 0.0000 -4.7667 0.0000
# 2 40.6584 310.3070 68.6560 0.0000 -30.6028 0.0000
# 3 30.1427 68.6560 59.6955 0.0000 -30.8683 0.0000
# 4 0.0000 0.0000 0.0000 32.5211 0.0000 -12.2672
# 5 -4.7667 -30.6028 -30.8683 0.0000 29.1580 0.0000
# 6 0.0000 0.0000 0.0000 -12.2672 0.0000 21.2997
#
#
#
# Elastic Compliance Matrix: (Units=1/GPa)
#
#
# Indices 1 2 3 4 5 6 
#
# 1 0.333516 -0.002869 -0.305962 0.000000 -0.272397 0.000000
# 2 -0.002869 0.004381 -0.003215 0.000000 0.000726 0.000000
# 3 -0.305962 -0.003215 0.325547 0.000000 0.291249 0.000000
# 4 0.000000 0.000000 0.000000 0.039283 0.000000 0.022625
# 5 -0.272397 0.000726 0.291249 0.000000 0.298859 0.000000
# 6 0.000000 0.000000 0.000000 0.022625 0.000000 0.059979
#
#
# Mechanical properties :
#
#
# Convention : Reuss Voigt Hill
#
# Bulk Modulus (GPa) = 25.41217 75.11379 50.26298
# Shear Modulus (GPa) = 2.94330 33.77262 18.35796
#
# Velocity S-wave (km/s) = 1.16628 3.95064 2.91271
# Velocity P-wave (km/s) = 3.68205 7.45137 5.87709
#
# Compressibility (1/GPa) = 0.03935122
#
# Stress axis : x y z
#
# Youngs Moduli (GPa) = 2.99836 228.23416 3.07176
#
# Poissons Ratio (x) = 0.65473 0.93984
# Poissons Ratio (y) = 0.00860 0.00988
# Poissons Ratio (z) = 0.91738 0.73388
#
# Static dielectric constant tensor:
#      x y z
#    x 1.856970 0.000000 0.093190 
#    y 0.000000 1.967910 0.000000 
#    z 0.093190 0.000000 1.771640 
# 
# From -- ./inp_files/150200.got.cif
#   From: 2010.05.17/outbox.cif.g08.bks.cpg/sg12_76_cif.got.tgz:150200.got - 2010.06.03 13:09:07.
