data_PCOD9169369
_publ_section_title
;
Structure prediction by ZEFSAII (Michael W. Deem and Ramdas Pophale) SiO2 
 PCOD9169369
Probable space group: C 2/M
;
_chemical_formula_sum "Si O2"
_cell_formula_units_Z 40
_cell_length_a 15.927639
_cell_length_b 7.762631
_cell_length_c 22.364657
_cell_angle_alpha 90.000000
_cell_angle_beta 32.366776
_cell_angle_gamma 90.000000
_cell_volume 1480.300667
_symmetry_space_group_name_H-M "C 2/M"
_symmetry_group_IT_number 12
_symmetry_cell_setting 'monoclinic'
loop_
_space_group_symop_operation_xyz
x,y,z
-x,y,-z
-x,-y,-z
x,-y,z
1/2+x,1/2+y,z
1/2-x,1/2+y,-z
1/2-x,1/2-y,-z
1/2+x,1/2-y,z
loop_
_atom_site_type_symbol
_atom_site_label
_atom_site_fract_x
_atom_site_fract_y
_atom_site_fract_z
Si Si1 0.500989 0.211221 0.229531
Si Si2 0.664494 0.300586 0.419342
Si Si3 0.012394 0.296835 0.623476
Si Si4 0.175912 0.300970 0.836101
Si Si5 0.658548 0.697565 0.982885
O O1 0.335219 0.274030 0.304077
O O2 0.493594 0.258968 0.304037
O O3 0.669554 0.269638 0.102935
O O4 0.502625 0.000000 0.225708
O O5 0.500000 0.214782 0.500000
O O6 0.665056 0.500000 0.397840
O O7 0.637611 0.300003 0.507450
O O8 0.042812 0.500000 0.602598
O O9 0.833316 0.260917 0.709108
O O10 0.196835 0.500000 0.838661
O O11 0.167491 0.202274 0.904345
O O12 0.007707 0.286696 0.904771
O O13 0.646305 0.500000 0.007878
#
# Coordination Sequence:
#
# PCOD9169369 Si02
#       5
#     8   8   8   8   8
#     4   8  16  30  49  73  98 127 160 194 235 281
#     4  10  20  34  51  71  97 127 159 198 243 287
#     4  10  19  32  50  71  97 128 163 199 235 281
#     4  10  17  26  43  70 100 125 155 195 240 284
#     4   9  15  26  44  68  99 129 157 190 233 284
#
# _framework density 27.021536999999999
#
# number of rings (size 3 to 8) (size 9 to 14) (size 15 to 20)
#    0.000    2.600    0.000    6.000    0.000    0.400 
#    0.000    5.000    0.000    1.200    0.000    0.000 
#    0.000    0.000    0.000    0.000    0.000    0.000 
#
# Total GULP energy -111883.128553 kJ/mol
# GULP energy per Si atom -5594.156428 kJ/mol
# Density = 2.696003 g / cm^3
# Si number density = 27.021537 Si / 1000 Ang^3
#
#
#
# Elastic Constant Matrix: (Units=GPa)
#
#
# Indices 1 2 3 4 5 6 
#
# 1 107.6696 7.5267 52.9894 0.0000 -39.7902 0.0000
# 2 7.5267 95.7748 -4.2899 0.0000 1.6364 0.0000
# 3 52.9894 -4.2899 216.9352 -0.0001 -36.2964 0.0001
# 4 0.0000 0.0000 -0.0001 43.8530 0.0000 -22.6069
# 5 -39.7902 1.6364 -36.2964 0.0000 69.2899 0.0000
# 6 0.0000 0.0000 0.0001 -22.6069 0.0000 61.1379
#
#
#
# Elastic Compliance Matrix: (Units=1/GPa)
#
#
# Indices 1 2 3 4 5 6 
#
# 1 0.012699 -0.001198 -0.002083 0.000000 0.006229 0.000000
# 2 -0.001198 0.010565 0.000378 0.000000 -0.000739 0.000000
# 3 -0.002083 0.000378 0.005397 0.000000 0.001622 0.000000
# 4 0.000000 0.000000 0.000000 0.028174 0.000000 0.010418
# 5 0.006229 -0.000739 0.001622 0.000000 0.018877 0.000000
# 6 0.000000 0.000000 0.000000 0.010418 0.000000 0.020209
#
#
# Mechanical properties :
#
#
# Convention : Reuss Voigt Hill
#
# Bulk Modulus (GPa) = 43.75489 59.20357 51.47923
# Shear Modulus (GPa) = 45.72685 59.13306 52.42995
#
# Velocity S-wave (km/s) = 4.11814 4.68307 4.40967
# Velocity P-wave (km/s) = 6.23217 7.15534 6.70965
#
# Compressibility (1/GPa) = 0.02285459
#
# Stress axis : x y z
#
# Youngs Moduli (GPa) = 78.74760 94.65362 185.27399
#
# Poissons Ratio (x) = 0.11337 0.38598
# Poissons Ratio (y) = 0.09432 -0.06999
# Poissons Ratio (z) = 0.16405 -0.03576
#
# Static dielectric constant tensor:
#      x y z
#    x 2.299480 0.000000 -0.004500 
#    y 0.000000 1.913990 0.000000 
#    z -0.004500 0.000000 2.087370 
# 
# From -- ./inp_files/220564.got.cif
#   From: 2010.05.17/outbox.cif.g08.bks.cpg/sg12_111_cif.got.tgz:220564.got - 2010.06.03 13:09:07.
