data_PCOD9169289
_publ_section_title
;
Structure prediction by ZEFSAII (Michael W. Deem and Ramdas Pophale) SiO2 
 PCOD9169289
Probable space group: C 2/M
;
_chemical_formula_sum "Si O2"
_cell_formula_units_Z 64
_cell_length_a 10.090448
_cell_length_b 25.205464
_cell_length_c 22.284650
_cell_angle_alpha 90.000000
_cell_angle_beta 144.699370
_cell_angle_gamma 90.000000
_cell_volume 3275.205503
_symmetry_space_group_name_H-M "C 2/M"
_symmetry_group_IT_number 12
_symmetry_cell_setting 'monoclinic'
loop_
_space_group_symop_operation_xyz
x,y,z
-x,y,-z
-x,-y,-z
x,-y,z
1/2+x,1/2+y,z
1/2-x,1/2+y,-z
1/2-x,1/2-y,-z
1/2+x,1/2-y,z
loop_
_atom_site_type_symbol
_atom_site_label
_atom_site_fract_x
_atom_site_fract_y
_atom_site_fract_z
Si Si1 0.828677 0.792336 0.715076
Si Si2 0.654796 0.316825 0.696191
Si Si3 0.842196 0.562541 0.183537
Si Si4 0.746334 0.124148 0.392241
Si Si5 0.511495 0.359321 0.124406
Si Si6 0.783744 0.768406 0.886314
Si Si7 0.583332 0.140351 0.897838
Si Si8 0.334695 0.190498 0.517016
O O1 0.723948 0.744872 0.718167
O O2 0.904691 0.844406 0.779076
O O3 0.597816 0.805753 0.593166
O O4 0.071535 0.766796 0.784139
O O5 0.724281 0.337030 0.654331
O O6 0.385937 0.329338 0.602211
O O7 0.813642 0.349367 0.800597
O O8 0.823099 0.500000 0.171207
O O9 0.629231 0.589596 0.138838
O O10 0.865496 0.591290 0.127609
O O11 0.063480 0.580843 0.303913
O O12 0.664856 0.157126 0.420306
O O13 0.000000 0.102717 0.500000
O O14 0.608305 0.309214 0.121428
O O15 0.240314 0.362920 0.014051
O O16 0.672679 0.807519 0.894943
O O17 0.000000 0.740787 0.000000
O O18 0.250000 0.250000 0.500000
#
# Coordination Sequence:
#
# PCOD9169289 Si02
#       8
#     8   8   8   8   8   8   8   8
#     4  10  17  25  43  62  83 115 152 177 217 264
#     4   8  16  27  41  59  81 115 152 175 215 260
#     4  10  18  28  42  61  86 119 154 187 220 255
#     4   9  16  29  44  59  89 122 149 183 214 260
#     4  10  18  29  43  61  89 119 150 184 216 258
#     4   8  16  27  38  57  84 112 147 175 210 263
#     4   8  16  28  40  56  80 114 151 180 207 251
#     4   9  16  26  41  62  82 112 152 176 215 260
#
# _framework density 19.540759000000001
#
# number of rings (size 3 to 8) (size 9 to 14) (size 15 to 20)
#    0.000    3.000    1.250    1.875    0.000    5.750 
#    0.000    0.000    0.000    0.000    0.000    0.000 
#    0.000    0.500    0.000   20.750    3.000    0.000 
#
# Total GULP energy -178297.380130 kJ/mol
# GULP energy per Si atom -5571.793129 kJ/mol
# Density = 1.949628 g / cm^3
# Si number density = 19.540759 Si / 1000 Ang^3
#
#
#
# Elastic Constant Matrix: (Units=GPa)
#
#
# Indices 1 2 3 4 5 6 
#
# 1 56.5941 25.8879 29.7166 0.0000 20.4845 0.0000
# 2 25.8879 85.7727 46.2172 -0.0001 10.5107 0.0000
# 3 29.7166 46.2172 189.0751 0.0001 36.3138 0.0000
# 4 0.0000 -0.0001 0.0001 12.0825 0.0001 0.3083
# 5 20.4845 10.5107 36.3138 0.0001 20.3093 0.0000
# 6 0.0000 0.0000 0.0000 0.3083 0.0000 10.3616
#
#
#
# Elastic Compliance Matrix: (Units=1/GPa)
#
#
# Indices 1 2 3 4 5 6 
#
# 1 0.031504 -0.007131 0.003329 0.000000 -0.034037 0.000000
# 2 -0.007131 0.015078 -0.003728 0.000000 0.006055 0.000000
# 3 0.003329 -0.003728 0.009064 0.000000 -0.017635 0.000000
# 4 0.000000 0.000000 0.000000 0.082827 0.000000 -0.002465
# 5 -0.034037 0.006055 -0.017635 0.000000 0.111968 -0.000001
# 6 0.000000 0.000000 0.000000 -0.002465 -0.000001 0.096583
#
#
# Mechanical properties :
#
#
# Convention : Reuss Voigt Hill
#
# Bulk Modulus (GPa) = 24.63936 59.45391 42.04664
# Shear Modulus (GPa) = 13.31160 23.85869 18.58514
#
# Velocity S-wave (km/s) = 2.61285 3.49803 3.08733
# Velocity P-wave (km/s) = 4.66254 6.84153 5.85431
#
# Compressibility (1/GPa) = 0.04058547
#
# Stress axis : x y z
#
# Youngs Moduli (GPa) = 31.74234 66.32326 110.32833
#
# Poissons Ratio (x) = 0.47296 -0.36728
# Poissons Ratio (y) = 0.22636 0.41126
# Poissons Ratio (z) = -0.10567 0.24723
#
# Static dielectric constant tensor:
#      x y z
#    x 1.754180 0.000000 0.008160 
#    y 0.000000 1.622910 0.000000 
#    z 0.008160 0.000000 1.796060 
# 
# From -- ./inp_files/337116.got.cif
#   From: 2010.05.17/outbox.cif.g08.bks.cpg/sg12_169_cif.got.tgz:337116.got - 2010.06.03 13:09:07.
