data_PCOD9169942
_publ_section_title
;
Structure prediction by ZEFSAII (Michael W. Deem and Ramdas Pophale) SiO2 
 PCOD9169942
Probable space group: C 2/M
;
_chemical_formula_sum "Si O2"
_cell_formula_units_Z 44
_cell_length_a 18.935859
_cell_length_b 15.532983
_cell_length_c 7.343143
_cell_angle_alpha 90.000000
_cell_angle_beta 101.178342
_cell_angle_gamma 90.000000
_cell_volume 2118.865994
_symmetry_space_group_name_H-M "C 2/M"
_symmetry_group_IT_number 12
_symmetry_cell_setting 'monoclinic'
loop_
_space_group_symop_operation_xyz
x,y,z
-x,y,-z
-x,-y,-z
x,-y,z
1/2+x,1/2+y,z
1/2-x,1/2+y,-z
1/2-x,1/2-y,-z
1/2+x,1/2-y,z
loop_
_atom_site_type_symbol
_atom_site_label
_atom_site_fract_x
_atom_site_fract_y
_atom_site_fract_z
Si Si1 0.000000 0.639640 0.500000
Si Si2 0.333764 0.668691 0.198010
Si Si3 0.986891 0.781446 0.202358
Si Si4 0.264233 0.851813 0.146843
Si Si5 0.149921 0.209271 0.382788
Si Si6 0.347590 0.909525 0.524472
O O1 0.030113 0.701696 0.673868
O O2 0.066578 0.589568 0.453638
O O3 0.417467 0.656683 0.185138
O O4 0.312342 0.767062 0.131873
O O5 0.328150 0.667840 0.413125
O O6 0.274371 0.615469 0.055738
O O7 0.065534 0.810679 0.311585
O O8 0.000000 0.756833 0.000000
O O9 0.197304 0.825335 0.242809
O O10 0.312471 0.907545 0.305936
O O11 0.163619 0.312954 0.400785
O O12 0.324278 0.000000 0.603138
#
# Coordination Sequence:
#
# PCOD9169942 Si02
#       6
#     4   8   8   8   8   8
#     4  10  19  34  46  68 102 142 169 198 237 294
#     4  10  17  29  48  72  98 126 159 209 255 287
#     4  11  17  28  49  75 103 128 164 209 249 295
#     4  10  19  31  51  73  98 128 171 213 252 287
#     4  10  19  32  52  73 100 131 169 210 251 289
#     4  10  19  32  51  71 100 141 172 199 246 299
#
# _framework density 20.765825
#
# number of rings (size 3 to 8) (size 9 to 14) (size 15 to 20)
#    0.000    1.818    7.273    2.455    0.000    0.000 
#    0.000    0.000    0.000   48.545    0.000    2.545 
#    0.000    7.273    0.000    0.000    0.000    0.000 
#
# Total GULP energy -122508.065494 kJ/mol
# GULP energy per Si atom -5568.548432 kJ/mol
# Density = 2.071856 g / cm^3
# Si number density = 20.765825 Si / 1000 Ang^3
#
#
#
# Elastic Constant Matrix: (Units=GPa)
#
#
# Indices 1 2 3 4 5 6 
#
# 1 91.9934 -12.3478 16.6508 0.0000 23.3420 0.0000
# 2 -12.3478 12.2016 -6.3961 0.0000 -0.3209 0.0000
# 3 16.6508 -6.3961 115.8631 0.0000 10.9666 0.0000
# 4 0.0000 0.0000 0.0000 -20.7220 0.0000 -22.1534
# 5 23.3420 -0.3209 10.9666 0.0000 47.6195 0.0000
# 6 0.0000 0.0000 0.0000 -22.1534 0.0000 -15.7512
#
#
#
# Elastic Compliance Matrix: (Units=1/GPa)
#
#
# Indices 1 2 3 4 5 6 
#
# 1 0.014674 0.014321 -0.000661 0.000000 -0.006944 0.000000
# 2 0.014321 0.098388 0.004064 0.000000 -0.007293 0.000000
# 3 -0.000661 0.004064 0.009116 0.000000 -0.001748 0.000000
# 4 0.000000 0.000000 0.000000 0.095825 0.000000 -0.134774
# 5 -0.006944 -0.007293 -0.001748 0.000000 0.024757 0.000000
# 6 0.000000 0.000000 0.000000 -0.134774 0.000000 0.126066
#
#
# Mechanical properties :
#
#
# Convention : Reuss Voigt Hill
#
# Bulk Modulus (GPa) = 6.34419 23.98576 15.16497
# Shear Modulus (GPa) = 12.95604 17.03933 14.99769
#
# Velocity S-wave (km/s) = 2.50053 2.86763 2.69035
# Velocity P-wave (km/s) = 3.37618 4.74764 4.11939
#
# Compressibility (1/GPa) = 0.15762459
#
# Stress axis : x y z
#
# Youngs Moduli (GPa) = 68.14667 10.16389 109.70167
#
# Poissons Ratio (x) = -0.14556 0.07251
# Poissons Ratio (y) = -0.97593 -0.44578
# Poissons Ratio (z) = 0.04504 -0.04130
#
# Static dielectric constant tensor:
#      x y z
#    x 1.778650 0.000000 0.038570 
#    y 0.000000 1.808710 0.000000 
#    z 0.038570 0.000000 1.784040 
# 
# From -- ./inp_files/85276.got.cif
#   From: 2010.05.17/outbox.cif.g08.bks.cpg/sg12_43_cif.got.tgz:85276.got - 2010.06.03 13:09:07.
