data_PCOD9169051
_publ_section_title
;
Structure prediction by ZEFSAII (Michael W. Deem and Ramdas Pophale) SiO2 
 PCOD9169051
Probable space group: C 2/M
;
_chemical_formula_sum "Si O2"
_cell_formula_units_Z 38
_cell_length_a 16.197924
_cell_length_b 14.501788
_cell_length_c 10.231628
_cell_angle_alpha 90.000000
_cell_angle_beta 135.614296
_cell_angle_gamma 90.000000
_cell_volume 1681.140794
_symmetry_space_group_name_H-M "C 2/M"
_symmetry_group_IT_number 12
_symmetry_cell_setting 'monoclinic'
loop_
_space_group_symop_operation_xyz
x,y,z
-x,y,-z
-x,-y,-z
x,-y,z
1/2+x,1/2+y,z
1/2-x,1/2+y,-z
1/2-x,1/2-y,-z
1/2+x,1/2-y,z
loop_
_atom_site_type_symbol
_atom_site_label
_atom_site_fract_x
_atom_site_fract_y
_atom_site_fract_z
Si Si1 0.899827 0.292689 0.778009
Si Si2 0.730714 0.196461 0.777646
Si Si3 0.187762 0.500000 0.352568
Si Si4 0.954446 0.000000 0.639678
Si Si5 0.000000 0.000000 0.000000
Si Si6 0.221073 0.500000 0.699106
Si Si7 0.064592 0.805921 0.767305
O O1 0.790711 0.232116 0.710772
O O2 0.871443 0.401513 0.747053
O O3 0.957127 0.252864 0.709935
O O4 0.000000 0.276897 0.000000
O O5 0.631143 0.262411 0.720525
O O6 0.675584 0.095627 0.702968
O O7 0.835861 0.190746 0.004754
O O8 0.319148 0.500000 0.441528
O O9 0.197906 0.500000 0.519822
O O10 0.019831 0.906422 0.679277
O O11 0.955286 0.000000 0.798472
O O12 0.139142 0.000000 0.111476
#
# Coordination Sequence:
#
# PCOD9169051 Si02
#       7
#     8   8   4   4   2   4   8
#     4  10  22  42  63  85 126 169 209 255 313 370
#     4  10  21  38  65  96 122 162 211 255 306 373
#     4  11  25  39  61  94 122 168 211 255 315 381
#     4  11  21  36  64  91 125 155 206 260 304 364
#     4  10  16  32  62  88 110 156 194 236 304 346
#     4  11  21  36  64  91 125 155 206 260 304 364
#     4  10  21  38  65  96 122 162 211 255 306 373
#
# _framework density 22.603698000000001
#
# number of rings (size 3 to 8) (size 9 to 14) (size 15 to 20)
#    0.000    1.684    2.105    2.842    2.947    5.053 
#    0.000   12.632    0.000    0.000    0.000    0.000 
#    0.000    0.000    0.000    0.000    0.000    0.000 
#
# Total GULP energy -106007.177999 kJ/mol
# GULP energy per Si atom -5579.325158 kJ/mol
# Density = 2.255225 g / cm^3
# Si number density = 22.603698 Si / 1000 Ang^3
#
#
#
# Elastic Constant Matrix: (Units=GPa)
#
#
# Indices 1 2 3 4 5 6 
#
# 1 146.9849 96.9297 22.1097 0.0000 -5.9485 0.0000
# 2 96.9297 193.9162 -6.8225 0.0000 -0.9163 0.0000
# 3 22.1097 -6.8225 32.6830 0.0000 6.7795 0.0000
# 4 0.0000 0.0000 0.0000 7.5549 0.0000 -33.7206
# 5 -5.9485 -0.9163 6.7795 0.0000 24.6607 0.0000
# 6 0.0000 0.0000 0.0000 -33.7206 0.0000 128.6634
#
#
#
# Elastic Compliance Matrix: (Units=1/GPa)
#
#
# Indices 1 2 3 4 5 6 
#
# 1 0.013615 -0.007199 -0.012025 0.000000 0.006323 0.000000
# 2 -0.007199 0.009002 0.007466 0.000000 -0.003454 0.000000
# 3 -0.012025 0.007466 0.043304 0.000000 -0.014528 0.000000
# 4 0.000000 0.000000 0.000000 -0.779625 0.000000 -0.204327
# 5 0.006323 -0.003454 -0.014528 0.000000 0.045941 0.000000
# 6 0.000000 0.000000 0.000000 -0.204327 0.000000 -0.045779
#
#
# Mechanical properties :
#
#
# Convention : Reuss Voigt Hill
#
# Bulk Modulus (GPa) = 23.58258 66.44642 45.01450
# Shear Modulus (GPa) = -7.39765 49.60030 21.10132
#
# Velocity S-wave (km/s) = -1.81104 4.68946 3.05869
# Velocity P-wave (km/s) = 2.46628 7.66691 5.69491
#
# Compressibility (1/GPa) = 0.04240418
#
# Stress axis : x y z
#
# Youngs Moduli (GPa) = 73.44574 111.09101 23.09272
#
# Poissons Ratio (x) = 0.79974 0.27769
# Poissons Ratio (y) = 0.52873 -0.17240
# Poissons Ratio (z) = 0.88319 -0.82937
#
# Static dielectric constant tensor:
#      x y z
#    x 1.816680 0.000000 0.003260 
#    y 0.000000 1.862860 0.000000 
#    z 0.003260 0.000000 1.839830 
# 
# From -- ./inp_files/59291.got.cif
#   From: 2010.05.17/outbox.cif.g08.bks.cpg/sg12_30_cif.got.tgz:59291.got - 2010.06.03 13:09:07.
