data_PCOD9169463
_publ_section_title
;
Structure prediction by ZEFSAII (Michael W. Deem and Ramdas Pophale) SiO2 
 PCOD9169463
Probable space group: C 2/M
;
_chemical_formula_sum "Si O2"
_cell_formula_units_Z 64
_cell_length_a 19.107096
_cell_length_b 11.199452
_cell_length_c 14.203272
_cell_angle_alpha 90.000000
_cell_angle_beta 100.015880
_cell_angle_gamma 90.000000
_cell_volume 2993.023178
_symmetry_space_group_name_H-M "C 2/M"
_symmetry_group_IT_number 12
_symmetry_cell_setting 'monoclinic'
loop_
_space_group_symop_operation_xyz
x,y,z
-x,y,-z
-x,-y,-z
x,-y,z
1/2+x,1/2+y,z
1/2-x,1/2+y,-z
1/2-x,1/2-y,-z
1/2+x,1/2-y,z
loop_
_atom_site_type_symbol
_atom_site_label
_atom_site_fract_x
_atom_site_fract_y
_atom_site_fract_z
Si Si1 0.083378 0.130919 0.040942
Si Si2 0.036990 0.779204 0.216409
Si Si3 0.267930 0.125611 0.117025
Si Si4 0.891981 0.130015 0.267542
Si Si5 0.901528 0.636202 0.388008
Si Si6 0.246094 0.124615 0.885883
Si Si7 0.579717 0.135377 0.917573
Si Si8 0.427754 0.866879 0.608383
O O1 0.083203 0.150090 0.152298
O O2 0.113711 0.000000 0.020630
O O3 0.100587 0.256374 0.992787
O O4 0.000000 0.121565 0.000000
O O5 0.970531 0.853634 0.242596
O O6 0.993277 0.673684 0.150484
O O7 0.083051 0.726642 0.311573
O O8 0.231147 0.245231 0.144135
O O9 0.353822 0.130970 0.138660
O O10 0.246221 0.000000 0.154618
O O11 0.251909 0.123947 0.000405
O O12 0.875206 0.245821 0.327444
O O13 0.834810 0.122504 0.170019
O O14 0.888568 0.000000 0.315906
O O15 0.875843 0.500000 0.359438
O O16 0.894113 0.655333 0.498447
O O17 0.986469 0.633577 0.387193
O O18 0.280475 0.000000 0.861211
O O19 0.574489 0.000000 0.955513
O O20 0.407430 0.000000 0.634050
#
# Coordination Sequence:
#
# PCOD9169463 Si02
#       8
#     8   8   8   8   8   8   8   8
#     4   9  19  31  41  55  80 110 140 173 205 238
#     4  10  17  27  42  61  80 109 141 173 198 237
#     4   9  17  29  42  60  81 103 135 173 207 238
#     4  10  18  27  41  61  83 110 139 166 198 242
#     4   8  15  27  40  56  79 108 136 167 200 237
#     4   9  17  28  42  59  82 108 134 166 203 245
#     4  10  19  29  43  61  80 105 140 177 207 236
#     4   8  14  25  40  57  79 106 137 168 204 237
#
# _framework density 21.383063
#
# number of rings (size 3 to 8) (size 9 to 14) (size 15 to 20)
#    0.000    2.875    1.250    1.500    0.000    4.750 
#    0.000    5.625    0.000    0.000    0.000    0.000 
#    0.000    1.000    0.000    1.500    0.000    1.875 
#
# Total GULP energy -178185.488249 kJ/mol
# GULP energy per Si atom -5568.296508 kJ/mol
# Density = 2.133439 g / cm^3
# Si number density = 21.383063 Si / 1000 Ang^3
#
#
#
# Elastic Constant Matrix: (Units=GPa)
#
#
# Indices 1 2 3 4 5 6 
#
# 1 36.6608 8.4259 -3.2332 0.0000 6.5583 0.0000
# 2 8.4259 223.7197 51.3191 0.0000 -10.4421 0.0000
# 3 -3.2332 51.3191 82.9532 0.0000 -3.5571 0.0000
# 4 0.0000 0.0000 0.0000 19.6232 0.0000 -0.2500
# 5 6.5583 -10.4421 -3.5571 0.0000 15.5705 0.0000
# 6 0.0000 0.0000 0.0000 -0.2500 0.0000 5.8489
#
#
#
# Elastic Compliance Matrix: (Units=1/GPa)
#
#
# Indices 1 2 3 4 5 6 
#
# 1 0.030453 -0.002250 0.001984 0.000000 -0.013882 0.000000
# 2 -0.002250 0.005498 -0.003323 0.000000 0.003876 0.000000
# 3 0.001984 -0.003323 0.014196 0.000000 0.000179 0.000000
# 4 0.000000 0.000000 0.000000 0.050988 0.000000 0.002179
# 5 -0.013882 0.003876 0.000179 0.000000 0.072711 0.000000
# 6 0.000000 0.000000 0.000000 0.002179 0.000000 0.171065
#
#
# Mechanical properties :
#
#
# Convention : Reuss Voigt Hill
#
# Bulk Modulus (GPa) = 23.27328 50.70638 36.98983
# Shear Modulus (GPa) = 13.64591 27.33000 20.48795
#
# Velocity S-wave (km/s) = 2.52893 3.57895 3.09874
# Velocity P-wave (km/s) = 4.40851 6.39088 5.48991
#
# Compressibility (1/GPa) = 0.04296773
#
# Stress axis : x y z
#
# Youngs Moduli (GPa) = 32.83799 181.89468 70.44465
#
# Poissons Ratio (x) = 0.40924 -0.13973
# Poissons Ratio (y) = 0.07388 0.23406
# Poissons Ratio (z) = -0.06513 0.60437
#
# Static dielectric constant tensor:
#      x y z
#    x 1.775420 0.000000 0.021290 
#    y 0.000000 1.900940 0.000000 
#    z 0.021290 0.000000 1.799050 
# 
# From -- ./inp_files/245154.got.cif
#   From: 2010.05.17/outbox.cif.g08.bks.cpg/sg12_123_cif.got.tgz:245154.got - 2010.06.03 13:09:07.
