data_PCOD9169934
_publ_section_title
;
Structure prediction by ZEFSAII (Michael W. Deem and Ramdas Pophale) SiO2 
 PCOD9169934
Probable space group: C 2/M
;
_chemical_formula_sum "Si O2"
_cell_formula_units_Z 64
_cell_length_a 12.168107
_cell_length_b 18.999519
_cell_length_c 11.606365
_cell_angle_alpha 90.000000
_cell_angle_beta 108.598776
_cell_angle_gamma 90.000000
_cell_volume 2543.122041
_symmetry_space_group_name_H-M "C 2/M"
_symmetry_group_IT_number 12
_symmetry_cell_setting 'monoclinic'
loop_
_space_group_symop_operation_xyz
x,y,z
-x,y,-z
-x,-y,-z
x,-y,z
1/2+x,1/2+y,z
1/2-x,1/2+y,-z
1/2-x,1/2-y,-z
1/2+x,1/2-y,z
loop_
_atom_site_type_symbol
_atom_site_label
_atom_site_fract_x
_atom_site_fract_y
_atom_site_fract_z
Si Si1 0.100555 0.191600 0.162363
Si Si2 0.122619 0.841960 0.607194
Si Si3 0.615870 0.177348 0.995188
Si Si4 0.225825 0.921127 0.446263
Si Si5 0.521179 0.420585 0.774633
Si Si6 0.473515 0.777308 0.284103
Si Si7 0.244893 0.420977 0.909489
Si Si8 0.559578 0.075897 0.659164
O O1 0.986334 0.140239 0.130806
O O2 0.190063 0.133048 0.151813
O O3 0.083683 0.230399 0.280773
O O4 0.123597 0.256336 0.083321
O O5 0.216298 0.864313 0.544712
O O6 0.115004 0.765814 0.664849
O O7 0.000000 0.846531 0.500000
O O8 0.111899 0.897587 0.707619
O O9 0.589397 0.208798 0.859590
O O10 0.718413 0.121616 0.017154
O O11 0.500000 0.138850 0.000000
O O12 0.106607 0.918244 0.330516
O O13 0.337308 0.916641 0.400463
O O14 0.224301 0.000000 0.497042
O O15 0.537591 0.500000 0.820118
O O16 0.506228 0.850465 0.354613
O O17 0.293567 0.500000 0.933037
O O18 0.122394 0.428903 0.803498
O O19 0.500491 0.000000 0.622530
#
# Coordination Sequence:
#
# PCOD9169934 Si02
#       8
#     8   8   8   8   8   8   8   8
#     4  10  17  29  48  70  96 126 157 192 234 280
#     4   9  17  27  44  69  98 124 158 197 239 285
#     4   9  19  33  48  69 100 131 156 188 239 285
#     4   9  15  25  43  68  95 121 154 196 238 275
#     4   9  15  25  43  69  97 122 154 195 234 272
#     4   9  19  32  46  67 100 129 156 195 241 286
#     4  10  18  30  51  75  96 122 161 202 233 271
#     4   9  17  30  48  71  97 125 159 199 242 281
#
# _framework density 25.165915999999999
#
# number of rings (size 3 to 8) (size 9 to 14) (size 15 to 20)
#    0.000    2.750    1.250    1.125    0.000    2.250 
#    0.000    1.875    0.000   26.625    0.000    0.000 
#    0.000    0.000    0.000    0.000    0.000    0.000 
#
# Total GULP energy -178421.185057 kJ/mol
# GULP energy per Si atom -5575.662033 kJ/mol
# Density = 2.510864 g / cm^3
# Si number density = 25.165916 Si / 1000 Ang^3
#
#
#
# Elastic Constant Matrix: (Units=GPa)
#
#
# Indices 1 2 3 4 5 6 
#
# 1 60.7473 42.2697 22.7593 0.0000 -13.4898 0.0000
# 2 42.2697 229.3623 55.3446 0.0000 -42.1863 0.0000
# 3 22.7593 55.3446 103.1545 0.0000 -16.4152 0.0000
# 4 0.0000 0.0000 0.0000 18.7235 0.0000 -14.4189
# 5 -13.4898 -42.1863 -16.4152 0.0000 41.9468 0.0000
# 6 0.0000 0.0000 0.0000 -14.4189 0.0000 24.2704
#
#
#
# Elastic Compliance Matrix: (Units=1/GPa)
#
#
# Indices 1 2 3 4 5 6 
#
# 1 0.019800 -0.002506 -0.002572 0.000000 0.002841 0.000000
# 2 -0.002506 0.006153 -0.002018 0.000000 0.004593 0.000000
# 3 -0.002572 -0.002018 0.011613 0.000000 0.001688 0.000000
# 4 0.000000 0.000000 0.000000 0.098451 0.000000 0.058490
# 5 0.002841 0.004593 0.001688 0.000000 0.030033 0.000000
# 6 0.000000 0.000000 0.000000 0.058490 0.000000 0.075951
#
#
# Mechanical properties :
#
#
# Convention : Reuss Voigt Hill
#
# Bulk Modulus (GPa) = 42.78076 70.44572 56.61324
# Shear Modulus (GPa) = 18.94054 35.18085 27.06069
#
# Velocity S-wave (km/s) = 2.74638 3.74298 3.28272
# Velocity P-wave (km/s) = 5.20511 6.83617 6.07562
#
# Compressibility (1/GPa) = 0.02337500
#
# Stress axis : x y z
#
# Youngs Moduli (GPa) = 50.50583 162.51258 86.11181
#
# Poissons Ratio (x) = 0.40723 0.22148
# Poissons Ratio (y) = 0.12656 0.17374
# Poissons Ratio (z) = 0.12990 0.32789
#
# Static dielectric constant tensor:
#      x y z
#    x 2.107220 0.000000 0.088760 
#    y 0.000000 2.062680 0.000000 
#    z 0.088760 0.000000 2.042800 
# 
# From -- ./inp_files/215898.got.cif
#   From: 2010.05.17/outbox.cif.g08.bks.cpg/sg12_108_cif.got.tgz:215898.got - 2010.06.03 13:09:07.
