data_PCOD9169590
_publ_section_title
;
Structure prediction by ZEFSAII (Michael W. Deem and Ramdas Pophale) SiO2 
 PCOD9169590
Probable space group: C 2/M
;
_chemical_formula_sum "Si O2"
_cell_formula_units_Z 48
_cell_length_a 15.329237
_cell_length_b 13.912659
_cell_length_c 10.428368
_cell_angle_alpha 90.000000
_cell_angle_beta 78.775479
_cell_angle_gamma 90.000000
_cell_volume 2181.520698
_symmetry_space_group_name_H-M "C 2/M"
_symmetry_group_IT_number 12
_symmetry_cell_setting 'monoclinic'
loop_
_space_group_symop_operation_xyz
x,y,z
-x,y,-z
-x,-y,-z
x,-y,z
1/2+x,1/2+y,z
1/2-x,1/2+y,-z
1/2-x,1/2-y,-z
1/2+x,1/2-y,z
loop_
_atom_site_type_symbol
_atom_site_label
_atom_site_fract_x
_atom_site_fract_y
_atom_site_fract_z
Si Si1 0.070509 0.886926 0.096436
Si Si2 0.767561 0.615526 0.940195
Si Si3 0.389424 0.110834 0.132260
Si Si4 0.462264 0.257744 0.276951
Si Si5 0.283636 0.615644 0.318474
Si Si6 0.357030 0.890211 0.423621
O O1 0.044942 0.825739 0.228876
O O2 0.065883 0.000000 0.128280
O O3 0.168538 0.865325 0.018274
O O4 0.000000 0.871323 0.000000
O O5 0.778442 0.500000 0.936436
O O6 0.771413 0.646362 0.792078
O O7 0.837685 0.648798 0.024917
O O8 0.465809 0.181674 0.157619
O O9 0.329370 0.112083 0.280294
O O10 0.416972 0.000000 0.107913
O O11 0.375956 0.327253 0.292000
O O12 0.437038 0.186856 0.400602
O O13 0.300738 0.500000 0.305208
O O14 0.223304 0.633612 0.459737
O O15 0.385872 0.000000 0.442897
#
# Coordination Sequence:
#
# PCOD9169590 Si02
#       6
#     8   8   8   8   8   8
#     4  10  18  30  46  73 105 131 159 198 242 295
#     4   9  17  30  49  74 101 128 158 199 248 293
#     4   8  17  32  48  71 101 128 159 202 250 286
#     4  10  17  28  49  72  98 127 166 198 242 293
#     4  10  17  27  46  73  99 125 161 203 242 289
#     4   8  17  31  47  70  98 127 161 203 246 285
#
# _framework density 22.003
#
# number of rings (size 3 to 8) (size 9 to 14) (size 15 to 20)
#    1.000    1.833    1.667    1.000    0.000    0.667 
#    0.000    0.000    0.000    3.000    4.333   10.500 
#    0.000    2.667    0.000    0.000    0.000    0.000 
#
# Total GULP energy -133732.629309 kJ/mol
# GULP energy per Si atom -5572.192888 kJ/mol
# Density = 2.195292 g / cm^3
# Si number density = 22.003000 Si / 1000 Ang^3
#
#
#
# Elastic Constant Matrix: (Units=GPa)
#
#
# Indices 1 2 3 4 5 6 
#
# 1 33.6533 3.7718 25.9678 0.0000 3.4825 0.0000
# 2 3.7718 106.8629 11.6590 0.0000 -2.7136 0.0000
# 3 25.9678 11.6590 91.9423 0.0000 -8.9193 0.0000
# 4 0.0000 0.0000 0.0000 15.4710 0.0000 -18.7139
# 5 3.4825 -2.7136 -8.9193 0.0000 18.9483 0.0000
# 6 0.0000 0.0000 0.0000 -18.7139 0.0000 3.5296
#
#
#
# Elastic Compliance Matrix: (Units=1/GPa)
#
#
# Indices 1 2 3 4 5 6 
#
# 1 0.041122 -0.000392 -0.012892 0.000000 -0.013682 0.000000
# 2 -0.000392 0.009505 -0.001001 0.000000 0.000962 0.000000
# 3 -0.012892 -0.001001 0.015571 0.000000 0.009556 0.000000
# 4 0.000000 0.000000 0.000000 -0.011940 0.000000 -0.063307
# 5 -0.013682 0.000962 0.009556 0.000000 0.059926 0.000000
# 6 0.000000 0.000000 0.000000 -0.063307 0.000000 -0.052337
#
#
# Mechanical properties :
#
#
# Convention : Reuss Voigt Hill
#
# Bulk Modulus (GPa) = 26.57588 35.02841 30.80215
# Shear Modulus (GPa) = 48.56182 20.32711 34.44447
#
# Velocity S-wave (km/s) = 4.70303 3.04276 3.96086
# Velocity P-wave (km/s) = 6.44948 5.31967 5.91163
#
# Compressibility (1/GPa) = 0.03762810
#
# Stress axis : x y z
#
# Youngs Moduli (GPa) = 24.31766 105.20448 64.21991
#
# Poissons Ratio (x) = 0.04128 0.82792
# Poissons Ratio (y) = 0.00954 0.06430
# Poissons Ratio (z) = 0.31350 0.10533
#
# Static dielectric constant tensor:
#      x y z
#    x 1.785550 0.000000 0.018590 
#    y 0.000000 1.864590 0.000000 
#    z 0.018590 0.000000 1.829190 
# 
# From -- ./inp_files/155254.got.cif
#   From: 2010.05.17/outbox.cif.g08.bks.cpg/sg12_78_cif.got.tgz:155254.got - 2010.06.03 13:09:07.
