data_PCOD9169693
_publ_section_title
;
Structure prediction by ZEFSAII (Michael W. Deem and Ramdas Pophale) SiO2 
 PCOD9169693
Probable space group: C 2/M
;
_chemical_formula_sum "Si O2"
_cell_formula_units_Z 50
_cell_length_a 18.510266
_cell_length_b 15.272531
_cell_length_c 12.508617
_cell_angle_alpha 90.000000
_cell_angle_beta 32.050491
_cell_angle_gamma 90.000000
_cell_volume 1876.525845
_symmetry_space_group_name_H-M "C 2/M"
_symmetry_group_IT_number 12
_symmetry_cell_setting 'monoclinic'
loop_
_space_group_symop_operation_xyz
x,y,z
-x,y,-z
-x,-y,-z
x,-y,z
1/2+x,1/2+y,z
1/2-x,1/2+y,-z
1/2-x,1/2-y,-z
1/2+x,1/2-y,z
loop_
_atom_site_type_symbol
_atom_site_label
_atom_site_fract_x
_atom_site_fract_y
_atom_site_fract_z
Si Si1 0.820467 0.401436 0.314136
Si Si2 0.366696 0.406108 0.742762
Si Si3 0.015794 0.313615 0.714414
Si Si4 0.851805 0.399711 0.744416
Si Si5 0.243465 0.754049 0.259966
Si Si6 0.989034 0.127031 0.216447
Si Si7 0.000000 0.000000 0.000000
O O1 0.842446 0.500000 0.244025
O O2 0.910652 0.385738 0.306158
O O3 0.837531 0.319544 0.211565
O O4 0.663843 0.393295 0.548235
O O5 0.500000 0.411006 0.500000
O O6 0.293604 0.500000 0.819950
O O7 0.300156 0.318707 0.780786
O O8 0.414533 0.398592 0.804865
O O9 0.119577 0.270851 0.497680
O O10 0.989026 0.231093 0.823600
O O11 0.890264 0.355267 0.808431
O O12 0.808961 0.500000 0.803423
O O13 0.748334 0.341332 0.805694
O O14 0.000000 0.400038 0.500000
O O15 0.994733 0.074930 0.100515
#
# Coordination Sequence:
#
# PCOD9169693 Si02
#       7
#     8   8   8   8   8   8   2
#     4  11  20  32  51  81 118 147 176 230 292 352
#     4  11  16  25  48  73 105 132 166 234 288 326
#     4  10  19  31  48  76 114 148 176 229 293 348
#     4   9  16  27  44  70 109 147 174 214 276 353
#     4  10  17  28  44  74 111 136 176 225 289 340
#     4  11  20  34  48  77 114 149 187 228 278 340
#     4  12  24  36  50  76 122 160 198 228 270 336
#
# _framework density 26.644981999999999
#
# number of rings (size 3 to 8) (size 9 to 14) (size 15 to 20)
#    0.000    1.600    6.400    3.360    0.000    0.640 
#    0.000    0.000    0.000    0.000    0.000    6.720 
#    0.000    0.000    0.000    0.000    0.000    0.000 
#
# Total GULP energy -139710.487480 kJ/mol
# GULP energy per Si atom -5588.419499 kJ/mol
# Density = 2.658434 g / cm^3
# Si number density = 26.644982 Si / 1000 Ang^3
#
#
#
# Elastic Constant Matrix: (Units=GPa)
#
#
# Indices 1 2 3 4 5 6 
#
# 1 126.9254 66.5887 59.3181 0.0000 33.7956 0.0000
# 2 66.5887 242.7954 42.2552 0.0000 25.6869 0.0000
# 3 59.3181 42.2552 108.9570 0.0000 32.4219 0.0000
# 4 0.0000 0.0000 0.0000 30.2217 0.0000 22.9865
# 5 33.7956 25.6869 32.4219 0.0000 52.5988 0.0000
# 6 0.0000 0.0000 0.0000 22.9865 0.0000 34.6994
#
#
#
# Elastic Compliance Matrix: (Units=1/GPa)
#
#
# Indices 1 2 3 4 5 6 
#
# 1 0.012218 -0.002124 -0.004655 0.000000 -0.003944 0.000000
# 2 -0.002124 0.004865 -0.000526 0.000000 -0.000687 0.000000
# 3 -0.004655 -0.000526 0.013409 0.000000 -0.005018 0.000000
# 4 0.000000 0.000000 0.000000 0.066692 0.000000 -0.044180
# 5 -0.003944 -0.000687 -0.005018 0.000000 0.024975 0.000000
# 6 0.000000 0.000000 0.000000 -0.044180 0.000000 0.058086
#
#
# Mechanical properties :
#
#
# Convention : Reuss Voigt Hill
#
# Bulk Modulus (GPa) = 62.95668 90.55577 76.75622
# Shear Modulus (GPa) = 24.98144 44.20504 34.59324
#
# Velocity S-wave (km/s) = 3.06529 4.07755 3.60710
# Velocity P-wave (km/s) = 6.01725 7.49856 6.79837
#
# Compressibility (1/GPa) = 0.01588394
#
# Stress axis : x y z
#
# Youngs Moduli (GPa) = 81.84462 205.53280 74.57579
#
# Poissons Ratio (x) = 0.43647 0.34712
# Poissons Ratio (y) = 0.17381 0.03925
# Poissons Ratio (z) = 0.38095 0.10816
#
# Static dielectric constant tensor:
#      x y z
#    x 2.022940 0.000000 -0.077580 
#    y 0.000000 2.017530 0.000000 
#    z -0.077580 0.000000 2.215890 
# 
# From -- ./inp_files/155899.got.cif
#   From: 2010.05.17/outbox.cif.g08.bks.cpg/sg12_78_cif.got.tgz:155899.got - 2010.06.03 13:09:07.
