data_PCOD9169476
_publ_section_title
;
Structure prediction by ZEFSAII (Michael W. Deem and Ramdas Pophale) SiO2 
 PCOD9169476
Probable space group: C 2/M
;
_chemical_formula_sum "Si O2"
_cell_formula_units_Z 56
_cell_length_a 21.436392
_cell_length_b 22.330782
_cell_length_c 8.632019
_cell_angle_alpha 90.000000
_cell_angle_beta 54.331878
_cell_angle_gamma 90.000000
_cell_volume 3356.929637
_symmetry_space_group_name_H-M "C 2/M"
_symmetry_group_IT_number 12
_symmetry_cell_setting 'monoclinic'
loop_
_space_group_symop_operation_xyz
x,y,z
-x,y,-z
-x,-y,-z
x,-y,z
1/2+x,1/2+y,z
1/2-x,1/2+y,-z
1/2-x,1/2-y,-z
1/2+x,1/2-y,z
loop_
_atom_site_type_symbol
_atom_site_label
_atom_site_fract_x
_atom_site_fract_y
_atom_site_fract_z
Si Si1 0.189459 0.814546 0.762226
Si Si2 0.038034 0.779271 0.116615
Si Si3 0.522956 0.930525 0.787277
Si Si4 0.359213 0.843420 0.529122
Si Si5 0.400555 0.155065 0.825363
Si Si6 0.881392 0.795563 0.456841
Si Si7 0.252004 0.205371 0.144962
O O1 0.267339 0.851006 0.677311
O O2 0.161058 0.823483 0.629444
O O3 0.215693 0.745904 0.760328
O O4 0.114165 0.819054 0.979246
O O5 0.063008 0.716288 0.157412
O O6 0.971451 0.808430 0.316553
O O7 0.000000 0.769047 0.000000
O O8 0.598145 0.892039 0.636416
O O9 0.453062 0.899834 0.797368
O O10 0.533255 0.000000 0.732559
O O11 0.500000 0.925606 0.000000
O O12 0.394574 0.842684 0.649604
O O13 0.375185 0.776576 0.443663
O O14 0.313748 0.154868 0.017713
O O15 0.833436 0.811381 0.679417
O O16 0.250000 0.250000 0.000000
#
# Coordination Sequence:
#
# PCOD9169476 Si02
#       7
#     8   8   8   8   8   8   8
#     4   9  19  30  45  69  97 129 163 203 236 302
#     4   9  18  30  46  70 100 134 167 192 239 295
#     4  11  26  40  52  70  93 129 179 219 251 294
#     4  11  20  32  50  70  93 129 170 203 257 282
#     4  11  20  31  50  67  98 132 164 212 245 289
#     4  10  18  29  46  71  98 136 165 194 239 299
#     4  10  17  27  42  70  99 122 166 197 235 292
#
# _framework density 16.681910999999999
#
# number of rings (size 3 to 8) (size 9 to 14) (size 15 to 20)
#    0.000    1.857    4.286    2.571    6.000    1.143 
#    0.000    0.000    0.000    0.000    0.000    0.000 
#    0.000    6.286    0.000    2.571    0.000    0.000 
#
# Total GULP energy -156063.618001 kJ/mol
# GULP energy per Si atom -5573.700643 kJ/mol
# Density = 1.664394 g / cm^3
# Si number density = 16.681911 Si / 1000 Ang^3
#
#
#
# Elastic Constant Matrix: (Units=GPa)
#
#
# Indices 1 2 3 4 5 6 
#
# 1 82.7731 25.2139 40.7619 0.0000 -19.5792 0.0000
# 2 25.2139 36.8755 12.5398 0.0000 -5.6395 0.0000
# 3 40.7619 12.5398 97.5633 0.0000 -30.2947 0.0000
# 4 0.0000 0.0000 0.0000 15.2225 0.0000 -2.3973
# 5 -19.5792 -5.6395 -30.2947 0.0000 38.2022 0.0000
# 6 0.0000 0.0000 0.0000 -2.3973 0.0000 11.2691
#
#
#
# Elastic Compliance Matrix: (Units=1/GPa)
#
#
# Indices 1 2 3 4 5 6 
#
# 1 0.018796 -0.010455 -0.005303 0.000000 0.003885 0.000000
# 2 -0.010455 0.034258 -0.000171 0.000000 -0.000436 0.000000
# 3 -0.005303 -0.000171 0.015437 0.000000 0.009498 0.000000
# 4 0.000000 0.000000 0.000000 0.067969 0.000000 0.014459
# 5 0.003885 -0.000436 0.009498 0.000000 0.035635 0.000000
# 6 0.000000 0.000000 0.000000 0.014459 0.000000 0.091814
#
#
# Mechanical properties :
#
#
# Convention : Reuss Voigt Hill
#
# Bulk Modulus (GPa) = 27.29702 41.58257 34.43980
# Shear Modulus (GPa) = 16.23492 22.18519 19.21005
#
# Velocity S-wave (km/s) = 3.12301 3.65073 3.39713
# Velocity P-wave (km/s) = 5.42245 6.53845 6.00643
#
# Compressibility (1/GPa) = 0.03663404
#
# Stress axis : x y z
#
# Youngs Moduli (GPa) = 53.20198 29.19020 64.78078
#
# Poissons Ratio (x) = 0.30517 0.34354
# Poissons Ratio (y) = 0.55621 0.01106
# Poissons Ratio (z) = 0.28214 0.00498
#
# Static dielectric constant tensor:
#      x y z
#    x 1.618770 0.000000 -0.024690 
#    y 0.000000 1.512030 0.000000 
#    z -0.024690 0.000000 1.642140 
# 
# From -- ./inp_files/89060.got.cif
#   From: 2010.05.17/outbox.cif.g08.bks.cpg/sg12_45_cif.got.tgz:89060.got - 2010.06.03 13:09:07.
