data_PCOD9169315
_publ_section_title
;
Structure prediction by ZEFSAII (Michael W. Deem and Ramdas Pophale) SiO2 
 PCOD9169315
Probable space group: C 2/M
;
_chemical_formula_sum "Si O2"
_cell_formula_units_Z 48
_cell_length_a 7.959966
_cell_length_b 20.330758
_cell_length_c 23.635666
_cell_angle_alpha 90.000000
_cell_angle_beta 137.508379
_cell_angle_gamma 90.000000
_cell_volume 2583.727174
_symmetry_space_group_name_H-M "C 2/M"
_symmetry_group_IT_number 12
_symmetry_cell_setting 'monoclinic'
loop_
_space_group_symop_operation_xyz
x,y,z
-x,y,-z
-x,-y,-z
x,-y,z
1/2+x,1/2+y,z
1/2-x,1/2+y,-z
1/2-x,1/2-y,-z
1/2+x,1/2-y,z
loop_
_atom_site_type_symbol
_atom_site_label
_atom_site_fract_x
_atom_site_fract_y
_atom_site_fract_z
Si Si1 0.223739 0.148468 0.586794
Si Si2 0.457368 0.191056 0.053628
Si Si3 0.024133 0.644998 0.759860
Si Si4 0.602036 0.794680 0.587425
Si Si5 0.832374 0.780026 0.239998
Si Si6 0.282376 0.927786 0.088352
O O1 0.354212 0.110787 0.670471
O O2 0.420176 0.175194 0.589193
O O3 0.099668 0.214655 0.583773
O O4 0.000000 0.112362 0.500000
O O5 0.714984 0.210194 0.148528
O O6 0.376204 0.128935 0.070191
O O7 0.500000 0.172382 0.000000
O O8 0.250000 0.250000 0.000000
O O9 0.163970 0.700677 0.757848
O O10 0.185173 0.598531 0.839606
O O11 0.851495 0.686547 0.760645
O O12 0.500000 0.815825 0.500000
O O13 0.891339 0.806514 0.676371
O O14 0.403440 0.000000 0.112939
O O15 0.000000 0.934153 0.000000
#
# Coordination Sequence:
#
# PCOD9169315 Si02
#       6
#     8   8   8   8   8   8
#     4  10  17  26  42  66  98 132 166 202 250 307
#     4  11  21  34  55  81 109 136 174 218 263 312
#     4  10  18  30  48  71 101 130 168 210 255 306
#     4  10  17  26  40  65 103 136 162 198 254 315
#     4  10  18  28  45  72 100 130 165 206 255 304
#     4  10  22  38  54  73 102 140 177 215 262 312
#
# _framework density 18.577812000000002
#
# number of rings (size 3 to 8) (size 9 to 14) (size 15 to 20)
#    0.000    1.833    0.000   10.500    0.000    1.667 
#    0.000    0.000    0.000    0.500    0.000    0.000 
#    0.000   16.667    0.000    0.000    0.000    0.000 
#
# Total GULP energy -133605.875274 kJ/mol
# GULP energy per Si atom -5566.911470 kJ/mol
# Density = 1.853553 g / cm^3
# Si number density = 18.577812 Si / 1000 Ang^3
#
#
#
# Elastic Constant Matrix: (Units=GPa)
#
#
# Indices 1 2 3 4 5 6 
#
# 1 49.7441 15.6077 42.4006 -0.0002 -9.6930 0.0001
# 2 15.6077 58.0790 32.6177 0.0001 0.9985 0.0000
# 3 42.4006 32.6177 208.7355 -0.0014 -19.3865 0.0005
# 4 -0.0002 0.0001 -0.0014 -37.6579 -0.0004 16.9571
# 5 -9.6930 0.9985 -19.3865 -0.0004 39.8732 0.0002
# 6 0.0001 0.0000 0.0005 16.9571 0.0002 4.7942
#
#
#
# Elastic Compliance Matrix: (Units=1/GPa)
#
#
# Indices 1 2 3 4 5 6 
#
# 1 0.025967 -0.004739 -0.004123 0.000000 0.004426 0.000000
# 2 -0.004739 0.019892 -0.002408 0.000000 -0.002821 0.000000
# 3 -0.004123 -0.002408 0.006197 0.000000 0.002071 0.000000
# 4 0.000000 0.000000 0.000000 -0.010242 0.000000 0.036227
# 5 0.004426 -0.002821 0.002071 0.000000 0.027233 0.000000
# 6 0.000000 0.000000 0.000000 0.036227 0.000000 0.080451
#
#
# Mechanical properties :
#
#
# Convention : Reuss Voigt Hill
#
# Bulk Modulus (GPa) = 33.87928 55.31228 44.59578
# Shear Modulus (GPa) = 27.49133 16.46409 21.97771
#
# Velocity S-wave (km/s) = 3.85098 2.98018 3.44322
# Velocity P-wave (km/s) = 6.16842 6.45600 6.31385
#
# Compressibility (1/GPa) = 0.02951656
#
# Stress axis : x y z
#
# Youngs Moduli (GPa) = 38.51107 50.27121 161.37211
#
# Poissons Ratio (x) = 0.23822 0.66534
# Poissons Ratio (y) = 0.18249 0.38856
# Poissons Ratio (z) = 0.15878 0.12104
#
# Static dielectric constant tensor:
#      x y z
#    x 1.684640 0.000000 0.030470 
#    y 0.000000 1.710050 0.000000 
#    z 0.030470 0.000000 1.785280 
# 
# From -- ./inp_files/333636.got.cif
#   From: 2010.05.17/outbox.cif.g08.bks.cpg/sg12_167_cif.got.tgz:333636.got - 2010.06.03 13:09:07.
