data_PCOD9169627
_publ_section_title
;
Structure prediction by ZEFSAII (Michael W. Deem and Ramdas Pophale) SiO2 
 PCOD9169627
Probable space group: C 2/M
;
_chemical_formula_sum "Si O2"
_cell_formula_units_Z 48
_cell_length_a 10.013680
_cell_length_b 24.493374
_cell_length_c 11.194761
_cell_angle_alpha 90.000000
_cell_angle_beta 94.894505
_cell_angle_gamma 90.000000
_cell_volume 2735.713368
_symmetry_space_group_name_H-M "C 2/M"
_symmetry_group_IT_number 12
_symmetry_cell_setting 'monoclinic'
loop_
_space_group_symop_operation_xyz
x,y,z
-x,y,-z
-x,-y,-z
x,-y,z
1/2+x,1/2+y,z
1/2-x,1/2+y,-z
1/2-x,1/2-y,-z
1/2+x,1/2-y,z
loop_
_atom_site_type_symbol
_atom_site_label
_atom_site_fract_x
_atom_site_fract_y
_atom_site_fract_z
Si Si1 0.020799 0.564230 0.360097
Si Si2 0.295202 0.561555 0.259637
Si Si3 0.998613 0.862966 0.855877
Si Si4 0.309771 0.140050 0.202912
Si Si5 0.387398 0.243906 0.084318
Si Si6 0.657225 0.057012 0.993931
O O1 0.006360 0.500000 0.321207
O O2 0.908838 0.602491 0.289399
O O3 0.000000 0.566720 0.500000
O O4 0.174148 0.580370 0.337392
O O5 0.337540 0.500000 0.299433
O O6 0.417944 0.599758 0.230231
O O7 0.220941 0.557664 0.127368
O O8 0.064520 0.803069 0.868360
O O9 0.849496 0.858588 0.788976
O O10 0.000000 0.881545 0.000000
O O11 0.365975 0.200628 0.187986
O O12 0.311116 0.110692 0.074636
O O13 0.500000 0.223464 0.000000
O O14 0.250000 0.250000 0.000000
O O15 0.700892 0.000000 0.935521
O O16 0.500000 0.055580 0.000000
#
# Coordination Sequence:
#
# PCOD9169627 Si02
#       6
#     8   8   8   8   8   8
#     4  10  23  42  62  84 110 153 211 251 281 333
#     4  10  20  34  55  82 117 149 181 237 295 350
#     4  11  22  35  50  90 127 151 183 228 297 366
#     4  12  21  34  58  81 117 154 191 235 293 346
#     4  11  21  35  53  86 125 158 187 228 289 359
#     4  10  17  27  48  83 111 136 177 227 288 347
#
# _framework density 17.545698000000002
#
# number of rings (size 3 to 8) (size 9 to 14) (size 15 to 20)
#    0.000    1.333    6.667    1.000    2.333    1.667 
#    0.000    0.833    0.000    7.000    0.000    0.000 
#    0.000    0.000    0.000    0.000    0.000    0.000 
#
# Total GULP energy -133619.141366 kJ/mol
# GULP energy per Si atom -5567.464224 kJ/mol
# Density = 1.750576 g / cm^3
# Si number density = 17.545698 Si / 1000 Ang^3
#
#
#
# Elastic Constant Matrix: (Units=GPa)
#
#
# Indices 1 2 3 4 5 6 
#
# 1 153.3076 62.7504 30.0120 0.0000 -18.3877 0.0000
# 2 62.7504 80.5013 23.6476 0.0000 -13.6782 0.0000
# 3 30.0120 23.6476 49.0560 0.0000 -16.1060 0.0000
# 4 0.0000 0.0000 0.0000 624.5902 0.0000 1036.3875
# 5 -18.3877 -13.6782 -16.1060 0.0000 17.2325 0.0000
# 6 0.0000 0.0000 0.0000 1036.3875 0.0000 1816.9807
#
#
#
# Elastic Compliance Matrix: (Units=1/GPa)
#
#
# Indices 1 2 3 4 5 6 
#
# 1 0.010049 -0.006690 -0.001653 0.000000 0.003867 0.000000
# 2 -0.006690 0.019566 -0.003727 0.000000 0.004908 0.000000
# 3 -0.001653 -0.003727 0.031224 0.000000 0.024460 0.000000
# 4 0.000000 0.000000 0.000000 0.029900 0.000000 -0.017054
# 5 0.003867 0.004908 0.024460 0.000000 0.088913 0.000000
# 6 0.000000 0.000000 0.000000 -0.017054 0.000000 0.010278
#
#
# Mechanical properties :
#
#
# Convention : Reuss Voigt Hill
#
# Bulk Modulus (GPa) = 27.25022 57.29833 42.27428
# Shear Modulus (GPa) = 22.09428 502.85766 262.47597
#
# Velocity S-wave (km/s) = 3.55243 16.94760 12.24420
# Velocity P-wave (km/s) = 5.69131 20.38845 14.96796
#
# Compressibility (1/GPa) = 0.03669695
#
# Stress axis : x y z
#
# Youngs Moduli (GPa) = 99.51628 51.10890 32.02688
#
# Poissons Ratio (x) = 0.34193 0.05294
# Poissons Ratio (y) = 0.66579 0.11938
# Poissons Ratio (z) = 0.16450 0.19051
#
# Static dielectric constant tensor:
#      x y z
#    x 1.663270 0.000000 -0.019260 
#    y 0.000000 1.660230 0.000000 
#    z -0.019260 0.000000 1.579400 
# 
# From -- ./inp_files/121961.got.cif
#   From: 2010.05.17/outbox.cif.g08.bks.cpg/sg12_61_cif.got.tgz:121961.got - 2010.06.03 13:09:07.
