data_PCOD9169744
_publ_section_title
;
Structure prediction by ZEFSAII (Michael W. Deem and Ramdas Pophale) SiO2 
 PCOD9169744
Probable space group: C 2/M
;
_chemical_formula_sum "Si O2"
_cell_formula_units_Z 46
_cell_length_a 10.832893
_cell_length_b 23.684175
_cell_length_c 19.322713
_cell_angle_alpha 90.000000
_cell_angle_beta 154.337413
_cell_angle_gamma 90.000000
_cell_volume 2146.987554
_symmetry_space_group_name_H-M "C 2/M"
_symmetry_group_IT_number 12
_symmetry_cell_setting 'monoclinic'
loop_
_space_group_symop_operation_xyz
x,y,z
-x,y,-z
-x,-y,-z
x,-y,z
1/2+x,1/2+y,z
1/2-x,1/2+y,-z
1/2-x,1/2-y,-z
1/2+x,1/2-y,z
loop_
_atom_site_type_symbol
_atom_site_label
_atom_site_fract_x
_atom_site_fract_y
_atom_site_fract_z
Si Si1 0.500000 0.866328 0.000000
Si Si2 0.588860 0.066622 0.912296
Si Si3 0.000000 0.000000 0.500000
Si Si4 0.459153 0.606897 0.550837
Si Si5 0.320975 0.739758 0.731394
Si Si6 0.668679 0.327167 0.017076
Si Si7 0.534066 0.303466 0.340204
O O1 0.640362 0.907535 0.014294
O O2 0.263046 0.827736 0.843148
O O3 0.257196 0.081064 0.729469
O O4 0.769633 0.106459 0.953542
O O5 0.630570 0.000000 0.928127
O O6 0.179835 0.949654 0.549855
O O7 0.500000 0.642460 0.500000
O O8 0.334142 0.645053 0.548229
O O9 0.533118 0.793837 0.835095
O O10 0.297978 0.718590 0.641269
O O11 0.063949 0.758107 0.651816
O O12 0.491354 0.692554 0.861058
O O13 0.500000 0.310008 0.000000
#
# Coordination Sequence:
#
# PCOD9169744 Si02
#       7
#     4   8   2   8   8   8   8
#     4  10  17  28  46  76 100 126 161 208 258 300
#     4  11  19  31  49  74 104 132 167 217 254 301
#     4   8  16  36  56  70 102 130 170 220 260 302
#     4   9  18  33  53  76  98 128 175 214 261 300
#     4  11  19  31  50  75 106 137 173 205 254 308
#     4  11  20  30  48  72 108 143 173 196 253 324
#     4  11  19  32  52  78 104 136 173 210 253 318
#
# _framework density 21.425367999999999
#
# number of rings (size 3 to 8) (size 9 to 14) (size 15 to 20)
#    0.522    1.043    7.826    1.304    0.000    0.348 
#    0.000    0.870    0.000    0.000    0.000    0.000 
#    0.000    6.957    0.000    0.000    0.000    0.000 
#
# Total GULP energy -128059.464392 kJ/mol
# GULP energy per Si atom -5567.802800 kJ/mol
# Density = 2.137660 g / cm^3
# Si number density = 21.425368 Si / 1000 Ang^3
#
#
#
# Elastic Constant Matrix: (Units=GPa)
#
#
# Indices 1 2 3 4 5 6 
#
# 1 148.0068 57.4598 39.8851 0.0576 -27.2469 -0.0085
# 2 57.4598 145.7313 36.1611 -0.0218 -12.8334 0.0027
# 3 39.8851 36.1611 62.7831 0.1566 -27.6335 -0.0078
# 4 0.0576 -0.0218 0.1566 -26.4634 0.0988 2.9588
# 5 -27.2469 -12.8334 -27.6335 0.0988 40.5451 -0.0019
# 6 -0.0085 0.0027 -0.0078 2.9588 -0.0019 23.4041
#
#
#
# Elastic Compliance Matrix: (Units=1/GPa)
#
#
# Indices 1 2 3 4 5 6 
#
# 1 0.009156 -0.002612 -0.002811 0.000018 0.003410 0.000001
# 2 -0.002612 0.008773 -0.004205 -0.000044 -0.001845 0.000002
# 3 -0.002811 -0.004205 0.026739 0.000210 0.015003 -0.000017
# 4 0.000018 -0.000044 0.000210 -0.037259 0.000232 0.004710
# 5 0.003410 -0.001845 0.015003 0.000232 0.036597 -0.000020
# 6 0.000001 0.000002 -0.000017 0.004710 -0.000020 0.042132
#
#
# Mechanical properties :
#
#
# Convention : Reuss Voigt Hill
#
# Bulk Modulus (GPa) = 39.35380 69.28147 54.31764
# Shear Modulus (GPa) = 43.91185 22.36481 33.13833
#
# Velocity S-wave (km/s) = 4.53208 3.23437 3.93706
# Velocity P-wave (km/s) = 6.76713 6.80842 6.78781
#
# Compressibility (1/GPa) = 0.02541051
#
# Stress axis : x y z
#
# Youngs Moduli (GPa) = 109.21941 113.98719 37.39874
#
# Poissons Ratio (x) = 0.29776 0.10513
# Poissons Ratio (y) = 0.28530 0.15727
# Poissons Ratio (z) = 0.30704 0.47934
#
# Static dielectric constant tensor:
#      x y z
#    x 1.821420 -0.000010 -0.008000 
#    y -0.000010 1.786240 -0.000020 
#    z -0.008000 -0.000020 1.884180 
# 
# From -- ./inp_files/265426.got.cif
#   From: 2010.05.17/outbox.cif.g08.bks.cpg/sg12_133_cif.got.tgz:265426.got - 2010.06.03 13:09:07.
