data_PCOD9169292
_publ_section_title
;
Structure prediction by ZEFSAII (Michael W. Deem and Ramdas Pophale) SiO2 
 PCOD9169292
Probable space group: C 2/M
;
_chemical_formula_sum "Si O2"
_cell_formula_units_Z 64
_cell_length_a 21.412604
_cell_length_b 14.747034
_cell_length_c 13.214868
_cell_angle_alpha 90.000000
_cell_angle_beta 61.704770
_cell_angle_gamma 90.000000
_cell_volume 3674.300335
_symmetry_space_group_name_H-M "C 2/M"
_symmetry_group_IT_number 12
_symmetry_cell_setting 'monoclinic'
loop_
_space_group_symop_operation_xyz
x,y,z
-x,y,-z
-x,-y,-z
x,-y,z
1/2+x,1/2+y,z
1/2-x,1/2+y,-z
1/2-x,1/2-y,-z
1/2+x,1/2-y,z
loop_
_atom_site_type_symbol
_atom_site_label
_atom_site_fract_x
_atom_site_fract_y
_atom_site_fract_z
Si Si1 0.643176 0.790268 0.631581
Si Si2 0.200808 0.396881 0.282049
Si Si3 0.582758 0.783750 0.462881
Si Si4 0.948683 0.229105 0.128707
Si Si5 0.226717 0.894838 0.550738
Si Si6 0.445272 0.394337 0.825142
Si Si7 0.158417 0.892615 0.918207
Si Si8 0.921672 0.901471 0.607603
O O1 0.597057 0.811175 0.567221
O O2 0.597490 0.797453 0.768441
O O3 0.712653 0.853947 0.570189
O O4 0.667840 0.684349 0.603394
O O5 0.185143 0.500000 0.265825
O O6 0.128544 0.343556 0.351376
O O7 0.237731 0.395898 0.364678
O O8 0.261326 0.360341 0.160532
O O9 0.500000 0.786167 0.500000
O O10 0.612415 0.681844 0.424156
O O11 0.894583 0.160800 0.114447
O O12 0.996974 0.171271 0.169464
O O13 0.000000 0.265514 0.000000
O O14 0.205944 0.000000 0.544373
O O15 0.468019 0.500000 0.818834
O O16 0.431876 0.378135 0.717576
O O17 0.373681 0.383286 0.945435
O O18 0.156936 0.000000 0.893149
O O19 0.000000 0.908773 0.500000
O O20 0.886734 0.000000 0.625375
#
# Coordination Sequence:
#
# PCOD9169292 Si02
#       8
#     8   8   8   8   8   8   8   8
#     4  10  19  31  49  73 100 125 158 197 237 288
#     4   9  17  31  49  69  94 122 153 193 242 285
#     4  10  20  32  47  67  95 124 159 199 229 270
#     4  10  17  25  43  71 101 127 150 186 240 293
#     4   9  18  32  51  73  96 125 157 197 246 288
#     4   9  17  27  42  66  95 126 156 188 233 287
#     4   9  16  27  43  66  95 122 151 191 238 289
#     4   9  17  30  44  60  87 122 158 188 221 269
#
# _framework density 17.418282000000001
#
# number of rings (size 3 to 8) (size 9 to 14) (size 15 to 20)
#    0.000    2.625    1.250    1.875    0.000    2.750 
#    0.000    0.625    0.000    0.375    0.000    0.000 
#    0.000    0.000    0.000    0.000    0.000    0.000 
#
# Total GULP energy -178204.273919 kJ/mol
# GULP energy per Si atom -5568.883560 kJ/mol
# Density = 1.737864 g / cm^3
# Si number density = 17.418282 Si / 1000 Ang^3
#
#
#
# Elastic Constant Matrix: (Units=GPa)
#
#
# Indices 1 2 3 4 5 6 
#
# 1 40.9105 5.9717 16.6269 0.0000 -14.3072 0.0000
# 2 5.9717 36.5329 7.6580 0.0000 -12.0986 0.0000
# 3 16.6269 7.6580 117.9119 0.0000 -17.9709 0.0000
# 4 0.0000 0.0000 0.0000 21.9433 0.0000 -5.1540
# 5 -14.3072 -12.0986 -17.9709 0.0000 25.8622 0.0000
# 6 0.0000 0.0000 0.0000 -5.1540 0.0000 5.9499
#
#
#
# Elastic Compliance Matrix: (Units=1/GPa)
#
#
# Indices 1 2 3 4 5 6 
#
# 1 0.030715 0.000671 -0.001943 0.000000 0.015955 0.000000
# 2 0.000671 0.032411 0.000188 0.000000 0.015664 0.000000
# 3 -0.001943 0.000188 0.009610 0.000000 0.005691 0.000000
# 4 0.000000 0.000000 0.000000 0.057213 0.000000 0.049560
# 5 0.015955 0.015664 0.005691 0.000000 0.058775 0.000000
# 6 0.000000 0.000000 0.000000 0.049560 0.000000 0.211001
#
#
# Mechanical properties :
#
#
# Convention : Reuss Voigt Hill
#
# Bulk Modulus (GPa) = 14.17096 28.42985 21.30041
# Shear Modulus (GPa) = 11.75319 21.75767 16.75543
#
# Velocity S-wave (km/s) = 2.60044 3.53813 3.10489
# Velocity P-wave (km/s) = 4.14363 5.74878 5.01090
#
# Compressibility (1/GPa) = 0.07056682
#
# Stress axis : x y z
#
# Youngs Moduli (GPa) = 32.55705 30.85380 104.05817
#
# Poissons Ratio (x) = -0.02069 0.20218
# Poissons Ratio (y) = -0.02183 -0.01953
# Poissons Ratio (z) = 0.06326 -0.00579
#
# Static dielectric constant tensor:
#      x y z
#    x 1.584480 0.000000 -0.013380 
#    y 0.000000 1.615370 0.000000 
#    z -0.013380 0.000000 1.617670 
# 
# From -- ./inp_files/167244.got.cif
#   From: 2010.05.17/outbox.cif.g08.bks.cpg/sg12_84_cif.got.tgz:167244.got - 2010.06.03 13:09:07.
