data_PCOD9169320
_publ_section_title
;
Structure prediction by ZEFSAII (Michael W. Deem and Ramdas Pophale) SiO2 
 PCOD9169320
Probable space group: C 2/M
;
_chemical_formula_sum "Si O2"
_cell_formula_units_Z 64
_cell_length_a 29.279966
_cell_length_b 9.027064
_cell_length_c 23.245468
_cell_angle_alpha 90.000000
_cell_angle_beta 134.935168
_cell_angle_gamma 90.000000
_cell_volume 4349.419011
_symmetry_space_group_name_H-M "C 2/M"
_symmetry_group_IT_number 12
_symmetry_cell_setting 'monoclinic'
loop_
_space_group_symop_operation_xyz
x,y,z
-x,y,-z
-x,-y,-z
x,-y,z
1/2+x,1/2+y,z
1/2-x,1/2+y,-z
1/2-x,1/2-y,-z
1/2+x,1/2-y,z
loop_
_atom_site_type_symbol
_atom_site_label
_atom_site_fract_x
_atom_site_fract_y
_atom_site_fract_z
Si Si1 0.763445 0.323008 0.573523
Si Si2 0.597171 0.178084 0.324895
Si Si3 0.535898 0.324935 0.812613
Si Si4 0.839175 0.670974 0.034052
Si Si5 0.284225 0.829096 0.116358
Si Si6 0.488505 0.824041 0.557106
Si Si7 0.375503 0.321812 0.525481
Si Si8 0.409550 0.675035 0.268573
O O1 0.762018 0.500000 0.565350
O O2 0.750000 0.250000 0.500000
O O3 0.837627 0.284998 0.653093
O O4 0.699968 0.285468 0.553937
O O5 0.532185 0.244034 0.240780
O O6 0.606537 0.250557 0.396554
O O7 0.592106 0.000000 0.326222
O O8 0.530393 0.500000 0.817854
O O9 0.592993 0.255084 0.901339
O O10 0.557429 0.304540 0.764901
O O11 0.847259 0.500000 0.024582
O O12 0.810710 0.672458 0.074005
O O13 0.785343 0.751831 0.947879
O O14 0.337824 0.741216 0.199955
O O15 0.279856 0.000000 0.130375
O O16 0.500000 0.798086 0.500000
O O17 0.424085 0.744653 0.522467
O O18 0.547208 0.758650 0.646558
O O19 0.483497 0.000000 0.562724
O O20 0.383093 0.500000 0.535953
O O21 0.407808 0.500000 0.278637
#
# Coordination Sequence:
#
# PCOD9169320 Si02
#       8
#     8   8   8   8   8   8   8   8
#     4   8  16  27  40  59  80 103 133 167 204 246
#     4  10  17  26  41  60  83 110 138 169 205 247
#     4  10  18  26  38  58  83 110 140 173 206 243
#     4   9  16  25  37  55  78 106 138 169 202 241
#     4   9  16  26  40  56  77 103 134 170 205 244
#     4  11  23  35  46  61  81 106 140 181 222 259
#     4  10  18  30  45  60  79 104 136 174 212 252
#     4  10  19  30  44  59  77 104 138 175 212 251
#
# _framework density 14.714608999999999
#
# number of rings (size 3 to 8) (size 9 to 14) (size 15 to 20)
#    0.000    2.375    1.250    2.625    0.000    6.000 
#    0.000    0.000    0.000    0.000    0.000    0.000 
#    0.000    0.000    0.000    1.125    0.000   21.750 
#
# Total GULP energy -178254.784410 kJ/mol
# GULP energy per Si atom -5570.462013 kJ/mol
# Density = 1.468112 g / cm^3
# Si number density = 14.714609 Si / 1000 Ang^3
#
#
#
# Elastic Constant Matrix: (Units=GPa)
#
#
# Indices 1 2 3 4 5 6 
#
# 1 76.3751 50.2816 60.3793 0.0000 33.4345 0.0000
# 2 50.2816 86.8866 56.2740 0.0000 24.0828 0.0000
# 3 60.3793 56.2740 79.1760 0.0000 39.8856 0.0000
# 4 0.0000 0.0000 0.0000 23.6713 0.0000 7.7617
# 5 33.4345 24.0828 39.8856 0.0000 32.2805 0.0000
# 6 0.0000 0.0000 0.0000 7.7617 0.0000 16.7117
#
#
#
# Elastic Compliance Matrix: (Units=1/GPa)
#
#
# Indices 1 2 3 4 5 6 
#
# 1 0.035689 -0.006622 -0.016890 0.000000 -0.011155 0.000000
# 2 -0.006622 0.023257 -0.016406 0.000000 0.009779 0.000000
# 3 -0.016890 -0.016406 0.058778 0.000000 -0.042893 0.000000
# 4 0.000000 0.000000 0.000000 0.049835 0.000000 -0.023146
# 5 -0.011155 0.009779 -0.042893 0.000000 0.088234 0.000000
# 6 0.000000 0.000000 0.000000 -0.023146 0.000000 0.070588
#
#
# Mechanical properties :
#
#
# Convention : Reuss Voigt Hill
#
# Bulk Modulus (GPa) = 26.39401 64.03417 45.21409
# Shear Modulus (GPa) = 11.93755 19.56624 15.75189
#
# Velocity S-wave (km/s) = 2.85137 3.65048 3.27539
# Velocity P-wave (km/s) = 5.36812 7.83453 6.71553
#
# Compressibility (1/GPa) = 0.03788738
#
# Stress axis : x y z
#
# Youngs Moduli (GPa) = 28.01982 42.99865 17.01303
#
# Poissons Ratio (x) = 0.28474 0.28735
# Poissons Ratio (y) = 0.18555 0.27911
# Poissons Ratio (z) = 0.47326 0.70543
#
# Static dielectric constant tensor:
#      x y z
#    x 1.487500 0.000000 0.039050 
#    y 0.000000 1.489680 0.000000 
#    z 0.039050 0.000000 1.471810 
# 
# From -- ./inp_files/326958.got.cif
#   From: 2010.05.17/outbox.cif.g08.bks.cpg/sg12_164_cif.got.tgz:326958.got - 2010.06.03 13:09:07.
