data_PCOD9169268
_publ_section_title
;
Structure prediction by ZEFSAII (Michael W. Deem and Ramdas Pophale) SiO2 
 PCOD9169268
Probable space group: C 2/M
;
_chemical_formula_sum "Si O2"
_cell_formula_units_Z 56
_cell_length_a 19.121830
_cell_length_b 13.122343
_cell_length_c 12.633878
_cell_angle_alpha 90.000000
_cell_angle_beta 104.563438
_cell_angle_gamma 90.000000
_cell_volume 3068.276315
_symmetry_space_group_name_H-M "C 2/M"
_symmetry_group_IT_number 12
_symmetry_cell_setting 'monoclinic'
loop_
_space_group_symop_operation_xyz
x,y,z
-x,y,-z
-x,-y,-z
x,-y,z
1/2+x,1/2+y,z
1/2-x,1/2+y,-z
1/2-x,1/2-y,-z
1/2+x,1/2-y,z
loop_
_atom_site_type_symbol
_atom_site_label
_atom_site_fract_x
_atom_site_fract_y
_atom_site_fract_z
Si Si1 0.918100 0.625129 0.502692
Si Si2 0.829098 0.381391 0.272446
Si Si3 0.449869 0.170266 0.148461
Si Si4 0.725650 0.376552 0.055708
Si Si5 0.560939 0.382571 0.932513
Si Si6 0.608361 0.117366 0.271832
Si Si7 0.842007 0.377611 0.926313
O O1 0.918613 0.500000 0.503377
O O2 0.860069 0.661763 0.393632
O O3 0.896595 0.661495 0.611937
O O4 0.000000 0.654324 0.500000
O O5 0.813784 0.500000 0.287994
O O6 0.895332 0.372634 0.215078
O O7 0.762140 0.339838 0.178829
O O8 0.455163 0.293081 0.156537
O O9 0.526892 0.121273 0.196412
O O10 0.413718 0.146785 0.021527
O O11 0.733092 0.500000 0.061235
O O12 0.640919 0.358295 0.008413
O O13 0.774555 0.344626 0.973419
O O14 0.561806 0.500000 0.894065
O O15 0.500000 0.376060 0.000000
O O16 0.653944 0.162700 0.191894
O O17 0.631318 0.000000 0.294059
O O18 0.838557 0.500000 0.917330
#
# Coordination Sequence:
#
# PCOD9169268 Si02
#       7
#     8   8   8   8   8   8   8
#     4   9  15  24  39  64 101 136 156 169 193 248
#     4   9  16  27  45  72 101 126 149 172 210 269
#     4  11  18  27  44  67  93 125 153 182 222 267
#     4   8  16  31  47  64  91 119 146 186 231 274
#     4  10  21  35  48  64  85 112 154 204 243 270
#     4  10  17  25  41  69 105 131 147 171 204 260
#     4   9  17  26  40  67  99 126 146 169 214 277
#
# _framework density 18.251289
#
# number of rings (size 3 to 8) (size 9 to 14) (size 15 to 20)
#    0.000    2.571    1.429    3.429    0.000    3.429 
#    0.000    0.000    0.000    0.000    0.000   13.000 
#    0.000   11.429    0.000    2.286    0.000    0.000 
#
# Total GULP energy -155977.127349 kJ/mol
# GULP energy per Si atom -5570.611691 kJ/mol
# Density = 1.820975 g / cm^3
# Si number density = 18.251289 Si / 1000 Ang^3
#
#
#
# Elastic Constant Matrix: (Units=GPa)
#
#
# Indices 1 2 3 4 5 6 
#
# 1 77.1283 7.8729 39.1985 0.0000 -5.3925 0.0000
# 2 7.8729 37.5578 10.5815 0.0000 0.4626 0.0000
# 3 39.1985 10.5815 137.6567 0.0000 -21.0337 0.0000
# 4 0.0000 0.0000 0.0000 9.9241 0.0000 0.6998
# 5 -5.3925 0.4626 -21.0337 0.0000 17.7304 0.0000
# 6 0.0000 0.0000 0.0000 0.6998 0.0000 14.7857
#
#
#
# Elastic Compliance Matrix: (Units=1/GPa)
#
#
# Indices 1 2 3 4 5 6 
#
# 1 0.015310 -0.002006 -0.004258 0.000000 -0.000342 0.000000
# 2 -0.002006 0.027700 -0.002152 0.000000 -0.003885 0.000000
# 3 -0.004258 -0.002152 0.010324 0.000000 0.011009 0.000000
# 4 0.000000 0.000000 0.000000 0.101102 0.000000 -0.004785
# 5 -0.000342 -0.003885 0.011009 0.000000 0.069458 0.000000
# 6 0.000000 0.000000 0.000000 -0.004785 0.000000 0.067859
#
#
# Mechanical properties :
#
#
# Convention : Reuss Voigt Hill
#
# Bulk Modulus (GPa) = 27.39401 40.84985 34.12193
# Shear Modulus (GPa) = 15.58835 21.46737 18.52786
#
# Velocity S-wave (km/s) = 2.92566 3.43331 3.18960
# Velocity P-wave (km/s) = 5.14340 6.17635 5.68339
#
# Compressibility (1/GPa) = 0.03650433
#
# Stress axis : x y z
#
# Youngs Moduli (GPa) = 65.31641 36.10089 96.85725
#
# Poissons Ratio (x) = 0.07240 0.41240
# Poissons Ratio (y) = 0.13099 0.20843
# Poissons Ratio (z) = 0.27810 0.07768
#
# Static dielectric constant tensor:
#      x y z
#    x 1.634540 0.000000 -0.007060 
#    y 0.000000 1.658250 0.000000 
#    z -0.007060 0.000000 1.644310 
# 
# From -- ./inp_files/166790.got.cif
#   From: 2010.05.17/outbox.cif.g08.bks.cpg/sg12_84_cif.got.tgz:166790.got - 2010.06.03 13:09:07.
