data_PCOD9169433
_publ_section_title
;
Structure prediction by ZEFSAII (Michael W. Deem and Ramdas Pophale) SiO2 
 PCOD9169433
Probable space group: C 2/M
;
_chemical_formula_sum "Si O2"
_cell_formula_units_Z 64
_cell_length_a 14.976758
_cell_length_b 7.528981
_cell_length_c 29.937149
_cell_angle_alpha 90.000000
_cell_angle_beta 134.270711
_cell_angle_gamma 90.000000
_cell_volume 2417.172234
_symmetry_space_group_name_H-M "C 2/M"
_symmetry_group_IT_number 12
_symmetry_cell_setting 'monoclinic'
loop_
_space_group_symop_operation_xyz
x,y,z
-x,y,-z
-x,-y,-z
x,-y,z
1/2+x,1/2+y,z
1/2-x,1/2+y,-z
1/2-x,1/2-y,-z
1/2+x,1/2-y,z
loop_
_atom_site_type_symbol
_atom_site_label
_atom_site_fract_x
_atom_site_fract_y
_atom_site_fract_z
Si Si1 0.325394 0.794013 0.960525
Si Si2 0.432873 0.787365 0.537334
Si Si3 0.045838 0.714347 0.666679
Si Si4 0.927623 0.285033 0.091321
Si Si5 0.047355 0.209217 0.766675
Si Si6 0.306938 0.298744 0.721569
Si Si7 0.328062 0.217521 0.864199
Si Si8 0.299507 0.303091 0.406988
O O1 0.174128 0.782658 0.909216
O O2 0.370831 0.725409 0.928797
O O3 0.361267 0.000000 0.974291
O O4 0.374117 0.719636 0.024284
O O5 0.448933 0.732449 0.594300
O O6 0.557372 0.703849 0.559782
O O7 0.316455 0.741426 0.465187
O O8 0.446193 0.000000 0.539299
O O9 0.053301 0.500000 0.668321
O O10 0.004043 0.773536 0.700381
O O11 0.186826 0.782663 0.704583
O O12 0.921687 0.500000 0.091177
O O13 0.072381 0.230743 0.138721
O O14 0.187154 0.283857 0.812222
O O15 0.944350 0.286414 0.764734
O O16 0.056704 0.000000 0.780407
O O17 0.320141 0.500000 0.742503
O O18 0.264484 0.307600 0.654545
O O19 0.325717 0.000000 0.862786
O O20 0.246052 0.500000 0.384989
#
# Coordination Sequence:
#
# PCOD9169433 Si02
#       8
#     8   8   8   8   8   8   8   8
#     4   9  17  31  53  78 104 136 171 205 247 304
#     4   9  16  29  49  72 101 135 164 197 252 316
#     4   9  19  35  54  74 100 133 167 206 255 305
#     4   9  17  31  52  78 107 135 166 208 255 299
#     4  10  21  36  54  74  98 132 177 218 248 293
#     4   9  19  36  53  70  98 137 170 202 254 311
#     4   9  18  33  52  74 101 136 174 209 250 301
#     4  10  17  26  47  78 103 125 162 211 254 298
#
# _framework density 26.477219000000002
#
# number of rings (size 3 to 8) (size 9 to 14) (size 15 to 20)
#    0.000    2.750    0.000    3.375    0.000    5.500 
#    0.000    3.750    0.000    3.000    0.000    0.000 
#    0.000    0.000    0.000    0.000    0.000    0.000 
#
# Total GULP energy -178716.358041 kJ/mol
# GULP energy per Si atom -5584.886189 kJ/mol
# Density = 2.641696 g / cm^3
# Si number density = 26.477219 Si / 1000 Ang^3
#
#
#
# Elastic Constant Matrix: (Units=GPa)
#
#
# Indices 1 2 3 4 5 6 
#
# 1 195.2231 -6.0626 23.9858 0.0000 19.6726 0.0000
# 2 -6.0626 92.1665 0.7548 -0.0001 -1.3833 0.0001
# 3 23.9858 0.7548 39.7658 0.0000 -18.7667 0.0000
# 4 0.0000 -0.0001 0.0000 14.9068 0.0000 -5.4096
# 5 19.6726 -1.3833 -18.7667 0.0000 35.1438 0.0000
# 6 0.0000 0.0001 0.0000 -5.4096 0.0000 11.9160
#
#
#
# Elastic Compliance Matrix: (Units=1/GPa)
#
#
# Indices 1 2 3 4 5 6 
#
# 1 0.006949 0.000400 -0.008058 0.000000 -0.008177 0.000000
# 2 0.000400 0.010879 -0.000470 0.000000 -0.000047 0.000000
# 3 -0.008058 -0.000470 0.042964 0.000000 0.027435 0.000000
# 4 0.000000 0.000000 0.000000 0.080315 0.000000 0.036461
# 5 -0.008177 -0.000047 0.027435 0.000000 0.047680 0.000000
# 6 0.000000 0.000000 0.000000 0.036461 0.000000 0.100474
#
#
# Mechanical properties :
#
#
# Convention : Reuss Voigt Hill
#
# Bulk Modulus (GPa) = 22.45344 40.50125 31.47735
# Shear Modulus (GPa) = 15.60738 32.95847 24.28293
#
# Velocity S-wave (km/s) = 2.43052 3.53198 3.03169
# Velocity P-wave (km/s) = 4.04664 5.65359 4.91621
#
# Compressibility (1/GPa) = 0.04453660
#
# Stress axis : x y z
#
# Youngs Moduli (GPa) = 143.91027 91.91672 23.27550
#
# Poissons Ratio (x) = -0.03680 0.18755
# Poissons Ratio (y) = -0.05761 0.01094
# Poissons Ratio (z) = 1.15961 0.04321
#
# Static dielectric constant tensor:
#      x y z
#    x 2.075670 0.000000 0.051770 
#    y 0.000000 1.997940 0.000000 
#    z 0.051770 0.000000 2.219550 
# 
# From -- ./inp_files/375596.got.cif
#   From: 2010.05.17/outbox.cif.g08.bks.cpg/sg12_188_cif.got.tgz:375596.got - 2010.06.03 13:09:07.
