data_PCOD9169848
_publ_section_title
;
Structure prediction by ZEFSAII (Michael W. Deem and Ramdas Pophale) SiO2 
 PCOD9169848
Probable space group: C 2/M
;
_chemical_formula_sum "Si O2"
_cell_formula_units_Z 48
_cell_length_a 17.928593
_cell_length_b 17.387316
_cell_length_c 10.720182
_cell_angle_alpha 90.000000
_cell_angle_beta 58.058164
_cell_angle_gamma 90.000000
_cell_volume 2835.806386
_symmetry_space_group_name_H-M "C 2/M"
_symmetry_group_IT_number 12
_symmetry_cell_setting 'monoclinic'
loop_
_space_group_symop_operation_xyz
x,y,z
-x,y,-z
-x,-y,-z
x,-y,z
1/2+x,1/2+y,z
1/2-x,1/2+y,-z
1/2-x,1/2-y,-z
1/2+x,1/2-y,z
loop_
_atom_site_type_symbol
_atom_site_label
_atom_site_fract_x
_atom_site_fract_y
_atom_site_fract_z
Si Si1 0.083823 0.085981 0.334593
Si Si2 0.230064 0.215306 0.817364
Si Si3 0.203189 0.836073 0.421274
Si Si4 0.605938 0.733538 0.152893
Si Si5 0.794622 0.408575 0.578673
Si Si6 0.053491 0.709365 0.581606
O O1 0.165810 0.106313 0.350522
O O2 0.080191 0.150830 0.232899
O O3 0.000000 0.090385 0.500000
O O4 0.089509 0.000000 0.278729
O O5 0.229436 0.278623 0.707758
O O6 0.316184 0.234015 0.826300
O O7 0.247165 0.133549 0.737194
O O8 0.146989 0.223383 0.980608
O O9 0.242199 0.881541 0.502108
O O10 0.123814 0.778652 0.530356
O O11 0.519700 0.785700 0.246333
O O12 0.798502 0.500000 0.586734
O O13 0.890058 0.368105 0.480534
O O14 0.000000 0.721127 0.500000
#
# Coordination Sequence:
#
# PCOD9169848 Si02
#       6
#     8   8   8   8   8   8
#     4  10  17  28  52  79 102 133 173 222 268 307
#     4   9  19  33  56  78 105 140 179 222 270 314
#     4  10  18  36  53  76 103 145 184 216 255 323
#     4  10  17  33  54  81 107 133 180 231 264 315
#     4  11  23  36  54  81 115 146 176 219 272 328
#     4  11  17  35  59  81 103 138 192 226 257 310
#
# _framework density 16.926403000000001
#
# number of rings (size 3 to 8) (size 9 to 14) (size 15 to 20)
#    0.000    1.833    6.667    2.500    0.000    1.000 
#    0.000    3.333    0.000    4.000    0.000    0.000 
#    0.000    0.000    0.000    0.000    0.000    0.000 
#
# Total GULP energy -133819.081682 kJ/mol
# GULP energy per Si atom -5575.795070 kJ/mol
# Density = 1.688788 g / cm^3
# Si number density = 16.926403 Si / 1000 Ang^3
#
#
#
# Elastic Constant Matrix: (Units=GPa)
#
#
# Indices 1 2 3 4 5 6 
#
# 1 37.8593 26.6690 22.5931 0.0000 0.4366 0.0000
# 2 26.6690 121.0926 45.5851 0.0000 0.8921 0.0000
# 3 22.5931 45.5851 137.9563 0.0000 -12.2462 0.0000
# 4 0.0000 0.0000 0.0000 14.9304 0.0000 -1.4373
# 5 0.4366 0.8921 -12.2462 0.0000 15.4981 0.0000
# 6 0.0000 0.0000 0.0000 -1.4373 0.0000 17.6171
#
#
#
# Elastic Compliance Matrix: (Units=1/GPa)
#
#
# Indices 1 2 3 4 5 6 
#
# 1 0.032774 -0.005769 -0.003779 0.000000 -0.003577 0.000000
# 2 -0.005769 0.010600 -0.002793 0.000000 -0.002655 0.000000
# 3 -0.003779 -0.002793 0.009479 0.000000 0.007757 0.000000
# 4 0.000000 0.000000 0.000000 0.067508 0.000000 0.005507
# 5 -0.003577 -0.002655 0.007757 0.000000 0.070907 0.000000
# 6 0.000000 0.000000 0.000000 0.005507 0.000000 0.057212
#
#
# Mechanical properties :
#
#
# Convention : Reuss Voigt Hill
#
# Bulk Modulus (GPa) = 35.49821 54.06694 44.78257
# Shear Modulus (GPa) = 17.69586 23.07987 20.38786
#
# Velocity S-wave (km/s) = 3.23686 3.69662 3.47436
# Velocity P-wave (km/s) = 5.91501 7.08744 6.52760
#
# Compressibility (1/GPa) = 0.02817044
#
# Stress axis : x y z
#
# Youngs Moduli (GPa) = 30.51232 94.34104 105.49510
#
# Poissons Ratio (x) = 0.54427 0.39862
# Poissons Ratio (y) = 0.17603 0.29469
# Poissons Ratio (z) = 0.11529 0.26353
#
# Static dielectric constant tensor:
#      x y z
#    x 1.593380 0.000000 -0.008560 
#    y 0.000000 1.570690 0.000000 
#    z -0.008560 0.000000 1.585380 
# 
# From -- ./inp_files/157648.got.cif
#   From: 2010.05.17/outbox.cif.g08.bks.cpg/sg12_79_cif.got.tgz:157648.got - 2010.06.03 13:09:07.
