data_PCOD9169423
_publ_section_title
;
Structure prediction by ZEFSAII (Michael W. Deem and Ramdas Pophale) SiO2 
 PCOD9169423
Probable space group: C 2/M
;
_chemical_formula_sum "Si O2"
_cell_formula_units_Z 64
_cell_length_a 21.150998
_cell_length_b 8.416769
_cell_length_c 26.171597
_cell_angle_alpha 90.000000
_cell_angle_beta 50.161398
_cell_angle_gamma 90.000000
_cell_volume 3577.536434
_symmetry_space_group_name_H-M "C 2/M"
_symmetry_group_IT_number 12
_symmetry_cell_setting 'monoclinic'
loop_
_space_group_symop_operation_xyz
x,y,z
-x,y,-z
-x,-y,-z
x,-y,z
1/2+x,1/2+y,z
1/2-x,1/2+y,-z
1/2-x,1/2-y,-z
1/2+x,1/2-y,z
loop_
_atom_site_type_symbol
_atom_site_label
_atom_site_fract_x
_atom_site_fract_y
_atom_site_fract_z
Si Si1 0.424832 0.806452 0.771803
Si Si2 0.026756 0.311011 0.363270
Si Si3 0.164083 0.308074 0.792233
Si Si4 0.016749 0.692464 0.147237
Si Si5 0.174052 0.190572 0.004949
Si Si6 0.179319 0.807973 0.351625
Si Si7 0.233615 0.192012 0.863308
Si Si8 0.080147 0.814508 0.495650
O O1 0.472352 0.756300 0.695937
O O2 0.462400 0.752513 0.805995
O O3 0.329341 0.757517 0.816357
O O4 0.425473 0.000000 0.772656
O O5 0.036705 0.500000 0.358644
O O6 0.106686 0.239400 0.350233
O O7 0.947168 0.267824 0.438080
O O8 0.164103 0.500000 0.790705
O O9 0.234198 0.252681 0.716053
O O10 0.190933 0.255681 0.834654
O O11 0.072979 0.252803 0.824499
O O12 0.016865 0.500000 0.147500
O O13 0.089377 0.747836 0.072491
O O14 0.174481 0.000000 0.005596
O O15 0.250000 0.250000 0.000000
O O16 0.189366 0.242481 0.938599
O O17 0.153198 0.750518 0.421772
O O18 0.179893 0.000000 0.353961
O O19 0.232862 0.000000 0.861715
O O20 0.000000 0.804589 0.500000
O O21 0.094461 0.000000 0.499083
#
# Coordination Sequence:
#
# PCOD9169423 Si02
#       8
#     8   8   8   8   8   8   8   8
#     4   9  17  32  52  74 101 136 170 207 257 306
#     4  10  17  26  46  74  98 126 169 212 250 297
#     4  10  21  35  55  80 104 136 177 219 253 298
#     4  10  21  39  57  76 106 138 174 215 258 309
#     4  11  22  37  58  81 105 137 173 213 260 309
#     4   9  17  30  46  69 101 134 166 202 255 305
#     4  10  20  36  56  76 104 139 170 207 260 313
#     4   8  15  27  42  64 100 135 161 202 254 301
#
# _framework density 17.889405
#
# number of rings (size 3 to 8) (size 9 to 14) (size 15 to 20)
#    0.000    2.375    2.500    1.500    0.000    4.250 
#    0.000    3.750    0.000    0.750    0.000    0.000 
#    0.000    0.000    0.000    0.000    0.000    1.250 
#
# Total GULP energy -178423.386770 kJ/mol
# GULP energy per Si atom -5575.730837 kJ/mol
# Density = 1.784869 g / cm^3
# Si number density = 17.889405 Si / 1000 Ang^3
#
#
#
# Elastic Constant Matrix: (Units=GPa)
#
#
# Indices 1 2 3 4 5 6 
#
# 1 122.4951 12.6905 91.6828 -0.0003 0.0057 -0.0003
# 2 12.6905 6.3379 22.0526 -0.0015 0.2736 -0.0027
# 3 91.6828 22.0526 207.2887 0.0001 10.3925 -0.0001
# 4 -0.0003 -0.0015 0.0001 27.5441 0.0001 2.3990
# 5 0.0057 0.2736 10.3925 0.0001 24.7719 -0.0001
# 6 -0.0003 -0.0027 -0.0001 2.3990 -0.0001 17.2366
#
#
#
# Elastic Compliance Matrix: (Units=1/GPa)
#
#
# Indices 1 2 3 4 5 6 
#
# 1 0.012638 -0.008862 -0.004752 0.000000 0.002088 -0.000001
# 2 -0.008862 0.258532 -0.023945 0.000010 0.007193 0.000039
# 3 -0.004752 -0.023945 0.009663 -0.000001 -0.003788 -0.000004
# 4 0.000000 0.000010 -0.000001 0.036751 0.000000 -0.005115
# 5 0.002088 0.007193 -0.003788 0.000000 0.041878 0.000001
# 6 -0.000001 0.000039 -0.000004 -0.005115 0.000001 0.058728
#
#
# Mechanical properties :
#
#
# Convention : Reuss Voigt Hill
#
# Bulk Modulus (GPa) = 4.86109 65.44149 35.15129
# Shear Modulus (GPa) = 8.89871 27.89022 18.39447
#
# Velocity S-wave (km/s) = 2.23273 3.95275 3.21009
# Velocity P-wave (km/s) = 3.06104 7.58240 5.78199
#
# Compressibility (1/GPa) = 0.20571503
#
# Stress axis : x y z
#
# Youngs Moduli (GPa) = 79.12623 3.86800 103.48579
#
# Poissons Ratio (x) = 0.03428 0.49173
# Poissons Ratio (y) = 0.70124 2.47797
# Poissons Ratio (z) = 0.37598 0.09262
#
# Static dielectric constant tensor:
#      x y z
#    x 1.576590 0.000000 0.003430 
#    y 0.000000 1.623870 0.000000 
#    z 0.003430 0.000000 1.644260 
# 
# From -- ./inp_files/365186.got.cif
#   From: 2010.05.17/outbox.cif.g08.bks.cpg/sg12_183_cif.got.tgz:365186.got - 2010.06.03 13:09:07.
