data_PCOD9169077
_publ_section_title
;
Structure prediction by ZEFSAII (Michael W. Deem and Ramdas Pophale) SiO2 
 PCOD9169077
Probable space group: C 2/M
;
_chemical_formula_sum "Si O2"
_cell_formula_units_Z 40
_cell_length_a 15.831480
_cell_length_b 19.038380
_cell_length_c 10.506621
_cell_angle_alpha 90.000000
_cell_angle_beta 139.785603
_cell_angle_gamma 90.000000
_cell_volume 2044.614582
_symmetry_space_group_name_H-M "C 2/M"
_symmetry_group_IT_number 12
_symmetry_cell_setting 'monoclinic'
loop_
_space_group_symop_operation_xyz
x,y,z
-x,y,-z
-x,-y,-z
x,-y,z
1/2+x,1/2+y,z
1/2-x,1/2+y,-z
1/2-x,1/2-y,-z
1/2+x,1/2-y,z
loop_
_atom_site_type_symbol
_atom_site_label
_atom_site_fract_x
_atom_site_fract_y
_atom_site_fract_z
Si Si1 0.558771 0.780200 0.208128
Si Si2 0.893501 0.000000 0.491080
Si Si3 0.686507 0.081075 0.660891
Si Si4 0.881265 0.500000 0.964360
Si Si5 0.584918 0.120199 0.790907
Si Si6 0.819874 0.865776 0.569107
O O1 0.450848 0.808437 0.181725
O O2 0.680806 0.836543 0.350685
O O3 0.603971 0.705862 0.315381
O O4 0.500000 0.775448 0.000000
O O5 0.750843 0.000000 0.265163
O O6 0.891037 0.072698 0.570745
O O7 0.000000 0.000000 0.500000
O O8 0.687193 0.123635 0.793316
O O9 0.547529 0.092534 0.430218
O O10 0.788975 0.102267 0.672263
O O11 0.698819 0.000000 0.710512
O O12 0.883987 0.566260 0.061430
O O13 0.000000 0.500000 0.000000
#
# Coordination Sequence:
#
# PCOD9169077 Si02
#       6
#     8   4   8   4   8   8
#     4  10  21  40  62  91 121 158 211 261 312 361
#     4  12  26  45  62  89 132 170 204 255 320 381
#     4  10  16  33  59  92 126 146 197 263 316 357
#     4  12  20  34  67  98 119 156 211 272 311 354
#     4  10  18  31  59  97 120 143 199 271 313 349
#     4  10  22  42  63  84 122 170 205 249 311 382
#
# _framework density 19.563590000000001
#
# number of rings (size 3 to 8) (size 9 to 14) (size 15 to 20)
#    0.000    1.600    3.000    4.800    0.000    0.000 
#   14.400    1.500    0.000    0.000    0.000    0.000 
#    0.000    0.000    0.000    0.000    0.000    0.000 
#
# Total GULP energy -111558.759757 kJ/mol
# GULP energy per Si atom -5577.937988 kJ/mol
# Density = 1.951906 g / cm^3
# Si number density = 19.563590 Si / 1000 Ang^3
#
#
#
# Elastic Constant Matrix: (Units=GPa)
#
#
# Indices 1 2 3 4 5 6 
#
# 1 148.9116 59.1771 40.5916 0.0000 -33.8081 0.0000
# 2 59.1771 96.6209 36.9226 0.0000 -19.3584 0.0000
# 3 40.5916 36.9226 68.5397 0.0000 -23.8333 0.0000
# 4 0.0000 0.0000 0.0000 36.3089 0.0000 11.6761
# 5 -33.8081 -19.3584 -23.8333 0.0000 25.5531 0.0000
# 6 0.0000 0.0000 0.0000 11.6761 0.0000 2.3642
#
#
#
# Elastic Compliance Matrix: (Units=1/GPa)
#
#
# Indices 1 2 3 4 5 6 
#
# 1 0.011063 -0.004450 -0.000351 0.000000 0.010938 0.000000
# 2 -0.004450 0.015255 -0.005344 0.000000 0.000684 0.000000
# 3 -0.000351 -0.005344 0.023839 0.000000 0.017722 0.000000
# 4 0.000000 0.000000 0.000000 -0.046827 0.000000 0.231262
# 5 0.010938 0.000684 0.017722 0.000000 0.070653 0.000000
# 6 0.000000 0.000000 0.000000 0.231262 0.000000 -0.719150
#
#
# Mechanical properties :
#
#
# Convention : Reuss Voigt Hill
#
# Bulk Modulus (GPa) = 33.48293 65.27275 49.37784
# Shear Modulus (GPa) = -8.13112 24.67066 8.26977
#
# Velocity S-wave (km/s) = -2.04090 3.55498 2.05823
# Velocity P-wave (km/s) = 3.40564 7.09136 5.56263
#
# Compressibility (1/GPa) = 0.02986596
#
# Stress axis : x y z
#
# Youngs Moduli (GPa) = 90.39290 65.55421 41.94746
#
# Poissons Ratio (x) = 0.29171 0.01473
# Poissons Ratio (y) = 0.40224 0.22418
# Poissons Ratio (z) = 0.03174 0.35034
#
# Static dielectric constant tensor:
#      x y z
#    x 1.714330 0.000000 0.029980 
#    y 0.000000 1.748190 0.000000 
#    z 0.029980 0.000000 1.660180 
# 
# From -- ./inp_files/63835.got.cif
#   From: 2010.05.17/outbox.cif.g08.bks.cpg/sg12_32_cif.got.tgz:63835.got - 2010.06.03 13:09:07.
