data_PCOD9169762
_publ_section_title
;
Structure prediction by ZEFSAII (Michael W. Deem and Ramdas Pophale) SiO2 
 PCOD9169762
Probable space group: C 2/M
;
_chemical_formula_sum "Si O2"
_cell_formula_units_Z 60
_cell_length_a 35.230905
_cell_length_b 7.941541
_cell_length_c 12.017673
_cell_angle_alpha 90.000000
_cell_angle_beta 114.227370
_cell_angle_gamma 90.000000
_cell_volume 3066.250995
_symmetry_space_group_name_H-M "C 2/M"
_symmetry_group_IT_number 12
_symmetry_cell_setting 'monoclinic'
loop_
_space_group_symop_operation_xyz
x,y,z
-x,y,-z
-x,-y,-z
x,-y,z
1/2+x,1/2+y,z
1/2-x,1/2+y,-z
1/2-x,1/2-y,-z
1/2+x,1/2-y,z
loop_
_atom_site_type_symbol
_atom_site_label
_atom_site_fract_x
_atom_site_fract_y
_atom_site_fract_z
Si Si1 0.212711 0.797001 0.306750
Si Si2 0.635540 0.306914 0.088908
Si Si3 0.583549 0.808635 0.228264
Si Si4 0.894511 0.298968 0.503224
Si Si5 0.456572 0.794313 0.392023
Si Si6 0.303956 0.299203 0.461796
Si Si7 0.443894 0.199264 0.122925
Si Si8 0.500000 0.748452 0.000000
O O1 0.180998 0.736073 0.173730
O O2 0.260906 0.751805 0.351798
O O3 0.199114 0.734535 0.413788
O O4 0.209052 0.000000 0.303634
O O5 0.638957 0.500000 0.056166
O O6 0.611722 0.298597 0.179204
O O7 0.604597 0.213056 0.968257
O O8 0.585219 0.741046 0.355468
O O9 0.537432 0.818933 0.122007
O O10 0.600354 0.000000 0.247970
O O11 0.900152 0.500000 0.508085
O O12 0.919006 0.233622 0.425444
O O13 0.845721 0.262071 0.453183
O O14 0.500000 0.742554 0.500000
O O15 0.452252 0.745786 0.258377
O O16 0.456236 0.000000 0.389881
O O17 0.305733 0.500000 0.469343
O O18 0.455789 0.000000 0.122122
O O19 0.470028 0.309178 0.065601
#
# Coordination Sequence:
#
# PCOD9169762 Si02
#       8
#     8   8   8   8   8   8   8   4
#     4   9  18  32  49  73 105 137 167 205 256 311
#     4  10  19  32  49  71 104 136 164 202 254 310
#     4  10  18  28  46  71  98 130 169 208 251 299
#     4  10  19  31  50  75 103 136 173 213 257 304
#     4   9  18  33  54  78 103 136 179 223 258 296
#     4  10  19  31  50  76 105 136 168 208 257 310
#     4  10  19  32  51  75 102 133 173 215 258 304
#     4  10  17  28  47  72  99 128 165 212 253 294
#
# _framework density 19.567869999999999
#
# number of rings (size 3 to 8) (size 9 to 14) (size 15 to 20)
#    0.000    2.267    1.333    3.600    0.000    3.733 
#    0.000    6.000    0.000    5.600    0.000    0.000 
#    0.000    0.000    0.000    0.000    0.000    0.000 
#
# Total GULP energy -167082.302263 kJ/mol
# GULP energy per Si atom -5569.410075 kJ/mol
# Density = 1.952333 g / cm^3
# Si number density = 19.567870 Si / 1000 Ang^3
#
#
#
# Elastic Constant Matrix: (Units=GPa)
#
#
# Indices 1 2 3 4 5 6 
#
# 1 124.7126 -4.2614 78.0445 0.0000 4.2390 0.0000
# 2 -4.2614 20.8376 7.6959 0.0000 -6.4060 0.0000
# 3 78.0445 7.6959 154.9069 0.0000 4.9222 0.0000
# 4 0.0000 0.0000 0.0000 9.3964 0.0000 0.1253
# 5 4.2390 -6.4060 4.9222 0.0000 28.3139 0.0000
# 6 0.0000 0.0000 0.0000 0.1253 0.0000 7.7871
#
#
#
# Elastic Compliance Matrix: (Units=1/GPa)
#
#
# Indices 1 2 3 4 5 6 
#
# 1 0.012177 0.004980 -0.006395 0.000000 0.000415 0.000000
# 2 0.004980 0.054990 -0.005644 0.000000 0.012677 0.000000
# 3 -0.006395 -0.005644 0.010024 0.000000 -0.002062 0.000000
# 4 0.000000 0.000000 0.000000 0.106446 0.000000 -0.001713
# 5 0.000415 0.012677 -0.002062 0.000000 0.038483 0.000000
# 6 0.000000 0.000000 0.000000 -0.001713 0.000000 0.128446
#
#
# Mechanical properties :
#
#
# Convention : Reuss Voigt Hill
#
# Bulk Modulus (GPa) = 15.85487 51.49056 33.67271
# Shear Modulus (GPa) = 12.96319 23.69803 18.33061
#
# Velocity S-wave (km/s) = 2.57665 3.48382 3.06399
# Velocity P-wave (km/s) = 4.11974 6.52331 5.45554
#
# Compressibility (1/GPa) = 0.06307212
#
# Stress axis : x y z
#
# Youngs Moduli (GPa) = 82.12413 18.18500 99.76552
#
# Poissons Ratio (x) = -0.09056 0.63804
# Poissons Ratio (y) = -0.40898 0.56305
# Poissons Ratio (z) = 0.52522 0.10263
#
# Static dielectric constant tensor:
#      x y z
#    x 1.685730 0.000000 0.015880 
#    y 0.000000 1.721430 0.000000 
#    z 0.015880 0.000000 1.692030 
# 
# From -- ./inp_files/187679.got.cif
#   From: 2010.05.17/outbox.cif.g08.bks.cpg/sg12_94_cif.got.tgz:187679.got - 2010.06.03 13:09:07.
