data_PCOD9169788
_publ_section_title
;
Structure prediction by ZEFSAII (Michael W. Deem and Ramdas Pophale) SiO2 
 PCOD9169788
Probable space group: C 2/M
;
_chemical_formula_sum "Si O2"
_cell_formula_units_Z 60
_cell_length_a 13.998956
_cell_length_b 29.999893
_cell_length_c 20.279979
_cell_angle_alpha 90.000000
_cell_angle_beta 21.572711
_cell_angle_gamma 90.000000
_cell_volume 3131.517477
_symmetry_space_group_name_H-M "C 2/M"
_symmetry_group_IT_number 12
_symmetry_cell_setting 'monoclinic'
loop_
_space_group_symop_operation_xyz
x,y,z
-x,y,-z
-x,-y,-z
x,-y,z
1/2+x,1/2+y,z
1/2-x,1/2+y,-z
1/2-x,1/2-y,-z
1/2+x,1/2-y,z
loop_
_atom_site_type_symbol
_atom_site_label
_atom_site_fract_x
_atom_site_fract_y
_atom_site_fract_z
Si Si1 0.613552 0.741632 0.191646
Si Si2 0.887135 0.821260 0.684252
Si Si3 0.190592 0.549296 0.713490
Si Si4 0.826200 0.394221 0.395109
Si Si5 0.795393 0.671926 0.786012
Si Si6 0.878686 0.949281 0.738677
Si Si7 0.662771 0.260934 0.767155
Si Si8 0.000000 0.379953 0.000000
O O1 0.575589 0.702251 0.268389
O O2 0.573242 0.788313 0.255234
O O3 0.429188 0.734876 0.248037
O O4 0.907460 0.747114 0.974837
O O5 0.850878 0.780475 0.658581
O O6 0.109708 0.855878 0.522384
O O7 0.622399 0.849365 0.864378
O O8 0.500000 0.549943 0.500000
O O9 0.088763 0.500000 0.761857
O O10 0.078236 0.586504 0.736649
O O11 0.203128 0.552872 0.784327
O O12 0.666174 0.433637 0.534164
O O13 0.042371 0.372057 0.302371
O O14 0.775911 0.693894 0.726134
O O15 0.500000 0.665761 0.000000
O O16 0.870361 0.000000 0.768209
O O17 0.741378 0.910656 0.868460
#
# Coordination Sequence:
#
# PCOD9169788 Si02
#       8
#     8   8   8   8   8   8   8   4
#     4   9  17  31  49  65  95 144 166 195 250 288
#     4  10  18  31  46  73 106 125 170 210 237 294
#     4   8  15  30  47  69 100 127 153 191 250 309
#     4  10  19  29  48  70  96 127 156 209 254 281
#     4   9  19  34  46  65  94 126 175 211 240 290
#     4   9  18  31  49  74 105 131 155 195 252 315
#     4   9  17  31  48  65  96 142 167 199 244 286
#     4  10  17  28  48  74 106 128 156 196 241 298
#
# _framework density 19.160039999999999
#
# number of rings (size 3 to 8) (size 9 to 14) (size 15 to 20)
#    0.000    2.800    1.333    2.200    0.000    6.400 
#    2.400    2.000    0.000    1.600    0.000    0.000 
#    0.000    5.867    0.000    0.000    0.000    0.000 
#
# Total GULP energy -167220.925147 kJ/mol
# GULP energy per Si atom -5574.030838 kJ/mol
# Density = 1.911643 g / cm^3
# Si number density = 19.160040 Si / 1000 Ang^3
#
#
#
# Elastic Constant Matrix: (Units=GPa)
#
#
# Indices 1 2 3 4 5 6 
#
# 1 96.6779 38.4146 16.7347 0.0235 -13.7179 -0.0449
# 2 38.4146 103.1763 22.2325 0.0089 -10.5134 -0.0096
# 3 16.7347 22.2325 39.4017 0.0514 -3.3182 -0.0461
# 4 0.0235 0.0089 0.0514 16.5621 -0.0161 -14.0040
# 5 -13.7179 -10.5134 -3.3182 -0.0161 17.1129 0.0360
# 6 -0.0449 -0.0096 -0.0461 -14.0040 0.0360 18.3912
#
#
#
# Elastic Compliance Matrix: (Units=1/GPa)
#
#
# Indices 1 2 3 4 5 6 
#
# 1 0.013402 -0.003522 -0.003032 0.000018 0.007991 0.000022
# 2 -0.003522 0.012527 -0.005248 -0.000003 0.003855 -0.000025
# 3 -0.003032 -0.005248 0.029636 -0.000086 0.000092 -0.000002
# 4 0.000018 -0.000003 -0.000086 0.169526 -0.000116 0.129086
# 5 0.007991 0.003855 0.000092 -0.000116 0.067228 -0.000198
# 6 0.000022 -0.000025 -0.000002 0.129086 -0.000198 0.152667
#
#
# Mechanical properties :
#
#
# Convention : Reuss Voigt Hill
#
# Bulk Modulus (GPa) = 31.28741 43.77993 37.53367
# Shear Modulus (GPa) = 10.43311 21.20485 15.81898
#
# Velocity S-wave (km/s) = 2.33604 3.33035 2.87648
# Velocity P-wave (km/s) = 4.86221 6.13902 5.53754
#
# Compressibility (1/GPa) = 0.03196174
#
# Stress axis : x y z
#
# Youngs Moduli (GPa) = 74.61654 79.82639 33.74253
#
# Poissons Ratio (x) = 0.28117 0.10230
# Poissons Ratio (y) = 0.26282 0.17708
# Poissons Ratio (z) = 0.22621 0.41892
#
# Static dielectric constant tensor:
#      x y z
#    x 1.702380 0.000010 0.048460 
#    y 0.000010 1.711750 0.000170 
#    z 0.048460 0.000170 1.739080 
# 
# From -- ./inp_files/341655.got.cif
#   From: 2010.05.17/outbox.cif.g08.bks.cpg/sg12_171_cif.got.tgz:341655.got - 2010.06.03 13:09:07.
