data_PCOD9169224
_publ_section_title
;
Structure prediction by ZEFSAII (Michael W. Deem and Ramdas Pophale) SiO2 
 PCOD9169224
Probable space group: C 2/M
;
_chemical_formula_sum "Si O2"
_cell_formula_units_Z 52
_cell_length_a 5.680875
_cell_length_b 19.673208
_cell_length_c 23.805531
_cell_angle_alpha 90.000000
_cell_angle_beta 53.377874
_cell_angle_gamma 90.000000
_cell_volume 2135.307882
_symmetry_space_group_name_H-M "C 2/M"
_symmetry_group_IT_number 12
_symmetry_cell_setting 'monoclinic'
loop_
_space_group_symop_operation_xyz
x,y,z
-x,y,-z
-x,-y,-z
x,-y,z
1/2+x,1/2+y,z
1/2-x,1/2+y,-z
1/2-x,1/2-y,-z
1/2+x,1/2-y,z
loop_
_atom_site_type_symbol
_atom_site_label
_atom_site_fract_x
_atom_site_fract_y
_atom_site_fract_z
Si Si1 0.857312 0.582794 0.157102
Si Si2 0.754735 0.358474 0.998107
Si Si3 0.314550 0.102365 0.374052
Si Si4 0.848720 0.000000 0.960508
Si Si5 0.302814 0.877900 0.579001
Si Si6 0.037615 0.248280 0.685156
Si Si7 0.221249 0.577285 0.211530
O O1 0.846332 0.500000 0.161502
O O2 0.525945 0.606879 0.192020
O O3 0.056709 0.605118 0.077321
O O4 0.014180 0.606890 0.191999
O O5 0.500000 0.322518 0.000000
O O6 0.605368 0.418592 0.057860
O O7 0.000000 0.322516 0.000000
O O8 0.475268 0.084419 0.409569
O O9 0.338251 0.184895 0.364514
O O10 0.511576 0.074798 0.295364
O O11 0.976399 0.084378 0.409456
O O12 0.500000 0.000000 0.000000
O O13 0.000000 0.000000 0.000000
O O14 0.500000 0.850595 0.500000
O O15 0.158230 0.818356 0.636894
O O16 0.189223 0.249997 0.724517
O O17 0.298982 0.500000 0.180438
#
# Coordination Sequence:
#
# PCOD9169224 Si02
#       7
#     8   8   8   4   8   8   8
#     4  10  19  30  44  62  83 113 161 205 229 257
#     4  10  17  25  39  60  85 109 137 186 244 282
#     4  10  19  32  48  66  93 123 150 183 227 263
#     4   8  14  20  30  48  72  98 120 154 213 268
#     4  10  19  31  51  77  97 112 137 175 230 299
#     4   8  16  27  44  70  95 115 136 164 217 281
#     4  10  21  34  47  61  83 124 172 203 214 242
#
# _framework density 24.352459
#
# number of rings (size 3 to 8) (size 9 to 14) (size 15 to 20)
#    0.000    2.462    0.769    2.308    0.000    5.538 
#    0.000    0.000    0.000    2.769    0.000    0.000 
#    0.000    0.000    0.000    0.000    0.000  484.615 
#
# Total GULP energy -144757.980554 kJ/mol
# GULP energy per Si atom -5567.614637 kJ/mol
# Density = 2.429703 g / cm^3
# Si number density = 24.352459 Si / 1000 Ang^3
#
#
#
# Elastic Constant Matrix: (Units=GPa)
#
#
# Indices 1 2 3 4 5 6 
#
# 1 344.2051 18.8600 35.4865 0.0000 -12.6937 0.0000
# 2 18.8600 74.8268 9.2752 0.0000 -0.5377 0.0000
# 3 35.4865 9.2752 60.7284 0.0000 -3.3005 0.0000
# 4 0.0000 0.0000 0.0000 17.4864 0.0000 2.2063
# 5 -12.6937 -0.5377 -3.3005 0.0000 43.3849 0.0000
# 6 0.0000 0.0000 0.0000 2.2063 0.0000 -21.6131
#
#
#
# Elastic Compliance Matrix: (Units=1/GPa)
#
#
# Indices 1 2 3 4 5 6 
#
# 1 0.003141 -0.000575 -0.001705 0.000000 0.000782 0.000000
# 2 -0.000575 0.013727 -0.001768 0.000000 -0.000133 0.000000
# 3 -0.001705 -0.001768 0.017778 0.000000 0.000832 0.000000
# 4 0.000000 0.000000 0.000000 0.056460 0.000000 0.005763
# 5 0.000782 -0.000133 0.000832 0.000000 0.023340 0.000000
# 6 0.000000 0.000000 0.000000 0.005763 0.000000 -0.045680
#
#
# Mechanical properties :
#
#
# Convention : Reuss Voigt Hill
#
# Bulk Modulus (GPa) = 37.66337 67.44487 52.55412
# Shear Modulus (GPa) = 58.33372 35.59423 46.96397
#
# Velocity S-wave (km/s) = 4.89959 3.82727 4.39625
# Velocity P-wave (km/s) = 6.89256 6.87649 6.88453
#
# Compressibility (1/GPa) = 0.02655100
#
# Stress axis : x y z
#
# Youngs Moduli (GPa) = 318.32893 72.84777 56.24772
#
# Poissons Ratio (x) = 0.04187 0.09592
# Poissons Ratio (y) = 0.18297 0.09944
# Poissons Ratio (z) = 0.54287 0.12879
#
# Static dielectric constant tensor:
#      x y z
#    x 2.039950 0.000000 -0.009400 
#    y 0.000000 1.942850 0.000000 
#    z -0.009400 0.000000 1.877610 
# 
# From -- ./inp_files/355092.got.cif
#   From: 2010.05.17/outbox.cif.g08.bks.cpg/sg12_178_cif.got.tgz:355092.got - 2010.06.03 13:09:07.
