data_PCOD9169927
_publ_section_title
;
Structure prediction by ZEFSAII (Michael W. Deem and Ramdas Pophale) SiO2 
 PCOD9169927
Probable space group: C 2/M
;
_chemical_formula_sum "Si O2"
_cell_formula_units_Z 64
_cell_length_a 26.182731
_cell_length_b 7.651242
_cell_length_c 24.622813
_cell_angle_alpha 90.000000
_cell_angle_beta 133.834156
_cell_angle_gamma 90.000000
_cell_volume 3558.189499
_symmetry_space_group_name_H-M "C 2/M"
_symmetry_group_IT_number 12
_symmetry_cell_setting 'monoclinic'
loop_
_space_group_symop_operation_xyz
x,y,z
-x,y,-z
-x,-y,-z
x,-y,z
1/2+x,1/2+y,z
1/2-x,1/2+y,-z
1/2-x,1/2-y,-z
1/2+x,1/2-y,z
loop_
_atom_site_type_symbol
_atom_site_label
_atom_site_fract_x
_atom_site_fract_y
_atom_site_fract_z
Si Si1 0.787180 0.209847 0.584562
Si Si2 0.976274 0.296410 0.583698
Si Si3 0.309894 0.793860 0.171641
Si Si4 0.916135 0.711675 0.155758
Si Si5 0.867205 0.285492 0.327442
Si Si6 0.194354 0.707255 0.007133
Si Si7 0.667801 0.785504 0.578156
Si Si8 0.554859 0.706503 0.317000
O O1 0.750000 0.250000 0.500000
O O2 0.735976 0.274993 0.594619
O O3 0.867720 0.275957 0.641979
O O4 0.790895 0.000000 0.592949
O O5 0.977484 0.500000 0.568868
O O6 0.904406 0.224303 0.504592
O O7 0.970905 0.285376 0.644837
O O8 0.051387 0.224550 0.619009
O O9 0.366233 0.723125 0.168828
O O10 0.324777 0.725769 0.242752
O O11 0.231657 0.773280 0.089085
O O12 0.324196 0.000000 0.184512
O O13 0.912913 0.500000 0.153405
O O14 0.995599 0.763588 0.227889
O O15 0.879830 0.771955 0.072719
O O16 0.867737 0.500000 0.327886
O O17 0.835209 0.232079 0.361406
O O18 0.189740 0.500000 0.009372
O O19 0.250000 0.750000 0.000000
O O20 0.668132 0.000000 0.576506
O O21 0.561046 0.500000 0.331396
#
# Coordination Sequence:
#
# PCOD9169927 Si02
#       8
#     8   8   8   8   8   8   8   8
#     4  10  20  33  48  67  89 118 156 194 233 271
#     4  10  17  29  48  67  89 120 156 189 224 269
#     4   9  16  27  44  67  94 119 145 182 226 273
#     4   9  17  30  45  64  90 120 153 185 219 267
#     4   9  16  27  45  71  94 115 154 195 222 265
#     4   9  17  28  43  64  91 121 151 182 218 269
#     4   9  17  29  48  68  87 118 158 197 229 260
#     4  11  21  29  43  68  95 121 151 189 231 271
#
# _framework density 17.986677
#
# number of rings (size 3 to 8) (size 9 to 14) (size 15 to 20)
#    0.000    2.500    2.500    1.875    0.000    4.500 
#    0.000    0.000    0.000    3.750    0.000    0.875 
#    0.000    7.000    0.000    0.000    0.000    0.000 
#
# Total GULP energy -178379.370983 kJ/mol
# GULP energy per Si atom -5574.355343 kJ/mol
# Density = 1.794574 g / cm^3
# Si number density = 17.986677 Si / 1000 Ang^3
#
#
#
# Elastic Constant Matrix: (Units=GPa)
#
#
# Indices 1 2 3 4 5 6 
#
# 1 122.1892 -1.0385 62.8683 -0.0001 3.4201 0.0001
# 2 -1.0385 27.3090 -9.4103 -0.0005 -1.5466 0.0010
# 3 62.8683 -9.4103 126.3743 0.0001 17.4185 -0.0001
# 4 -0.0001 -0.0005 0.0001 17.0238 -0.0001 -0.5368
# 5 3.4201 -1.5466 17.4185 -0.0001 17.2849 0.0000
# 6 0.0001 0.0010 -0.0001 -0.5368 0.0000 4.6393
#
#
#
# Elastic Compliance Matrix: (Units=1/GPa)
#
#
# Indices 1 2 3 4 5 6 
#
# 1 0.011288 -0.001508 -0.006273 0.000000 0.003953 0.000000
# 2 -0.001508 0.037790 0.003550 0.000001 0.000102 -0.000008
# 3 -0.006273 0.003550 0.012871 0.000000 -0.011411 0.000000
# 4 0.000000 0.000001 0.000000 0.058956 0.000000 0.006822
# 5 0.003953 0.000102 -0.011411 0.000000 0.068581 -0.000001
# 6 0.000000 -0.000008 0.000000 0.006822 -0.000001 0.216339
#
#
# Mechanical properties :
#
#
# Convention : Reuss Voigt Hill
#
# Bulk Modulus (GPa) = 18.69615 42.30129 30.49872
# Shear Modulus (GPa) = 11.57099 22.68647 17.12873
#
# Velocity S-wave (km/s) = 2.53911 3.55532 3.08929
# Velocity P-wave (km/s) = 4.36040 6.35790 5.45142
#
# Compressibility (1/GPa) = 0.05348695
#
# Stress axis : x y z
#
# Youngs Moduli (GPa) = 88.59020 26.46224 77.69584
#
# Poissons Ratio (x) = 0.03991 0.48736
# Poissons Ratio (y) = 0.13362 -0.27584
# Poissons Ratio (z) = 0.55569 -0.09395
#
# Static dielectric constant tensor:
#      x y z
#    x 1.592910 0.000000 0.013780 
#    y 0.000000 1.689760 0.000000 
#    z 0.013780 0.000000 1.643200 
# 
# From -- ./inp_files/348589.got.cif
#   From: 2010.05.17/outbox.cif.g08.bks.cpg/sg12_175_cif.got.tgz:348589.got - 2010.06.03 13:09:07.
