data_PCOD9169955
_publ_section_title
;
Structure prediction by ZEFSAII (Michael W. Deem and Ramdas Pophale) SiO2 
 PCOD9169955
Probable space group: C 2/M
;
_chemical_formula_sum "Si O2"
_cell_formula_units_Z 56
_cell_length_a 18.479118
_cell_length_b 20.390343
_cell_length_c 8.889778
_cell_angle_alpha 90.000000
_cell_angle_beta 106.825588
_cell_angle_gamma 90.000000
_cell_volume 3206.232298
_symmetry_space_group_name_H-M "C 2/M"
_symmetry_group_IT_number 12
_symmetry_cell_setting 'monoclinic'
loop_
_space_group_symop_operation_xyz
x,y,z
-x,y,-z
-x,-y,-z
x,-y,z
1/2+x,1/2+y,z
1/2-x,1/2+y,-z
1/2-x,1/2-y,-z
1/2+x,1/2-y,z
loop_
_atom_site_type_symbol
_atom_site_label
_atom_site_fract_x
_atom_site_fract_y
_atom_site_fract_z
Si Si1 0.411047 0.741230 0.222101
Si Si2 0.829596 0.154819 0.961711
Si Si3 0.302916 0.809826 0.339632
Si Si4 0.581142 0.375111 0.530669
Si Si5 0.701477 0.185781 0.323767
Si Si6 0.572312 0.705916 0.218605
Si Si7 0.218691 0.074478 0.788335
O O1 0.382247 0.802975 0.300332
O O2 0.422387 0.682992 0.348437
O O3 0.489923 0.739093 0.181122
O O4 0.342400 0.719914 0.071572
O O5 0.759313 0.158530 0.806408
O O6 0.905142 0.158074 0.905502
O O7 0.817484 0.097542 0.074748
O O8 0.305368 0.838780 0.508295
O O9 0.273136 0.735113 0.351654
O O10 0.500000 0.410243 0.500000
O O11 0.587121 0.338808 0.374644
O O12 0.653344 0.417036 0.622318
O O13 0.631297 0.233697 0.250164
O O14 0.716875 0.126486 0.219941
O O15 0.244484 0.000000 0.811010
#
# Coordination Sequence:
#
# PCOD9169955 Si02
#       7
#     8   8   8   8   8   8   8
#     4  10  17  29  48  81 109 131 148 197 271 330
#     4  10  20  31  46  74 106 137 164 211 250 301
#     4  10  17  30  54  77 106 123 161 211 279 307
#     4   9  17  32  52  76 102 130 161 209 257 303
#     4  10  18  32  51  78  98 133 163 217 256 303
#     4  10  19  30  53  80 111 123 159 208 275 315
#     4  11  22  36  50  67  99 147 189 208 237 289
#
# _framework density 17.465983999999999
#
# number of rings (size 3 to 8) (size 9 to 14) (size 15 to 20)
#    0.000    2.000    4.286    2.571    2.000    0.286 
#    0.000    2.857    0.000   11.143    0.000    4.000 
#    0.000    0.000    0.000    0.000    0.000    0.000 
#
# Total GULP energy -155883.723695 kJ/mol
# GULP energy per Si atom -5567.275846 kJ/mol
# Density = 1.742623 g / cm^3
# Si number density = 17.465984 Si / 1000 Ang^3
#
#
#
# Elastic Constant Matrix: (Units=GPa)
#
#
# Indices 1 2 3 4 5 6 
#
# 1 74.0785 23.8027 14.6237 0.0000 -18.6020 0.0000
# 2 23.8027 58.2910 17.4234 0.0000 -12.6666 0.0000
# 3 14.6237 17.4234 79.5512 0.0000 -14.5553 0.0000
# 4 0.0000 0.0000 0.0000 10.8875 0.0000 -0.1035
# 5 -18.6020 -12.6666 -14.5553 0.0000 28.6616 0.0000
# 6 0.0000 0.0000 0.0000 -0.1035 0.0000 9.6539
#
#
#
# Elastic Compliance Matrix: (Units=1/GPa)
#
#
# Indices 1 2 3 4 5 6 
#
# 1 0.017438 -0.005056 -0.000481 0.000000 0.008839 0.000000
# 2 -0.005056 0.021067 -0.002846 0.000000 0.004583 0.000000
# 3 -0.000481 -0.002846 0.014326 0.000000 0.005705 0.000000
# 4 0.000000 0.000000 0.000000 0.091857 0.000000 0.000985
# 5 0.008839 0.004583 0.005705 0.000000 0.045550 0.000000
# 6 0.000000 0.000000 0.000000 0.000985 0.000000 0.103595
#
#
# Mechanical properties :
#
#
# Convention : Reuss Voigt Hill
#
# Bulk Modulus (GPa) = 27.72797 35.95781 31.84289
# Shear Modulus (GPa) = 15.49803 20.24534 17.87169
#
# Velocity S-wave (km/s) = 2.98203 3.40829 3.20226
# Velocity P-wave (km/s) = 5.26940 6.01005 5.65187
#
# Compressibility (1/GPa) = 0.03606467
#
# Stress axis : x y z
#
# Youngs Moduli (GPa) = 57.34454 47.46845 69.80230
#
# Poissons Ratio (x) = 0.24002 0.03357
# Poissons Ratio (y) = 0.28996 0.19866
# Poissons Ratio (z) = 0.02758 0.13509
#
# Static dielectric constant tensor:
#      x y z
#    x 1.670550 0.000000 -0.004710 
#    y 0.000000 1.561340 0.000000 
#    z -0.004710 0.000000 1.676800 
# 
# From -- ./inp_files/87291.got.cif
#   From: 2010.05.17/outbox.cif.g08.bks.cpg/sg12_44_cif.got.tgz:87291.got - 2010.06.03 13:09:07.
