data_PCOD9169829
_publ_section_title
;
Structure prediction by ZEFSAII (Michael W. Deem and Ramdas Pophale) SiO2 
 PCOD9169829
Probable space group: C 2/M
;
_chemical_formula_sum "Si O2"
_cell_formula_units_Z 56
_cell_length_a 20.407520
_cell_length_b 17.316475
_cell_length_c 10.434460
_cell_angle_alpha 90.000000
_cell_angle_beta 141.391408
_cell_angle_gamma 90.000000
_cell_volume 2300.922823
_symmetry_space_group_name_H-M "C 2/M"
_symmetry_group_IT_number 12
_symmetry_cell_setting 'monoclinic'
loop_
_space_group_symop_operation_xyz
x,y,z
-x,y,-z
-x,-y,-z
x,-y,z
1/2+x,1/2+y,z
1/2-x,1/2+y,-z
1/2-x,1/2-y,-z
1/2+x,1/2-y,z
loop_
_atom_site_type_symbol
_atom_site_label
_atom_site_fract_x
_atom_site_fract_y
_atom_site_fract_z
Si Si1 0.033100 0.248313 0.818353
Si Si2 0.091795 0.118601 0.223546
Si Si3 0.427113 0.085784 0.099424
Si Si4 0.904084 0.870333 0.287748
Si Si5 0.703044 0.084737 0.833527
Si Si6 0.776052 0.132578 0.350353
Si Si7 0.243165 0.796258 0.272520
O O1 0.041497 0.204235 0.695643
O O2 0.969849 0.193641 0.816837
O O3 0.001632 0.337526 0.786060
O O4 0.153853 0.243317 0.047945
O O5 0.148906 0.086632 0.437763
O O6 0.185533 0.141650 0.272326
O O7 0.000000 0.079161 0.000000
O O8 0.365944 0.088232 0.142918
O O9 0.338486 0.097163 0.852561
O O10 0.474058 0.000000 0.157952
O O11 0.826311 0.907860 0.064125
O O12 0.828058 0.857257 0.290789
O O13 0.000000 0.915213 0.500000
O O14 0.685869 0.000000 0.748994
O O15 0.681474 0.156194 0.706627
O O16 0.778800 0.221320 0.404092
#
# Coordination Sequence:
#
# PCOD9169829 Si02
#       7
#     8   8   8   8   8   8   8
#     4   9  17  31  51  77 102 132 169 216 261 303
#     4  10  19  31  50  73 104 131 168 218 259 300
#     4   9  18  33  55  79 106 136 171 214 262 313
#     4  10  17  28  50  77 103 128 168 218 261 305
#     4   9  18  32  50  75 107 140 169 206 259 317
#     4  10  18  31  52  76  98 131 176 219 259 300
#     4   9  18  31  51  72 100 136 178 214 252 302
#
# _framework density 24.338062000000001
#
# number of rings (size 3 to 8) (size 9 to 14) (size 15 to 20)
#    0.000    2.571    1.429    1.286    0.000    3.714 
#    0.000    0.714    0.000   23.143    0.000    0.000 
#    0.000    0.000    0.000    0.000    0.000    0.000 
#
# Total GULP energy -156054.151045 kJ/mol
# GULP energy per Si atom -5573.362537 kJ/mol
# Density = 2.428267 g / cm^3
# Si number density = 24.338062 Si / 1000 Ang^3
#
#
#
# Elastic Constant Matrix: (Units=GPa)
#
#
# Indices 1 2 3 4 5 6 
#
# 1 36.8362 6.6447 -0.9750 0.0000 -22.0488 0.0000
# 2 6.6447 149.8216 11.3043 0.0000 -11.6683 0.0000
# 3 -0.9750 11.3043 94.5537 0.0000 -21.5102 0.0000
# 4 0.0000 0.0000 0.0000 2.7858 0.0000 -5.3462
# 5 -22.0488 -11.6683 -21.5102 0.0000 27.8321 0.0000
# 6 0.0000 0.0000 0.0000 -5.3462 0.0000 4.5708
#
#
#
# Elastic Compliance Matrix: (Units=1/GPa)
#
#
# Indices 1 2 3 4 5 6 
#
# 1 0.065900 0.000942 0.015207 0.000000 0.064354 0.000000
# 2 0.000942 0.006917 0.000015 0.000000 0.003657 0.000000
# 3 0.015207 0.000015 0.016347 0.000000 0.024687 0.000000
# 4 0.000000 0.000000 0.000000 -0.288412 0.000000 -0.337335
# 5 0.064354 0.003657 0.024687 0.000000 0.107524 0.000000
# 6 0.000000 0.000000 0.000000 -0.337335 0.000000 -0.175779
#
#
# Mechanical properties :
#
#
# Convention : Reuss Voigt Hill
#
# Bulk Modulus (GPa) = 8.23111 35.01771 21.62441
# Shear Modulus (GPa) = -19.28015 24.65358 2.68671
#
# Velocity S-wave (km/s) = -2.81762 3.18616 1.05181
# Velocity P-wave (km/s) = 2.68254 5.28723 3.22171
#
# Compressibility (1/GPa) = 0.12149024
#
# Stress axis : x y z
#
# Youngs Moduli (GPa) = 15.17462 144.58076 61.17273
#
# Poissons Ratio (x) = -0.13617 -0.93024
# Poissons Ratio (y) = -0.01429 -0.00091
# Poissons Ratio (z) = -0.23076 -0.00214
#
# Static dielectric constant tensor:
#      x y z
#    x 1.910360 0.000000 -0.002520 
#    y 0.000000 2.001430 0.000000 
#    z -0.002520 0.000000 2.032680 
# 
# From -- ./inp_files/177191.got.cif
#   From: 2010.05.17/outbox.cif.g08.bks.cpg/sg12_89_cif.got.tgz:177191.got - 2010.06.03 13:09:07.
