data_PCOD9169799
_publ_section_title
;
Structure prediction by ZEFSAII (Michael W. Deem and Ramdas Pophale) SiO2 
 PCOD9169799
Probable space group: C 2/M
;
_chemical_formula_sum "Si O2"
_cell_formula_units_Z 64
_cell_length_a 32.177366
_cell_length_b 7.793009
_cell_length_c 15.669779
_cell_angle_alpha 90.000000
_cell_angle_beta 57.979143
_cell_angle_gamma 90.000000
_cell_volume 3331.502898
_symmetry_space_group_name_H-M "C 2/M"
_symmetry_group_IT_number 12
_symmetry_cell_setting 'monoclinic'
loop_
_space_group_symop_operation_xyz
x,y,z
-x,y,-z
-x,-y,-z
x,-y,z
1/2+x,1/2+y,z
1/2-x,1/2+y,-z
1/2-x,1/2-y,-z
1/2+x,1/2-y,z
loop_
_atom_site_type_symbol
_atom_site_label
_atom_site_fract_x
_atom_site_fract_y
_atom_site_fract_z
Si Si1 0.878010 0.195534 0.069989
Si Si2 0.933428 0.695895 0.172003
Si Si3 0.536235 0.702713 0.131587
Si Si4 0.015415 0.707444 0.347801
Si Si5 0.846268 0.794432 0.379618
Si Si6 0.320904 0.201990 0.598493
Si Si7 0.711621 0.289095 0.727047
Si Si8 0.422849 0.790083 0.555853
O O1 0.912435 0.194146 0.116981
O O2 0.826983 0.271700 0.159441
O O3 0.866771 0.000000 0.056405
O O4 0.912265 0.274568 0.959837
O O5 0.924492 0.500000 0.157337
O O6 0.900373 0.738608 0.290574
O O7 0.989932 0.721073 0.132064
O O8 0.535862 0.500000 0.114048
O O9 0.528350 0.729632 0.240220
O O10 0.014913 0.500000 0.345804
O O11 0.054451 0.760172 0.377838
O O12 0.962100 0.763000 0.440816
O O13 0.830858 0.720209 0.486831
O O14 0.810159 0.739964 0.341865
O O15 0.845090 0.000000 0.386622
O O16 0.267045 0.272459 0.677314
O O17 0.368507 0.273842 0.594759
O O18 0.318888 0.000000 0.621215
O O19 0.711019 0.500000 0.728494
O O20 0.422176 0.000000 0.555038
#
# Coordination Sequence:
#
# PCOD9169799 Si02
#       8
#     8   8   8   8   8   8   8   8
#     4   9  19  35  49  65  95 130 160 194 236 279
#     4  11  21  32  48  71  97 125 160 197 231 274
#     4  11  21  32  49  71  95 125 158 192 237 288
#     4   9  17  32  50  69  96 124 152 189 236 288
#     4  10  19  31  45  67 101 133 158 189 236 285
#     4  10  17  28  49  73  93 121 165 204 236 277
#     4   8  16  30  47  66  92 127 164 199 232 273
#     4   8  16  30  49  71  94 121 151 191 240 284
#
# _framework density 19.210549
#
# number of rings (size 3 to 8) (size 9 to 14) (size 15 to 20)
#    0.000    2.500    0.000    4.875    0.000    3.500 
#    0.000    4.375    0.000    0.750    0.000    0.000 
#    0.000    0.000    0.000    0.000    0.000    0.125 
#
# Total GULP energy -178552.886351 kJ/mol
# GULP energy per Si atom -5579.777698 kJ/mol
# Density = 1.916682 g / cm^3
# Si number density = 19.210549 Si / 1000 Ang^3
#
#
#
# Elastic Constant Matrix: (Units=GPa)
#
#
# Indices 1 2 3 4 5 6 
#
# 1 86.7417 9.5565 26.1815 0.0000 -30.3596 0.0000
# 2 9.5565 28.9225 -0.1944 -0.0001 -1.9221 -0.0002
# 3 26.1815 -0.1944 77.1191 0.0000 -17.3716 0.0000
# 4 0.0000 -0.0001 0.0000 17.0721 0.0000 6.3348
# 5 -30.3596 -1.9221 -17.3716 0.0000 24.5414 0.0000
# 6 0.0000 -0.0002 0.0000 6.3348 0.0000 5.8448
#
#
#
# Elastic Compliance Matrix: (Units=1/GPa)
#
#
# Indices 1 2 3 4 5 6 
#
# 1 0.021279 -0.005399 -0.001670 0.000000 0.024719 0.000000
# 2 -0.005399 0.036171 0.001258 0.000000 -0.002956 0.000002
# 3 -0.001670 0.001258 0.015578 0.000000 0.009060 0.000000
# 4 0.000000 0.000000 0.000000 0.097980 0.000000 -0.106194
# 5 0.024719 -0.002956 0.009060 0.000000 0.077508 0.000000
# 6 0.000000 0.000002 0.000000 -0.106194 0.000000 0.286191
#
#
# Mechanical properties :
#
#
# Convention : Reuss Voigt Hill
#
# Bulk Modulus (GPa) = 16.28483 29.31893 22.80188
# Shear Modulus (GPa) = 8.82150 19.97429 14.39790
#
# Velocity S-wave (km/s) = 2.14522 3.22802 2.74063
# Velocity P-wave (km/s) = 3.82510 5.40264 4.68081
#
# Compressibility (1/GPa) = 0.06140685
#
# Stress axis : x y z
#
# Youngs Moduli (GPa) = 46.99493 27.64624 64.19419
#
# Poissons Ratio (x) = 0.14927 0.10718
# Poissons Ratio (y) = 0.25374 -0.08079
# Poissons Ratio (z) = 0.07846 -0.03479
#
# Static dielectric constant tensor:
#      x y z
#    x 1.662170 0.000000 -0.035280 
#    y 0.000000 1.700440 0.000000 
#    z -0.035280 0.000000 1.676850 
# 
# From -- ./inp_files/249089.got.cif
#   From: 2010.05.17/outbox.cif.g08.bks.cpg/sg12_125_cif.got.tgz:249089.got - 2010.06.03 13:09:07.
