data_PCOD9169535
_publ_section_title
;
Structure prediction by ZEFSAII (Michael W. Deem and Ramdas Pophale) SiO2 
 PCOD9169535
Probable space group: C 2/M
;
_chemical_formula_sum "Si O2"
_cell_formula_units_Z 60
_cell_length_a 15.346604
_cell_length_b 24.429883
_cell_length_c 22.394554
_cell_angle_alpha 90.000000
_cell_angle_beta 30.434123
_cell_angle_gamma 90.000000
_cell_volume 4253.007424
_symmetry_space_group_name_H-M "C 2/M"
_symmetry_group_IT_number 12
_symmetry_cell_setting 'monoclinic'
loop_
_space_group_symop_operation_xyz
x,y,z
-x,y,-z
-x,-y,-z
x,-y,z
1/2+x,1/2+y,z
1/2-x,1/2+y,-z
1/2-x,1/2-y,-z
1/2+x,1/2-y,z
loop_
_atom_site_type_symbol
_atom_site_label
_atom_site_fract_x
_atom_site_fract_y
_atom_site_fract_z
Si Si1 0.661416 0.681419 0.861726
Si Si2 0.298278 0.096924 0.618414
Si Si3 0.205919 0.439955 0.511024
Si Si4 0.153374 0.171468 0.527010
Si Si5 0.494058 0.758914 0.297483
Si Si6 0.205150 0.561340 0.246556
Si Si7 0.500000 0.716858 0.500000
Si Si8 0.841594 0.786826 0.273195
O O1 0.827641 0.713540 0.788919
O O2 0.706457 0.616324 0.830684
O O3 0.622180 0.704451 0.818262
O O4 0.500000 0.689214 0.000000
O O5 0.500000 0.113143 0.500000
O O6 0.269557 0.064275 0.574868
O O7 0.268010 0.064921 0.697664
O O8 0.189433 0.152323 0.683081
O O9 0.256786 0.500000 0.502312
O O10 0.309771 0.390706 0.478516
O O11 0.000453 0.433310 0.642726
O O12 0.339345 0.200552 0.408726
O O13 0.054596 0.180840 0.523858
O O14 0.048814 0.204147 0.639582
O O15 0.472543 0.744464 0.240025
O O16 0.257935 0.500000 0.194850
O O17 0.660922 0.754812 0.386909
#
# Coordination Sequence:
#
# PCOD9169535 Si02
#       8
#     8   8   8   8   8   8   4   8
#     4  11  22  34  47  69  99 128 164 194 225 277
#     4   9  15  23  42  69  97 120 146 180 234 280
#     4  10  17  27  44  70  98 122 149 189 234 277
#     4  10  18  29  48  73  94 120 153 193 238 292
#     4  10  19  31  49  69  96 125 155 192 241 281
#     4   9  18  30  43  64  96 130 159 183 221 273
#     4  10  18  28  49  70  95 120 152 194 240 288
#     4  10  18  29  49  72  94 124 152 195 236 282
#
# _framework density 14.107664
#
# number of rings (size 3 to 8) (size 9 to 14) (size 15 to 20)
#    0.000    2.133    4.667    0.400    0.000    2.400 
#    0.000    0.333    0.000    0.000    0.000    0.000 
#    0.000    0.533    0.000    0.000    0.000    1.333 
#
# Total GULP energy -167089.842391 kJ/mol
# GULP energy per Si atom -5569.661413 kJ/mol
# Density = 1.407555 g / cm^3
# Si number density = 14.107664 Si / 1000 Ang^3
#
#
#
# Elastic Constant Matrix: (Units=GPa)
#
#
# Indices 1 2 3 4 5 6 
#
# 1 85.1414 49.5855 43.1159 -0.0086 7.4018 0.0075
# 2 49.5855 106.3500 30.3914 0.0084 3.3083 -0.0020
# 3 43.1159 30.3914 65.5935 0.0216 7.3982 0.0049
# 4 -0.0086 0.0084 0.0216 7.1920 -0.0120 -2.6683
# 5 7.4018 3.3083 7.3982 -0.0120 13.8561 -0.0011
# 6 0.0075 -0.0020 0.0049 -2.6683 -0.0011 18.0454
#
#
#
# Elastic Compliance Matrix: (Units=1/GPa)
#
#
# Indices 1 2 3 4 5 6 
#
# 1 0.021372 -0.006864 -0.010391 0.000058 -0.004230 0.000002
# 2 -0.006864 0.013042 -0.001696 -0.000015 0.001458 0.000003
# 3 -0.010391 -0.001696 0.023612 -0.000099 -0.006651 -0.000017
# 4 0.000058 -0.000015 -0.000099 0.147114 0.000154 0.021753
# 5 -0.004230 0.001458 -0.006651 0.000154 0.077634 0.000031
# 6 0.000002 0.000003 -0.000017 0.021753 0.000031 0.058632
#
#
# Mechanical properties :
#
#
# Convention : Reuss Voigt Hill
#
# Bulk Modulus (GPa) = 49.68924 55.91896 52.80410
# Shear Modulus (GPa) = 12.95282 16.75150 14.85216
#
# Velocity S-wave (km/s) = 3.03337 3.44961 3.24817
# Velocity P-wave (km/s) = 6.89684 7.45585 7.18179
#
# Compressibility (1/GPa) = 0.02012508
#
# Stress axis : x y z
#
# Youngs Moduli (GPa) = 46.78912 76.67324 42.35187
#
# Poissons Ratio (x) = 0.52627 0.44009
# Poissons Ratio (y) = 0.32115 0.07181
# Poissons Ratio (z) = 0.48620 0.13001
#
# Static dielectric constant tensor:
#      x y z
#    x 1.463940 0.000000 0.014970 
#    y 0.000000 1.468500 0.000010 
#    z 0.014970 0.000010 1.444770 
# 
# From -- ./inp_files/190344.got.cif
#   From: 2010.05.17/outbox.cif.g08.bks.cpg/sg12_96_cif.got.tgz:190344.got - 2010.06.03 13:09:07.
