data_PCOD9169344
_publ_section_title
;
Structure prediction by ZEFSAII (Michael W. Deem and Ramdas Pophale) SiO2 
 PCOD9169344
Probable space group: C 2/M
;
_chemical_formula_sum "Si O2"
_cell_formula_units_Z 64
_cell_length_a 17.419815
_cell_length_b 13.450776
_cell_length_c 12.301664
_cell_angle_alpha 90.000000
_cell_angle_beta 101.277077
_cell_angle_gamma 90.000000
_cell_volume 2826.752622
_symmetry_space_group_name_H-M "C 2/M"
_symmetry_group_IT_number 12
_symmetry_cell_setting 'monoclinic'
loop_
_space_group_symop_operation_xyz
x,y,z
-x,y,-z
-x,-y,-z
x,-y,z
1/2+x,1/2+y,z
1/2-x,1/2+y,-z
1/2-x,1/2-y,-z
1/2+x,1/2-y,z
loop_
_atom_site_type_symbol
_atom_site_label
_atom_site_fract_x
_atom_site_fract_y
_atom_site_fract_z
Si Si1 0.121683 0.757692 0.975317
Si Si2 0.582917 0.387701 0.171651
Si Si3 0.687675 0.112269 0.143127
Si Si4 0.853371 0.820107 0.590428
Si Si5 0.487356 0.239191 0.384957
Si Si6 0.592806 0.384562 0.772615
Si Si7 0.494289 0.115307 0.827802
Si Si8 0.275144 0.111958 0.606025
O O1 0.141107 0.832637 0.882397
O O2 0.055522 0.680652 0.913622
O O3 0.089883 0.821656 0.067464
O O4 0.189024 0.690564 0.046948
O O5 0.598882 0.500000 0.144471
O O6 0.643083 0.355587 0.283470
O O7 0.495599 0.383250 0.198472
O O8 0.596008 0.118434 0.158320
O O9 0.736725 0.128424 0.267688
O O10 0.702062 0.000000 0.109509
O O11 0.799338 0.880714 0.493887
O O12 0.827111 0.704836 0.581904
O O13 0.943294 0.819857 0.581358
O O14 0.500000 0.180658 0.500000
O O15 0.413544 0.306387 0.328755
O O16 0.502451 0.165389 0.289586
O O17 0.610918 0.500000 0.753188
O O18 0.518092 0.000000 0.835719
O O19 0.308785 0.000000 0.606667
#
# Coordination Sequence:
#
# PCOD9169344 Si02
#       8
#     8   8   8   8   8   8   8   8
#     4  11  17  26  41  66  96 129 158 188 234 290
#     4  10  17  26  42  65  95 127 158 191 233 289
#     4  10  17  27  44  68  97 128 156 189 236 290
#     4  10  19  33  48  70 101 129 162 200 241 284
#     4  10  20  34  51  70  95 127 165 204 242 278
#     4   9  18  29  42  62  91 125 158 195 237 280
#     4  10  19  30  44  67  99 129 160 195 236 286
#     4  10  19  31  49  69  98 133 161 194 239 290
#
# _framework density 22.640820000000001
#
# number of rings (size 3 to 8) (size 9 to 14) (size 15 to 20)
#    0.000    2.000    2.500    4.125    0.000    3.000 
#    0.000    0.000    0.000    0.000    0.000    3.500 
#    0.000    2.000    0.000    0.000    0.000    0.000 
#
# Total GULP energy -178674.490164 kJ/mol
# GULP energy per Si atom -5583.577818 kJ/mol
# Density = 2.258929 g / cm^3
# Si number density = 22.640820 Si / 1000 Ang^3
#
#
#
# Elastic Constant Matrix: (Units=GPa)
#
#
# Indices 1 2 3 4 5 6 
#
# 1 46.9025 18.2165 27.0318 0.0000 22.2289 0.0000
# 2 18.2165 155.0055 53.5067 0.0000 11.2427 0.0000
# 3 27.0318 53.5067 180.2380 0.0000 21.8999 0.0000
# 4 0.0000 0.0000 0.0000 29.0983 0.0000 11.4769
# 5 22.2289 11.2427 21.8999 0.0000 33.0087 0.0000
# 6 0.0000 0.0000 0.0000 11.4769 0.0000 11.3518
#
#
#
# Elastic Compliance Matrix: (Units=1/GPa)
#
#
# Indices 1 2 3 4 5 6 
#
# 1 0.032632 -0.001705 -0.001945 0.000000 -0.020104 0.000000
# 2 -0.001705 0.007316 -0.001906 0.000000 -0.000078 0.000000
# 3 -0.001945 -0.001906 0.006709 0.000000 -0.002492 0.000000
# 4 0.000000 0.000000 0.000000 0.057160 0.000000 -0.057790
# 5 -0.020104 -0.000078 -0.002492 0.000000 0.045513 0.000000
# 6 0.000000 0.000000 0.000000 -0.057790 0.000000 0.146519
#
#
# Mechanical properties :
#
#
# Convention : Reuss Voigt Hill
#
# Bulk Modulus (GPa) = 28.13522 64.40622 46.27072
# Shear Modulus (GPa) = 15.68333 33.58450 24.63392
#
# Velocity S-wave (km/s) = 2.63478 3.85562 3.30211
# Velocity P-wave (km/s) = 4.65938 6.95196 5.91775
#
# Compressibility (1/GPa) = 0.03554263
#
# Stress axis : x y z
#
# Youngs Moduli (GPa) = 30.64443 136.69447 149.06100
#
# Poissons Ratio (x) = 0.23312 0.28994
# Poissons Ratio (y) = 0.05226 0.28418
# Poissons Ratio (z) = 0.05961 0.26060
#
# Static dielectric constant tensor:
#      x y z
#    x 1.923290 0.000000 -0.021860 
#    y 0.000000 1.813060 0.000000 
#    z -0.021860 0.000000 1.926290 
# 
# From -- ./inp_files/167291.got.cif
#   From: 2010.05.17/outbox.cif.g08.bks.cpg/sg12_84_cif.got.tgz:167291.got - 2010.06.03 13:09:07.
