data_PCOD9169783
_publ_section_title
;
Structure prediction by ZEFSAII (Michael W. Deem and Ramdas Pophale) SiO2 
 PCOD9169783
Probable space group: C 2/M
;
_chemical_formula_sum "Si O2"
_cell_formula_units_Z 58
_cell_length_a 24.703953
_cell_length_b 15.158884
_cell_length_c 10.706514
_cell_angle_alpha 90.000000
_cell_angle_beta 118.696697
_cell_angle_gamma 90.000000
_cell_volume 3516.960135
_symmetry_space_group_name_H-M "C 2/M"
_symmetry_group_IT_number 12
_symmetry_cell_setting 'monoclinic'
loop_
_space_group_symop_operation_xyz
x,y,z
-x,y,-z
-x,-y,-z
x,-y,z
1/2+x,1/2+y,z
1/2-x,1/2+y,-z
1/2-x,1/2-y,-z
1/2+x,1/2-y,z
loop_
_atom_site_type_symbol
_atom_site_label
_atom_site_fract_x
_atom_site_fract_y
_atom_site_fract_z
Si Si1 0.923410 0.149859 0.027657
Si Si2 0.355502 0.245652 0.632062
Si Si3 0.736491 0.897794 0.168146
Si Si4 0.442757 0.400446 0.760616
Si Si5 0.237464 0.276727 0.670501
Si Si6 0.285432 0.602380 0.942703
Si Si7 0.000000 0.500000 0.000000
Si Si8 0.098164 0.346544 0.077133
O O1 0.927649 0.109783 0.892276
O O2 0.858298 0.122881 0.013842
O O3 0.923870 0.255360 0.009727
O O4 0.984145 0.118397 0.167334
O O5 0.402006 0.324685 0.651826
O O6 0.298434 0.284710 0.651050
O O7 0.322614 0.201792 0.477229
O O8 0.389105 0.178259 0.763092
O O9 0.766510 0.825627 0.292654
O O10 0.663762 0.875797 0.093570
O O11 0.746496 0.000000 0.214651
O O12 0.761561 0.883886 0.056424
O O13 0.428698 0.500000 0.705352
O O14 0.250213 0.335304 0.805787
O O15 0.275694 0.500000 0.898702
O O16 0.049246 0.422898 0.013134
#
# Coordination Sequence:
#
# PCOD9169783 Si02
#       8
#     8   8   8   8   8   8   2   8
#     4  10  18  30  49  75 106 130 171 212 263 311
#     4   9  19  33  48  75 108 136 171 210 259 335
#     4  10  20  34  51  79 106 133 177 222 258 314
#     4  10  17  28  48  73 104 131 161 211 259 309
#     4  10  19  34  52  72 108 141 168 212 272 314
#     4  11  20  32  54  80 105 136 177 218 266 316
#     4  12  20  32  60  80 108 144 176 228 270 302
#     4  10  19  33  51  78 105 134 173 216 265 311
#
# _framework density 16.491515
#
# number of rings (size 3 to 8) (size 9 to 14) (size 15 to 20)
#    0.000    1.931    4.828    3.724    0.000    0.552 
#    1.241    1.379    0.000    0.828    0.000    3.862 
#    0.000    0.000    0.000    0.000    0.000    0.000 
#
# Total GULP energy -161440.278546 kJ/mol
# GULP energy per Si atom -5566.906157 kJ/mol
# Density = 1.645398 g / cm^3
# Si number density = 16.491515 Si / 1000 Ang^3
#
#
#
# Elastic Constant Matrix: (Units=GPa)
#
#
# Indices 1 2 3 4 5 6 
#
# 1 72.8921 29.2490 19.1506 0.0000 1.0621 0.0000
# 2 29.2490 87.6461 13.9722 0.0000 -2.4866 0.0000
# 3 19.1506 13.9722 30.8652 0.0000 5.3281 0.0000
# 4 0.0000 0.0000 0.0000 5.4623 0.0000 -7.3703
# 5 1.0621 -2.4866 5.3281 0.0000 10.4031 0.0000
# 6 0.0000 0.0000 0.0000 -7.3703 0.0000 46.1775
#
#
#
# Elastic Compliance Matrix: (Units=1/GPa)
#
#
# Indices 1 2 3 4 5 6 
#
# 1 0.017956 -0.004426 -0.009476 0.000000 0.001962 0.000000
# 2 -0.004426 0.013783 -0.004541 0.000000 0.006072 0.000000
# 3 -0.009476 -0.004541 0.044269 0.000000 -0.022791 0.000000
# 4 0.000000 0.000000 0.000000 0.233321 0.000000 0.037240
# 5 0.001962 0.006072 -0.022791 0.000000 0.109049 0.000000
# 6 0.000000 0.000000 0.000000 0.037240 0.000000 0.027599
#
#
# Mechanical properties :
#
#
# Convention : Reuss Voigt Hill
#
# Bulk Modulus (GPa) = 25.56203 35.12744 30.34474
# Shear Modulus (GPa) = 10.08260 21.01068 15.54664
#
# Velocity S-wave (km/s) = 2.47529 3.57323 3.07368
# Velocity P-wave (km/s) = 4.86859 6.19439 5.57107
#
# Compressibility (1/GPa) = 0.03912052
#
# Stress axis : x y z
#
# Youngs Moduli (GPa) = 55.69203 72.55446 22.58931
#
# Poissons Ratio (x) = 0.32112 0.21406
# Poissons Ratio (y) = 0.24648 0.10259
# Poissons Ratio (z) = 0.52775 0.32950
#
# Static dielectric constant tensor:
#      x y z
#    x 1.547900 0.000000 0.015770 
#    y 0.000000 1.559910 0.000000 
#    z 0.015770 0.000000 1.551940 
# 
# From -- ./inp_files/183054.got.cif
#   From: 2010.05.17/outbox.cif.g08.bks.cpg/sg12_92_cif.got.tgz:183054.got - 2010.06.03 13:09:07.
