data_PCOD9169948
_publ_section_title
;
Structure prediction by ZEFSAII (Michael W. Deem and Ramdas Pophale) SiO2 
 PCOD9169948
Probable space group: C 2/M
;
_chemical_formula_sum "Si O2"
_cell_formula_units_Z 40
_cell_length_a 18.118757
_cell_length_b 12.856218
_cell_length_c 8.555361
_cell_angle_alpha 90.000000
_cell_angle_beta 54.624651
_cell_angle_gamma 90.000000
_cell_volume 1624.944001
_symmetry_space_group_name_H-M "C 2/M"
_symmetry_group_IT_number 12
_symmetry_cell_setting 'monoclinic'
loop_
_space_group_symop_operation_xyz
x,y,z
-x,y,-z
-x,-y,-z
x,-y,z
1/2+x,1/2+y,z
1/2-x,1/2+y,-z
1/2-x,1/2-y,-z
1/2+x,1/2-y,z
loop_
_atom_site_type_symbol
_atom_site_label
_atom_site_fract_x
_atom_site_fract_y
_atom_site_fract_z
Si Si1 0.751208 0.000000 0.879806
Si Si2 0.301112 0.385636 0.306588
Si Si3 0.180852 0.800242 0.360671
Si Si4 0.914271 0.500000 0.729849
Si Si5 0.000000 0.160170 0.000000
Si Si6 0.900953 0.500000 0.203940
Si Si7 0.472317 0.183422 0.308599
O O1 0.806297 0.106809 0.779133
O O2 0.674613 0.000000 0.835755
O O3 0.694098 0.000000 0.111079
O O4 0.258229 0.500000 0.352235
O O5 0.253165 0.293492 0.269250
O O6 0.307220 0.351572 0.481463
O O7 0.404111 0.394500 0.123849
O O8 0.084550 0.740656 0.486693
O O9 0.000000 0.500000 0.500000
O O10 0.942201 0.610169 0.768665
O O11 0.998979 0.231633 0.849297
O O12 0.901980 0.603567 0.308887
O O13 0.000000 0.500000 0.000000
#
# Coordination Sequence:
#
# PCOD9169948 Si02
#       7
#     4   8   8   4   4   4   8
#     4  12  19  37  54  80 108 142 179 211 263 325
#     4  10  18  28  42  74 114 145 174 196 243 309
#     4  10  21  29  49  74 109 145 170 209 261 309
#     4  11  23  38  60  78  95 131 188 234 262 309
#     4  10  17  29  48  74 110 147 164 203 250 318
#     4  11  16  26  52  78 105 145 168 211 244 303
#     4  10  19  33  50  78 107 135 175 211 264 309
#
# _framework density 24.616235
#
# number of rings (size 3 to 8) (size 9 to 14) (size 15 to 20)
#    0.000    1.600    4.000    5.100    2.800    0.000 
#    0.000    1.000    0.000    0.000    0.000    0.700 
#    0.000    0.000    0.000    0.000    0.000    0.000 
#
# Total GULP energy -111689.794829 kJ/mol
# GULP energy per Si atom -5584.489741 kJ/mol
# Density = 2.456021 g / cm^3
# Si number density = 24.616235 Si / 1000 Ang^3
#
#
#
# Elastic Constant Matrix: (Units=GPa)
#
#
# Indices 1 2 3 4 5 6 
#
# 1 37.8517 23.8006 17.7904 0.0000 -4.5421 0.0000
# 2 23.8006 190.9131 74.6152 0.0000 -13.1722 0.0000
# 3 17.7904 74.6152 148.7332 0.0000 -30.2528 0.0000
# 4 0.0000 0.0000 0.0000 42.7831 0.0000 -65.5496
# 5 -4.5421 -13.1722 -30.2528 0.0000 27.5400 0.0000
# 6 0.0000 0.0000 0.0000 -65.5496 0.0000 249.7090
#
#
#
# Elastic Compliance Matrix: (Units=1/GPa)
#
#
# Indices 1 2 3 4 5 6 
#
# 1 0.029220 -0.002852 -0.001753 0.000000 0.001529 0.000000
# 2 -0.002852 0.006802 -0.003226 0.000000 -0.000761 0.000000
# 3 -0.001753 -0.003226 0.010532 0.000000 0.009738 0.000000
# 4 0.000000 0.000000 0.000000 0.039099 0.000000 0.010264
# 5 0.001529 -0.000761 0.009738 0.000000 0.046896 0.000000
# 6 0.000000 0.000000 0.000000 0.010264 0.000000 0.006699
#
#
# Mechanical properties :
#
#
# Convention : Reuss Voigt Hill
#
# Bulk Modulus (GPa) = 32.37154 67.76784 50.06969
# Shear Modulus (GPa) = 30.26509 81.42587 55.84548
#
# Velocity S-wave (km/s) = 3.51019 5.75760 4.76820
# Velocity P-wave (km/s) = 5.44129 8.47286 7.12029
#
# Compressibility (1/GPa) = 0.03089133
#
# Stress axis : x y z
#
# Youngs Moduli (GPa) = 34.22350 147.01922 94.94743
#
# Poissons Ratio (x) = 0.41930 0.16647
# Poissons Ratio (y) = 0.09761 0.30629
# Poissons Ratio (z) = 0.06000 0.47427
#
# Static dielectric constant tensor:
#      x y z
#    x 1.997450 0.000000 0.031060 
#    y 0.000000 1.934280 0.000000 
#    z 0.031060 0.000000 2.033670 
# 
# From -- ./inp_files/174368.got.cif
#   From: 2010.05.17/outbox.cif.g08.bks.cpg/sg12_88_cif.got.tgz:174368.got - 2010.06.03 13:09:07.
