data_PCOD9169760
_publ_section_title
;
Structure prediction by ZEFSAII (Michael W. Deem and Ramdas Pophale) SiO2 
 PCOD9169760
Probable space group: C 2/M
;
_chemical_formula_sum "Si O2"
_cell_formula_units_Z 56
_cell_length_a 24.339274
_cell_length_b 24.187879
_cell_length_c 9.515911
_cell_angle_alpha 90.000000
_cell_angle_beta 35.107040
_cell_angle_gamma 90.000000
_cell_volume 3221.836573
_symmetry_space_group_name_H-M "C 2/M"
_symmetry_group_IT_number 12
_symmetry_cell_setting 'monoclinic'
loop_
_space_group_symop_operation_xyz
x,y,z
-x,y,-z
-x,-y,-z
x,-y,z
1/2+x,1/2+y,z
1/2-x,1/2+y,-z
1/2-x,1/2-y,-z
1/2+x,1/2-y,z
loop_
_atom_site_type_symbol
_atom_site_label
_atom_site_fract_x
_atom_site_fract_y
_atom_site_fract_z
Si Si1 0.127049 0.188867 0.360360
Si Si2 0.768610 0.720907 0.685260
Si Si3 0.613439 0.849241 0.767953
Si Si4 0.435330 0.732379 0.807821
Si Si5 0.216879 0.372986 0.105705
Si Si6 0.893711 0.435854 0.457776
Si Si7 0.068956 0.357622 0.165434
O O1 0.193433 0.221939 0.329507
O O2 0.108065 0.224744 0.257931
O O3 0.020536 0.188550 0.646545
O O4 0.183003 0.135480 0.185542
O O5 0.825119 0.698722 0.432631
O O6 0.787028 0.676075 0.770749
O O7 0.654912 0.724116 0.902672
O O8 0.627769 0.903783 0.642491
O O9 0.500000 0.835645 0.000000
O O10 0.631965 0.860427 0.892007
O O11 0.472330 0.795040 0.744605
O O12 0.191624 0.426074 0.252094
O O13 0.134325 0.365765 0.163512
O O14 0.913569 0.500000 0.395473
O O15 0.985519 0.402626 0.326318
#
# Coordination Sequence:
#
# PCOD9169760 Si02
#       7
#     8   8   8   8   8   8   8
#     4  10  17  28  47  72  96 135 167 201 242 283
#     4  10  17  32  47  68  99 141 168 193 238 290
#     4   9  20  32  47  69  99 132 164 199 237 290
#     4  10  18  27  49  73  99 137 169 195 235 289
#     4  10  18  31  48  69  97 121 167 206 240 284
#     4  10  22  36  51  69  96 132 166 204 254 305
#     4  11  19  30  47  72  99 131 162 206 235 283
#
# _framework density 17.381391000000001
#
# number of rings (size 3 to 8) (size 9 to 14) (size 15 to 20)
#    0.000    2.000    2.857    3.857    2.000    4.286 
#    0.000    0.000    0.000    0.000    0.000   18.000 
#    0.000    0.000    0.000   39.286    0.000    0.000 
#
# Total GULP energy -156073.497041 kJ/mol
# GULP energy per Si atom -5574.053466 kJ/mol
# Density = 1.734183 g / cm^3
# Si number density = 17.381391 Si / 1000 Ang^3
#
#
#
# Elastic Constant Matrix: (Units=GPa)
#
#
# Indices 1 2 3 4 5 6 
#
# 1 35.8149 11.3202 24.9897 0.0000 9.7444 0.0000
# 2 11.3202 58.9598 33.1774 0.0000 -2.9439 0.0000
# 3 24.9897 33.1774 129.9705 0.0000 -4.2265 0.0000
# 4 0.0000 0.0000 0.0000 18.6439 0.0000 -1.0812
# 5 9.7444 -2.9439 -4.2265 0.0000 23.5148 0.0000
# 6 0.0000 0.0000 0.0000 -1.0812 0.0000 11.5603
#
#
#
# Elastic Compliance Matrix: (Units=1/GPa)
#
#
# Indices 1 2 3 4 5 6 
#
# 1 0.039096 -0.004491 -0.006956 0.000000 -0.018014 0.000000
# 2 -0.004491 0.020380 -0.004220 0.000000 0.003654 0.000000
# 3 -0.006956 -0.004220 0.010245 0.000000 0.004196 0.000000
# 4 0.000000 0.000000 0.000000 0.053929 0.000000 0.005044
# 5 -0.018014 0.003654 0.004196 0.000000 0.051203 0.000000
# 6 0.000000 0.000000 0.000000 0.005044 0.000000 0.086975
#
#
# Mechanical properties :
#
#
# Convention : Reuss Voigt Hill
#
# Bulk Modulus (GPa) = 26.05131 40.41330 33.23230
# Shear Modulus (GPa) = 16.34208 21.09433 18.71820
#
# Velocity S-wave (km/s) = 3.06960 3.48748 3.28519
# Velocity P-wave (km/s) = 5.25203 6.28634 5.79232
#
# Compressibility (1/GPa) = 0.03838579
#
# Stress axis : x y z
#
# Youngs Moduli (GPa) = 25.57821 49.06734 97.60637
#
# Poissons Ratio (x) = 0.22038 0.67898
# Poissons Ratio (y) = 0.11488 0.41190
# Poissons Ratio (z) = 0.17793 0.20706
#
# Static dielectric constant tensor:
#      x y z
#    x 1.617920 0.000000 -0.002010 
#    y 0.000000 1.565990 0.000000 
#    z -0.002010 0.000000 1.687070 
# 
# From -- ./inp_files/99613.got.cif
#   From: 2010.05.17/outbox.cif.g08.bks.cpg/sg12_50_cif.got.tgz:99613.got - 2010.06.03 13:09:07.
