data_PCOD9169377
_publ_section_title
;
Structure prediction by ZEFSAII (Michael W. Deem and Ramdas Pophale) SiO2 
 PCOD9169377
Probable space group: C 2/M
;
_chemical_formula_sum "Si O2"
_cell_formula_units_Z 56
_cell_length_a 9.486460
_cell_length_b 19.958298
_cell_length_c 20.837162
_cell_angle_alpha 90.000000
_cell_angle_beta 48.775375
_cell_angle_gamma 90.000000
_cell_volume 2967.291202
_symmetry_space_group_name_H-M "C 2/M"
_symmetry_group_IT_number 12
_symmetry_cell_setting 'monoclinic'
loop_
_space_group_symop_operation_xyz
x,y,z
-x,y,-z
-x,-y,-z
x,-y,z
1/2+x,1/2+y,z
1/2-x,1/2+y,-z
1/2-x,1/2-y,-z
1/2+x,1/2-y,z
loop_
_atom_site_type_symbol
_atom_site_label
_atom_site_fract_x
_atom_site_fract_y
_atom_site_fract_z
Si Si1 0.668379 0.210405 0.901667
Si Si2 0.502055 0.424575 0.324816
Si Si3 0.173246 0.127376 0.900589
Si Si4 0.321141 0.762344 0.318951
Si Si5 0.937078 0.859813 0.207301
Si Si6 0.580995 0.706813 0.580038
Si Si7 0.080951 0.373569 0.801699
O O1 0.692285 0.290766 0.894291
O O2 0.611869 0.178248 0.850853
O O3 0.858251 0.173285 0.865641
O O4 0.500000 0.195138 0.000000
O O5 0.447709 0.500000 0.356200
O O6 0.446465 0.406292 0.267884
O O7 0.412123 0.372055 0.403121
O O8 0.729621 0.417175 0.257376
O O9 0.131286 0.109229 0.838994
O O10 0.371041 0.097886 0.866305
O O11 0.000000 0.111387 0.000000
O O12 0.316771 0.703550 0.267696
O O13 0.441079 0.735762 0.341517
O O14 0.410268 0.828845 0.264595
O O15 0.108842 0.779231 0.401099
O O16 0.750000 0.750000 0.500000
#
# Coordination Sequence:
#
# PCOD9169377 Si02
#       7
#     8   8   8   8   8   8   8
#     4  10  17  26  43  73 114 147 176 223 288 334
#     4   9  21  39  58  75 100 149 189 219 260 330
#     4  11  18  26  45  78 115 141 178 239 293 317
#     4  10  17  30  49  78 108 132 170 206 271 324
#     4  10  18  30  50  74 108 144 183 227 266 330
#     4  10  20  33  57  83 108 130 166 221 273 330
#     4  10  18  30  50  74 108 144 183 227 266 330
#
# _framework density 18.872432
#
# number of rings (size 3 to 8) (size 9 to 14) (size 15 to 20)
#    0.000    2.000    2.857    3.000    0.000    2.286 
#    0.000    0.714    0.000   30.000    0.000    0.000 
#    0.000    0.000    0.000    0.000    0.000    0.000 
#
# Total GULP energy -155993.632957 kJ/mol
# GULP energy per Si atom -5571.201177 kJ/mol
# Density = 1.882948 g / cm^3
# Si number density = 18.872432 Si / 1000 Ang^3
#
#
#
# Elastic Constant Matrix: (Units=GPa)
#
#
# Indices 1 2 3 4 5 6 
#
# 1 74.8546 11.3574 13.4257 0.0003 -5.8646 -0.0006
# 2 11.3574 74.9522 24.0252 0.0001 -4.2856 -0.0002
# 3 13.4257 24.0252 80.3631 0.0002 -18.5452 -0.0003
# 4 0.0003 0.0001 0.0002 14.5716 -0.0002 1.8698
# 5 -5.8646 -4.2856 -18.5452 -0.0002 31.6996 0.0003
# 6 -0.0006 -0.0002 -0.0003 1.8698 0.0003 3.0600
#
#
#
# Elastic Compliance Matrix: (Units=1/GPa)
#
#
# Indices 1 2 3 4 5 6 
#
# 1 0.013984 -0.001543 -0.001533 -0.000001 0.001482 0.000003
# 2 -0.001543 0.014939 -0.004402 0.000000 -0.000841 0.000000
# 3 -0.001533 -0.004402 0.015969 0.000000 0.008463 0.000000
# 4 -0.000001 0.000000 0.000000 0.074466 0.000001 -0.045503
# 5 0.001482 -0.000841 0.008463 0.000001 0.036658 -0.000004
# 6 0.000003 0.000000 0.000000 -0.045503 -0.000004 0.354601
#
#
# Mechanical properties :
#
#
# Convention : Reuss Voigt Hill
#
# Bulk Modulus (GPa) = 33.40562 36.42073 34.91317
# Shear Modulus (GPa) = 9.33616 21.95702 15.64659
#
# Velocity S-wave (km/s) = 2.22659 3.41463 2.88248
# Velocity P-wave (km/s) = 4.93452 5.90648 5.44224
#
# Compressibility (1/GPa) = 0.02993509
#
# Stress axis : x y z
#
# Youngs Moduli (GPa) = 71.50837 66.94037 62.62184
#
# Poissons Ratio (x) = 0.10328 0.09600
# Poissons Ratio (y) = 0.11033 0.27569
# Poissons Ratio (z) = 0.10963 0.29470
#
# Static dielectric constant tensor:
#      x y z
#    x 1.690670 0.000000 -0.009560 
#    y 0.000000 1.641870 0.000000 
#    z -0.009560 0.000000 1.694030 
# 
# From -- ./inp_files/301650.got.cif
#   From: 2010.05.17/outbox.cif.g08.bks.cpg/sg12_151_cif.got.tgz:301650.got - 2010.06.03 13:09:07.
