data_PCOD9169187
_publ_section_title
;
Structure prediction by ZEFSAII (Michael W. Deem and Ramdas Pophale) SiO2 
 PCOD9169187
Probable space group: C 2/M
;
_chemical_formula_sum "Si O2"
_cell_formula_units_Z 64
_cell_length_a 19.653798
_cell_length_b 7.606883
_cell_length_c 19.058441
_cell_angle_alpha 90.000000
_cell_angle_beta 93.587019
_cell_angle_gamma 90.000000
_cell_volume 2843.733855
_symmetry_space_group_name_H-M "C 2/M"
_symmetry_group_IT_number 12
_symmetry_cell_setting 'monoclinic'
loop_
_space_group_symop_operation_xyz
x,y,z
-x,y,-z
-x,-y,-z
x,-y,z
1/2+x,1/2+y,z
1/2-x,1/2+y,-z
1/2-x,1/2-y,-z
1/2+x,1/2-y,z
loop_
_atom_site_type_symbol
_atom_site_label
_atom_site_fract_x
_atom_site_fract_y
_atom_site_fract_z
Si Si1 0.509449 0.296692 0.395793
Si Si2 0.911243 0.198763 0.946501
Si Si3 0.261971 0.297755 0.308698
Si Si4 0.156619 0.711312 0.191725
Si Si5 0.555952 0.196845 0.904072
Si Si6 0.992940 0.285675 0.762681
Si Si7 0.634307 0.284092 0.578040
Si Si8 0.837451 0.785873 0.572101
O O1 0.515625 0.500000 0.417831
O O2 0.491331 0.284556 0.312654
O O3 0.443789 0.223465 0.431243
O O4 0.585049 0.224373 0.408338
O O5 0.849451 0.241638 0.890639
O O6 0.976975 0.309197 0.926149
O O7 0.932670 0.000000 0.934508
O O8 0.902909 0.219200 0.029181
O O9 0.277749 0.500000 0.291545
O O10 0.220551 0.219495 0.240492
O O11 0.329150 0.218923 0.348965
O O12 0.209883 0.293449 0.371254
O O13 0.157709 0.500000 0.197365
O O14 0.084393 0.769315 0.221282
O O15 0.545606 0.275566 0.826255
O O16 0.582143 0.000000 0.898034
O O17 0.994051 0.500000 0.762212
O O18 0.633761 0.500000 0.580125
O O19 0.673988 0.235371 0.509755
O O20 0.833222 0.000000 0.577915
#
# Coordination Sequence:
#
# PCOD9169187 Si02
#       8
#     8   8   8   8   8   8   8   8
#     4  10  19  31  49  71  96 128 161 197 242 291
#     4  10  17  24  39  65  94 122 154 194 236 278
#     4  10  19  33  52  70  93 127 166 203 237 285
#     4   9  17  29  44  63  90 125 159 193 236 284
#     4   9  16  27  41  60  92 129 158 188 232 282
#     4   9  17  29  45  66  93 124 160 196 233 280
#     4   9  19  34  50  70  96 127 163 199 241 293
#     4  10  19  32  51  73  97 124 157 201 249 293
#
# _framework density 22.505621000000001
#
# number of rings (size 3 to 8) (size 9 to 14) (size 15 to 20)
#    0.000    2.500    1.250    3.750    0.000    4.500 
#    0.000    1.250    0.000    1.500    0.000    0.875 
#    0.000    0.000    0.000    0.000    0.000    0.000 
#
# Total GULP energy -178480.082484 kJ/mol
# GULP energy per Si atom -5577.502578 kJ/mol
# Density = 2.245440 g / cm^3
# Si number density = 22.505621 Si / 1000 Ang^3
#
#
#
# Elastic Constant Matrix: (Units=GPa)
#
#
# Indices 1 2 3 4 5 6 
#
# 1 50.6461 -7.9393 -4.4837 0.0000 19.8983 0.0000
# 2 -7.9393 57.3493 -5.7467 0.0000 0.7137 0.0000
# 3 -4.4837 -5.7467 114.6972 0.0000 34.5391 0.0000
# 4 0.0000 0.0000 0.0000 33.8120 0.0000 12.3263
# 5 19.8983 0.7137 34.5391 0.0000 32.3249 0.0000
# 6 0.0000 0.0000 0.0000 12.3263 0.0000 14.5029
#
#
#
# Elastic Compliance Matrix: (Units=1/GPa)
#
#
# Indices 1 2 3 4 5 6 
#
# 1 0.035812 0.006642 0.012408 0.000000 -0.035449 0.000000
# 2 0.006642 0.018841 0.003775 0.000000 -0.008538 0.000000
# 3 0.012408 0.003775 0.017277 0.000000 -0.026181 0.000000
# 4 0.000000 0.000000 0.000000 0.042853 0.000000 -0.036421
# 5 -0.035449 -0.008538 -0.026181 0.000000 0.080921 0.000000
# 6 0.000000 0.000000 0.000000 -0.036421 0.000000 0.099907
#
#
# Mechanical properties :
#
#
# Convention : Reuss Voigt Hill
#
# Bulk Modulus (GPa) = 8.50489 20.70589 14.60539
# Shear Modulus (GPa) = 17.29182 32.18547 24.73865
#
# Velocity S-wave (km/s) = 2.77489 3.78578 3.31905
# Velocity P-wave (km/s) = 3.74885 5.32257 4.60346
#
# Compressibility (1/GPa) = 0.11757942
#
# Stress axis : x y z
#
# Youngs Moduli (GPa) = 27.92352 53.07560 57.88077
#
# Poissons Ratio (x) = -0.35254 -0.71817
# Poissons Ratio (y) = -0.18547 -0.21849
# Poissons Ratio (z) = -0.34647 -0.20035
#
# Static dielectric constant tensor:
#      x y z
#    x 1.824290 0.000000 0.049410 
#    y 0.000000 1.809170 0.000000 
#    z 0.049410 0.000000 1.881810 
# 
# From -- ./inp_files/319212.got.cif
#   From: 2010.05.17/outbox.cif.g08.bks.cpg/sg12_160_cif.got.tgz:319212.got - 2010.06.03 13:09:07.
