data_PCOD9169811
_publ_section_title
;
Structure prediction by ZEFSAII (Michael W. Deem and Ramdas Pophale) SiO2 
 PCOD9169811
Probable space group: C 2/M
;
_chemical_formula_sum "Si O2"
_cell_formula_units_Z 56
_cell_length_a 20.715347
_cell_length_b 8.536087
_cell_length_c 17.474128
_cell_angle_alpha 90.000000
_cell_angle_beta 102.206705
_cell_angle_gamma 90.000000
_cell_volume 3020.055774
_symmetry_space_group_name_H-M "C 2/M"
_symmetry_group_IT_number 12
_symmetry_cell_setting 'monoclinic'
loop_
_space_group_symop_operation_xyz
x,y,z
-x,y,-z
-x,-y,-z
x,-y,z
1/2+x,1/2+y,z
1/2-x,1/2+y,-z
1/2-x,1/2-y,-z
1/2+x,1/2-y,z
loop_
_atom_site_type_symbol
_atom_site_label
_atom_site_fract_x
_atom_site_fract_y
_atom_site_fract_z
Si Si1 0.151295 0.310328 0.096561
Si Si2 0.072948 0.817893 0.479360
Si Si3 0.217684 0.312494 0.799035
Si Si4 0.480568 0.809287 0.852164
Si Si5 0.626070 0.312321 0.648362
Si Si6 0.988483 0.686217 0.680367
Si Si7 0.370266 0.808993 0.078617
O O1 0.153396 0.500000 0.098877
O O2 0.209347 0.245740 0.163692
O O3 0.079728 0.259204 0.109722
O O4 0.159140 0.259234 0.010275
O O5 0.120527 0.756794 0.558593
O O6 0.064902 0.729721 0.397548
O O7 0.000000 0.811839 0.500000
O O8 0.087620 0.000000 0.467596
O O9 0.215923 0.500000 0.797154
O O10 0.186664 0.249776 0.712898
O O11 0.171247 0.257278 0.858190
O O12 0.470067 0.762609 0.761241
O O13 0.553482 0.758147 0.895870
O O14 0.481192 0.000000 0.854900
O O15 0.626870 0.500000 0.646355
O O16 0.558578 0.259980 0.673628
O O17 0.997862 0.500000 0.683631
O O18 0.370217 0.000000 0.079523
#
# Coordination Sequence:
#
# PCOD9169811 Si02
#       7
#     8   8   8   8   8   8   8
#     4  10  20  34  54  75 100 138 177 207 247 306
#     4   8  16  29  45  70 103 132 163 206 250 298
#     4  11  21  34  52  75 107 134 165 216 262 301
#     4   9  17  31  52  78 104 133 172 212 247 294
#     4  10  19  32  50  73 101 134 172 208 248 302
#     4  10  17  28  49  77 106 132 164 208 256 298
#     4   9  17  32  54  77  99 131 174 216 252 294
#
# _framework density 18.542701999999998
#
# number of rings (size 3 to 8) (size 9 to 14) (size 15 to 20)
#    0.000    2.429    1.429    3.000    0.000    4.857 
#    0.000    2.143    0.000    1.714    0.000    0.000 
#    0.000    0.000    0.000    0.000    0.000    0.000 
#
# Total GULP energy -156155.932972 kJ/mol
# GULP energy per Si atom -5576.997606 kJ/mol
# Density = 1.850050 g / cm^3
# Si number density = 18.542702 Si / 1000 Ang^3
#
#
#
# Elastic Constant Matrix: (Units=GPa)
#
#
# Indices 1 2 3 4 5 6 
#
# 1 40.0660 0.8409 -4.7800 0.0000 14.5546 0.0000
# 2 0.8409 19.8567 10.2675 0.0000 3.7793 0.0000
# 3 -4.7800 10.2675 85.3401 0.0000 26.1568 0.0000
# 4 0.0000 0.0000 0.0000 -11.2447 0.0000 22.6594
# 5 14.5546 3.7793 26.1568 0.0000 22.0293 0.0000
# 6 0.0000 0.0000 0.0000 22.6594 0.0000 8.9060
#
#
#
# Elastic Compliance Matrix: (Units=1/GPa)
#
#
# Indices 1 2 3 4 5 6 
#
# 1 0.046603 -0.001737 0.019125 0.000000 -0.053201 0.000000
# 2 -0.001737 0.053849 -0.006440 0.000000 -0.000444 0.000000
# 3 0.019125 -0.006440 0.026881 0.000000 -0.043449 0.000000
# 4 0.000000 0.000000 0.000000 -0.014514 0.000000 0.036929
# 5 -0.053201 -0.000444 -0.043449 0.000000 0.132209 0.000000
# 6 0.000000 0.000000 0.000000 0.036929 0.000000 0.018326
#
#
# Mechanical properties :
#
#
# Convention : Reuss Voigt Hill
#
# Bulk Modulus (GPa) = 6.70107 17.54661 12.12384
# Shear Modulus (GPa) = 17.17036 13.20043 15.18539
#
# Velocity S-wave (km/s) = 3.04631 2.67103 2.86482
# Velocity P-wave (km/s) = 3.99938 4.35843 4.18276
#
# Compressibility (1/GPa) = 0.14922998
#
# Stress axis : x y z
#
# Youngs Moduli (GPa) = 21.45779 18.57048 37.20118
#
# Poissons Ratio (x) = 0.03226 -0.71149
# Poissons Ratio (y) = 0.03727 0.23957
# Poissons Ratio (z) = -0.41039 0.11959
#
# Static dielectric constant tensor:
#      x y z
#    x 1.614830 0.000000 0.008950 
#    y 0.000000 1.634640 0.000000 
#    z 0.008950 0.000000 1.664350 
# 
# From -- ./inp_files/280435.got.cif
#   From: 2010.05.17/outbox.cif.g08.bks.cpg/sg12_141_cif.got.tgz:280435.got - 2010.06.03 13:09:07.
