data_PCOD9169709
_publ_section_title
;
Structure prediction by ZEFSAII (Michael W. Deem and Ramdas Pophale) SiO2 
 PCOD9169709
Probable space group: C 2/M
;
_chemical_formula_sum "Si O2"
_cell_formula_units_Z 64
_cell_length_a 21.772456
_cell_length_b 20.490139
_cell_length_c 11.109583
_cell_angle_alpha 90.000000
_cell_angle_beta 124.666268
_cell_angle_gamma 90.000000
_cell_volume 4076.382516
_symmetry_space_group_name_H-M "C 2/M"
_symmetry_group_IT_number 12
_symmetry_cell_setting 'monoclinic'
loop_
_space_group_symop_operation_xyz
x,y,z
-x,y,-z
-x,-y,-z
x,-y,z
1/2+x,1/2+y,z
1/2-x,1/2+y,-z
1/2-x,1/2-y,-z
1/2+x,1/2-y,z
loop_
_atom_site_type_symbol
_atom_site_label
_atom_site_fract_x
_atom_site_fract_y
_atom_site_fract_z
Si Si1 0.326820 0.768622 0.430562
Si Si2 0.732267 0.924359 0.288310
Si Si3 0.631132 0.255092 0.933520
Si Si4 0.291251 0.351483 0.571714
Si Si5 0.531093 0.797230 0.278248
Si Si6 0.563197 0.075885 0.172704
Si Si7 0.079132 0.808200 0.130270
Si Si8 0.721157 0.315165 0.842901
O O1 0.305168 0.709022 0.495737
O O2 0.277739 0.829546 0.421397
O O3 0.413828 0.782214 0.549919
O O4 0.303916 0.743442 0.274508
O O5 0.770577 0.909943 0.460037
O O6 0.644679 0.906837 0.209335
O O7 0.769137 0.878949 0.227931
O O8 0.737189 0.000000 0.262220
O O9 0.554398 0.223631 0.801228
O O10 0.660464 0.313349 0.881090
O O11 0.617760 0.279816 0.054247
O O12 0.698248 0.203193 0.013473
O O13 0.364856 0.355059 0.735583
O O14 0.541990 0.871770 0.250078
O O15 0.560229 0.752300 0.198609
O O16 0.566531 0.000000 0.216065
O O17 0.500000 0.081079 0.000000
O O18 0.000000 0.837165 0.000000
#
# Coordination Sequence:
#
# PCOD9169709 Si02
#       8
#     8   8   8   8   8   8   8   8
#     4   9  16  26  46  66  93 124 145 199 248 274
#     4  10  19  31  49  71  96 129 163 197 237 290
#     4  10  19  28  45  69  98 129 159 194 242 285
#     4   9  15  27  46  69  93 117 153 194 246 284
#     4  10  17  28  45  70  96 122 155 201 243 284
#     4  10  18  26  41  68  99 128 154 188 234 284
#     4   9  16  27  47  72  92 117 150 199 253 284
#     4  10  19  31  44  69  98 130 161 194 238 292
#
# _framework density 15.700195000000001
#
# number of rings (size 3 to 8) (size 9 to 14) (size 15 to 20)
#    0.000    2.375    2.500    2.625    0.000    0.500 
#    0.000    0.000    0.000    1.125    0.000   30.625 
#    0.000    0.000    0.000    0.000    0.000    0.000 
#
# Total GULP energy -178222.878193 kJ/mol
# GULP energy per Si atom -5569.464944 kJ/mol
# Density = 1.566446 g / cm^3
# Si number density = 15.700195 Si / 1000 Ang^3
#
#
#
# Elastic Constant Matrix: (Units=GPa)
#
#
# Indices 1 2 3 4 5 6 
#
# 1 71.0364 24.5844 25.6156 0.0000 13.5686 0.0000
# 2 24.5844 49.4310 16.0401 0.0000 7.0061 0.0000
# 3 25.6156 16.0401 83.7687 0.0000 22.5105 0.0000
# 4 0.0000 0.0000 0.0000 17.0685 0.0000 0.2999
# 5 13.5686 7.0061 22.5105 0.0000 18.2776 0.0000
# 6 0.0000 0.0000 0.0000 0.2999 0.0000 18.1293
#
#
#
# Elastic Compliance Matrix: (Units=1/GPa)
#
#
# Indices 1 2 3 4 5 6 
#
# 1 0.019118 -0.007605 -0.002032 0.000000 -0.008775 0.000000
# 2 -0.007605 0.024876 -0.002081 0.000000 -0.001326 0.000000
# 3 -0.002032 -0.002081 0.018441 0.000000 -0.020406 0.000000
# 4 0.000000 0.000000 0.000000 0.058604 0.000000 -0.000969
# 5 -0.008775 -0.001326 -0.020406 0.000000 0.086866 0.000000
# 6 0.000000 0.000000 0.000000 -0.000969 0.000000 0.055175
#
#
# Mechanical properties :
#
#
# Convention : Reuss Voigt Hill
#
# Bulk Modulus (GPa) = 25.64218 37.41292 31.52755
# Shear Modulus (GPa) = 16.69356 19.89481 18.29418
#
# Velocity S-wave (km/s) = 3.26432 3.56359 3.41724
# Velocity P-wave (km/s) = 5.52952 6.38855 5.97449
#
# Compressibility (1/GPa) = 0.03899824
#
# Stress axis : x y z
#
# Youngs Moduli (GPa) = 52.30645 40.19930 54.22735
#
# Poissons Ratio (x) = 0.30573 0.11018
# Poissons Ratio (y) = 0.39781 0.11286
# Poissons Ratio (z) = 0.10628 0.08367
#
# Static dielectric constant tensor:
#      x y z
#    x 1.535420 0.000000 0.011250 
#    y 0.000000 1.502300 0.000000 
#    z 0.011250 0.000000 1.549110 
# 
# From -- ./inp_files/169244.got.cif
#   From: 2010.05.17/outbox.cif.g08.bks.cpg/sg12_85_cif.got.tgz:169244.got - 2010.06.03 13:09:07.
