data_PCOD9169351
_publ_section_title
;
Structure prediction by ZEFSAII (Michael W. Deem and Ramdas Pophale) SiO2 
 PCOD9169351
Probable space group: C 2/M
;
_chemical_formula_sum "Si O2"
_cell_formula_units_Z 58
_cell_length_a 30.071416
_cell_length_b 7.691658
_cell_length_c 19.020149
_cell_angle_alpha 90.000000
_cell_angle_beta 38.130730
_cell_angle_gamma 90.000000
_cell_volume 2716.408470
_symmetry_space_group_name_H-M "C 2/M"
_symmetry_group_IT_number 12
_symmetry_cell_setting 'monoclinic'
loop_
_space_group_symop_operation_xyz
x,y,z
-x,y,-z
-x,-y,-z
x,-y,z
1/2+x,1/2+y,z
1/2-x,1/2+y,-z
1/2-x,1/2-y,-z
1/2+x,1/2-y,z
loop_
_atom_site_type_symbol
_atom_site_label
_atom_site_fract_x
_atom_site_fract_y
_atom_site_fract_z
Si Si1 0.379991 0.789235 0.748370
Si Si2 0.780500 0.792923 0.077170
Si Si3 0.500000 0.000000 0.500000
Si Si4 0.383816 0.790234 0.155353
Si Si5 0.416812 0.686309 0.547888
Si Si6 0.931514 0.699450 0.829427
Si Si7 0.009074 0.287118 0.101695
Si Si8 0.265154 0.796712 0.710630
O O1 0.294820 0.769772 0.869668
O O2 0.392391 0.693382 0.660178
O O3 0.424306 0.726551 0.760313
O O4 0.391902 0.000000 0.717231
O O5 0.764682 0.733008 0.176661
O O6 0.795871 0.000000 0.059291
O O7 0.849830 0.701015 0.960213
O O8 0.469846 0.847738 0.482764
O O9 0.434642 0.736384 0.156924
O O10 0.301998 0.727161 0.257405
O O11 0.382654 0.000000 0.155618
O O12 0.426594 0.732949 0.031377
O O13 0.448936 0.500000 0.491244
O O14 0.341998 0.711893 0.599173
O O15 0.954691 0.500000 0.790711
O O16 0.977865 0.776710 0.835474
O O17 0.011277 0.500000 0.100687
O O18 0.281211 0.000000 0.700427
#
# Coordination Sequence:
#
# PCOD9169351 Si02
#       8
#     8   8   2   8   8   8   8   8
#     4   9  18  32  44  65 100 131 167 216 248 290
#     4   9  17  26  37  57  91 130 171 215 254 280
#     4  12  22  44  60  82 116 118 158 210 244 318
#     4   9  15  26  43  60  91 132 180 226 257 299
#     4  11  22  37  60  81 102 139 160 193 260 312
#     4  10  17  26  43  61  90 136 179 218 253 288
#     4   8  15  25  38  63  91 131 183 226 260 289
#     4  10  18  31  46  69 102 133 170 218 255 293
#
# _framework density 21.351723
#
# number of rings (size 3 to 8) (size 9 to 14) (size 15 to 20)
#    0.000    2.483    2.759    2.690    0.000    2.759 
#    0.000    2.069    0.000    0.000    0.000    0.000 
#    0.000    1.103    1.655    0.276    0.000    0.276 
#
# Total GULP energy -161591.561630 kJ/mol
# GULP energy per Si atom -5572.122815 kJ/mol
# Density = 2.130313 g / cm^3
# Si number density = 21.351723 Si / 1000 Ang^3
#
#
#
# Elastic Constant Matrix: (Units=GPa)
#
#
# Indices 1 2 3 4 5 6 
#
# 1 144.5074 14.4802 14.9091 0.0049 -23.0501 -0.0021
# 2 14.4802 70.8921 17.9934 -0.0114 -10.6354 -0.0076
# 3 14.9091 17.9934 35.3293 0.0007 -18.7480 0.0001
# 4 0.0049 -0.0114 0.0007 17.4328 0.0010 -12.7235
# 5 -23.0501 -10.6354 -18.7480 0.0010 36.0601 0.0003
# 6 -0.0021 -0.0076 0.0001 -12.7235 0.0003 15.0110
#
#
#
# Elastic Compliance Matrix: (Units=1/GPa)
#
#
# Indices 1 2 3 4 5 6 
#
# 1 0.007764 -0.000788 -0.000504 -0.000006 0.004468 -0.000005
# 2 -0.000788 0.016292 -0.007848 0.000045 0.000222 0.000046
# 3 -0.000504 -0.007848 0.042971 -0.000030 0.019704 -0.000030
# 4 -0.000006 0.000045 -0.000030 0.150417 -0.000012 0.127495
# 5 0.004468 0.000222 0.019704 -0.000012 0.040898 -0.000010
# 6 -0.000005 0.000046 -0.000030 0.127495 -0.000010 0.174684
#
#
# Mechanical properties :
#
#
# Convention : Reuss Voigt Hill
#
# Bulk Modulus (GPa) = 20.51355 38.38825 29.45090
# Shear Modulus (GPa) = 10.69399 27.25720 18.97559
#
# Velocity S-wave (km/s) = 2.24039 3.57680 2.98437
# Velocity P-wave (km/s) = 4.03990 5.92250 5.06936
#
# Compressibility (1/GPa) = 0.04874827
#
# Stress axis : x y z
#
# Youngs Moduli (GPa) = 128.80427 61.38026 23.27149
#
# Poissons Ratio (x) = 0.04834 0.01173
# Poissons Ratio (y) = 0.10143 0.18263
# Poissons Ratio (z) = 0.06492 0.48169
#
# Static dielectric constant tensor:
#      x y z
#    x 1.800600 0.000000 -0.035500 
#    y 0.000000 1.827690 0.000010 
#    z -0.035500 0.000010 1.671810 
# 
# From -- ./inp_files/329045.got.cif
#   From: 2010.05.17/outbox.cif.g08.bks.cpg/sg12_165_cif.got.tgz:329045.got - 2010.06.03 13:09:07.
