data_PCOD9169893
_publ_section_title
;
Structure prediction by ZEFSAII (Michael W. Deem and Ramdas Pophale) SiO2 
 PCOD9169893
Probable space group: C 2/M
;
_chemical_formula_sum "Si O2"
_cell_formula_units_Z 64
_cell_length_a 24.385451
_cell_length_b 7.576462
_cell_length_c 23.071949
_cell_angle_alpha 90.000000
_cell_angle_beta 133.440598
_cell_angle_gamma 90.000000
_cell_volume 3095.070660
_symmetry_space_group_name_H-M "C 2/M"
_symmetry_group_IT_number 12
_symmetry_cell_setting 'monoclinic'
loop_
_space_group_symop_operation_xyz
x,y,z
-x,y,-z
-x,-y,-z
x,-y,z
1/2+x,1/2+y,z
1/2-x,1/2+y,-z
1/2-x,1/2-y,-z
1/2+x,1/2-y,z
loop_
_atom_site_type_symbol
_atom_site_label
_atom_site_fract_x
_atom_site_fract_y
_atom_site_fract_z
Si Si1 0.089664 0.796890 0.566246
Si Si2 0.015832 0.790717 0.314717
Si Si3 0.723593 0.285762 0.226596
Si Si4 0.050879 0.783617 0.090746
Si Si5 0.130803 0.695265 0.720095
Si Si6 0.844377 0.215104 0.509448
Si Si7 0.798348 0.291584 0.657326
Si Si8 0.030522 0.799143 0.202686
O O1 0.112129 0.688405 0.638344
O O2 0.117680 0.736464 0.524388
O O3 0.000000 0.799432 0.500000
O O4 0.115185 0.000000 0.593354
O O5 0.094906 0.720550 0.399127
O O6 0.999140 0.715958 0.238747
O O7 0.942718 0.774076 0.302508
O O8 0.028540 0.000000 0.317025
O O9 0.726193 0.500000 0.227396
O O10 0.638445 0.230033 0.149723
O O11 0.785946 0.220096 0.225723
O O12 0.736914 0.232319 0.303650
O O13 0.021463 0.720484 0.132218
O O14 0.050692 0.000000 0.092211
O O15 0.000000 0.727942 0.000000
O O16 0.139020 0.500000 0.751118
O O17 0.757673 0.272418 0.434722
O O18 0.842348 0.000000 0.511423
O O19 0.810757 0.500000 0.658078
O O20 0.879031 0.199343 0.719885
O O21 0.001930 0.000000 0.178022
#
# Coordination Sequence:
#
# PCOD9169893 Si02
#       8
#     8   8   8   8   8   8   8   8
#     4  10  17  29  46  62  87 126 170 206 236 272
#     4  10  20  35  49  62  90 134 173 197 225 278
#     4   9  18  31  47  72 101 123 149 192 241 281
#     4   8  14  29  55  80  95 112 146 190 234 285
#     4  11  21  30  44  69  99 125 157 202 246 276
#     4   9  17  28  44  65  88 123 168 202 231 270
#     4  10  18  29  48  69  92 124 161 200 239 279
#     4   9  19  34  51  71  95 123 156 196 239 281
#
# _framework density 20.678042000000001
#
# number of rings (size 3 to 8) (size 9 to 14) (size 15 to 20)
#    0.000    2.500    2.500    1.500    0.000    1.750 
#    0.000    1.250    0.000    6.750    0.000    0.000 
#    0.000    0.000    0.000    0.000    0.000    0.125 
#
# Total GULP energy -178324.815237 kJ/mol
# GULP energy per Si atom -5572.650476 kJ/mol
# Density = 2.063098 g / cm^3
# Si number density = 20.678042 Si / 1000 Ang^3
#
#
#
# Elastic Constant Matrix: (Units=GPa)
#
#
# Indices 1 2 3 4 5 6 
#
# 1 60.1250 -0.5943 37.2500 0.0000 -13.6661 0.0000
# 2 -0.5943 51.0639 3.6276 0.0001 -1.4199 0.0001
# 3 37.2500 3.6276 132.2381 0.0000 -15.7159 0.0000
# 4 0.0000 0.0001 0.0000 9.6404 0.0000 5.7752
# 5 -13.6661 -1.4199 -15.7159 0.0000 25.6317 0.0000
# 6 0.0000 0.0001 0.0000 5.7752 0.0000 8.8394
#
#
#
# Elastic Compliance Matrix: (Units=1/GPa)
#
#
# Indices 1 2 3 4 5 6 
#
# 1 0.021757 0.000855 -0.005143 0.000000 0.008495 0.000000
# 2 0.000855 0.019671 -0.000644 0.000000 0.001151 0.000000
# 3 -0.005143 -0.000644 0.009382 0.000000 0.002975 0.000000
# 4 0.000000 0.000000 0.000000 0.170439 0.000000 -0.111355
# 5 0.008495 0.001151 0.002975 0.000000 0.045431 0.000000
# 6 0.000000 0.000000 0.000000 -0.111355 0.000000 0.185883
#
#
# Mechanical properties :
#
#
# Convention : Reuss Voigt Hill
#
# Bulk Modulus (GPa) = 24.42173 35.99928 30.21051
# Shear Modulus (GPa) = 10.50254 22.36522 16.43388
#
# Velocity S-wave (km/s) = 2.25613 3.29233 2.82219
# Velocity P-wave (km/s) = 4.31543 5.64799 5.02607
#
# Compressibility (1/GPa) = 0.04094714
#
# Stress axis : x y z
#
# Youngs Moduli (GPa) = 45.96142 50.83631 106.58745
#
# Poissons Ratio (x) = -0.04345 0.54815
# Poissons Ratio (y) = -0.03929 0.06860
# Poissons Ratio (z) = 0.23637 0.03272
#
# Static dielectric constant tensor:
#      x y z
#    x 1.804390 0.000000 0.015490 
#    y 0.000000 1.778040 0.000000 
#    z 0.015490 0.000000 1.748170 
# 
# From -- ./inp_files/348614.got.cif
#   From: 2010.05.17/outbox.cif.g08.bks.cpg/sg12_175_cif.got.tgz:348614.got - 2010.06.03 13:09:07.
