data_PCOD9169437
_publ_section_title
;
Structure prediction by ZEFSAII (Michael W. Deem and Ramdas Pophale) SiO2 
 PCOD9169437
Probable space group: C 2/M
;
_chemical_formula_sum "Si O2"
_cell_formula_units_Z 40
_cell_length_a 14.313375
_cell_length_b 8.497783
_cell_length_c 21.155709
_cell_angle_alpha 90.000000
_cell_angle_beta 46.423899
_cell_angle_gamma 90.000000
_cell_volume 1864.186475
_symmetry_space_group_name_H-M "C 2/M"
_symmetry_group_IT_number 12
_symmetry_cell_setting 'monoclinic'
loop_
_space_group_symop_operation_xyz
x,y,z
-x,y,-z
-x,-y,-z
x,-y,z
1/2+x,1/2+y,z
1/2-x,1/2+y,-z
1/2-x,1/2-y,-z
1/2+x,1/2-y,z
loop_
_atom_site_type_symbol
_atom_site_label
_atom_site_fract_x
_atom_site_fract_y
_atom_site_fract_z
Si Si1 0.120311 0.186204 0.590892
Si Si2 0.063665 0.313837 0.066371
Si Si3 0.842297 0.810564 0.713967
Si Si4 0.181953 0.185049 0.894939
Si Si5 0.904334 0.309991 0.256598
O O1 0.250000 0.250000 0.500000
O O2 0.105626 0.234046 0.670691
O O3 0.983607 0.238264 0.624613
O O4 0.126311 0.000000 0.582556
O O5 0.088795 0.500000 0.055869
O O6 0.931364 0.280763 0.088308
O O7 0.022081 0.259722 0.155715
O O8 0.171256 0.228833 0.973732
O O9 0.808152 0.730551 0.796851
O O10 0.728079 0.771501 0.718942
O O11 0.840409 0.000000 0.723768
O O12 0.157195 0.000000 0.900008
O O13 0.912183 0.500000 0.258712
#
# Coordination Sequence:
#
# PCOD9169437 Si02
#       5
#     8   8   8   8   8
#     4  11  24  41  61  83 110 142 182 232 284 335
#     4   9  16  29  50  76 112 155 187 216 266 333
#     4   9  20  39  59  80 111 153 187 218 273 341
#     4  10  17  26  48  82 114 144 184 233 270 309
#     4   9  19  37  60  83 110 146 188 227 269 324
#
# _framework density 21.457080000000001
#
# number of rings (size 3 to 8) (size 9 to 14) (size 15 to 20)
#    0.000    2.400    0.000    5.400    0.000    6.400 
#    0.000    5.000    0.000    0.000    0.000    0.000 
#    0.000    0.000    0.000    0.000    0.000    0.000 
#
# Total GULP energy -111677.346276 kJ/mol
# GULP energy per Si atom -5583.867314 kJ/mol
# Density = 2.140824 g / cm^3
# Si number density = 21.457080 Si / 1000 Ang^3
#
#
#
# Elastic Constant Matrix: (Units=GPa)
#
#
# Indices 1 2 3 4 5 6 
#
# 1 45.7681 4.2112 14.8693 0.0000 -16.6949 0.0000
# 2 4.2112 20.2281 13.6238 0.0000 -9.5812 0.0000
# 3 14.8693 13.6238 101.1257 0.0000 -31.7474 0.0000
# 4 0.0000 0.0000 0.0000 40.2737 0.0000 6.9793
# 5 -16.6949 -9.5812 -31.7474 0.0000 34.3598 0.0000
# 6 0.0000 0.0000 0.0000 6.9793 0.0000 10.4952
#
#
#
# Elastic Compliance Matrix: (Units=1/GPa)
#
#
# Indices 1 2 3 4 5 6 
#
# 1 0.026566 0.000627 0.000164 0.000000 0.013234 0.000000
# 2 0.000627 0.058022 -0.003851 0.000000 0.012926 0.000000
# 3 0.000164 -0.003851 0.014186 0.000000 0.012114 0.000000
# 4 0.000000 0.000000 0.000000 0.028064 0.000000 -0.018663
# 5 0.013234 0.012926 0.012114 0.000000 0.050331 0.000000
# 6 0.000000 0.000000 0.000000 -0.018663 0.000000 0.107692
#
#
# Mechanical properties :
#
#
# Convention : Reuss Voigt Hill
#
# Bulk Modulus (GPa) = 10.79274 25.83672 18.31473
# Shear Modulus (GPa) = 15.53444 25.98692 20.76068
#
# Velocity S-wave (km/s) = 2.69360 3.48388 3.11391
# Velocity P-wave (km/s) = 3.83599 5.31512 4.63494
#
# Compressibility (1/GPa) = 0.09265486
#
# Stress axis : x y z
#
# Youngs Moduli (GPa) = 37.64246 17.23491 70.49052
#
# Poissons Ratio (x) = -0.01081 -0.01157
# Poissons Ratio (y) = -0.02362 0.27146
# Poissons Ratio (z) = -0.00618 0.06637
#
# Static dielectric constant tensor:
#      x y z
#    x 1.849410 0.000000 -0.033770 
#    y 0.000000 1.725600 0.000000 
#    z -0.033770 0.000000 1.815140 
# 
# From -- ./inp_files/220237.got.cif
#   From: 2010.05.17/outbox.cif.g08.bks.cpg/sg12_111_cif.got.tgz:220237.got - 2010.06.03 13:09:07.
