data_PCOD9169636
_publ_section_title
;
Structure prediction by ZEFSAII (Michael W. Deem and Ramdas Pophale) SiO2 
 PCOD9169636
Probable space group: C 2/M
;
_chemical_formula_sum "Si O2"
_cell_formula_units_Z 40
_cell_length_a 12.507639
_cell_length_b 24.089328
_cell_length_c 9.209763
_cell_angle_alpha 90.000000
_cell_angle_beta 130.322546
_cell_angle_gamma 90.000000
_cell_volume 2115.627492
_symmetry_space_group_name_H-M "C 2/M"
_symmetry_group_IT_number 12
_symmetry_cell_setting 'monoclinic'
loop_
_space_group_symop_operation_xyz
x,y,z
-x,y,-z
-x,-y,-z
x,-y,z
1/2+x,1/2+y,z
1/2-x,1/2+y,-z
1/2-x,1/2-y,-z
1/2+x,1/2-y,z
loop_
_atom_site_type_symbol
_atom_site_label
_atom_site_fract_x
_atom_site_fract_y
_atom_site_fract_z
Si Si1 0.504873 0.885877 0.332585
Si Si2 0.211128 0.935765 0.545102
Si Si3 0.581315 0.778993 0.223556
Si Si4 0.894929 0.819377 0.540916
Si Si5 0.138315 0.565359 0.035544
O O1 0.500000 0.887068 0.500000
O O2 0.637824 0.923415 0.397364
O O3 0.524621 0.824231 0.288280
O O4 0.367827 0.908074 0.127458
O O5 0.115191 0.883819 0.419535
O O6 0.236579 0.927794 0.741247
O O7 0.170190 0.000000 0.483658
O O8 0.743101 0.797962 0.350202
O O9 0.571535 0.719624 0.292866
O O10 0.500000 0.780608 0.000000
O O11 0.000000 0.813275 0.500000
O O12 0.118311 0.500000 0.999229
O O13 0.000000 0.587455 0.000000
#
# Coordination Sequence:
#
# PCOD9169636 Si02
#       5
#     8   8   8   8   8
#     4  10  17  27  49  80 110 139 175 224 276 319
#     4   9  18  33  51  73 107 146 180 218 263 317
#     4  10  21  38  58  81 111 142 177 227 277 322
#     4  10  21  37  57  83 109 139 184 224 266 325
#     4   8  14  26  45  70 101 137 175 215 262 312
#
# _framework density 18.90692
#
# number of rings (size 3 to 8) (size 9 to 14) (size 15 to 20)
#    0.000    2.600    0.000    5.400    0.000    2.800 
#    0.000    6.000    0.000    0.600    0.000    0.000 
#    0.000    0.000    0.000    0.000    0.000    0.000 
#
# Total GULP energy -111432.403306 kJ/mol
# GULP energy per Si atom -5571.620165 kJ/mol
# Density = 1.886389 g / cm^3
# Si number density = 18.906920 Si / 1000 Ang^3
#
#
#
# Elastic Constant Matrix: (Units=GPa)
#
#
# Indices 1 2 3 4 5 6 
#
# 1 54.8485 29.4770 31.4079 0.0000 -21.2031 0.0000
# 2 29.4770 162.8487 48.5152 0.0000 -15.8257 0.0000
# 3 31.4079 48.5152 100.3512 0.0000 -37.8462 0.0000
# 4 0.0000 0.0000 0.0000 27.2571 0.0000 -1.9558
# 5 -21.2031 -15.8257 -37.8462 0.0000 23.1423 0.0000
# 6 0.0000 0.0000 0.0000 -1.9558 0.0000 3.4219
#
#
#
# Elastic Compliance Matrix: (Units=1/GPa)
#
#
# Indices 1 2 3 4 5 6 
#
# 1 0.030225 -0.003683 0.004735 0.000000 0.032917 0.000000
# 2 -0.003683 0.007658 -0.004820 0.000000 -0.006020 0.000000
# 3 0.004735 -0.004820 0.029241 0.000000 0.048862 0.000000
# 4 0.000000 0.000000 0.000000 0.038257 0.000000 0.021866
# 5 0.032917 -0.006020 0.048862 0.000000 0.149161 0.000000
# 6 0.000000 0.000000 0.000000 0.021866 0.000000 0.304734
#
#
# Mechanical properties :
#
#
# Convention : Reuss Voigt Hill
#
# Bulk Modulus (GPa) = 16.78175 59.64986 38.21580
# Shear Modulus (GPa) = 8.52262 24.67413 16.59837
#
# Velocity S-wave (km/s) = 2.12543 3.61644 2.96615
# Velocity P-wave (km/s) = 3.86245 7.00399 5.65572
#
# Compressibility (1/GPa) = 0.05958855
#
# Stress axis : x y z
#
# Youngs Moduli (GPa) = 33.08539 130.57825 34.19865
#
# Poissons Ratio (x) = 0.48088 -0.16193
# Poissons Ratio (y) = 0.12184 0.16484
# Poissons Ratio (z) = -0.15666 0.62939
#
# Static dielectric constant tensor:
#      x y z
#    x 1.669270 0.000000 0.029480 
#    y 0.000000 1.696110 0.000000 
#    z 0.029480 0.000000 1.678420 
# 
# From -- ./inp_files/50963.got.cif
#   From: 2010.05.17/outbox.cif.g08.bks.cpg/sg12_26_cif.got.tgz:50963.got - 2010.06.03 13:09:07.
