data_PCOD9169835
_publ_section_title
;
Structure prediction by ZEFSAII (Michael W. Deem and Ramdas Pophale) SiO2 
 PCOD9169835
Probable space group: C 2/M
;
_chemical_formula_sum "Si O2"
_cell_formula_units_Z 44
_cell_length_a 20.974032
_cell_length_b 7.814820
_cell_length_c 15.133038
_cell_angle_alpha 90.000000
_cell_angle_beta 121.165824
_cell_angle_gamma 90.000000
_cell_volume 2122.437492
_symmetry_space_group_name_H-M "C 2/M"
_symmetry_group_IT_number 12
_symmetry_cell_setting 'monoclinic'
loop_
_space_group_symop_operation_xyz
x,y,z
-x,y,-z
-x,-y,-z
x,-y,z
1/2+x,1/2+y,z
1/2-x,1/2+y,-z
1/2-x,1/2-y,-z
1/2+x,1/2-y,z
loop_
_atom_site_type_symbol
_atom_site_label
_atom_site_fract_x
_atom_site_fract_y
_atom_site_fract_z
Si Si1 0.000000 0.248567 0.000000
Si Si2 0.285101 0.802303 0.257019
Si Si3 0.661674 0.193378 0.036246
Si Si4 0.454407 0.796911 0.783322
Si Si5 0.607390 0.208675 0.810175
Si Si6 0.711179 0.704929 0.380567
O O1 0.078500 0.317996 0.017262
O O2 0.032873 0.188324 0.118198
O O3 0.215410 0.794953 0.139531
O O4 0.353704 0.726629 0.250535
O O5 0.258010 0.725945 0.330058
O O6 0.304267 0.000000 0.288771
O O7 0.691200 0.000000 0.052362
O O8 0.651479 0.265310 0.930210
O O9 0.520843 0.752131 0.763848
O O10 0.372778 0.772782 0.686572
O O11 0.462757 0.000000 0.814091
O O12 0.613014 0.000000 0.814730
O O13 0.706913 0.500000 0.369319
O O14 0.750000 0.750000 0.500000
#
# Coordination Sequence:
#
# PCOD9169835 Si02
#       6
#     4   8   8   8   8   8
#     4  10  17  28  51  84 115 144 177 212 259 322
#     4  10  20  35  52  77 110 141 178 224 272 319
#     4  10  17  28  50  79 111 147 181 211 254 321
#     4  10  18  34  59  83 110 144 183 223 263 321
#     4   8  17  32  53  80 111 145 177 211 262 328
#     4  11  24  40  58  79 106 143 187 235 277 320
#
# _framework density 20.730882000000001
#
# number of rings (size 3 to 8) (size 9 to 14) (size 15 to 20)
#    0.000    2.182    1.818    3.818    0.000    0.727 
#    0.000    6.364    0.000    5.455    0.000    0.000 
#    0.000    0.000    0.000    0.000    0.000    0.000 
#
# Total GULP energy -122531.809708 kJ/mol
# GULP energy per Si atom -5569.627714 kJ/mol
# Density = 2.068370 g / cm^3
# Si number density = 20.730882 Si / 1000 Ang^3
#
#
#
# Elastic Constant Matrix: (Units=GPa)
#
#
# Indices 1 2 3 4 5 6 
#
# 1 178.8529 11.3274 97.5830 0.0000 -21.0936 0.0000
# 2 11.3274 46.3074 1.5962 0.0000 -0.4065 0.0000
# 3 97.5830 1.5962 132.5233 0.0000 -6.5249 0.0000
# 4 0.0000 0.0000 0.0000 2.8984 0.0000 6.8132
# 5 -21.0936 -0.4065 -6.5249 0.0000 28.2477 0.0000
# 6 0.0000 0.0000 0.0000 6.8132 0.0000 5.3743
#
#
#
# Elastic Compliance Matrix: (Units=1/GPa)
#
#
# Indices 1 2 3 4 5 6 
#
# 1 0.010487 -0.002257 -0.007395 0.000000 0.006091 0.000000
# 2 -0.002257 0.022091 0.001344 0.000000 -0.001057 0.000000
# 3 -0.007395 0.001344 0.012850 0.000000 -0.002535 0.000000
# 4 0.000000 0.000000 0.000000 -0.174252 0.000000 0.220903
# 5 0.006091 -0.001057 -0.002535 0.000000 0.039348 0.000000
# 6 0.000000 0.000000 0.000000 0.220903 0.000000 -0.093974
#
#
# Mechanical properties :
#
#
# Convention : Reuss Voigt Hill
#
# Bulk Modulus (GPa) = 34.70762 64.29962 49.50362
# Shear Modulus (GPa) = -31.80106 23.78256 -4.00925
#
# Velocity S-wave (km/s) = -3.92087 3.39071 -1.39217
# Velocity P-wave (km/s) = 1.92856 6.81270 4.62026
#
# Compressibility (1/GPa) = 0.02881212
#
# Stress axis : x y z
#
# Youngs Moduli (GPa) = 95.35333 45.26667 77.81914
#
# Poissons Ratio (x) = 0.10216 0.57549
# Poissons Ratio (y) = 0.21521 -0.10457
# Poissons Ratio (z) = 0.70516 -0.06083
#
# Static dielectric constant tensor:
#      x y z
#    x 1.770620 0.000000 -0.029870 
#    y 0.000000 1.767370 0.000000 
#    z -0.029870 0.000000 1.693910 
# 
# From -- ./inp_files/230530.got.cif
#   From: 2010.05.17/outbox.cif.g08.bks.cpg/sg12_116_cif.got.tgz:230530.got - 2010.06.03 13:09:07.
