data_PCOD9169706
_publ_section_title
;
Structure prediction by ZEFSAII (Michael W. Deem and Ramdas Pophale) SiO2 
 PCOD9169706
Probable space group: C 2/M
;
_chemical_formula_sum "Si O2"
_cell_formula_units_Z 64
_cell_length_a 8.623467
_cell_length_b 25.480503
_cell_length_c 21.120545
_cell_angle_alpha 90.000000
_cell_angle_beta 123.129524
_cell_angle_gamma 90.000000
_cell_volume 3886.398003
_symmetry_space_group_name_H-M "C 2/M"
_symmetry_group_IT_number 12
_symmetry_cell_setting 'monoclinic'
loop_
_space_group_symop_operation_xyz
x,y,z
-x,y,-z
-x,-y,-z
x,-y,z
1/2+x,1/2+y,z
1/2-x,1/2+y,-z
1/2-x,1/2-y,-z
1/2+x,1/2-y,z
loop_
_atom_site_type_symbol
_atom_site_label
_atom_site_fract_x
_atom_site_fract_y
_atom_site_fract_z
Si Si1 0.882183 0.637407 0.732426
Si Si2 0.587735 0.940048 0.156940
Si Si3 0.257184 0.278383 0.195496
Si Si4 0.679758 0.632422 0.884438
Si Si5 0.805081 0.939299 0.992581
Si Si6 0.719478 0.664564 0.230339
Si Si7 0.159831 0.787546 0.346638
Si Si8 0.425766 0.313154 0.413754
O O1 0.867776 0.582669 0.764740
O O2 0.842907 0.682543 0.777050
O O3 0.723723 0.645495 0.645289
O O4 0.087411 0.643871 0.752063
O O5 0.703148 0.905963 0.133501
O O6 0.369994 0.934266 0.092981
O O7 0.638312 0.000000 0.161329
O O8 0.263536 0.309242 0.129780
O O9 0.178805 0.219989 0.184711
O O10 0.465731 0.271178 0.269630
O O11 0.460453 0.629528 0.821898
O O12 0.711070 0.608325 0.960848
O O13 0.794697 0.000000 0.016926
O O14 0.000000 0.935233 0.000000
O O15 0.738396 0.674296 0.309992
O O16 0.306873 0.741073 0.387530
O O17 0.091042 0.808618 0.399016
O O18 0.500000 0.323423 0.500000
#
# Coordination Sequence:
#
# PCOD9169706 Si02
#       8
#     8   8   8   8   8   8   8   8
#     4  10  18  32  51  72 100 137 172 211 251 310
#     4  10  21  37  57  77 100 130 169 218 268 314
#     4   9  17  30  49  72 101 141 175 203 247 293
#     4  10  20  30  53  80 101 136 175 212 262 309
#     4  10  20  36  56  79 104 129 165 222 278 311
#     4  11  17  31  51  75 105 142 177 207 248 296
#     4  10  17  28  45  70 104 143 175 208 246 294
#     4  11  19  29  46  75 108 138 174 213 258 303
#
# _framework density 16.467690999999999
#
# number of rings (size 3 to 8) (size 9 to 14) (size 15 to 20)
#    0.000    1.875    3.750    3.375    0.000    1.000 
#    0.000    0.625    0.000   19.125    0.000    0.000 
#    0.000    2.000    0.000    0.000    0.000    0.000 
#
# Total GULP energy -178205.051997 kJ/mol
# GULP energy per Si atom -5568.907875 kJ/mol
# Density = 1.643021 g / cm^3
# Si number density = 16.467691 Si / 1000 Ang^3
#
#
#
# Elastic Constant Matrix: (Units=GPa)
#
#
# Indices 1 2 3 4 5 6 
#
# 1 64.7318 4.4665 -11.6876 0.0000 10.1519 0.0000
# 2 4.4665 38.1675 19.0570 0.0000 -1.4459 0.0000
# 3 -11.6876 19.0570 51.3043 0.0000 -0.0874 0.0000
# 4 0.0000 0.0000 0.0000 15.6591 0.0000 1.1461
# 5 10.1519 -1.4459 -0.0874 0.0000 19.6709 0.0000
# 6 0.0000 0.0000 0.0000 1.1461 0.0000 15.6127
#
#
#
# Elastic Compliance Matrix: (Units=1/GPa)
#
#
# Indices 1 2 3 4 5 6 
#
# 1 0.018547 -0.005708 0.006328 0.000000 -0.009963 0.000000
# 2 -0.005708 0.034028 -0.013931 0.000000 0.005385 0.000000
# 3 0.006328 -0.013931 0.026101 0.000000 -0.004174 0.000000
# 4 0.000000 0.000000 0.000000 0.064205 0.000000 -0.004713
# 5 -0.009963 0.005385 -0.004174 0.000000 0.056356 0.000000
# 6 0.000000 0.000000 0.000000 -0.004713 0.000000 0.064396
#
#
# Mechanical properties :
#
#
# Convention : Reuss Voigt Hill
#
# Bulk Modulus (GPa) = 19.21012 19.76391 19.48702
# Shear Modulus (GPa) = 16.25459 19.67973 17.96716
#
# Velocity S-wave (km/s) = 3.14516 3.46070 3.30670
# Velocity P-wave (km/s) = 4.98799 5.29115 5.14180
#
# Compressibility (1/GPa) = 0.05205589
#
# Stress axis : x y z
#
# Youngs Moduli (GPa) = 53.91596 29.38767 38.31316
#
# Poissons Ratio (x) = 0.16774 -0.24246
# Poissons Ratio (y) = 0.30774 0.53373
# Poissons Ratio (z) = -0.34120 0.40939
#
# Static dielectric constant tensor:
#      x y z
#    x 1.587310 0.000000 -0.017190 
#    y 0.000000 1.562200 0.000000 
#    z -0.017190 0.000000 1.546800 
# 
# From -- ./inp_files/302659.got.cif
#   From: 2010.05.17/outbox.cif.g08.bks.cpg/sg12_152_cif.got.tgz:302659.got - 2010.06.03 13:09:07.
