data_PCOD9169080
_publ_section_title
;
Structure prediction by ZEFSAII (Michael W. Deem and Ramdas Pophale) SiO2 
 PCOD9169080
Probable space group: C 2/M
;
_chemical_formula_sum "Si O2"
_cell_formula_units_Z 40
_cell_length_a 21.558409
_cell_length_b 18.648956
_cell_length_c 15.192228
_cell_angle_alpha 90.000000
_cell_angle_beta 160.795546
_cell_angle_gamma 90.000000
_cell_volume 2009.136606
_symmetry_space_group_name_H-M "C 2/M"
_symmetry_group_IT_number 12
_symmetry_cell_setting 'monoclinic'
loop_
_space_group_symop_operation_xyz
x,y,z
-x,y,-z
-x,-y,-z
x,-y,z
1/2+x,1/2+y,z
1/2-x,1/2+y,-z
1/2-x,1/2-y,-z
1/2+x,1/2-y,z
loop_
_atom_site_type_symbol
_atom_site_label
_atom_site_fract_x
_atom_site_fract_y
_atom_site_fract_z
Si Si1 0.646452 0.654908 0.023897
Si Si2 0.726384 0.000000 0.025111
Si Si3 0.500000 0.379984 0.000000
Si Si4 0.718835 0.000000 0.806662
Si Si5 0.500000 0.743704 0.500000
Si Si6 0.508157 0.378979 0.374397
Si Si7 0.227064 0.500000 0.546657
Si Si8 0.216524 0.500000 0.318306
O O1 0.700449 0.572912 0.121217
O O2 0.824786 0.704739 0.247766
O O3 0.543172 0.673049 0.975688
O O4 0.547452 0.647552 0.797739
O O5 0.751366 0.000000 0.953514
O O6 0.502364 0.000000 0.745816
O O7 0.843725 0.072871 0.203090
O O8 0.666453 0.431919 0.264727
O O9 0.500000 0.000000 0.500000
O O10 0.455186 0.690909 0.519912
O O11 0.680967 0.432097 0.588503
O O12 0.250561 0.500000 0.470754
O O13 0.000000 0.500000 0.000000
#
# Coordination Sequence:
#
# PCOD9169080 Si02
#       8
#     8   4   4   4   4   8   4   4
#     4  11  22  42  64  97 132 170 219 282 330 390
#     4   9  21  35  69  91 123 157 227 274 318 376
#     4  11  22  38  66 102 142 155 218 282 346 397
#     4  10  16  33  62  92 116 154 214 273 316 367
#     4  12  26  42  66  86 140 192 214 260 332 396
#     4  10  24  46  63  98 128 174 228 274 317 399
#     4  11  21  38  68 110 125 169 210 290 353 378
#     4  11  24  45  72  98 137 167 222 280 336 392
#
# _framework density 19.909050000000001
#
# number of rings (size 3 to 8) (size 9 to 14) (size 15 to 20)
#    0.000    1.400    3.000    3.600    5.600    0.800 
#    1.800    1.000    0.000    0.000    0.000    0.000 
#    0.000    0.000    0.000    0.000    0.000    0.000 
#
# Total GULP energy -111475.243420 kJ/mol
# GULP energy per Si atom -5573.762171 kJ/mol
# Density = 1.986374 g / cm^3
# Si number density = 19.909050 Si / 1000 Ang^3
#
#
#
# Elastic Constant Matrix: (Units=GPa)
#
#
# Indices 1 2 3 4 5 6 
#
# 1 108.2978 34.7936 32.7096 0.0000 -1.8157 0.0000
# 2 34.7936 87.8479 46.1908 0.0000 -3.2358 0.0000
# 3 32.7096 46.1908 125.4621 0.0000 7.2358 0.0000
# 4 0.0000 0.0000 0.0000 19.9315 0.0000 -6.2628
# 5 -1.8157 -3.2358 7.2358 0.0000 34.7332 0.0000
# 6 0.0000 0.0000 0.0000 -6.2628 0.0000 -9.0889
#
#
#
# Elastic Compliance Matrix: (Units=1/GPa)
#
#
# Indices 1 2 3 4 5 6 
#
# 1 0.010826 -0.003429 -0.001594 0.000000 0.000579 0.000000
# 2 -0.003429 0.015407 -0.004910 0.000000 0.002279 0.000000
# 3 -0.001594 -0.004910 0.010349 0.000000 -0.002697 0.000000
# 4 0.000000 0.000000 0.000000 0.041242 0.000000 -0.028418
# 5 0.000579 0.002279 -0.002697 0.000000 0.029595 0.000000
# 6 0.000000 0.000000 0.000000 -0.028418 0.000000 -0.090442
#
#
# Mechanical properties :
#
#
# Convention : Reuss Voigt Hill
#
# Bulk Modulus (GPa) = 59.81529 60.99954 60.40741
# Shear Modulus (GPa) = 117.88231 22.97605 70.42918
#
# Velocity S-wave (km/s) = 7.70318 3.40082 5.95418
# Velocity P-wave (km/s) = 10.45122 6.79164 8.81347
#
# Compressibility (1/GPa) = 0.01671813
#
# Stress axis : x y z
#
# Youngs Moduli (GPa) = 92.36683 64.90613 96.62621
#
# Poissons Ratio (x) = 0.22255 0.15398
# Poissons Ratio (y) = 0.31670 0.47442
# Poissons Ratio (z) = 0.14720 0.31868
#
# Static dielectric constant tensor:
#      x y z
#    x 1.796280 0.000000 0.061520 
#    y 0.000000 1.666660 0.000000 
#    z 0.061520 0.000000 1.691020 
# 
# From -- ./inp_files/48686.got.cif
#   From: 2010.05.17/outbox.cif.g08.bks.cpg/sg12_25_cif.got.tgz:48686.got - 2010.06.03 13:09:07.
