data_PCOD9169099
_publ_section_title
;
Structure prediction by ZEFSAII (Michael W. Deem and Ramdas Pophale) SiO2 
 PCOD9169099
Probable space group: C 2/M
;
_chemical_formula_sum "Si O2"
_cell_formula_units_Z 56
_cell_length_a 5.248431
_cell_length_b 26.595947
_cell_length_c 17.343136
_cell_angle_alpha 90.000000
_cell_angle_beta 67.147152
_cell_angle_gamma 90.000000
_cell_volume 2230.850311
_symmetry_space_group_name_H-M "C 2/M"
_symmetry_group_IT_number 12
_symmetry_cell_setting 'monoclinic'
loop_
_space_group_symop_operation_xyz
x,y,z
-x,y,-z
-x,-y,-z
x,-y,z
1/2+x,1/2+y,z
1/2-x,1/2+y,-z
1/2-x,1/2-y,-z
1/2+x,1/2-y,z
loop_
_atom_site_type_symbol
_atom_site_label
_atom_site_fract_x
_atom_site_fract_y
_atom_site_fract_z
Si Si1 0.672105 0.110197 0.055274
Si Si2 0.238945 0.943417 0.375639
Si Si3 0.906177 0.652616 0.427237
Si Si4 0.784136 0.783848 0.676067
Si Si5 0.382835 0.227157 0.905731
Si Si6 0.243958 0.056005 0.802186
Si Si7 0.523034 0.626276 0.715323
O O1 0.600943 0.167970 0.084589
O O2 0.629106 0.073452 0.132255
O O3 0.500000 0.095956 0.000000
O O4 0.000000 0.109208 0.000000
O O5 0.298719 0.904770 0.437606
O O6 0.516613 0.945351 0.290525
O O7 0.024380 0.916918 0.343011
O O8 0.165482 0.000000 0.405071
O O9 0.184131 0.651497 0.341509
O O10 0.000000 0.669520 0.500000
O O11 0.680705 0.686294 0.409464
O O12 0.025785 0.750050 0.682516
O O13 0.783051 0.832348 0.732971
O O14 0.672121 0.255800 0.864490
O O15 0.250000 0.250000 0.000000
O O16 0.039705 0.099447 0.795585
O O17 0.121820 0.000000 0.821794
#
# Coordination Sequence:
#
# PCOD9169099 Si02
#       7
#     8   8   8   8   8   8   8
#     4  12  24  40  66  99 133 167 217 275 330 393
#     4   9  20  40  66  92 128 176 225 280 337 397
#     4  10  22  39  63  98 135 176 224 275 333 397
#     4  11  22  41  66  96 138 176 222 275 326 392
#     4  10  16  34  60  84 122 163 199 246 308 387
#     4  10  24  44  67  94 130 175 223 274 342 407
#     4  10  21  43  67  92 130 176 226 273 326 408
#
# _framework density 25.102536000000001
#
# number of rings (size 3 to 8) (size 9 to 14) (size 15 to 20)
#    0.000    1.714    4.286    0.429    2.000    4.286 
#    0.000    2.143    0.000    0.000    0.000    0.000 
#    0.000    0.000    0.000    0.000    0.000    0.000 
#
# Total GULP energy -156642.547631 kJ/mol
# GULP energy per Si atom -5594.376701 kJ/mol
# Density = 2.504540 g / cm^3
# Si number density = 25.102536 Si / 1000 Ang^3
#
#
#
# Elastic Constant Matrix: (Units=GPa)
#
#
# Indices 1 2 3 4 5 6 
#
# 1 173.0756 57.0212 34.2721 0.0000 46.2860 0.0000
# 2 57.0212 156.3486 49.0261 0.0000 24.3654 0.0000
# 3 34.2721 49.0261 89.2017 0.0000 18.1002 0.0000
# 4 0.0000 0.0000 0.0000 -5.5059 0.0000 3.6343
# 5 46.2860 24.3654 18.1002 0.0000 29.2565 0.0000
# 6 0.0000 0.0000 0.0000 3.6343 0.0000 34.9502
#
#
#
# Elastic Compliance Matrix: (Units=1/GPa)
#
#
# Indices 1 2 3 4 5 6 
#
# 1 0.010275 -0.001357 -0.000152 0.000000 -0.015032 0.000000
# 2 -0.001357 0.008425 -0.003569 0.000000 -0.002661 0.000000
# 3 -0.000152 -0.003569 0.014384 0.000000 -0.005687 0.000000
# 4 0.000000 0.000000 0.000000 -0.169956 0.000000 0.017673
# 5 -0.015032 -0.002661 -0.005687 0.000000 0.063696 0.000000
# 6 0.000000 0.000000 0.000000 0.017673 0.000000 0.026774
#
#
# Mechanical properties :
#
#
# Convention : Reuss Voigt Hill
#
# Bulk Modulus (GPa) = 43.61406 77.69608 60.65507
# Shear Modulus (GPa) = -174.80380 30.29391 -72.25495
#
# Velocity S-wave (km/s) = -8.35387 3.47768 -5.37089
# Velocity P-wave (km/s) = 8.69697 6.86618 3.77445
#
# Compressibility (1/GPa) = 0.02292838
#
# Stress axis : x y z
#
# Youngs Moduli (GPa) = 97.32410 118.69780 69.52033
#
# Poissons Ratio (x) = 0.16110 0.01054
# Poissons Ratio (y) = 0.13209 0.24811
# Poissons Ratio (z) = 0.01476 0.42362
#
# Static dielectric constant tensor:
#      x y z
#    x 2.170060 0.000000 -0.124490 
#    y 0.000000 1.978880 0.000000 
#    z -0.124490 0.000000 1.888140 
# 
# From -- ./inp_files/253593.got.cif
#   From: 2010.05.17/outbox.cif.g08.bks.cpg/sg12_127_cif.got.tgz:253593.got - 2010.06.03 13:09:07.
