data_PCOD9169668
_publ_section_title
;
Structure prediction by ZEFSAII (Michael W. Deem and Ramdas Pophale) SiO2 
 PCOD9169668
Probable space group: C 2/M
;
_chemical_formula_sum "Si O2"
_cell_formula_units_Z 48
_cell_length_a 21.087230
_cell_length_b 19.382274
_cell_length_c 7.831881
_cell_angle_alpha 90.000000
_cell_angle_beta 42.906256
_cell_angle_gamma 90.000000
_cell_volume 2179.266951
_symmetry_space_group_name_H-M "C 2/M"
_symmetry_group_IT_number 12
_symmetry_cell_setting 'monoclinic'
loop_
_space_group_symop_operation_xyz
x,y,z
-x,y,-z
-x,-y,-z
x,-y,z
1/2+x,1/2+y,z
1/2-x,1/2+y,-z
1/2-x,1/2-y,-z
1/2+x,1/2-y,z
loop_
_atom_site_type_symbol
_atom_site_label
_atom_site_fract_x
_atom_site_fract_y
_atom_site_fract_z
Si Si1 0.354558 0.000000 0.195351
Si Si2 0.455581 0.000000 0.356272
Si Si3 0.081944 0.207086 0.611953
Si Si4 0.336976 0.141766 0.119599
Si Si5 0.284781 0.671195 0.938608
Si Si6 0.960734 0.649920 0.398295
Si Si7 0.137732 0.799253 0.872887
O O1 0.303968 0.073810 0.283897
O O2 0.410115 0.000000 0.260796
O O3 0.431958 0.000000 0.889761
O O4 0.425759 0.927485 0.495601
O O5 0.124488 0.170250 0.363027
O O6 0.101494 0.289773 0.556800
O O7 0.127898 0.179312 0.695483
O O8 0.970178 0.203470 0.849270
O O9 0.294877 0.133376 0.012394
O O10 0.320264 0.221098 0.207027
O O11 0.449446 0.140386 0.899546
O O12 0.250000 0.750000 0.000000
O O13 0.308841 0.656864 0.087830
O O14 0.000000 0.678030 0.500000
#
# Coordination Sequence:
#
# PCOD9169668 Si02
#       7
#     4   4   8   8   8   8   8
#     4   9  16  30  44  62  89 120 156 189 219 265
#     4   9  17  26  44  64  85 121 162 191 214 253
#     4  10  18  30  48  66  90 122 155 192 229 270
#     4   9  18  29  44  64  91 121 149 184 226 270
#     4  10  19  30  44  67  95 122 149 186 233 278
#     4  10  17  28  43  64  92 123 158 192 221 259
#     4   9  18  31  47  68  90 118 156 191 228 272
#
# _framework density 22.025753999999999
#
# number of rings (size 3 to 8) (size 9 to 14) (size 15 to 20)
#    0.000    2.500    0.000    4.750    0.000    6.667 
#    0.000    1.667    0.000    0.000    0.000    2.333 
#    0.000    2.667    0.000    0.000    0.000    0.000 
#
# Total GULP energy -133767.225148 kJ/mol
# GULP energy per Si atom -5573.634381 kJ/mol
# Density = 2.197562 g / cm^3
# Si number density = 22.025754 Si / 1000 Ang^3
#
#
#
# Elastic Constant Matrix: (Units=GPa)
#
#
# Indices 1 2 3 4 5 6 
#
# 1 136.2316 20.6762 12.9637 0.0000 23.9075 0.0000
# 2 20.6762 44.5485 3.1821 0.0000 2.5763 0.0000
# 3 12.9637 3.1821 71.2897 0.0000 -9.8404 0.0000
# 4 0.0000 0.0000 0.0000 12.5881 0.0000 9.2936
# 5 23.9075 2.5763 -9.8404 0.0000 36.7349 0.0000
# 6 0.0000 0.0000 0.0000 9.2936 0.0000 18.1873
#
#
#
# Elastic Compliance Matrix: (Units=1/GPa)
#
#
# Indices 1 2 3 4 5 6 
#
# 1 0.009264 -0.003757 -0.002402 0.000000 -0.006409 0.000000
# 2 -0.003757 0.024174 -0.000303 0.000000 0.000669 0.000000
# 3 -0.002402 -0.000303 0.015260 0.000000 0.005672 0.000000
# 4 0.000000 0.000000 0.000000 0.127566 0.000000 -0.065185
# 5 -0.006409 0.000669 0.005672 0.000000 0.032866 0.000000
# 6 0.000000 0.000000 0.000000 -0.065185 0.000000 0.088293
#
#
# Mechanical properties :
#
#
# Convention : Reuss Voigt Hill
#
# Bulk Modulus (GPa) = 27.95339 36.19043 32.07191
# Shear Modulus (GPa) = 15.51482 27.85191 21.68336
#
# Velocity S-wave (km/s) = 2.65692 3.55986 3.14101
# Velocity P-wave (km/s) = 4.70437 5.77611 5.26757
#
# Compressibility (1/GPa) = 0.03577383
#
# Stress axis : x y z
#
# Youngs Moduli (GPa) = 107.94518 41.36611 65.52879
#
# Poissons Ratio (x) = 0.15543 0.15737
# Poissons Ratio (y) = 0.40560 0.01989
# Poissons Ratio (z) = 0.25923 0.01255
#
# Static dielectric constant tensor:
#      x y z
#    x 1.841560 0.000000 -0.002440 
#    y 0.000000 1.817070 0.000000 
#    z -0.002440 0.000000 1.944220 
# 
# From -- ./inp_files/89043.got.cif
#   From: 2010.05.17/outbox.cif.g08.bks.cpg/sg12_45_cif.got.tgz:89043.got - 2010.06.03 13:09:07.
