data_PCOD9169898
_publ_section_title
;
Structure prediction by ZEFSAII (Michael W. Deem and Ramdas Pophale) SiO2 
 PCOD9169898
Probable space group: C 2/M
;
_chemical_formula_sum "Si O2"
_cell_formula_units_Z 64
_cell_length_a 27.944736
_cell_length_b 12.654259
_cell_length_c 12.225738
_cell_angle_alpha 90.000000
_cell_angle_beta 100.854644
_cell_angle_gamma 90.000000
_cell_volume 4245.913141
_symmetry_space_group_name_H-M "C 2/M"
_symmetry_group_IT_number 12
_symmetry_cell_setting 'monoclinic'
loop_
_space_group_symop_operation_xyz
x,y,z
-x,y,-z
-x,-y,-z
x,-y,z
1/2+x,1/2+y,z
1/2-x,1/2+y,-z
1/2-x,1/2-y,-z
1/2+x,1/2-y,z
loop_
_atom_site_type_symbol
_atom_site_label
_atom_site_fract_x
_atom_site_fract_y
_atom_site_fract_z
Si Si1 0.067127 0.873407 0.323441
Si Si2 0.721200 0.264091 0.318630
Si Si3 0.120875 0.209421 0.554954
Si Si4 0.867432 0.872347 0.844618
Si Si5 0.045036 0.127894 0.692820
Si Si6 0.198966 0.876626 0.749450
Si Si7 0.806541 0.375177 0.484567
Si Si8 0.124061 0.127355 0.902885
O O1 0.103828 0.827184 0.428693
O O2 0.086002 0.845811 0.210777
O O3 0.011419 0.843136 0.323137
O O4 0.069021 0.000000 0.334518
O O5 0.679092 0.323083 0.235304
O O6 0.753925 0.192684 0.252692
O O7 0.758560 0.345033 0.393504
O O8 0.700285 0.187609 0.404375
O O9 0.074276 0.191067 0.612470
O O10 0.163138 0.138418 0.629268
O O11 0.146469 0.323335 0.554738
O O12 0.862868 0.000000 0.843532
O O13 0.872542 0.834546 0.971702
O O14 0.073775 0.149868 0.817937
O O15 0.048992 0.000000 0.672522
O O16 0.167674 0.838818 0.840680
O O17 0.210387 0.000000 0.766356
O O18 0.810504 0.500000 0.501069
O O19 0.127312 0.000000 0.908026
#
# Coordination Sequence:
#
# PCOD9169898 Si02
#       8
#     8   8   8   8   8   8   8   8
#     4  10  18  27  44  70  96 122 151 186 225 270
#     4  10  19  31  46  68  89 122 155 185 223 264
#     4  10  17  29  46  68  94 119 148 186 226 269
#     4  10  19  30  44  65  96 124 149 184 226 269
#     4   9  17  29  47  70  94 122 153 185 223 268
#     4   9  17  29  47  67  91 124 156 182 217 265
#     4  10  20  32  46  67  95 121 149 185 228 276
#     4   8  16  30  44  64  94 123 149 182 224 268
#
# _framework density 15.073318
#
# number of rings (size 3 to 8) (size 9 to 14) (size 15 to 20)
#    0.000    2.500    1.250    3.000    0.000    2.000 
#    0.000    2.500    0.000    1.500    0.000    3.500 
#    0.000    1.000    0.000    0.000    0.000    0.000 
#
# Total GULP energy -178236.518596 kJ/mol
# GULP energy per Si atom -5569.891206 kJ/mol
# Density = 1.503901 g / cm^3
# Si number density = 15.073318 Si / 1000 Ang^3
#
#
#
# Elastic Constant Matrix: (Units=GPa)
#
#
# Indices 1 2 3 4 5 6 
#
# 1 89.8866 32.8838 29.6381 0.0000 -10.0822 0.0000
# 2 32.8838 44.0207 25.0488 0.0000 -8.6654 0.0000
# 3 29.6381 25.0488 90.1008 0.0000 -9.0369 0.0000
# 4 0.0000 0.0000 0.0000 13.3293 0.0000 2.0596
# 5 -10.0822 -8.6654 -9.0369 0.0000 10.8504 0.0000
# 6 0.0000 0.0000 0.0000 2.0596 0.0000 19.8863
#
#
#
# Elastic Compliance Matrix: (Units=1/GPa)
#
#
# Indices 1 2 3 4 5 6 
#
# 1 0.015942 -0.009707 -0.002005 0.000000 0.005392 0.000000
# 2 -0.009707 0.035986 -0.005274 0.000000 0.015327 0.000000
# 3 -0.002005 -0.005274 0.013765 0.000000 0.005389 0.000000
# 4 0.000000 0.000000 0.000000 0.076243 0.000000 -0.007896
# 5 0.005392 0.015327 0.005389 0.000000 0.113901 0.000000
# 6 0.000000 0.000000 0.000000 -0.007896 0.000000 0.051104
#
#
# Mechanical properties :
#
#
# Convention : Reuss Voigt Hill
#
# Bulk Modulus (GPa) = 31.52432 44.34994 37.93713
# Shear Modulus (GPa) = 14.22537 17.90905 16.06721
#
# Velocity S-wave (km/s) = 3.07538 3.45066 3.26841
# Velocity P-wave (km/s) = 5.79396 6.73519 6.28223
#
# Compressibility (1/GPa) = 0.03172154
#
# Stress axis : x y z
#
# Youngs Moduli (GPa) = 62.72762 27.78884 72.64844
#
# Poissons Ratio (x) = 0.26974 0.14564
# Poissons Ratio (y) = 0.60888 0.38316
# Poissons Ratio (z) = 0.12575 0.14656
#
# Static dielectric constant tensor:
#      x y z
#    x 1.510800 0.000000 -0.019450 
#    y 0.000000 1.470830 0.000000 
#    z -0.019450 0.000000 1.515100 
# 
# From -- ./inp_files/182033.got.cif
#   From: 2010.05.17/outbox.cif.g08.bks.cpg/sg12_92_cif.got.tgz:182033.got - 2010.06.03 13:09:07.
