data_PCOD9169282
_publ_section_title
;
Structure prediction by ZEFSAII (Michael W. Deem and Ramdas Pophale) SiO2 
 PCOD9169282
Probable space group: C 2/M
;
_chemical_formula_sum "Si O2"
_cell_formula_units_Z 56
_cell_length_a 13.863429
_cell_length_b 9.034006
_cell_length_c 20.337874
_cell_angle_alpha 90.000000
_cell_angle_beta 111.553007
_cell_angle_gamma 90.000000
_cell_volume 2369.059723
_symmetry_space_group_name_H-M "C 2/M"
_symmetry_group_IT_number 12
_symmetry_cell_setting 'monoclinic'
loop_
_space_group_symop_operation_xyz
x,y,z
-x,y,-z
-x,-y,-z
x,-y,z
1/2+x,1/2+y,z
1/2-x,1/2+y,-z
1/2-x,1/2-y,-z
1/2+x,1/2-y,z
loop_
_atom_site_type_symbol
_atom_site_label
_atom_site_fract_x
_atom_site_fract_y
_atom_site_fract_z
Si Si1 0.105129 0.330762 0.481141
Si Si2 0.591075 0.820811 0.946885
Si Si3 0.068582 0.665572 0.797660
Si Si4 0.136414 0.177506 0.087918
Si Si5 0.213705 0.165899 0.618977
Si Si6 0.674479 0.170132 0.227961
Si Si7 0.009380 0.163810 0.655444
O O1 0.135760 0.500000 0.483563
O O2 0.189508 0.243116 0.544715
O O3 0.000000 0.327174 0.500000
O O4 0.074880 0.265065 0.402424
O O5 0.625776 0.796051 0.880211
O O6 0.482231 0.732410 0.927415
O O7 0.576924 0.000000 0.950550
O O8 0.657931 0.757705 0.023855
O O9 0.099872 0.500000 0.784683
O O10 0.948293 0.658673 0.790989
O O11 0.062012 0.772048 0.734042
O O12 0.195507 0.237315 0.167450
O O13 0.142546 0.000000 0.083785
O O14 0.281591 0.238698 0.693668
O O15 0.101973 0.153492 0.626229
O O16 0.254670 0.000000 0.619582
O O17 0.713737 0.000000 0.229993
O O18 0.967159 0.000000 0.657316
#
# Coordination Sequence:
#
# PCOD9169282 Si02
#       7
#     8   8   8   8   8   8   8
#     4   9  17  30  49  71  94 121 155 194 231 273
#     4   9  16  28  45  64  90 126 162 192 228 275
#     4   9  18  31  48  70  95 124 156 191 231 277
#     4  10  17  25  42  69  96 120 153 197 236 272
#     4   9  18  33  52  72  93 121 158 195 232 276
#     4   9  18  33  50  68  95 128 158 190 232 281
#     4  10  19  31  50  73  96 122 153 193 236 278
#
# _framework density 23.638071
#
# number of rings (size 3 to 8) (size 9 to 14) (size 15 to 20)
#    0.000    2.714    0.000    4.286    0.000    5.714 
#    0.000    0.714    0.000    0.857    0.000    0.000 
#    0.000    0.000    0.000    0.000    0.000    0.000 
#
# Total GULP energy -156392.595320 kJ/mol
# GULP energy per Si atom -5585.449833 kJ/mol
# Density = 2.358427 g / cm^3
# Si number density = 23.638071 Si / 1000 Ang^3
#
#
#
# Elastic Constant Matrix: (Units=GPa)
#
#
# Indices 1 2 3 4 5 6 
#
# 1 43.8327 2.2834 17.1744 0.0000 -7.8315 0.0000
# 2 2.2834 142.5283 105.3056 0.0000 -14.2461 0.0000
# 3 17.1744 105.3056 237.1425 0.0000 -4.8951 0.0000
# 4 0.0000 0.0000 0.0000 38.0688 0.0000 3.2570
# 5 -7.8315 -14.2461 -4.8951 0.0000 49.8608 0.0000
# 6 0.0000 0.0000 0.0000 3.2570 0.0000 6.1477
#
#
#
# Elastic Compliance Matrix: (Units=1/GPa)
#
#
# Indices 1 2 3 4 5 6 
#
# 1 0.024442 0.001884 -0.002522 0.000000 0.004130 0.000000
# 2 0.001884 0.010917 -0.004924 0.000000 0.002932 0.000000
# 3 -0.002522 -0.004924 0.006562 0.000000 -0.001159 0.000000
# 4 0.000000 0.000000 0.000000 0.027515 0.000000 -0.014577
# 5 0.004130 0.002932 -0.001159 0.000000 0.021428 0.000000
# 6 0.000000 0.000000 0.000000 -0.014577 0.000000 0.170385
#
#
# Mechanical properties :
#
#
# Convention : Reuss Voigt Hill
#
# Bulk Modulus (GPa) = 32.46909 74.78114 53.62512
# Shear Modulus (GPa) = 17.69052 38.73148 28.21100
#
# Velocity S-wave (km/s) = 2.73864 4.05226 3.45839
# Velocity P-wave (km/s) = 4.87503 7.32113 6.21952
#
# Compressibility (1/GPa) = 0.03079852
#
# Stress axis : x y z
#
# Youngs Moduli (GPa) = 40.91361 91.60203 152.39303
#
# Poissons Ratio (x) = -0.17260 0.38428
# Poissons Ratio (y) = -0.07709 0.75033
# Poissons Ratio (z) = 0.10317 0.45102
#
# Static dielectric constant tensor:
#      x y z
#    x 2.011460 0.000000 0.009470 
#    y 0.000000 1.830520 0.000000 
#    z 0.009470 0.000000 1.927290 
# 
# From -- ./inp_files/319327.got.cif
#   From: 2010.05.17/outbox.cif.g08.bks.cpg/sg12_160_cif.got.tgz:319327.got - 2010.06.03 13:09:07.
