data_PCOD9169459
_publ_section_title
;
Structure prediction by ZEFSAII (Michael W. Deem and Ramdas Pophale) SiO2 
 PCOD9169459
Probable space group: C 2/M
;
_chemical_formula_sum "Si O2"
_cell_formula_units_Z 64
_cell_length_a 28.946747
_cell_length_b 9.149854
_cell_length_c 16.474867
_cell_angle_alpha 90.000000
_cell_angle_beta 83.020203
_cell_angle_gamma 90.000000
_cell_volume 4331.171015
_symmetry_space_group_name_H-M "C 2/M"
_symmetry_group_IT_number 12
_symmetry_cell_setting 'monoclinic'
loop_
_space_group_symop_operation_xyz
x,y,z
-x,y,-z
-x,-y,-z
x,-y,z
1/2+x,1/2+y,z
1/2-x,1/2+y,-z
1/2-x,1/2-y,-z
1/2+x,1/2-y,z
loop_
_atom_site_type_symbol
_atom_site_label
_atom_site_fract_x
_atom_site_fract_y
_atom_site_fract_z
Si Si1 0.774409 0.668764 0.615561
Si Si2 0.724975 0.172628 0.768525
Si Si3 0.974903 0.668303 0.916884
Si Si4 0.107505 0.827049 0.987264
Si Si5 0.940634 0.173954 0.176643
Si Si6 0.284432 0.675418 0.056201
Si Si7 0.177119 0.168731 0.535068
Si Si8 0.628570 0.172449 0.688898
O O1 0.786048 0.500000 0.629835
O O2 0.762431 0.758314 0.698963
O O3 0.812192 0.746677 0.550401
O O4 0.726183 0.668784 0.574028
O O5 0.724246 0.257708 0.853135
O O6 0.674590 0.189482 0.735786
O O7 0.733052 0.000000 0.778604
O O8 0.971964 0.500000 0.892037
O O9 0.924678 0.738226 0.943977
O O10 0.008482 0.760011 0.851220
O O11 0.000000 0.672315 0.000000
O O12 0.100781 0.000000 0.002891
O O13 0.089034 0.797715 0.899678
O O14 0.161946 0.792886 0.978954
O O15 0.913783 0.251535 0.255472
O O16 0.942537 0.000000 0.187830
O O17 0.278752 0.500000 0.058973
O O18 0.250000 0.750000 0.000000
O O19 0.141110 0.250777 0.601331
O O20 0.164369 0.000000 0.524137
O O21 0.620737 0.000000 0.679886
#
# Coordination Sequence:
#
# PCOD9169459 Si02
#       8
#     8   8   8   8   8   8   8   8
#     4   9  16  26  40  56  77 104 137 174 209 248
#     4  10  19  30  44  60  79 107 141 178 218 257
#     4   9  17  27  41  61  82 104 135 172 210 251
#     4   9  18  31  45  59  79 107 139 175 215 258
#     4  10  17  27  42  60  83 111 142 173 210 253
#     4  11  22  35  48  64  84 109 144 184 225 262
#     4   9  16  25  37  55  79 107 139 171 206 247
#     4  10  18  26  39  59  84 111 142 176 211 249
#
# _framework density 14.776604000000001
#
# number of rings (size 3 to 8) (size 9 to 14) (size 15 to 20)
#    0.000    2.375    1.250    2.625    0.000    7.000 
#    0.000    0.000    0.000    0.000    0.000    0.000 
#    0.000    0.000    0.000    1.125    0.000   20.750 
#
# Total GULP energy -178390.911009 kJ/mol
# GULP energy per Si atom -5574.715969 kJ/mol
# Density = 1.474297 g / cm^3
# Si number density = 14.776604 Si / 1000 Ang^3
#
#
#
# Elastic Constant Matrix: (Units=GPa)
#
#
# Indices 1 2 3 4 5 6 
#
# 1 70.6506 61.9463 57.2300 0.0000 -27.5302 0.0000
# 2 61.9463 117.4108 68.0451 0.0000 -33.2957 0.0000
# 3 57.2300 68.0451 79.0217 0.0000 -37.0765 0.0000
# 4 0.0000 0.0000 0.0000 26.6876 0.0000 -9.3068
# 5 -27.5302 -33.2957 -37.0765 0.0000 31.4559 0.0000
# 6 0.0000 0.0000 0.0000 -9.3068 0.0000 21.6326
#
#
#
# Elastic Compliance Matrix: (Units=1/GPa)
#
#
# Indices 1 2 3 4 5 6 
#
# 1 0.037786 -0.008113 -0.019895 0.000000 0.001033 0.000000
# 2 -0.008113 0.018782 -0.009623 0.000000 0.001438 0.000000
# 3 -0.019895 -0.009623 0.050117 0.000000 0.031474 0.000000
# 4 0.000000 0.000000 0.000000 0.044085 0.000000 0.018966
# 5 0.001033 0.001438 0.031474 0.000000 0.071314 0.000000
# 6 0.000000 0.000000 0.000000 0.018966 0.000000 0.054386
#
#
# Mechanical properties :
#
#
# Convention : Reuss Voigt Hill
#
# Bulk Modulus (GPa) = 31.82369 71.28066 51.55217
# Shear Modulus (GPa) = 13.80423 21.27933 17.54178
#
# Velocity S-wave (km/s) = 3.05978 3.79894 3.44922
# Velocity P-wave (km/s) = 5.83663 8.22108 7.12925
#
# Compressibility (1/GPa) = 0.03142313
#
# Stress axis : x y z
#
# Youngs Moduli (GPa) = 26.46484 53.24185 19.95313
#
# Poissons Ratio (x) = 0.43194 0.39698
# Poissons Ratio (y) = 0.21471 0.19201
# Poissons Ratio (z) = 0.52653 0.51235
#
# Static dielectric constant tensor:
#      x y z
#    x 1.467420 0.000000 -0.014960 
#    y 0.000000 1.491580 0.000000 
#    z -0.014960 0.000000 1.467960 
# 
# From -- ./inp_files/248398.got.cif
#   From: 2010.05.17/outbox.cif.g08.bks.cpg/sg12_125_cif.got.tgz:248398.got - 2010.06.03 13:09:07.
