data_PCOD9169008
_publ_section_title
;
Structure prediction by ZEFSAII (Michael W. Deem and Ramdas Pophale) SiO2 
 PCOD9169008
Probable space group: C 2/M
;
_chemical_formula_sum "Si O2"
_cell_formula_units_Z 44
_cell_length_a 14.207241
_cell_length_b 8.850130
_cell_length_c 15.415162
_cell_angle_alpha 90.000000
_cell_angle_beta 80.075700
_cell_angle_gamma 90.000000
_cell_volume 1909.236528
_symmetry_space_group_name_H-M "C 2/M"
_symmetry_group_IT_number 12
_symmetry_cell_setting 'monoclinic'
loop_
_space_group_symop_operation_xyz
x,y,z
-x,y,-z
-x,-y,-z
x,-y,z
1/2+x,1/2+y,z
1/2-x,1/2+y,-z
1/2-x,1/2-y,-z
1/2+x,1/2-y,z
loop_
_atom_site_type_symbol
_atom_site_label
_atom_site_fract_x
_atom_site_fract_y
_atom_site_fract_z
Si Si1 0.409597 0.000000 0.581077
Si Si2 0.368147 0.671463 0.324704
Si Si3 0.888286 0.500000 0.889806
Si Si4 0.966374 0.500000 0.269742
Si Si5 0.226643 0.500000 0.923388
Si Si6 0.734027 0.299042 0.826595
Si Si7 0.383963 0.669570 0.523298
Si Si8 0.391027 0.500000 0.041888
O O1 0.500000 0.000000 0.500000
O O2 0.448735 0.000000 0.672605
O O3 0.363759 0.833884 0.569599
O O4 0.414995 0.500000 0.305777
O O5 0.417246 0.834862 0.294203
O O6 0.281104 0.668108 0.270834
O O7 0.348614 0.679400 0.429824
O O8 0.993336 0.500000 0.834753
O O9 0.829192 0.363946 0.855229
O O10 0.862535 0.500000 0.995289
O O11 0.231394 0.632386 0.856013
O O12 0.319026 0.500000 0.972029
O O13 0.641716 0.364360 0.891725
O O14 0.500000 0.662575 0.500000
O O15 0.353395 0.500000 0.562819
O O16 0.500000 0.500000 0.000000
#
# Coordination Sequence:
#
# PCOD9169008 Si02
#       8
#     4   8   4   4   4   8   8   4
#     4  10  16  32  50  86 115 146 197 246 298 352
#     4  11  20  36  59  92 121 153 205 259 296 348
#     4  10  22  42  56  85 121 159 194 236 319 364
#     4  12  23  34  63  93 120 152 203 263 295 348
#     4  10  21  41  66  83 115 172 204 233 303 387
#     4  10  21  41  59  82 122 162 195 236 310 368
#     4   9  16  28  53  83 114 151 193 246 300 353
#     4  10  20  37  62  87 114 152 204 250 292 344
#
# _framework density 23.045860000000001
#
# number of rings (size 3 to 8) (size 9 to 14) (size 15 to 20)
#    0.000    2.000    5.455    2.727    0.000    2.909 
#    1.636    1.364    0.000    1.091    0.000    0.000 
#    0.000    0.000    0.000    0.000    0.000    0.000 
#
# Total GULP energy -122494.886839 kJ/mol
# GULP energy per Si atom -5567.949402 kJ/mol
# Density = 2.299341 g / cm^3
# Si number density = 23.045860 Si / 1000 Ang^3
#
#
#
# Elastic Constant Matrix: (Units=GPa)
#
#
# Indices 1 2 3 4 5 6 
#
# 1 56.3431 25.0679 12.4667 0.0000 -15.0891 0.0000
# 2 25.0679 270.2807 39.5197 0.0000 -5.3985 0.0000
# 3 12.4667 39.5197 76.9776 0.0000 22.3792 0.0000
# 4 0.0000 0.0000 0.0000 31.4173 0.0000 23.9131
# 5 -15.0891 -5.3985 22.3792 0.0000 34.0659 0.0000
# 6 0.0000 0.0000 0.0000 23.9131 0.0000 -28.8718
#
#
#
# Elastic Compliance Matrix: (Units=1/GPa)
#
#
# Indices 1 2 3 4 5 6 
#
# 1 0.024154 -0.000726 -0.008178 0.000000 0.015956 0.000000
# 2 -0.000726 0.004195 -0.002640 0.000000 0.002078 0.000000
# 3 -0.008178 -0.002640 0.020822 0.000000 -0.017720 0.000000
# 4 0.000000 0.000000 0.000000 0.019522 0.000000 0.016169
# 5 0.015956 0.002078 -0.017720 0.000000 0.048392 0.000000
# 6 0.000000 0.000000 0.000000 0.016169 0.000000 -0.021244
#
#
# Mechanical properties :
#
#
# Convention : Reuss Voigt Hill
#
# Bulk Modulus (GPa) = 38.33887 61.96780 50.15333
# Shear Modulus (GPa) = 39.17758 29.09210 34.13484
#
# Velocity S-wave (km/s) = 4.12756 3.55682 3.85277
# Velocity P-wave (km/s) = 6.27596 6.61931 6.44992
#
# Compressibility (1/GPa) = 0.02608319
#
# Stress axis : x y z
#
# Youngs Moduli (GPa) = 41.40102 238.39739 48.02587
#
# Poissons Ratio (x) = 0.17302 0.39276
# Poissons Ratio (y) = 0.03005 0.12679
# Poissons Ratio (z) = 0.33858 0.62937
#
# Static dielectric constant tensor:
#      x y z
#    x 1.894400 0.000000 0.002170 
#    y 0.000000 1.894080 0.000000 
#    z 0.002170 0.000000 1.814420 
# 
# From -- ./inp_files/267295.got.cif
#   From: 2010.05.17/outbox.cif.g08.bks.cpg/sg12_134_cif.got.tgz:267295.got - 2010.06.03 13:09:07.
