data_PCOD9169093
_publ_section_title
;
Structure prediction by ZEFSAII (Michael W. Deem and Ramdas Pophale) SiO2 
 PCOD9169093
Probable space group: C 2/M
;
_chemical_formula_sum "Si O2"
_cell_formula_units_Z 40
_cell_length_a 21.372985
_cell_length_b 18.266494
_cell_length_c 8.824148
_cell_angle_alpha 90.000000
_cell_angle_beta 143.699957
_cell_angle_gamma 90.000000
_cell_volume 2039.505972
_symmetry_space_group_name_H-M "C 2/M"
_symmetry_group_IT_number 12
_symmetry_cell_setting 'monoclinic'
loop_
_space_group_symop_operation_xyz
x,y,z
-x,y,-z
-x,-y,-z
x,-y,z
1/2+x,1/2+y,z
1/2-x,1/2+y,-z
1/2-x,1/2-y,-z
1/2+x,1/2-y,z
loop_
_atom_site_type_symbol
_atom_site_label
_atom_site_fract_x
_atom_site_fract_y
_atom_site_fract_z
Si Si1 0.628192 0.000000 0.612199
Si Si2 0.471814 0.500000 0.621424
Si Si3 0.650547 0.624410 0.456200
Si Si4 0.000000 0.235528 0.000000
Si Si5 0.871011 0.339223 0.963235
Si Si6 0.323822 0.500000 0.755400
Si Si7 0.931003 0.500000 0.012970
Si Si8 0.500000 0.876507 0.500000
O O1 0.518599 0.000000 0.310366
O O2 0.604507 0.926504 0.661907
O O3 0.724683 0.000000 0.681290
O O4 0.500000 0.500000 0.500000
O O5 0.400897 0.569821 0.523741
O O6 0.571690 0.500000 0.933624
O O7 0.564695 0.682694 0.235585
O O8 0.745490 0.670107 0.719458
O O9 0.675547 0.571343 0.356195
O O10 0.080627 0.287638 0.069465
O O11 0.871596 0.424623 0.913785
O O12 0.950665 0.333061 0.261681
O O13 0.000000 0.500000 0.000000
#
# Coordination Sequence:
#
# PCOD9169093 Si02
#       8
#     4   4   8   4   8   4   4   4
#     4   9  19  32  64  93 126 156 194 273 330 355
#     4  11  24  43  71  97 129 160 212 274 322 379
#     4  11  23  45  65  96 125 168 219 265 311 381
#     4  12  24  44  60  92 134 172 216 258 314 388
#     4  11  23  39  67  89 129 171 210 270 320 370
#     4  11  21  39  73  93 123 163 220 271 312 374
#     4  10  16  34  57  94 113 147 219 257 298 366
#     4   9  22  40  56  98 136 155 212 266 318 393
#
# _framework density 19.612591999999999
#
# number of rings (size 3 to 8) (size 9 to 14) (size 15 to 20)
#    0.000    1.400    3.000    4.200    5.600    0.000 
#    1.800    1.000    0.000    0.000    0.000    0.000 
#    0.000    0.000    0.000    0.000    0.000    0.000 
#
# Total GULP energy -111345.948144 kJ/mol
# GULP energy per Si atom -5567.297407 kJ/mol
# Density = 1.956795 g / cm^3
# Si number density = 19.612592 Si / 1000 Ang^3
#
#
#
# Elastic Constant Matrix: (Units=GPa)
#
#
# Indices 1 2 3 4 5 6 
#
# 1 120.1146 25.4214 23.8707 0.0000 0.8650 0.0000
# 2 25.4214 73.1968 19.8372 0.0000 2.3568 0.0000
# 3 23.8707 19.8372 111.0607 0.0000 7.9369 0.0000
# 4 0.0000 0.0000 0.0000 -31.1411 0.0000 29.4341
# 5 0.8650 2.3568 7.9369 0.0000 34.4869 0.0000
# 6 0.0000 0.0000 0.0000 29.4341 0.0000 7.1128
#
#
#
# Elastic Compliance Matrix: (Units=1/GPa)
#
#
# Indices 1 2 3 4 5 6 
#
# 1 0.009215 -0.002803 -0.001502 0.000000 0.000306 0.000000
# 2 -0.002803 0.015215 -0.002080 0.000000 -0.000491 0.000000
# 3 -0.001502 -0.002080 0.009848 0.000000 -0.002087 0.000000
# 4 0.000000 0.000000 0.000000 -0.006538 0.000000 0.027057
# 5 0.000306 -0.000491 -0.002087 0.000000 0.029503 0.000000
# 6 0.000000 0.000000 0.000000 0.027057 0.000000 0.028626
#
#
# Mechanical properties :
#
#
# Convention : Reuss Voigt Hill
#
# Bulk Modulus (GPa) = 46.49599 49.18121 47.83860
# Shear Modulus (GPa) = 47.25603 17.77457 32.51530
#
# Velocity S-wave (km/s) = 4.91396 3.01372 4.07612
# Velocity P-wave (km/s) = 7.48029 6.10252 6.82626
#
# Compressibility (1/GPa) = 0.02150723
#
# Stress axis : x y z
#
# Youngs Moduli (GPa) = 108.51981 65.72518 101.54853
#
# Poissons Ratio (x) = 0.18424 0.15250
# Poissons Ratio (y) = 0.30420 0.21123
# Poissons Ratio (z) = 0.16297 0.13671
#
# Static dielectric constant tensor:
#      x y z
#    x 1.676610 0.000000 0.026060 
#    y 0.000000 1.789930 0.000000 
#    z 0.026060 0.000000 1.675310 
# 
# From -- ./inp_files/48691.got.cif
#   From: 2010.05.17/outbox.cif.g08.bks.cpg/sg12_25_cif.got.tgz:48691.got - 2010.06.03 13:09:07.
