data_PCOD9169175
_publ_section_title
;
Structure prediction by ZEFSAII (Michael W. Deem and Ramdas Pophale) SiO2 
 PCOD9169175
Probable space group: C 2/M
;
_chemical_formula_sum "Si O2"
_cell_formula_units_Z 48
_cell_length_a 21.007762
_cell_length_b 8.187637
_cell_length_c 17.388852
_cell_angle_alpha 90.000000
_cell_angle_beta 115.451559
_cell_angle_gamma 90.000000
_cell_volume 2700.675918
_symmetry_space_group_name_H-M "C 2/M"
_symmetry_group_IT_number 12
_symmetry_cell_setting 'monoclinic'
loop_
_space_group_symop_operation_xyz
x,y,z
-x,y,-z
-x,-y,-z
x,-y,z
1/2+x,1/2+y,z
1/2-x,1/2+y,-z
1/2-x,1/2-y,-z
1/2+x,1/2-y,z
loop_
_atom_site_type_symbol
_atom_site_label
_atom_site_fract_x
_atom_site_fract_y
_atom_site_fract_z
Si Si1 0.610359 0.689649 0.581479
Si Si2 0.208253 0.695957 0.054454
Si Si3 0.027098 0.310922 0.405225
Si Si4 0.952071 0.803432 0.044632
Si Si5 0.469282 0.302522 0.226090
Si Si6 0.676970 0.699232 0.766787
O O1 0.624179 0.500000 0.573417
O O2 0.595258 0.776638 0.492897
O O3 0.536646 0.706596 0.590558
O O4 0.666246 0.754634 0.673115
O O5 0.206132 0.500000 0.054575
O O6 0.253769 0.752421 0.151808
O O7 0.250000 0.750000 0.000000
O O8 0.129391 0.761835 0.011018
O O9 0.007938 0.500000 0.403930
O O10 0.026781 0.264785 0.315728
O O11 0.974877 0.745155 0.141332
O O12 0.958350 0.000000 0.049479
O O13 0.000000 0.740000 0.000000
O O14 0.471985 0.500000 0.229116
O O15 0.392240 0.253087 0.219562
O O16 0.676524 0.500000 0.764480
#
# Coordination Sequence:
#
# PCOD9169175 Si02
#       6
#     8   8   8   8   8   8
#     4   9  15  26  41  59  88 127 160 190 237 293
#     4  11  20  33  52  76 103 133 170 209 252 300
#     4  10  17  24  37  63  94 121 154 198 244 287
#     4  10  21  37  54  73 100 134 173 214 254 300
#     4   9  16  30  47  64  91 129 166 197 241 300
#     4   8  15  27  45  67  93 125 162 198 236 293
#
# _framework density 17.773327999999999
#
# number of rings (size 3 to 8) (size 9 to 14) (size 15 to 20)
#    0.000    2.500    1.667    4.500    0.000    1.000 
#    0.000    2.500    0.000    0.000    0.000    1.167 
#    0.000    0.000    0.000    0.000    0.000    0.000 
#
# Total GULP energy -133699.736442 kJ/mol
# GULP energy per Si atom -5570.822352 kJ/mol
# Density = 1.773288 g / cm^3
# Si number density = 17.773328 Si / 1000 Ang^3
#
#
#
# Elastic Constant Matrix: (Units=GPa)
#
#
# Indices 1 2 3 4 5 6 
#
# 1 62.0810 0.6435 51.9610 0.0000 -8.5562 0.0000
# 2 0.6435 15.6123 11.7968 0.0000 -6.6954 0.0000
# 3 51.9610 11.7968 214.4353 0.0000 -8.7774 0.0000
# 4 0.0000 0.0000 0.0000 16.9567 0.0000 8.1469
# 5 -8.5562 -6.6954 -8.7774 0.0000 12.6842 0.0000
# 6 0.0000 0.0000 0.0000 8.1469 0.0000 6.8104
#
#
#
# Elastic Compliance Matrix: (Units=1/GPa)
#
#
# Indices 1 2 3 4 5 6 
#
# 1 0.022925 0.010571 -0.005429 0.000000 0.017287 0.000000
# 2 0.010571 0.089392 -0.005409 0.000000 0.050573 0.000000
# 3 -0.005429 -0.005409 0.006185 0.000000 -0.002237 0.000000
# 4 0.000000 0.000000 0.000000 0.138675 0.000000 -0.165888
# 5 0.017287 0.050573 -0.002237 0.000000 0.115646 0.000000
# 6 0.000000 0.000000 0.000000 -0.165888 0.000000 0.345275
#
#
# Mechanical properties :
#
#
# Convention : Reuss Voigt Hill
#
# Bulk Modulus (GPa) = 8.47691 46.77012 27.62352
# Shear Modulus (GPa) = 6.59670 22.47208 14.53439
#
# Velocity S-wave (km/s) = 1.92863 3.55966 2.86276
# Velocity P-wave (km/s) = 3.12079 6.57775 5.14811
#
# Compressibility (1/GPa) = 0.11796748
#
# Stress axis : x y z
#
# Youngs Moduli (GPa) = 43.62047 11.18669 161.68316
#
# Poissons Ratio (x) = -0.11825 0.87778
# Poissons Ratio (y) = -0.46111 0.87457
# Poissons Ratio (z) = 0.23682 0.06051
#
# Static dielectric constant tensor:
#      x y z
#    x 1.580320 0.000000 0.007600 
#    y 0.000000 1.615020 0.000000 
#    z 0.007600 0.000000 1.694480 
# 
# From -- ./inp_files/280531.got.cif
#   From: 2010.05.17/outbox.cif.g08.bks.cpg/sg12_141_cif.got.tgz:280531.got - 2010.06.03 13:09:07.
