data_PCOD9169990
_publ_section_title
;
Structure prediction by ZEFSAII (Michael W. Deem and Ramdas Pophale) SiO2 
 PCOD9169990
Probable space group: C 2/M
;
_chemical_formula_sum "Si O2"
_cell_formula_units_Z 64
_cell_length_a 22.891327
_cell_length_b 18.436227
_cell_length_c 8.960652
_cell_angle_alpha 90.000000
_cell_angle_beta 77.484583
_cell_angle_gamma 90.000000
_cell_volume 3691.800437
_symmetry_space_group_name_H-M "C 2/M"
_symmetry_group_IT_number 12
_symmetry_cell_setting 'monoclinic'
loop_
_space_group_symop_operation_xyz
x,y,z
-x,y,-z
-x,-y,-z
x,-y,z
1/2+x,1/2+y,z
1/2-x,1/2+y,-z
1/2-x,1/2-y,-z
1/2+x,1/2-y,z
loop_
_atom_site_type_symbol
_atom_site_label
_atom_site_fract_x
_atom_site_fract_y
_atom_site_fract_z
Si Si1 0.053023 0.374848 0.379275
Si Si2 0.745049 0.583097 0.044996
Si Si3 0.906238 0.265712 0.386370
Si Si4 0.199512 0.738830 0.374880
Si Si5 0.686491 0.079591 0.308786
Si Si6 0.183793 0.687648 0.790725
Si Si7 0.650983 0.290097 0.086911
Si Si8 0.019004 0.258709 0.159634
O O1 0.068910 0.311072 0.488607
O O2 0.114975 0.416170 0.321472
O O3 0.033000 0.334353 0.238791
O O4 0.000000 0.414343 0.500000
O O5 0.730394 0.500000 0.086822
O O6 0.789790 0.617161 0.143389
O O7 0.686607 0.634302 0.068339
O O8 0.778651 0.585544 0.867088
O O9 0.850073 0.224768 0.490594
O O10 0.875358 0.316639 0.277516
O O11 0.961618 0.226301 0.278542
O O12 0.202619 0.651650 0.393549
O O13 0.262720 0.778187 0.336968
O O14 0.174611 0.748197 0.219846
O O15 0.700351 0.000000 0.367001
O O16 0.169959 0.744720 0.930711
O O17 0.579130 0.289011 0.132795
O O18 0.000000 0.270695 0.000000
#
# Coordination Sequence:
#
# PCOD9169990 Si02
#       8
#     8   8   8   8   8   8   8   8
#     4   9  19  34  46  73 106 135 173 207 261 312
#     4  10  20  33  53  79 105 139 174 215 264 310
#     4  10  20  29  50  78 108 133 163 218 261 311
#     4  10  18  33  49  76 104 132 170 218 263 308
#     4  10  17  29  50  70  97 137 171 206 254 303
#     4  11  18  32  52  81 103 132 170 216 263 310
#     4  11  18  33  55  77 104 134 177 220 256 308
#     4  11  19  31  53  77 103 132 175 222 259 300
#
# _framework density 17.335715
#
# number of rings (size 3 to 8) (size 9 to 14) (size 15 to 20)
#    0.000    1.750    6.250    1.125    0.000    0.250 
#    0.000    2.500    0.000    1.500    0.000    7.000 
#    0.000    0.000    0.000    0.000    0.000    0.000 
#
# Total GULP energy -178208.340963 kJ/mol
# GULP energy per Si atom -5569.010655 kJ/mol
# Density = 1.729626 g / cm^3
# Si number density = 17.335715 Si / 1000 Ang^3
#
#
#
# Elastic Constant Matrix: (Units=GPa)
#
#
# Indices 1 2 3 4 5 6 
#
# 1 110.5953 30.6588 38.6771 0.0000 -13.5962 0.0000
# 2 30.6588 85.5847 22.4494 0.0000 -6.6073 0.0000
# 3 38.6771 22.4494 68.2567 0.0000 -10.8831 0.0000
# 4 0.0000 0.0000 0.0000 8.9232 0.0000 0.6725
# 5 -13.5962 -6.6073 -10.8831 0.0000 49.3717 0.0000
# 6 0.0000 0.0000 0.0000 0.6725 0.0000 8.2648
#
#
#
# Elastic Compliance Matrix: (Units=1/GPa)
#
#
# Indices 1 2 3 4 5 6 
#
# 1 0.011960 -0.002678 -0.005626 0.000000 0.001695 0.000000
# 2 -0.002678 0.013419 -0.002827 0.000000 0.000435 0.000000
# 3 -0.005626 -0.002827 0.019133 0.000000 0.002290 0.000000
# 4 0.000000 0.000000 0.000000 0.112759 0.000000 -0.009175
# 5 0.001695 0.000435 0.002290 0.000000 0.021284 0.000000
# 6 0.000000 0.000000 0.000000 -0.009175 0.000000 0.121742
#
#
# Mechanical properties :
#
#
# Convention : Reuss Voigt Hill
#
# Bulk Modulus (GPa) = 44.94159 49.77860 47.36010
# Shear Modulus (GPa) = 15.15261 24.82202 19.98731
#
# Velocity S-wave (km/s) = 2.95967 3.78807 3.39920
# Velocity P-wave (km/s) = 6.13678 6.92167 6.54101
#
# Compressibility (1/GPa) = 0.02225110
#
# Stress axis : x y z
#
# Youngs Moduli (GPa) = 83.61004 74.52322 52.26464
#
# Poissons Ratio (x) = 0.19956 0.29405
# Poissons Ratio (y) = 0.22390 0.14773
# Poissons Ratio (z) = 0.47041 0.21064
#
# Static dielectric constant tensor:
#      x y z
#    x 1.666160 0.000000 -0.015790 
#    y 0.000000 1.578450 0.000000 
#    z -0.015790 0.000000 1.641710 
# 
# From -- ./inp_files/97717.got.cif
#   From: 2010.05.17/outbox.cif.g08.bks.cpg/sg12_49_cif.got.tgz:97717.got - 2010.06.03 13:09:07.
