data_PCOD9169278
_publ_section_title
;
Structure prediction by ZEFSAII (Michael W. Deem and Ramdas Pophale) SiO2 
 PCOD9169278
Probable space group: C 2/M
;
_chemical_formula_sum "Si O2"
_cell_formula_units_Z 48
_cell_length_a 14.426708
_cell_length_b 23.324115
_cell_length_c 7.497695
_cell_angle_alpha 90.000000
_cell_angle_beta 127.687260
_cell_angle_gamma 90.000000
_cell_volume 1996.521539
_symmetry_space_group_name_H-M "C 2/M"
_symmetry_group_IT_number 12
_symmetry_cell_setting 'monoclinic'
loop_
_space_group_symop_operation_xyz
x,y,z
-x,y,-z
-x,-y,-z
x,-y,z
1/2+x,1/2+y,z
1/2-x,1/2+y,-z
1/2-x,1/2-y,-z
1/2+x,1/2-y,z
loop_
_atom_site_type_symbol
_atom_site_label
_atom_site_fract_x
_atom_site_fract_y
_atom_site_fract_z
Si Si1 0.077555 0.830944 0.264874
Si Si2 0.205739 0.432810 0.984117
Si Si3 0.290417 0.780381 0.340880
Si Si4 0.340300 0.328542 0.171429
Si Si5 0.236129 0.936266 0.376560
Si Si6 0.534128 0.879093 0.342280
O O1 0.182699 0.787297 0.350253
O O2 0.138699 0.892314 0.324663
O O3 0.976795 0.823256 0.289131
O O4 0.000000 0.824979 0.000000
O O5 0.194358 0.500000 0.021223
O O6 0.239972 0.433757 0.810608
O O7 0.088644 0.394970 0.893726
O O8 0.307874 0.393334 0.185559
O O9 0.310407 0.717559 0.286341
O O10 0.403979 0.816595 0.547774
O O11 0.239913 0.812810 0.098993
O O12 0.359648 0.916801 0.604957
O O13 0.204286 0.000000 0.387152
O O14 0.500000 0.899904 0.500000
#
# Coordination Sequence:
#
# PCOD9169278 Si02
#       6
#     8   8   8   8   8   8
#     4   9  15  27  38  58  85 114 153 190 220 270
#     4  10  17  25  42  67  95 122 145 177 230 287
#     4   9  17  28  44  57  85 127 157 187 220 261
#     4  10  17  28  42  63  89 122 152 190 225 266
#     4   9  15  22  36  56  83 118 143 167 211 270
#     4   9  14  27  39  60  86 119 153 179 212 273
#
# _framework density 24.041816000000001
#
# number of rings (size 3 to 8) (size 9 to 14) (size 15 to 20)
#    0.000    2.667    6.667    0.500    0.000    3.000 
#    0.000    0.000    0.000   13.000    0.000    0.000 
#    0.000   24.000    0.000    0.000    0.000    1.833 
#
# Total GULP energy -133844.105626 kJ/mol
# GULP energy per Si atom -5576.837734 kJ/mol
# Density = 2.398710 g / cm^3
# Si number density = 24.041816 Si / 1000 Ang^3
#
#
#
# Elastic Constant Matrix: (Units=GPa)
#
#
# Indices 1 2 3 4 5 6 
#
# 1 122.6873 64.1377 56.9948 0.0000 20.7044 0.0000
# 2 64.1377 202.6808 60.5448 0.0000 39.4819 0.0000
# 3 56.9948 60.5448 76.3822 0.0000 10.1615 0.0000
# 4 0.0000 0.0000 0.0000 10.9273 0.0000 -1.5495
# 5 20.7044 39.4819 10.1615 0.0000 31.9712 0.0000
# 6 0.0000 0.0000 0.0000 -1.5495 0.0000 -0.5399
#
#
#
# Elastic Compliance Matrix: (Units=1/GPa)
#
#
# Indices 1 2 3 4 5 6 
#
# 1 0.013461 -0.000604 -0.008881 0.000000 -0.005149 0.000000
# 2 -0.000604 0.008195 -0.004961 0.000000 -0.008152 0.000000
# 3 -0.008881 -0.004961 0.023045 0.000000 0.004552 0.000000
# 4 0.000000 0.000000 0.000000 0.065043 0.000000 -0.186675
# 5 -0.005149 -0.008152 0.004552 0.000000 0.043233 0.000000
# 6 0.000000 0.000000 0.000000 -0.186675 0.000000 -1.316449
#
#
# Mechanical properties :
#
#
# Convention : Reuss Voigt Hill
#
# Bulk Modulus (GPa) = 63.24845 85.01164 74.13005
# Shear Modulus (GPa) = -4.42747 23.14326 9.35789
#
# Velocity S-wave (km/s) = -1.35852 3.10599 1.97504
# Velocity P-wave (km/s) = 4.88918 6.94979 6.00848
#
# Compressibility (1/GPa) = 0.01581066
#
# Stress axis : x y z
#
# Youngs Moduli (GPa) = 74.28909 122.02831 43.39337
#
# Poissons Ratio (x) = 0.07368 0.38536
# Poissons Ratio (y) = 0.04486 0.21526
# Poissons Ratio (z) = 0.65973 0.60533
#
# Static dielectric constant tensor:
#      x y z
#    x 1.936120 0.000000 -0.055560 
#    y 0.000000 1.942620 0.000000 
#    z -0.055560 0.000000 2.009130 
# 
# From -- ./inp_files/147238.got.cif
#   From: 2010.05.17/outbox.cif.g08.bks.cpg/sg12_74_cif.got.tgz:147238.got - 2010.06.03 13:09:07.
