data_PCOD9169786
_publ_section_title
;
Structure prediction by ZEFSAII (Michael W. Deem and Ramdas Pophale) SiO2 
 PCOD9169786
Probable space group: C 2/M
;
_chemical_formula_sum "Si O2"
_cell_formula_units_Z 56
_cell_length_a 5.504670
_cell_length_b 19.289951
_cell_length_c 26.702364
_cell_angle_alpha 90.000000
_cell_angle_beta 102.245437
_cell_angle_gamma 90.000000
_cell_volume 2770.874880
_symmetry_space_group_name_H-M "C 2/M"
_symmetry_group_IT_number 12
_symmetry_cell_setting 'monoclinic'
loop_
_space_group_symop_operation_xyz
x,y,z
-x,y,-z
-x,-y,-z
x,-y,z
1/2+x,1/2+y,z
1/2-x,1/2+y,-z
1/2-x,1/2-y,-z
1/2+x,1/2-y,z
loop_
_atom_site_type_symbol
_atom_site_label
_atom_site_fract_x
_atom_site_fract_y
_atom_site_fract_z
Si Si1 0.756995 0.246404 0.400722
Si Si2 0.683148 0.601769 0.361324
Si Si3 0.783403 0.580226 0.032470
Si Si4 0.137020 0.707350 0.890500
Si Si5 0.351688 0.885481 0.675270
Si Si6 0.014759 0.708278 0.769168
Si Si7 0.230286 0.919934 0.480102
O O1 0.537700 0.250123 0.430638
O O2 0.713140 0.314010 0.363698
O O3 0.716632 0.178517 0.365320
O O4 0.417367 0.581456 0.327584
O O5 0.681290 0.580559 0.419138
O O6 0.927937 0.575936 0.343952
O O7 0.802033 0.500000 0.050621
O O8 0.829092 0.637312 0.076822
O O9 0.500000 0.589441 0.000000
O O10 0.000000 0.589419 0.000000
O O11 0.398252 0.750076 0.901561
O O12 0.074648 0.692145 0.829606
O O13 0.462060 0.856357 0.731324
O O14 0.257529 0.747924 0.758510
O O15 0.500000 0.887552 0.500000
O O16 0.000000 0.888540 0.500000
O O17 0.249524 0.000000 0.499334
#
# Coordination Sequence:
#
# PCOD9169786 Si02
#       7
#     8   8   8   8   8   8   8
#     4   8  14  23  39  62  87 111 138 167 205 256
#     4  10  18  29  49  71  91 118 156 194 231 282
#     4  10  21  37  57  80 109 151 199 240 288 352
#     4  10  21  34  53  83 116 148 188 242 291 333
#     4  10  17  28  48  73  99 128 157 190 233 290
#     4  10  18  30  48  76 109 138 171 208 254 309
#     4  10  21  37  54  69  87 116 155 201 252 299
#
# _framework density 20.210224
#
# number of rings (size 3 to 8) (size 9 to 14) (size 15 to 20)
#    0.000    2.286    0.000    5.143    0.000    1.714 
#    0.000    0.000    0.000   24.857    0.000    0.000 
#    0.000    0.000    0.000    0.000    0.000    0.000 
#
# Total GULP energy -156145.015903 kJ/mol
# GULP energy per Si atom -5576.607711 kJ/mol
# Density = 2.016423 g / cm^3
# Si number density = 20.210224 Si / 1000 Ang^3
#
#
#
# Elastic Constant Matrix: (Units=GPa)
#
#
# Indices 1 2 3 4 5 6 
#
# 1 195.7018 14.1843 21.6924 0.0000 9.6177 0.0000
# 2 14.1843 65.5969 24.6161 0.0000 -1.7237 0.0000
# 3 21.6924 24.6161 54.7934 0.0000 0.9982 0.0000
# 4 0.0000 0.0000 0.0000 87.3187 0.0000 -19.6955
# 5 9.6177 -1.7237 0.9982 0.0000 21.7031 0.0000
# 6 0.0000 0.0000 0.0000 -19.6955 0.0000 -15.7279
#
#
#
# Elastic Compliance Matrix: (Units=1/GPa)
#
#
# Indices 1 2 3 4 5 6 
#
# 1 0.005475 -0.000540 -0.001881 0.000000 -0.002382 0.000000
# 2 -0.000540 0.018463 -0.008118 0.000000 0.002079 0.000000
# 3 -0.001881 -0.008118 0.022658 0.000000 -0.000853 0.000000
# 4 0.000000 0.000000 0.000000 0.008930 0.000000 -0.011183
# 5 -0.002382 0.002079 -0.000853 0.000000 0.047336 0.000000
# 6 0.000000 0.000000 0.000000 -0.011183 0.000000 -0.049578
#
#
# Mechanical properties :
#
#
# Convention : Reuss Voigt Hill
#
# Bulk Modulus (GPa) = 39.19232 48.56419 43.87825
# Shear Modulus (GPa) = 60.33626 35.69872 48.01749
#
# Velocity S-wave (km/s) = 5.46984 4.20738 4.87961
# Velocity P-wave (km/s) = 7.70238 6.90539 7.31475
#
# Compressibility (1/GPa) = 0.02551520
#
# Stress axis : x y z
#
# Youngs Moduli (GPa) = 182.66218 54.16343 44.13485
#
# Poissons Ratio (x) = 0.02927 0.08302
# Poissons Ratio (y) = 0.09872 0.35830
# Poissons Ratio (z) = 0.34361 0.43972
#
# Static dielectric constant tensor:
#      x y z
#    x 1.810130 0.000000 0.007230 
#    y 0.000000 1.750860 0.000000 
#    z 0.007230 0.000000 1.655060 
# 
# From -- ./inp_files/331271.got.cif
#   From: 2010.05.17/outbox.cif.g08.bks.cpg/sg12_166_cif.got.tgz:331271.got - 2010.06.03 13:09:07.
