data_PCOD9169478
_publ_section_title
;
Structure prediction by ZEFSAII (Michael W. Deem and Ramdas Pophale) SiO2 
 PCOD9169478
Probable space group: C 2/M
;
_chemical_formula_sum "Si O2"
_cell_formula_units_Z 56
_cell_length_a 27.821800
_cell_length_b 7.296894
_cell_length_c 24.144758
_cell_angle_alpha 90.000000
_cell_angle_beta 149.811825
_cell_angle_gamma 90.000000
_cell_volume 2464.775031
_symmetry_space_group_name_H-M "C 2/M"
_symmetry_group_IT_number 12
_symmetry_cell_setting 'monoclinic'
loop_
_space_group_symop_operation_xyz
x,y,z
-x,y,-z
-x,-y,-z
x,-y,z
1/2+x,1/2+y,z
1/2-x,1/2+y,-z
1/2-x,1/2-y,-z
1/2+x,1/2-y,z
loop_
_atom_site_type_symbol
_atom_site_label
_atom_site_fract_x
_atom_site_fract_y
_atom_site_fract_z
Si Si1 0.087502 0.719810 0.654916
Si Si2 0.603867 0.776820 0.471585
Si Si3 0.997227 0.281451 0.261548
Si Si4 0.099305 0.781936 0.940943
Si Si5 0.595975 0.723753 0.064247
Si Si6 0.194650 0.279623 0.870970
Si Si7 0.286195 0.776172 0.317921
O O1 0.076662 0.500000 0.639506
O O2 0.170205 0.755105 0.782278
O O3 0.125736 0.782829 0.633999
O O4 0.989862 0.780666 0.586383
O O5 0.581924 0.716630 0.386704
O O6 0.692876 0.718843 0.598141
O O7 0.606455 0.000000 0.473300
O O8 0.995768 0.500000 0.266724
O O9 0.989427 0.248196 0.188501
O O10 0.896609 0.208546 0.186340
O O11 0.110585 0.000000 0.956165
O O12 0.092534 0.714453 0.996974
O O13 0.198550 0.710319 0.012572
O O14 0.599026 0.500000 0.066208
O O15 0.688855 0.782661 0.191453
O O16 0.500000 0.777776 0.000000
O O17 0.194506 0.500000 0.878129
O O18 0.285605 0.000000 0.316686
#
# Coordination Sequence:
#
# PCOD9169478 Si02
#       7
#     8   8   8   8   8   8   8
#     4   8  11  17  30  52  81 106 127 159 205 250
#     4   8  14  21  33  55  82 108 132 160 201 250
#     4   9  17  27  39  60  89 113 136 167 202 244
#     4  10  17  27  43  60  82 112 142 169 204 249
#     4   9  17  27  40  60  82 104 136 178 216 244
#     4   8  13  22  36  57  85 112 135 164 203 247
#     4   9  13  20  35  54  79 107 132 166 211 249
#
# _framework density 22.720126
#
# number of rings (size 3 to 8) (size 9 to 14) (size 15 to 20)
#    0.000    3.286    1.429    2.571    0.000    1.714 
#    0.000    0.000    0.000    1.286    0.000    1.000 
#    0.000    2.571    0.000    0.000    0.000    0.000 
#
# Total GULP energy -156097.416053 kJ/mol
# GULP energy per Si atom -5574.907716 kJ/mol
# Density = 2.266841 g / cm^3
# Si number density = 22.720126 Si / 1000 Ang^3
#
#
#
# Elastic Constant Matrix: (Units=GPa)
#
#
# Indices 1 2 3 4 5 6 
#
# 1 45.8472 1.2805 59.3376 0.0000 -21.3050 0.0000
# 2 1.2805 92.9512 2.2907 -0.0001 -2.3515 -0.0004
# 3 59.3376 2.2907 176.2197 0.0000 -55.5512 0.0000
# 4 0.0000 -0.0001 0.0000 2.0730 0.0000 -15.5579
# 5 -21.3050 -2.3515 -55.5512 0.0000 33.0341 0.0000
# 6 0.0000 -0.0004 0.0000 -15.5579 0.0000 -60.7860
#
#
#
# Elastic Compliance Matrix: (Units=1/GPa)
#
#
# Indices 1 2 3 4 5 6 
#
# 1 0.039322 -0.000100 -0.011167 0.000000 0.006575 0.000000
# 2 -0.000100 0.010782 0.000245 0.000000 0.001115 0.000000
# 3 -0.011167 0.000245 0.015252 0.000000 0.018464 0.000000
# 4 0.000000 0.000000 0.000000 0.165155 0.000000 -0.042271
# 5 0.006575 0.001115 0.018464 0.000000 0.065642 0.000000
# 6 0.000000 0.000000 0.000000 -0.042271 0.000000 -0.005632
#
#
# Mechanical properties :
#
#
# Convention : Reuss Voigt Hill
#
# Bulk Modulus (GPa) = 23.08793 48.98174 36.03484
# Shear Modulus (GPa) = 15.29039 11.67150 13.48095
#
# Velocity S-wave (km/s) = 2.59702 2.26897 2.43852
# Velocity P-wave (km/s) = 4.37911 5.33571 4.88090
#
# Compressibility (1/GPa) = 0.04331267
#
# Stress axis : x y z
#
# Youngs Moduli (GPa) = 25.43078 92.74819 65.56355
#
# Poissons Ratio (x) = 0.00929 0.73214
# Poissons Ratio (y) = 0.00255 -0.01607
# Poissons Ratio (z) = 0.28398 -0.02273
#
# Static dielectric constant tensor:
#      x y z
#    x 1.809990 0.000000 -0.053440 
#    y 0.000000 1.926410 0.000000 
#    z -0.053440 0.000000 1.899370 
# 
# From -- ./inp_files/324785.got.cif
#   From: 2010.05.17/outbox.cif.g08.bks.cpg/sg12_163_cif.got.tgz:324785.got - 2010.06.03 13:09:07.
