data_PCOD9169584
_publ_section_title
;
Structure prediction by ZEFSAII (Michael W. Deem and Ramdas Pophale) SiO2 
 PCOD9169584
Probable space group: C 2/M
;
_chemical_formula_sum "Si O2"
_cell_formula_units_Z 56
_cell_length_a 20.862621
_cell_length_b 21.387600
_cell_length_c 8.797649
_cell_angle_alpha 90.000000
_cell_angle_beta 127.244885
_cell_angle_gamma 90.000000
_cell_volume 3124.936469
_symmetry_space_group_name_H-M "C 2/M"
_symmetry_group_IT_number 12
_symmetry_cell_setting 'monoclinic'
loop_
_space_group_symop_operation_xyz
x,y,z
-x,y,-z
-x,-y,-z
x,-y,z
1/2+x,1/2+y,z
1/2-x,1/2+y,-z
1/2-x,1/2-y,-z
1/2+x,1/2-y,z
loop_
_atom_site_type_symbol
_atom_site_label
_atom_site_fract_x
_atom_site_fract_y
_atom_site_fract_z
Si Si1 0.284977 0.301420 0.297361
Si Si2 0.703527 0.354585 0.013484
Si Si3 0.635400 0.165746 0.633102
Si Si4 0.562771 0.676940 0.321538
Si Si5 0.457743 0.573343 0.274136
Si Si6 0.126330 0.749398 0.122848
Si Si7 0.485825 0.196252 0.270368
O O1 0.325556 0.233603 0.337974
O O2 0.354792 0.341043 0.475812
O O3 0.204608 0.290949 0.278649
O O4 0.266032 0.326534 0.103002
O O5 0.784554 0.375003 0.220448
O O6 0.659002 0.299047 0.043773
O O7 0.634812 0.404584 0.873499
O O8 0.568908 0.157292 0.404472
O O9 0.578077 0.171692 0.698429
O O10 0.507159 0.616949 0.229279
O O11 0.589347 0.710943 0.205521
O O12 0.513227 0.731309 0.339641
O O13 0.500000 0.586007 0.500000
O O14 0.464682 0.500000 0.255117
O O15 0.061711 0.703731 0.954050
#
# Coordination Sequence:
#
# PCOD9169584 Si02
#       7
#     8   8   8   8   8   8   8
#     4  10  17  30  47  70  99 135 169 201 246 320
#     4  11  18  33  50  68  97 135 175 215 252 298
#     4   9  17  27  46  70  93 130 168 199 241 308
#     4  11  21  31  46  71 107 135 164 216 258 297
#     4  11  23  37  55  73  93 138 193 227 253 292
#     4  11  19  29  47  74 103 137 164 195 258 319
#     4  10  17  27  46  71  99 130 164 194 246 322
#
# _framework density 17.920362999999998
#
# number of rings (size 3 to 8) (size 9 to 14) (size 15 to 20)
#    0.000    1.571    5.714    1.714    2.000    0.000 
#    0.000    1.429    0.000    0.000    0.000    2.000 
#    0.000    0.000    0.000    4.000    0.000   12.429 
#
# Total GULP energy -155932.294305 kJ/mol
# GULP energy per Si atom -5569.010511 kJ/mol
# Density = 1.787958 g / cm^3
# Si number density = 17.920363 Si / 1000 Ang^3
#
#
#
# Elastic Constant Matrix: (Units=GPa)
#
#
# Indices 1 2 3 4 5 6 
#
# 1 91.2210 25.2481 40.3876 0.0000 17.3025 0.0000
# 2 25.2481 38.9312 10.5119 0.0000 12.2593 0.0000
# 3 40.3876 10.5119 95.7018 0.0000 38.5880 0.0000
# 4 0.0000 0.0000 0.0000 15.6260 0.0000 2.3419
# 5 17.3025 12.2593 38.5880 0.0000 41.6109 0.0000
# 6 0.0000 0.0000 0.0000 2.3419 0.0000 8.5245
#
#
#
# Elastic Compliance Matrix: (Units=1/GPa)
#
#
# Indices 1 2 3 4 5 6 
#
# 1 0.016068 -0.009329 -0.006661 0.000000 0.002244 0.000000
# 2 -0.009329 0.033739 0.004272 0.000000 -0.010023 0.000000
# 3 -0.006661 0.004272 0.019457 0.000000 -0.016532 0.000000
# 4 0.000000 0.000000 0.000000 0.066744 0.000000 -0.018337
# 5 0.002244 -0.010023 -0.016532 0.000000 0.041383 0.000000
# 6 0.000000 0.000000 0.000000 -0.018337 0.000000 0.122346
#
#
# Mechanical properties :
#
#
# Convention : Reuss Voigt Hill
#
# Bulk Modulus (GPa) = 21.82035 42.01660 31.91847
# Shear Modulus (GPa) = 14.77329 23.13270 18.95299
#
# Velocity S-wave (km/s) = 2.87433 3.59675 3.25564
# Velocity P-wave (km/s) = 4.81855 6.38326 5.65528
#
# Compressibility (1/GPa) = 0.04582879
#
# Stress axis : x y z
#
# Youngs Moduli (GPa) = 62.23595 29.63940 51.39533
#
# Poissons Ratio (x) = 0.27650 0.34235
# Poissons Ratio (y) = 0.58058 -0.21958
# Poissons Ratio (z) = 0.41456 -0.12663
#
# Static dielectric constant tensor:
#      x y z
#    x 1.662890 0.000000 0.017490 
#    y 0.000000 1.559420 0.000000 
#    z 0.017490 0.000000 1.753110 
# 
# From -- ./inp_files/90449.got.cif
#   From: 2010.05.17/outbox.cif.g08.bks.cpg/sg12_46_cif.got.tgz:90449.got - 2010.06.03 13:09:07.
