data_PCOD9169748
_publ_section_title
;
Structure prediction by ZEFSAII (Michael W. Deem and Ramdas Pophale) SiO2 
 PCOD9169748
Probable space group: C 2/M
;
_chemical_formula_sum "Si O2"
_cell_formula_units_Z 56
_cell_length_a 20.957492
_cell_length_b 8.980065
_cell_length_c 18.403552
_cell_angle_alpha 90.000000
_cell_angle_beta 79.770437
_cell_angle_gamma 90.000000
_cell_volume 3408.485775
_symmetry_space_group_name_H-M "C 2/M"
_symmetry_group_IT_number 12
_symmetry_cell_setting 'monoclinic'
loop_
_space_group_symop_operation_xyz
x,y,z
-x,y,-z
-x,-y,-z
x,-y,z
1/2+x,1/2+y,z
1/2-x,1/2+y,-z
1/2-x,1/2-y,-z
1/2+x,1/2-y,z
loop_
_atom_site_type_symbol
_atom_site_label
_atom_site_fract_x
_atom_site_fract_y
_atom_site_fract_z
Si Si1 0.067579 0.819552 0.451189
Si Si2 0.902770 0.328661 0.150457
Si Si3 0.182156 0.180210 0.537126
Si Si4 0.532864 0.321235 0.299007
Si Si5 0.558542 0.828923 0.147774
Si Si6 0.609907 0.819770 0.685649
Si Si7 0.078058 0.170910 0.998282
O O1 0.127958 0.775257 0.488285
O O2 0.068948 0.778419 0.366213
O O3 0.000000 0.766143 0.500000
O O4 0.065812 0.000000 0.453752
O O5 0.885242 0.500000 0.139875
O O6 0.873586 0.281112 0.233759
O O7 0.889957 0.233622 0.081410
O O8 0.980689 0.324923 0.148568
O O9 0.250000 0.250000 0.500000
O O10 0.158208 0.247753 0.618245
O O11 0.185057 0.000000 0.540130
O O12 0.524944 0.500000 0.298503
O O13 0.567715 0.265477 0.218964
O O14 0.461700 0.246186 0.315358
O O15 0.576642 0.000000 0.155790
O O16 0.590497 0.763771 0.068692
O O17 0.608148 0.000000 0.680690
O O18 0.095268 0.000000 0.006592
O O19 0.000000 0.177683 0.000000
#
# Coordination Sequence:
#
# PCOD9169748 Si02
#       7
#     8   8   8   8   8   8   8
#     4   9  17  32  52  73  95 126 163 201 246 294
#     4   8  15  25  37  54  82 118 152 188 232 282
#     4  11  22  37  54  72  98 129 164 204 249 295
#     4  10  17  28  47  68  91 122 162 201 239 285
#     4   9  16  25  36  55  87 121 152 190 239 285
#     4  10  19  31  46  68  95 124 159 198 244 291
#     4   9  15  22  34  54  80 114 156 192 228 278
#
# _framework density 16.429583000000001
#
# number of rings (size 3 to 8) (size 9 to 14) (size 15 to 20)
#    0.000    2.571    1.429    3.000    0.000    5.714 
#    0.000    3.571    0.000    0.000    0.000    0.000 
#    0.000    1.143    0.000    3.429    0.000    5.857 
#
# Total GULP energy -155976.964133 kJ/mol
# GULP energy per Si atom -5570.605862 kJ/mol
# Density = 1.639219 g / cm^3
# Si number density = 16.429583 Si / 1000 Ang^3
#
#
#
# Elastic Constant Matrix: (Units=GPa)
#
#
# Indices 1 2 3 4 5 6 
#
# 1 50.8663 23.3387 44.7540 0.0000 -2.6321 0.0000
# 2 23.3387 76.6100 66.2775 0.0000 -2.8422 0.0000
# 3 44.7540 66.2775 172.4850 0.0000 -3.2465 0.0000
# 4 0.0000 0.0000 0.0000 30.3638 0.0000 -6.1447
# 5 -2.6321 -2.8422 -3.2465 0.0000 10.2358 0.0000
# 6 0.0000 0.0000 0.0000 -6.1447 0.0000 6.3712
#
#
#
# Elastic Compliance Matrix: (Units=1/GPa)
#
#
# Indices 1 2 3 4 5 6 
#
# 1 0.026134 -0.003010 -0.005547 0.000000 0.004125 0.000000
# 2 -0.003010 0.019996 -0.006853 0.000000 0.002605 0.000000
# 3 -0.005547 -0.006853 0.009866 0.000000 -0.000200 0.000000
# 4 0.000000 0.000000 0.000000 0.040921 0.000000 0.039466
# 5 0.004125 0.002605 -0.000200 0.000000 0.099417 0.000000
# 6 0.000000 0.000000 0.000000 0.039466 0.000000 0.195019
#
#
# Mechanical properties :
#
#
# Convention : Reuss Voigt Hill
#
# Bulk Modulus (GPa) = 39.71993 63.18908 51.45451
# Shear Modulus (GPa) = 11.61264 20.43356 16.02310
#
# Velocity S-wave (km/s) = 2.66148 3.53045 3.12630
# Velocity P-wave (km/s) = 5.80284 7.42717 6.66467
#
# Compressibility (1/GPa) = 0.02517628
#
# Stress axis : x y z
#
# Youngs Moduli (GPa) = 38.26422 50.01061 101.35365
#
# Poissons Ratio (x) = 0.15053 0.56218
# Poissons Ratio (y) = 0.11517 0.69462
# Poissons Ratio (z) = 0.21224 0.34274
#
# Static dielectric constant tensor:
#      x y z
#    x 1.518930 0.000000 -0.000760 
#    y 0.000000 1.553090 0.000000 
#    z -0.000760 0.000000 1.577880 
# 
# From -- ./inp_files/280225.got.cif
#   From: 2010.05.17/outbox.cif.g08.bks.cpg/sg12_141_cif.got.tgz:280225.got - 2010.06.03 13:09:07.
