data_PCOD9169301
_publ_section_title
;
Structure prediction by ZEFSAII (Michael W. Deem and Ramdas Pophale) SiO2 
 PCOD9169301
Probable space group: C 2/M
;
_chemical_formula_sum "Si O2"
_cell_formula_units_Z 56
_cell_length_a 28.044374
_cell_length_b 7.515146
_cell_length_c 15.188956
_cell_angle_alpha 90.000000
_cell_angle_beta 75.056473
_cell_angle_gamma 90.000000
_cell_volume 3092.924696
_symmetry_space_group_name_H-M "C 2/M"
_symmetry_group_IT_number 12
_symmetry_cell_setting 'monoclinic'
loop_
_space_group_symop_operation_xyz
x,y,z
-x,y,-z
-x,-y,-z
x,-y,z
1/2+x,1/2+y,z
1/2-x,1/2+y,-z
1/2-x,1/2-y,-z
1/2+x,1/2-y,z
loop_
_atom_site_type_symbol
_atom_site_label
_atom_site_fract_x
_atom_site_fract_y
_atom_site_fract_z
Si Si1 0.716004 0.284369 0.884455
Si Si2 0.361676 0.717594 0.934563
Si Si3 0.867631 0.213586 0.213948
Si Si4 0.675764 0.296508 0.224975
Si Si5 0.056143 0.217508 0.965338
Si Si6 0.185044 0.708596 0.590827
Si Si7 0.789793 0.793179 0.608974
O O1 0.720240 0.500000 0.881953
O O2 0.679744 0.230721 0.821689
O O3 0.769471 0.205310 0.843400
O O4 0.686891 0.230247 0.986341
O O5 0.361400 0.500000 0.933251
O O6 0.358030 0.782525 0.836224
O O7 0.408987 0.771162 0.969541
O O8 0.915688 0.274456 0.137303
O O9 0.858290 0.267704 0.318411
O O10 0.868284 0.000000 0.211694
O O11 0.658642 0.500000 0.245691
O O12 0.683773 0.214125 0.317815
O O13 0.055778 0.000000 0.965327
O O14 0.000000 0.277796 0.000000
O O15 0.193056 0.500000 0.573281
O O16 0.179593 0.785544 0.495938
O O17 0.235805 0.783834 0.610068
O O18 0.780885 0.000000 0.635947
#
# Coordination Sequence:
#
# PCOD9169301 Si02
#       7
#     8   8   8   8   8   8   8
#     4   9  16  25  37  56  83 113 141 164 193 237
#     4   8  15  25  38  58  83 110 137 167 202 241
#     4   9  16  26  42  62  85 111 138 172 207 241
#     4  10  17  26  39  57  83 112 140 168 201 238
#     4   8  14  26  44  66  88 109 136 169 207 250
#     4  10  18  28  41  58  80 110 145 176 206 244
#     4   9  18  28  38  55  81 113 144 173 205 239
#
# _framework density 18.105841000000002
#
# number of rings (size 3 to 8) (size 9 to 14) (size 15 to 20)
#    0.000    3.000    1.429    2.571    0.000    1.143 
#    0.000    0.000    0.000    0.429    0.000    1.000 
#    0.000    8.000    0.000    0.000    0.000    0.000 
#
# Total GULP energy -156032.781573 kJ/mol
# GULP energy per Si atom -5572.599342 kJ/mol
# Density = 1.806463 g / cm^3
# Si number density = 18.105841 Si / 1000 Ang^3
#
#
#
# Elastic Constant Matrix: (Units=GPa)
#
#
# Indices 1 2 3 4 5 6 
#
# 1 67.2119 -1.9231 63.6712 0.0000 0.3433 0.0000
# 2 -1.9231 48.1681 -1.1285 0.0000 1.4660 0.0000
# 3 63.6712 -1.1285 154.3643 0.0000 24.8116 0.0000
# 4 0.0000 0.0000 0.0000 8.6294 0.0000 -4.3735
# 5 0.3433 1.4660 24.8116 0.0000 25.4816 0.0000
# 6 0.0000 0.0000 0.0000 -4.3735 0.0000 4.8743
#
#
#
# Elastic Compliance Matrix: (Units=1/GPa)
#
#
# Indices 1 2 3 4 5 6 
#
# 1 0.027482 0.000400 -0.013361 0.000000 0.012616 0.000000
# 2 0.000400 0.020825 0.000214 0.000000 -0.001412 0.000000
# 3 -0.013361 0.000214 0.014183 0.000000 -0.013643 0.000000
# 4 0.000000 0.000000 0.000000 0.212532 0.000000 0.190698
# 5 0.012616 -0.001412 -0.013643 0.000000 0.052440 0.000000
# 6 0.000000 0.000000 0.000000 0.190698 0.000000 0.376265
#
#
# Mechanical properties :
#
#
# Convention : Reuss Voigt Hill
#
# Bulk Modulus (GPa) = 27.02866 43.44261 35.23563
# Shear Modulus (GPa) = 6.74262 21.73869 14.24066
#
# Velocity S-wave (km/s) = 1.93186 3.46879 2.80754
# Velocity P-wave (km/s) = 4.46505 6.33160 5.47840
#
# Compressibility (1/GPa) = 0.03699777
#
# Stress axis : x y z
#
# Youngs Moduli (GPa) = 36.38737 48.02016 70.50447
#
# Poissons Ratio (x) = -0.01922 0.94198
# Poissons Ratio (y) = -0.01456 -0.01510
# Poissons Ratio (z) = 0.48615 -0.01028
#
# Static dielectric constant tensor:
#      x y z
#    x 1.601700 0.000000 0.034060 
#    y 0.000000 1.693480 0.000000 
#    z 0.034060 0.000000 1.662980 
# 
# From -- ./inp_files/243004.got.cif
#   From: 2010.05.17/outbox.cif.g08.bks.cpg/sg12_122_cif.got.tgz:243004.got - 2010.06.03 13:09:07.
