data_PCOD9169618
_publ_section_title
;
Structure prediction by ZEFSAII (Michael W. Deem and Ramdas Pophale) SiO2 
 PCOD9169618
Probable space group: C 2/M
;
_chemical_formula_sum "Si O2"
_cell_formula_units_Z 48
_cell_length_a 15.035047
_cell_length_b 13.643338
_cell_length_c 12.703533
_cell_angle_alpha 90.000000
_cell_angle_beta 66.644480
_cell_angle_gamma 90.000000
_cell_volume 2392.336544
_symmetry_space_group_name_H-M "C 2/M"
_symmetry_group_IT_number 12
_symmetry_cell_setting 'monoclinic'
loop_
_space_group_symop_operation_xyz
x,y,z
-x,y,-z
-x,-y,-z
x,-y,z
1/2+x,1/2+y,z
1/2-x,1/2+y,-z
1/2-x,1/2-y,-z
1/2+x,1/2-y,z
loop_
_atom_site_type_symbol
_atom_site_label
_atom_site_fract_x
_atom_site_fract_y
_atom_site_fract_z
Si Si1 0.270019 0.381611 0.989784
Si Si2 0.612134 0.113327 0.487013
Si Si3 0.064527 0.709756 0.716487
Si Si4 0.395357 0.882793 0.090188
Si Si5 0.510945 0.384430 0.121356
Si Si6 0.855317 0.618225 0.756440
O O1 0.271436 0.500000 0.986006
O O2 0.231053 0.357351 0.123900
O O3 0.190029 0.347025 0.944581
O O4 0.378092 0.352937 0.911018
O O5 0.500000 0.112315 0.500000
O O6 0.617689 0.187783 0.581485
O O7 0.667419 0.142179 0.354252
O O8 0.634920 0.000000 0.506676
O O9 0.054038 0.817177 0.772588
O O10 0.955345 0.667462 0.747992
O O11 0.113833 0.647248 0.785389
O O12 0.396514 0.000000 0.081724
O O13 0.500000 0.847310 0.000000
O O14 0.496914 0.500000 0.150096
O O15 0.500000 0.373220 0.000000
O O16 0.871339 0.500000 0.753209
#
# Coordination Sequence:
#
# PCOD9169618 Si02
#       6
#     8   8   8   8   8   8
#     4   9  18  33  53  77 107 139 172 213 264 315
#     4   8  15  27  48  79 112 139 162 198 260 332
#     4  11  18  29  49  78 108 138 169 208 259 315
#     4  10  17  27  47  81 115 132 153 204 277 341
#     4  10  23  40  52  69 100 146 195 226 249 289
#     4   9  16  29  51  82 113 136 162 204 265 331
#
# _framework density 20.064067000000001
#
# number of rings (size 3 to 8) (size 9 to 14) (size 15 to 20)
#    0.000    2.500    1.667    3.000    0.000    0.667 
#    0.000    0.000    0.000    5.500    4.333    0.000 
#    0.000    0.000    0.000    0.000    0.000    0.000 
#
# Total GULP energy -133943.127649 kJ/mol
# GULP energy per Si atom -5580.963652 kJ/mol
# Density = 2.001840 g / cm^3
# Si number density = 20.064067 Si / 1000 Ang^3
#
#
#
# Elastic Constant Matrix: (Units=GPa)
#
#
# Indices 1 2 3 4 5 6 
#
# 1 50.0947 8.3612 27.4979 0.0000 9.1279 0.0000
# 2 8.3612 101.2637 41.0859 0.0000 6.2652 0.0000
# 3 27.4979 41.0859 138.8390 0.0000 25.8954 0.0000
# 4 0.0000 0.0000 0.0000 14.4589 0.0000 -11.8032
# 5 9.1279 6.2652 25.8954 0.0000 14.7564 0.0000
# 6 0.0000 0.0000 0.0000 -11.8032 0.0000 3.9535
#
#
#
# Elastic Compliance Matrix: (Units=1/GPa)
#
#
# Indices 1 2 3 4 5 6 
#
# 1 0.023239 -0.000206 -0.002790 0.000000 -0.009392 0.000000
# 2 -0.000206 0.011249 -0.003599 0.000000 0.001667 0.000000
# 3 -0.002790 -0.003599 0.012210 0.000000 -0.018172 0.000000
# 4 0.000000 0.000000 0.000000 -0.048125 0.000000 -0.143675
# 5 -0.009392 0.001667 -0.018172 0.000000 0.104758 0.000000
# 6 0.000000 0.000000 0.000000 -0.143675 0.000000 -0.176001
#
#
# Mechanical properties :
#
#
# Convention : Reuss Voigt Hill
#
# Bulk Modulus (GPa) = 29.84335 49.34304 39.59319
# Shear Modulus (GPa) = -103.49861 20.85059 -41.32401
#
# Velocity S-wave (km/s) = -7.19000 3.22716 -4.54321
# Velocity P-wave (km/s) = 7.34995 6.20743 2.78294
#
# Compressibility (1/GPa) = 0.03350831
#
# Stress axis : x y z
#
# Youngs Moduli (GPa) = 43.03043 88.89411 81.90274
#
# Poissons Ratio (x) = 0.01829 0.22852
# Poissons Ratio (y) = 0.00885 0.29478
# Poissons Ratio (z) = 0.12006 0.31994
#
# Static dielectric constant tensor:
#      x y z
#    x 1.708820 0.000000 -0.006910 
#    y 0.000000 1.734460 0.000000 
#    z -0.006910 0.000000 1.731750 
# 
# From -- ./inp_files/142844.got.cif
#   From: 2010.05.17/outbox.cif.g08.bks.cpg/sg12_72_cif.got.tgz:142844.got - 2010.06.03 13:09:07.
