data_PCOD9169231
_publ_section_title
;
Structure prediction by ZEFSAII (Michael W. Deem and Ramdas Pophale) SiO2 
 PCOD9169231
Probable space group: C 2/M
;
_chemical_formula_sum "Si O2"
_cell_formula_units_Z 48
_cell_length_a 20.393845
_cell_length_b 7.451648
_cell_length_c 31.215398
_cell_angle_alpha 90.000000
_cell_angle_beta 22.093376
_cell_angle_gamma 90.000000
_cell_volume 1784.199659
_symmetry_space_group_name_H-M "C 2/M"
_symmetry_group_IT_number 12
_symmetry_cell_setting 'monoclinic'
loop_
_space_group_symop_operation_xyz
x,y,z
-x,y,-z
-x,-y,-z
x,-y,z
1/2+x,1/2+y,z
1/2-x,1/2+y,-z
1/2-x,1/2-y,-z
1/2+x,1/2-y,z
loop_
_atom_site_type_symbol
_atom_site_label
_atom_site_fract_x
_atom_site_fract_y
_atom_site_fract_z
Si Si1 0.589755 0.217357 0.267508
Si Si2 0.091637 0.711050 0.401955
Si Si3 0.050085 0.713262 0.198839
Si Si4 0.742187 0.285180 0.443864
Si Si5 0.950055 0.219440 0.077023
Si Si6 0.477923 0.287554 0.150494
O O1 0.646993 0.268361 0.183924
O O2 0.388413 0.281284 0.390097
O O3 0.744372 0.269075 0.204844
O O4 0.581797 0.000000 0.274265
O O5 0.118399 0.500000 0.393598
O O6 0.283369 0.786917 0.277289
O O7 0.000000 0.788795 0.500000
O O8 0.952597 0.721375 0.446904
O O9 0.065920 0.500000 0.188668
O O10 0.851841 0.761633 0.333708
O O11 0.083547 0.768169 0.130356
O O12 0.735396 0.500000 0.450791
O O13 0.038867 0.281104 0.067229
O O14 0.965625 0.000000 0.065332
O O15 0.000000 0.285846 0.000000
O O16 0.462274 0.500000 0.153580
#
# Coordination Sequence:
#
# PCOD9169231 Si02
#       6
#     8   8   8   8   8   8
#     4   7  13  28  47  66  89 120 156 192 228 266
#     4  10  17  25  39  64 100 129 145 178 230 276
#     4   8  15  28  47  67  92 125 153 185 227 270
#     4   8  15  26  44  65  88 122 156 182 214 263
#     4   9  17  31  51  70  89 118 158 200 234 269
#     4  10  19  29  45  72  98 120 153 195 233 269
#
# _framework density 26.902819999999998
#
# number of rings (size 3 to 8) (size 9 to 14) (size 15 to 20)
#    1.000    2.333    1.667    0.000    0.000    1.000 
#    0.000    1.667    0.000    2.500    0.000    0.000 
#    0.000    0.000    0.000    0.000    0.000    0.000 
#
# Total GULP energy -133782.480723 kJ/mol
# GULP energy per Si atom -5574.270030 kJ/mol
# Density = 2.684159 g / cm^3
# Si number density = 26.902820 Si / 1000 Ang^3
#
#
#
# Elastic Constant Matrix: (Units=GPa)
#
#
# Indices 1 2 3 4 5 6 
#
# 1 165.8433 -6.9118 44.3116 -0.0861 -8.1350 0.0683
# 2 -6.9118 75.5009 1.4630 -0.0919 6.8193 0.0842
# 3 44.3116 1.4630 97.8655 -0.0317 5.4687 0.0614
# 4 -0.0861 -0.0919 -0.0317 -12.2770 -0.0254 21.0662
# 5 -8.1350 6.8193 5.4687 -0.0254 30.7113 0.0424
# 6 0.0683 0.0842 0.0614 21.0662 0.0424 -2.2912
#
#
#
# Elastic Compliance Matrix: (Units=1/GPa)
#
#
# Indices 1 2 3 4 5 6 
#
# 1 0.007057 0.000498 -0.003334 -0.000018 0.002352 0.000018
# 2 0.000498 0.013551 -0.000270 -0.000046 -0.002829 0.000031
# 3 -0.003334 -0.000270 0.011896 -0.000018 -0.002941 -0.000011
# 4 -0.000018 -0.000046 -0.000018 0.005513 -0.000057 0.050682
# 5 0.002352 -0.002829 -0.002941 -0.000057 0.034336 0.000001
# 6 0.000018 0.000031 -0.000011 0.050682 0.000001 0.029537
#
#
# Mechanical properties :
#
#
# Convention : Reuss Voigt Hill
#
# Bulk Modulus (GPa) = 38.03447 46.32618 42.18032
# Shear Modulus (GPa) = 42.78421 23.25173 33.01797
#
# Velocity S-wave (km/s) = 3.99221 2.94306 3.50709
# Velocity P-wave (km/s) = 5.95137 5.36713 5.66678
#
# Compressibility (1/GPa) = 0.02629194
#
# Stress axis : x y z
#
# Youngs Moduli (GPa) = 141.70842 73.79460 84.06109
#
# Poissons Ratio (x) = -0.03676 0.28027
# Poissons Ratio (y) = -0.07059 0.02270
# Poissons Ratio (z) = 0.47247 0.01993
#
# Static dielectric constant tensor:
#      x y z
#    x 2.135420 -0.000070 0.036670 
#    y -0.000070 2.034840 0.000000 
#    z 0.036670 0.000000 2.225030 
# 
# From -- ./inp_files/365377.got.cif
#   From: 2010.05.17/outbox.cif.g08.bks.cpg/sg12_183_cif.got.tgz:365377.got - 2010.06.03 13:09:07.
