data_PCOD9169540
_publ_section_title
;
Structure prediction by ZEFSAII (Michael W. Deem and Ramdas Pophale) SiO2 
 PCOD9169540
Probable space group: C 2/M
;
_chemical_formula_sum "Si O2"
_cell_formula_units_Z 56
_cell_length_a 27.337135
_cell_length_b 7.303363
_cell_length_c 14.135079
_cell_angle_alpha 90.000000
_cell_angle_beta 121.135555
_cell_angle_gamma 90.000000
_cell_volume 2415.575889
_symmetry_space_group_name_H-M "C 2/M"
_symmetry_group_IT_number 12
_symmetry_cell_setting 'monoclinic'
loop_
_space_group_symop_operation_xyz
x,y,z
-x,y,-z
-x,-y,-z
x,-y,z
1/2+x,1/2+y,z
1/2-x,1/2+y,-z
1/2-x,1/2-y,-z
1/2+x,1/2-y,z
loop_
_atom_site_type_symbol
_atom_site_label
_atom_site_fract_x
_atom_site_fract_y
_atom_site_fract_z
Si Si1 0.615702 0.707768 0.419769
Si Si2 0.637692 0.276232 0.032919
Si Si3 0.769994 0.720284 0.376456
Si Si4 0.769994 0.279716 0.163532
Si Si5 0.115702 0.792232 0.811635
Si Si6 0.432508 0.719636 0.432508
Si Si7 0.637692 0.723768 0.242465
O O1 0.593325 0.500000 0.394492
O O2 0.684247 0.703987 0.504797
O O3 0.591846 0.792934 0.492451
O O4 0.606052 0.787062 0.305772
O O5 0.637129 0.500000 0.030846
O O6 0.704343 0.221065 0.090667
O O7 0.617460 0.220990 0.117460
O O8 0.606052 0.212938 0.906332
O O9 0.771015 0.500000 0.384738
O O10 0.789198 0.770589 0.289198
O O11 0.704343 0.778935 0.318019
O O12 0.771016 0.500000 0.157293
O O13 0.815753 0.203987 0.136303
O O14 0.091846 0.707066 0.691241
O O15 0.093325 0.000000 0.792158
O O16 0.500000 0.745355 0.500000
O O17 0.420131 0.500000 0.420131
O O18 0.637129 0.500000 0.243412
#
# Coordination Sequence:
#
# PCOD9169540 Si02
#       7
#     8   8   8   8   8   8   8
#     4  10  17  27  45  62  80 110 146 178 204 246
#     4   8  15  26  40  61  87 114 140 165 204 254
#     4   9  16  26  40  60  89 117 135 163 210 256
#     4   9  16  26  40  60  89 117 135 163 210 256
#     4  10  17  27  45  62  80 110 146 178 204 246
#     4   9  18  30  43  63  87 109 139 183 228 251
#     4   8  15  26  40  61  87 114 140 165 204 254
#
# _framework density 23.182877000000001
#
# number of rings (size 3 to 8) (size 9 to 14) (size 15 to 20)
#    0.000    3.000    1.429    2.571    0.000    0.000 
#    0.000    0.000    0.000    3.429    0.000    6.000 
#    0.000    0.000    0.000    2.571    0.000    2.857 
#
# Total GULP energy -156211.512612 kJ/mol
# GULP energy per Si atom -5578.982593 kJ/mol
# Density = 2.313011 g / cm^3
# Si number density = 23.182877 Si / 1000 Ang^3
#
#
#
# Elastic Constant Matrix: (Units=GPa)
#
#
# Indices 1 2 3 4 5 6 
#
# 1 56.9748 5.2821 75.7203 0.0000 -38.2820 0.0000
# 2 5.2821 96.6471 8.8988 0.0000 -3.1321 0.0000
# 3 75.7203 8.8988 186.7381 0.0000 -74.0959 0.0000
# 4 0.0000 0.0000 0.0000 -4.9680 0.0000 -0.3461
# 5 -38.2820 -3.1321 -74.0959 0.0000 43.7451 0.0000
# 6 0.0000 0.0000 0.0000 -0.3461 0.0000 -5.3675
#
#
#
# Elastic Compliance Matrix: (Units=1/GPa)
#
#
# Indices 1 2 3 4 5 6 
#
# 1 0.046504 -0.000920 -0.008207 0.000000 0.026729 0.000000
# 2 -0.000920 0.010412 -0.000448 0.000000 -0.000818 0.000000
# 3 -0.008207 -0.000448 0.017815 0.000000 0.022961 0.000000
# 4 0.000000 0.000000 0.000000 -0.202196 0.000000 0.013036
# 5 0.026729 -0.000818 0.022961 0.000000 0.085084 0.000000
# 6 0.000000 0.000000 0.000000 0.013036 0.000000 -0.187146
#
#
# Mechanical properties :
#
#
# Convention : Reuss Voigt Hill
#
# Bulk Modulus (GPa) = 17.99147 57.79579 37.89363
# Shear Modulus (GPa) = -26.06189 23.37918 -1.34136
#
# Velocity S-wave (km/s) = -3.35653 3.17908 -0.76148
# Velocity P-wave (km/s) = 2.69150 6.20161 3.95068
#
# Compressibility (1/GPa) = 0.05558189
#
# Stress axis : x y z
#
# Youngs Moduli (GPa) = 21.50361 96.04385 56.13210
#
# Poissons Ratio (x) = 0.08833 0.46069
# Poissons Ratio (y) = 0.01978 0.02513
# Poissons Ratio (z) = 0.17648 0.04299
#
# Static dielectric constant tensor:
#      x y z
#    x 1.842130 0.000000 -0.058000 
#    y 0.000000 1.864700 0.000000 
#    z -0.058000 0.000000 1.909110 
# 
# From -- ./inp_files/248579.got.cif
#   From: 2010.05.17/outbox.cif.g08.bks.cpg/sg12_125_cif.got.tgz:248579.got - 2010.06.03 13:09:07.
