data_PCOD9169033
_publ_section_title
;
Structure prediction by ZEFSAII (Michael W. Deem and Ramdas Pophale) SiO2 
 PCOD9169033
Probable space group: C 2/M
;
_chemical_formula_sum "Si O2"
_cell_formula_units_Z 32
_cell_length_a 14.364759
_cell_length_b 19.827212
_cell_length_c 9.998788
_cell_angle_alpha 90.000000
_cell_angle_beta 153.890628
_cell_angle_gamma 90.000000
_cell_volume 1253.270922
_symmetry_space_group_name_H-M "C 2/M"
_symmetry_group_IT_number 12
_symmetry_cell_setting 'monoclinic'
loop_
_space_group_symop_operation_xyz
x,y,z
-x,y,-z
-x,-y,-z
x,-y,z
1/2+x,1/2+y,z
1/2-x,1/2+y,-z
1/2-x,1/2-y,-z
1/2+x,1/2-y,z
loop_
_atom_site_type_symbol
_atom_site_label
_atom_site_fract_x
_atom_site_fract_y
_atom_site_fract_z
Si Si1 0.752721 0.706796 0.707698
Si Si2 0.273570 0.500000 0.773798
Si Si3 0.320708 0.647911 0.114100
Si Si4 0.185841 0.000000 0.850212
Si Si5 0.751795 0.854052 0.719130
O O1 0.577580 0.653831 0.429085
O O2 0.731404 0.702108 0.840754
O O3 0.687448 0.782092 0.574000
O O4 0.000000 0.694412 0.000000
O O5 0.167500 0.430219 0.589358
O O6 0.500000 0.500000 0.000000
O O7 0.323076 0.500000 0.996920
O O8 0.241752 0.577283 0.074729
O O9 0.230221 0.654577 0.850551
O O10 0.000000 0.000000 0.500000
O O11 0.000000 0.857634 0.000000
#
# Coordination Sequence:
#
# PCOD9169033 Si02
#       5
#     8   4   8   4   8
#     4  10  20  32  52  79 104 135 170 210 258 308
#     4   8  16  30  50  75 102 133 175 214 251 307
#     4  10  20  36  53  75 108 134 169 218 256 300
#     4  10  16  32  56  74  98 140 174 208 260 306
#     4   9  18  32  53  77 101 137 174 208 257 309
#
# _framework density 25.533187000000002
#
# number of rings (size 3 to 8) (size 9 to 14) (size 15 to 20)
#    0.000    2.500    2.500    0.750    0.000    4.000 
#    0.000    2.500    0.000    3.000    0.000   31.500 
#    0.000    0.000    0.000    0.000    0.000    0.000 
#
# Total GULP energy -89150.798339 kJ/mol
# GULP energy per Si atom -5571.924896 kJ/mol
# Density = 2.547507 g / cm^3
# Si number density = 25.533187 Si / 1000 Ang^3
#
#
#
# Elastic Constant Matrix: (Units=GPa)
#
#
# Indices 1 2 3 4 5 6 
#
# 1 54.7070 -1.2668 22.8043 0.0000 13.7545 0.0000
# 2 -1.2668 201.7879 23.7183 0.0000 4.7862 0.0000
# 3 22.8043 23.7183 152.3221 0.0001 5.4662 0.0000
# 4 0.0000 0.0000 0.0001 4.0978 0.0000 1.7692
# 5 13.7545 4.7862 5.4662 0.0000 35.5843 0.0000
# 6 0.0000 0.0000 0.0000 1.7692 0.0000 30.1428
#
#
#
# Elastic Compliance Matrix: (Units=1/GPa)
#
#
# Indices 1 2 3 4 5 6 
#
# 1 0.021567 0.000683 -0.003050 0.000000 -0.007960 0.000000
# 2 0.000683 0.005081 -0.000864 0.000000 -0.000815 0.000000
# 3 -0.003050 -0.000864 0.007149 0.000000 0.000197 0.000000
# 4 0.000000 0.000000 0.000000 0.250377 0.000000 -0.014696
# 5 -0.007960 -0.000815 0.000197 0.000000 0.031258 0.000000
# 6 0.000000 0.000000 0.000000 -0.014696 0.000000 0.034038
#
#
# Mechanical properties :
#
#
# Convention : Reuss Voigt Hill
#
# Bulk Modulus (GPa) = 36.58262 55.48094 46.03178
# Shear Modulus (GPa) = 13.69694 38.20239 25.94967
#
# Velocity S-wave (km/s) = 2.31862 3.87225 3.19142
# Velocity P-wave (km/s) = 4.63968 6.46286 5.62562
#
# Compressibility (1/GPa) = 0.02733538
#
# Stress axis : x y z
#
# Youngs Moduli (GPa) = 46.36612 196.81655 139.87819
#
# Poissons Ratio (x) = -0.13436 0.42656
# Poissons Ratio (y) = -0.03165 0.12087
# Poissons Ratio (z) = 0.14140 0.17007
#
# Static dielectric constant tensor:
#      x y z
#    x 1.972210 0.000000 0.081080 
#    y 0.000000 2.088630 0.000000 
#    z 0.081080 0.000000 2.250670 
# 
# From -- ./inp_files/131500.got.cif
#   From: 2010.05.17/outbox.cif.g08.bks.cpg/sg12_66_cif.got.tgz:131500.got - 2010.06.03 13:09:07.
