data_PCOD9169894
_publ_section_title
;
Structure prediction by ZEFSAII (Michael W. Deem and Ramdas Pophale) SiO2 
 PCOD9169894
Probable space group: C 2/M
;
_chemical_formula_sum "Si O2"
_cell_formula_units_Z 48
_cell_length_a 19.566647
_cell_length_b 24.396603
_cell_length_c 8.148951
_cell_angle_alpha 90.000000
_cell_angle_beta 39.563101
_cell_angle_gamma 90.000000
_cell_volume 2477.636392
_symmetry_space_group_name_H-M "C 2/M"
_symmetry_group_IT_number 12
_symmetry_cell_setting 'monoclinic'
loop_
_space_group_symop_operation_xyz
x,y,z
-x,y,-z
-x,-y,-z
x,-y,z
1/2+x,1/2+y,z
1/2-x,1/2+y,-z
1/2-x,1/2-y,-z
1/2+x,1/2-y,z
loop_
_atom_site_type_symbol
_atom_site_label
_atom_site_fract_x
_atom_site_fract_y
_atom_site_fract_z
Si Si1 0.905098 0.561927 0.310998
Si Si2 0.245286 0.836273 0.564881
Si Si3 0.741525 0.322603 0.190856
Si Si4 0.377170 0.708147 0.907545
Si Si5 0.455426 0.870079 0.750137
Si Si6 0.047644 0.731129 0.747108
O O1 0.863779 0.500000 0.389131
O O2 0.812295 0.606896 0.455388
O O3 0.972066 0.577271 0.350568
O O4 0.000000 0.565490 0.000000
O O5 0.208261 0.829621 0.443584
O O6 0.159099 0.828983 0.869727
O O7 0.331865 0.788202 0.447754
O O8 0.808542 0.265288 0.049022
O O9 0.658324 0.320386 0.195139
O O10 0.828124 0.370689 0.991021
O O11 0.499912 0.728863 0.698217
O O12 0.500000 0.844969 0.500000
O O13 0.488266 0.826928 0.829061
O O14 0.000000 0.755326 0.000000
#
# Coordination Sequence:
#
# PCOD9169894 Si02
#       6
#     8   8   8   8   8   8
#     4  10  19  32  49  68  91 126 171 205 237 291
#     4  11  18  35  52  65 100 140 162 197 245 282
#     4  10  18  31  44  69  95 127 174 196 227 292
#     4  10  21  30  46  71  94 131 169 201 233 286
#     4  10  17  29  46  65  93 130 164 200 234 280
#     4  10  18  32  45  66  97 130 173 194 235 293
#
# _framework density 19.373303
#
# number of rings (size 3 to 8) (size 9 to 14) (size 15 to 20)
#    0.000    1.833    5.000    3.500    0.000    0.333 
#    0.000    0.000    0.000    0.000    0.000    0.000 
#    0.000    0.667    0.000    3.167    0.333    9.667 
#
# Total GULP energy -133688.470993 kJ/mol
# GULP energy per Si atom -5570.352958 kJ/mol
# Density = 1.932921 g / cm^3
# Si number density = 19.373303 Si / 1000 Ang^3
#
#
#
# Elastic Constant Matrix: (Units=GPa)
#
#
# Indices 1 2 3 4 5 6 
#
# 1 130.0394 37.9158 35.2934 0.0000 25.1734 0.0000
# 2 37.9158 93.0166 24.2076 0.0000 1.8382 0.0000
# 3 35.2934 24.2076 72.1937 0.0000 19.3110 0.0000
# 4 0.0000 0.0000 0.0000 23.8505 0.0000 5.7584
# 5 25.1734 1.8382 19.3110 0.0000 20.9679 0.0000
# 6 0.0000 0.0000 0.0000 5.7584 0.0000 42.4987
#
#
#
# Elastic Compliance Matrix: (Units=1/GPa)
#
#
# Indices 1 2 3 4 5 6 
#
# 1 0.011649 -0.004281 -0.000821 0.000000 -0.012854 0.000000
# 2 -0.004281 0.013544 -0.004652 0.000000 0.008236 0.000000
# 3 -0.000821 -0.004652 0.020487 0.000000 -0.017474 0.000000
# 4 0.000000 0.000000 0.000000 0.043346 0.000000 -0.005873
# 5 -0.012854 0.008236 -0.017474 0.000000 0.078496 0.000000
# 6 0.000000 0.000000 0.000000 -0.005873 0.000000 0.024326
#
#
# Mechanical properties :
#
#
# Convention : Reuss Voigt Hill
#
# Bulk Modulus (GPa) = 38.20795 54.45369 46.33082
# Shear Modulus (GPa) = 22.71906 30.65228 26.68567
#
# Velocity S-wave (km/s) = 3.42818 3.98199 3.71542
# Velocity P-wave (km/s) = 5.95271 7.02213 6.50942
#
# Compressibility (1/GPa) = 0.02617256
#
# Stress axis : x y z
#
# Youngs Moduli (GPa) = 85.84127 73.83573 48.81119
#
# Poissons Ratio (x) = 0.31608 0.04009
# Poissons Ratio (y) = 0.36747 0.22705
# Poissons Ratio (z) = 0.07050 0.34346
#
# Static dielectric constant tensor:
#      x y z
#    x 1.968800 0.000000 0.114930 
#    y 0.000000 1.671460 0.000000 
#    z 0.114930 0.000000 1.800440 
# 
# From -- ./inp_files/90073.got.cif
#   From: 2010.05.17/outbox.cif.g08.bks.cpg/sg12_46_cif.got.tgz:90073.got - 2010.06.03 13:09:07.
