data_PCOD9169600
_publ_section_title
;
Structure prediction by ZEFSAII (Michael W. Deem and Ramdas Pophale) SiO2 
 PCOD9169600
Probable space group: C 2/M
;
_chemical_formula_sum "Si O2"
_cell_formula_units_Z 50
_cell_length_a 14.003625
_cell_length_b 17.351719
_cell_length_c 9.390899
_cell_angle_alpha 90.000000
_cell_angle_beta 120.903338
_cell_angle_gamma 90.000000
_cell_volume 1957.920909
_symmetry_space_group_name_H-M "C 2/M"
_symmetry_group_IT_number 12
_symmetry_cell_setting 'monoclinic'
loop_
_space_group_symop_operation_xyz
x,y,z
-x,y,-z
-x,-y,-z
x,-y,z
1/2+x,1/2+y,z
1/2-x,1/2+y,-z
1/2-x,1/2-y,-z
1/2+x,1/2-y,z
loop_
_atom_site_type_symbol
_atom_site_label
_atom_site_fract_x
_atom_site_fract_y
_atom_site_fract_z
Si Si1 0.081485 0.892797 0.298878
Si Si2 0.071401 0.741724 0.181256
Si Si3 0.416831 0.918356 0.726661
Si Si4 0.700215 0.252509 0.802976
Si Si5 0.173496 0.587391 0.656243
Si Si6 0.500000 0.500000 0.000000
Si Si7 0.666778 0.417208 0.668830
O O1 0.067059 0.801279 0.303911
O O2 0.199204 0.908468 0.305613
O O3 0.095085 0.920227 0.469389
O O4 0.998696 0.933870 0.127163
O O5 0.024310 0.658184 0.177128
O O6 0.197334 0.740343 0.228100
O O7 0.000000 0.775470 0.000000
O O8 0.398924 0.912326 0.543601
O O9 0.294767 0.917021 0.706838
O O10 0.470558 0.000000 0.802710
O O11 0.652397 0.166805 0.727211
O O12 0.645378 0.337386 0.736258
O O13 0.750000 0.250000 0.000000
O O14 0.161906 0.500000 0.711925
O O15 0.654446 0.500000 0.735903
#
# Coordination Sequence:
#
# PCOD9169600 Si02
#       7
#     8   8   8   8   8   2   8
#     4  10  17  27  46  76 101 125 157 203 245 294
#     4  10  19  30  48  74  98 126 154 201 253 289
#     4   8  15  28  48  72  93 117 160 208 245 288
#     4  10  21  33  48  72  99 129 167 203 236 289
#     4   9  16  30  49  69  92 124 163 204 242 280
#     4  12  16  24  44  80 108 120 150 206 256 298
#     4   9  16  30  49  69  98 129 164 202 247 285
#
# _framework density 25.537292999999998
#
# number of rings (size 3 to 8) (size 9 to 14) (size 15 to 20)
#    0.000    2.560    2.400    1.920    0.000    4.800 
#    0.000    0.000    0.000    3.840    0.000    7.840 
#    0.000    0.000    0.000    0.000    0.000    0.000 
#
# Total GULP energy -139267.860103 kJ/mol
# GULP energy per Si atom -5570.714404 kJ/mol
# Density = 2.547917 g / cm^3
# Si number density = 25.537293 Si / 1000 Ang^3
#
#
#
# Elastic Constant Matrix: (Units=GPa)
#
#
# Indices 1 2 3 4 5 6 
#
# 1 100.1838 8.6849 -5.6258 0.0000 -21.8373 0.0000
# 2 8.6849 307.2692 76.1761 0.0000 -18.5987 0.0000
# 3 -5.6258 76.1761 79.6279 0.0000 -16.5384 0.0000
# 4 0.0000 0.0000 0.0000 29.8771 0.0000 -0.9214
# 5 -21.8373 -18.5987 -16.5384 0.0000 19.4136 0.0000
# 6 0.0000 0.0000 0.0000 -0.9214 0.0000 -6.2346
#
#
#
# Elastic Compliance Matrix: (Units=1/GPa)
#
#
# Indices 1 2 3 4 5 6 
#
# 1 0.015099 -0.000650 0.006180 0.000000 0.021626 0.000000
# 2 -0.000650 0.004303 -0.004201 0.000000 -0.000188 0.000000
# 3 0.006180 -0.004201 0.021411 0.000000 0.021166 0.000000
# 4 0.000000 0.000000 0.000000 0.033319 0.000000 -0.004924
# 5 0.021626 -0.000188 0.021166 0.000000 0.093689 0.000000
# 6 0.000000 0.000000 0.000000 -0.004924 0.000000 -0.159669
#
#
# Mechanical properties :
#
#
# Convention : Reuss Voigt Hill
#
# Bulk Modulus (GPa) = 23.00419 71.72792 47.36606
# Shear Modulus (GPa) = 250.20324 35.80094 143.00209
#
# Velocity S-wave (km/s) = 9.90900 3.74827 7.49126
# Velocity P-wave (km/s) = 11.82985 6.84698 9.66506
#
# Compressibility (1/GPa) = 0.04347034
#
# Stress axis : x y z
#
# Youngs Moduli (GPa) = 66.22955 232.39206 46.70590
#
# Poissons Ratio (x) = 0.15103 -0.28865
# Poissons Ratio (y) = 0.04304 0.19623
# Poissons Ratio (z) = -0.40931 0.97639
#
# Static dielectric constant tensor:
#      x y z
#    x 2.063170 0.000000 0.028100 
#    y 0.000000 2.060280 0.000000 
#    z 0.028100 0.000000 1.911390 
# 
# From -- ./inp_files/76062.got.cif
#   From: 2010.05.17/outbox.cif.g08.bks.cpg/sg12_39_cif.got.tgz:76062.got - 2010.06.03 13:09:07.
