data_PCOD9169755
_publ_section_title
;
Structure prediction by ZEFSAII (Michael W. Deem and Ramdas Pophale) SiO2 
 PCOD9169755
Probable space group: C 2/M
;
_chemical_formula_sum "Si O2"
_cell_formula_units_Z 56
_cell_length_a 10.056762
_cell_length_b 13.739326
_cell_length_c 16.393063
_cell_angle_alpha 90.000000
_cell_angle_beta 82.994110
_cell_angle_gamma 90.000000
_cell_volume 2248.168893
_symmetry_space_group_name_H-M "C 2/M"
_symmetry_group_IT_number 12
_symmetry_cell_setting 'monoclinic'
loop_
_space_group_symop_operation_xyz
x,y,z
-x,y,-z
-x,-y,-z
x,-y,z
1/2+x,1/2+y,z
1/2-x,1/2+y,-z
1/2-x,1/2-y,-z
1/2+x,1/2-y,z
loop_
_atom_site_type_symbol
_atom_site_label
_atom_site_fract_x
_atom_site_fract_y
_atom_site_fract_z
Si Si1 0.678158 0.843592 0.916403
Si Si2 0.625932 0.839461 0.093014
Si Si3 0.027313 0.115689 0.370353
Si Si4 0.047555 0.385546 0.607007
Si Si5 0.283406 0.616653 0.485595
Si Si6 0.205707 0.388322 0.265007
Si Si7 0.734407 0.825684 0.742480
O O1 0.526529 0.809924 0.911229
O O2 0.782746 0.755827 0.912402
O O3 0.713310 0.887329 0.826099
O O4 0.673266 0.892564 0.005768
O O5 0.636883 0.890088 0.179974
O O6 0.120745 0.131537 0.443006
O O7 0.108981 0.164612 0.292280
O O8 0.877347 0.149816 0.403693
O O9 0.025087 0.000000 0.357629
O O10 0.042009 0.500000 0.591029
O O11 0.136477 0.345522 0.523344
O O12 0.143160 0.367544 0.677601
O O13 0.899253 0.365201 0.653378
O O14 0.272294 0.500000 0.475807
O O15 0.257110 0.500000 0.273875
O O16 0.294658 0.290473 0.248869
#
# Coordination Sequence:
#
# PCOD9169755 Si02
#       7
#     8   8   8   8   8   8   8
#     4   9  17  29  50  75 102 129 170 207 259 306
#     4   9  17  32  49  74  99 134 167 212 252 310
#     4   8  13  23  41  68  95 121 155 204 258 307
#     4   9  16  29  49  73  97 124 160 209 258 308
#     4   7  11  21  40  65  94 121 150 195 258 308
#     4  10  20  32  46  69 101 133 169 208 251 304
#     4  10  17  28  47  70  95 131 163 205 252 305
#
# _framework density 24.909158999999999
#
# number of rings (size 3 to 8) (size 9 to 14) (size 15 to 20)
#    0.000    3.143    1.429    2.143    0.000    0.000 
#    0.000    3.571    0.000    1.714    0.000   84.000 
#    0.000    0.000    0.000    0.000    0.000    0.286 
#
# Total GULP energy -156081.693680 kJ/mol
# GULP energy per Si atom -5574.346203 kJ/mol
# Density = 2.485246 g / cm^3
# Si number density = 24.909159 Si / 1000 Ang^3
#
#
#
# Elastic Constant Matrix: (Units=GPa)
#
#
# Indices 1 2 3 4 5 6 
#
# 1 91.6280 26.5378 24.2231 0.0000 -10.5802 0.0000
# 2 26.5378 103.3295 15.9859 0.0000 -14.1725 0.0000
# 3 24.2231 15.9859 174.4899 0.0000 -6.3653 0.0000
# 4 0.0000 0.0000 0.0000 60.0685 0.0000 -9.9992
# 5 -10.5802 -14.1725 -6.3653 0.0000 42.0440 0.0000
# 6 0.0000 0.0000 0.0000 -9.9992 0.0000 15.9449
#
#
#
# Elastic Compliance Matrix: (Units=1/GPa)
#
#
# Indices 1 2 3 4 5 6 
#
# 1 0.012282 -0.002668 -0.001388 0.000000 0.001981 0.000000
# 2 -0.002668 0.010841 -0.000517 0.000000 0.002905 0.000000
# 3 -0.001388 -0.000517 0.005985 0.000000 0.000383 0.000000
# 4 0.000000 0.000000 0.000000 0.018588 0.000000 0.011657
# 5 0.001981 0.002905 0.000383 0.000000 0.025320 0.000000
# 6 0.000000 0.000000 0.000000 0.011657 0.000000 0.070026
#
#
# Mechanical properties :
#
#
# Convention : Reuss Voigt Hill
#
# Bulk Modulus (GPa) = 50.09432 55.88233 52.98833
# Shear Modulus (GPa) = 31.47759 43.79153 37.63456
#
# Velocity S-wave (km/s) = 3.55871 4.19746 3.89121
# Velocity P-wave (km/s) = 6.08608 6.78046 6.44263
#
# Compressibility (1/GPa) = 0.01996234
#
# Stress axis : x y z
#
# Youngs Moduli (GPa) = 81.41888 92.23944 167.08348
#
# Poissons Ratio (x) = 0.24608 0.23197
# Poissons Ratio (y) = 0.21721 0.08637
# Poissons Ratio (z) = 0.11304 0.04768
#
# Static dielectric constant tensor:
#      x y z
#    x 2.008850 0.000000 0.018040 
#    y 0.000000 1.954360 0.000000 
#    z 0.018040 0.000000 2.096290 
# 
# From -- ./inp_files/262843.got.cif
#   From: 2010.05.17/outbox.cif.g08.bks.cpg/sg12_132_cif.got.tgz:262843.got - 2010.06.03 13:09:07.
