data_PCOD9169630
_publ_section_title
;
Structure prediction by ZEFSAII (Michael W. Deem and Ramdas Pophale) SiO2 
 PCOD9169630
Probable space group: C 2/M
;
_chemical_formula_sum "Si O2"
_cell_formula_units_Z 64
_cell_length_a 29.564609
_cell_length_b 13.500902
_cell_length_c 10.154733
_cell_angle_alpha 90.000000
_cell_angle_beta 94.239849
_cell_angle_gamma 90.000000
_cell_volume 4042.157859
_symmetry_space_group_name_H-M "C 2/M"
_symmetry_group_IT_number 12
_symmetry_cell_setting 'monoclinic'
loop_
_space_group_symop_operation_xyz
x,y,z
-x,y,-z
-x,-y,-z
x,-y,z
1/2+x,1/2+y,z
1/2-x,1/2+y,-z
1/2-x,1/2-y,-z
1/2+x,1/2-y,z
loop_
_atom_site_type_symbol
_atom_site_label
_atom_site_fract_x
_atom_site_fract_y
_atom_site_fract_z
Si Si1 0.580275 0.382352 0.814438
Si Si2 0.764911 0.882141 0.113760
Si Si3 0.202488 0.764120 0.418224
Si Si4 0.665648 0.883811 0.212561
Si Si5 0.699658 0.614557 0.157863
Si Si6 0.835555 0.882125 0.353508
Si Si7 0.894034 0.209501 0.905679
Si Si8 0.517995 0.612670 0.155515
O O1 0.583256 0.500000 0.855470
O O2 0.615673 0.369159 0.704474
O O3 0.527351 0.363666 0.772336
O O4 0.594355 0.312510 0.939352
O O5 0.712442 0.873056 0.139912
O O6 0.797879 0.846529 0.238066
O O7 0.775016 0.000000 0.109534
O O8 0.778240 0.844794 0.972024
O O9 0.250000 0.750000 0.500000
O O10 0.178528 0.665551 0.356015
O O11 0.213078 0.827894 0.290810
O O12 0.170881 0.823133 0.513205
O O13 0.627480 0.815475 0.135936
O O14 0.654605 0.000000 0.218794
O O15 0.711009 0.500000 0.173618
O O16 0.645848 0.631655 0.134380
O O17 0.828457 0.000000 0.375297
O O18 0.939131 0.184461 0.832850
O O19 0.532476 0.500000 0.187960
O O20 0.500000 0.613387 0.000000
#
# Coordination Sequence:
#
# PCOD9169630 Si02
#       8
#     8   8   8   8   8   8   8   8
#     4   9  16  28  50  79 108 132 150 185 250 313
#     4   9  17  31  50  69  97 130 158 195 244 293
#     4  11  22  32  47  70  94 134 173 204 242 287
#     4  10  22  36  48  64  94 135 175 214 246 275
#     4  10  19  30  47  73  99 124 159 199 242 296
#     4  10  18  31  51  75 105 132 156 193 244 303
#     4  10  17  27  49  74  97 128 165 201 237 295
#     4   8  14  25  45  76 108 127 147 189 248 307
#
# _framework density 15.833126999999999
#
# number of rings (size 3 to 8) (size 9 to 14) (size 15 to 20)
#    0.000    2.375    2.500    2.250    0.000    3.500 
#    0.000    0.000    0.000    7.125    0.000   12.250 
#    0.000    0.000    0.000    0.000    0.000    0.000 
#
# Total GULP energy -178243.456595 kJ/mol
# GULP energy per Si atom -5570.108019 kJ/mol
# Density = 1.579709 g / cm^3
# Si number density = 15.833127 Si / 1000 Ang^3
#
#
#
# Elastic Constant Matrix: (Units=GPa)
#
#
# Indices 1 2 3 4 5 6 
#
# 1 99.6279 37.9016 34.2510 0.0000 -9.8587 0.0000
# 2 37.9016 86.1099 39.1906 0.0000 -6.7793 0.0000
# 3 34.2510 39.1906 82.1504 0.0000 -11.6475 0.0000
# 4 0.0000 0.0000 0.0000 14.2888 0.0000 4.7517
# 5 -9.8587 -6.7793 -11.6475 0.0000 14.3689 0.0000
# 6 0.0000 0.0000 0.0000 4.7517 0.0000 26.4574
#
#
#
# Elastic Compliance Matrix: (Units=1/GPa)
#
#
# Indices 1 2 3 4 5 6 
#
# 1 0.013025 -0.004080 -0.002813 0.000000 0.004731 0.000000
# 2 -0.004080 0.016138 -0.006005 0.000000 -0.000053 0.000000
# 3 -0.002813 -0.006005 0.017552 0.000000 0.009465 0.000000
# 4 0.000000 0.000000 0.000000 0.074430 0.000000 -0.013368
# 5 0.004731 -0.000053 0.009465 0.000000 0.080488 0.000000
# 6 0.000000 0.000000 0.000000 -0.013368 0.000000 0.040197
#
#
# Mechanical properties :
#
#
# Convention : Reuss Voigt Hill
#
# Bulk Modulus (GPa) = 47.80523 54.50829 51.15676
# Shear Modulus (GPa) = 18.20826 21.45934 19.83380
#
# Velocity S-wave (km/s) = 3.39486 3.68549 3.54316
# Velocity P-wave (km/s) = 6.75466 7.25341 7.00847
#
# Compressibility (1/GPa) = 0.02091821
#
# Stress axis : x y z
#
# Youngs Moduli (GPa) = 76.77614 61.96631 56.97211
#
# Poissons Ratio (x) = 0.25283 0.16028
# Poissons Ratio (y) = 0.31325 0.34212
# Poissons Ratio (z) = 0.21599 0.37212
#
# Static dielectric constant tensor:
#      x y z
#    x 1.550570 0.000000 -0.003010 
#    y 0.000000 1.546680 0.000000 
#    z -0.003010 0.000000 1.544510 
# 
# From -- ./inp_files/111271.got.cif
#   From: 2010.05.17/outbox.cif.g08.bks.cpg/sg12_56_cif.got.tgz:111271.got - 2010.06.03 13:09:07.
