data_PCOD9169500
_publ_section_title
;
Structure prediction by ZEFSAII (Michael W. Deem and Ramdas Pophale) SiO2 
 PCOD9169500
Probable space group: C 2/M
;
_chemical_formula_sum "Si O2"
_cell_formula_units_Z 64
_cell_length_a 26.385384
_cell_length_b 13.910281
_cell_length_c 13.745842
_cell_angle_alpha 90.000000
_cell_angle_beta 135.442354
_cell_angle_gamma 90.000000
_cell_volume 3539.783217
_symmetry_space_group_name_H-M "C 2/M"
_symmetry_group_IT_number 12
_symmetry_cell_setting 'monoclinic'
loop_
_space_group_symop_operation_xyz
x,y,z
-x,y,-z
-x,-y,-z
x,-y,z
1/2+x,1/2+y,z
1/2-x,1/2+y,-z
1/2-x,1/2-y,-z
1/2+x,1/2-y,z
loop_
_atom_site_type_symbol
_atom_site_label
_atom_site_fract_x
_atom_site_fract_y
_atom_site_fract_z
Si Si1 0.018166 0.745292 0.627316
Si Si2 0.274799 0.610774 0.341591
Si Si3 0.461640 0.389519 0.051683
Si Si4 0.073682 0.112491 0.380863
Si Si5 0.110219 0.611986 0.862472
Si Si6 0.648243 0.390999 0.764737
Si Si7 0.674354 0.752051 0.113841
Si Si8 0.758236 0.390740 0.096012
O O1 0.038013 0.667673 0.735235
O O2 0.086166 0.815280 0.701798
O O3 0.000000 0.697819 0.500000
O O4 0.955582 0.815449 0.578037
O O5 0.249220 0.500000 0.316431
O O6 0.340027 0.627011 0.507108
O O7 0.312395 0.617762 0.285479
O O8 0.212044 0.690218 0.253305
O O9 0.436090 0.500000 0.032574
O O10 0.522588 0.370915 0.217460
O O11 0.500000 0.384340 0.000000
O O12 0.394540 0.316596 0.962774
O O13 0.064556 0.000000 0.396274
O O14 0.101580 0.500000 0.871686
O O15 0.162340 0.621706 0.839592
O O16 0.147929 0.666647 0.002393
O O17 0.618698 0.500000 0.729428
O O18 0.705928 0.380723 0.930750
O O19 0.733781 0.685771 0.141553
O O20 0.750822 0.500000 0.122330
#
# Coordination Sequence:
#
# PCOD9169500 Si02
#       8
#     8   8   8   8   8   8   8   8
#     4  12  21  29  47  73 106 152 190 219 263 321
#     4  10  20  31  49  79 113 143 174 218 268 319
#     4  10  22  41  64  87 107 132 177 236 288 331
#     4  10  20  35  54  82 113 141 178 228 282 326
#     4  11  22  33  46  71 110 152 192 225 255 311
#     4  10  17  27  43  72 107 137 175 221 263 304
#     4  12  19  33  57  81 105 144 185 225 274 329
#     4  10  19  30  48  75 107 140 179 223 262 312
#
# _framework density 18.080204999999999
#
# number of rings (size 3 to 8) (size 9 to 14) (size 15 to 20)
#    0.000    1.375    5.000    2.250    0.000    2.750 
#    0.000    0.625    0.000    1.500    0.000    0.000 
#    0.000    0.000    0.000    0.000    0.000    0.000 
#
# Total GULP energy -178598.846377 kJ/mol
# GULP energy per Si atom -5581.213949 kJ/mol
# Density = 1.803905 g / cm^3
# Si number density = 18.080205 Si / 1000 Ang^3
#
#
#
# Elastic Constant Matrix: (Units=GPa)
#
#
# Indices 1 2 3 4 5 6 
#
# 1 20.8360 23.6554 12.4361 0.0000 1.4056 0.0000
# 2 23.6554 111.4459 50.5074 0.0000 16.4558 0.0000
# 3 12.4361 50.5074 82.1832 0.0000 15.0179 0.0000
# 4 0.0000 0.0000 0.0000 25.9018 0.0000 4.1743
# 5 1.4056 16.4558 15.0179 0.0000 13.8155 0.0000
# 6 0.0000 0.0000 0.0000 4.1743 0.0000 15.1130
#
#
#
# Elastic Compliance Matrix: (Units=1/GPa)
#
#
# Indices 1 2 3 4 5 6 
#
# 1 0.065552 -0.014358 -0.003746 0.000000 0.014505 0.000000
# 2 -0.014358 0.016357 -0.005723 0.000000 -0.011800 0.000000
# 3 -0.003746 -0.005723 0.018639 0.000000 -0.013063 0.000000
# 4 0.000000 0.000000 0.000000 0.040406 0.000000 -0.011160
# 5 0.014505 -0.011800 -0.013063 0.000000 0.099162 0.000000
# 6 0.000000 0.000000 0.000000 -0.011160 0.000000 0.069251
#
#
# Mechanical properties :
#
#
# Convention : Reuss Voigt Hill
#
# Bulk Modulus (GPa) = 18.90592 43.07366 30.98979
# Shear Modulus (GPa) = 13.34567 19.49046 16.41807
#
# Velocity S-wave (km/s) = 2.71982 3.28685 3.01669
# Velocity P-wave (km/s) = 4.51028 6.18708 5.41399
#
# Compressibility (1/GPa) = 0.05289348
#
# Stress axis : x y z
#
# Youngs Moduli (GPa) = 15.25508 61.13649 53.64995
#
# Poissons Ratio (x) = 0.87780 0.20097
# Poissons Ratio (y) = 0.21903 0.30706
# Poissons Ratio (z) = 0.05714 0.34991
#
# Static dielectric constant tensor:
#      x y z
#    x 1.592850 0.000000 0.016220 
#    y 0.000000 1.640540 0.000000 
#    z 0.016220 0.000000 1.679140 
# 
# From -- ./inp_files/246389.got.cif
#   From: 2010.05.17/outbox.cif.g08.bks.cpg/sg12_124_cif.got.tgz:246389.got - 2010.06.03 13:09:07.
