data_PCOD9169808
_publ_section_title
;
Structure prediction by ZEFSAII (Michael W. Deem and Ramdas Pophale) SiO2 
 PCOD9169808
Probable space group: C 2/M
;
_chemical_formula_sum "Si O2"
_cell_formula_units_Z 48
_cell_length_a 18.133792
_cell_length_b 20.749084
_cell_length_c 9.560897
_cell_angle_alpha 90.000000
_cell_angle_beta 46.027462
_cell_angle_gamma 90.000000
_cell_volume 2588.935366
_symmetry_space_group_name_H-M "C 2/M"
_symmetry_group_IT_number 12
_symmetry_cell_setting 'monoclinic'
loop_
_space_group_symop_operation_xyz
x,y,z
-x,y,-z
-x,-y,-z
x,-y,z
1/2+x,1/2+y,z
1/2-x,1/2+y,-z
1/2-x,1/2-y,-z
1/2+x,1/2-y,z
loop_
_atom_site_type_symbol
_atom_site_label
_atom_site_fract_x
_atom_site_fract_y
_atom_site_fract_z
Si Si1 0.211367 0.764056 0.747897
Si Si2 0.716932 0.575064 0.973380
Si Si3 0.593319 0.698310 0.182888
Si Si4 0.609536 0.426834 0.812690
Si Si5 0.641388 0.322482 0.560091
Si Si6 0.880849 0.328372 0.678404
O O1 0.266867 0.695112 0.665071
O O2 0.154317 0.775816 0.677838
O O3 0.309458 0.812222 0.638068
O O4 0.135938 0.780777 0.973630
O O5 0.716502 0.500000 0.021209
O O6 0.676485 0.573626 0.865092
O O7 0.826058 0.611557 0.826054
O O8 0.644080 0.628207 0.144543
O O9 0.471340 0.688940 0.352029
O O10 0.625728 0.760133 0.231094
O O11 0.589531 0.500000 0.798320
O O12 0.650874 0.390661 0.623433
O O13 0.500000 0.396534 0.000000
O O14 0.000000 0.341260 0.500000
#
# Coordination Sequence:
#
# PCOD9169808 Si02
#       6
#     8   8   8   8   8   8
#     4  10  20  31  49  76 105 139 170 214 268 307
#     4  10  20  33  52  77 107 140 178 218 269 316
#     4  11  20  34  55  79 108 140 178 225 269 316
#     4  10  17  28  49  76 104 133 164 212 269 317
#     4  11  18  31  52  77 109 131 172 220 263 323
#     4  11  21  36  53  77 108 144 182 221 266 312
#
# _framework density 18.54044
#
# number of rings (size 3 to 8) (size 9 to 14) (size 15 to 20)
#    0.000    1.500    6.667    2.500    0.000    0.333 
#    0.000    0.000    0.000    4.500    0.000    0.000 
#    0.000   11.000    0.000    0.000    0.000    0.000 
#
# Total GULP energy -133623.098938 kJ/mol
# GULP energy per Si atom -5567.629122 kJ/mol
# Density = 1.849824 g / cm^3
# Si number density = 18.540440 Si / 1000 Ang^3
#
#
#
# Elastic Constant Matrix: (Units=GPa)
#
#
# Indices 1 2 3 4 5 6 
#
# 1 50.6190 21.2665 5.0209 0.0000 -11.8967 0.0000
# 2 21.2665 142.4755 39.7966 0.0000 -11.5039 0.0000
# 3 5.0209 39.7966 38.0613 0.0000 -15.4745 0.0000
# 4 0.0000 0.0000 0.0000 26.5231 0.0000 2.9979
# 5 -11.8967 -11.5039 -15.4745 0.0000 23.5915 0.0000
# 6 0.0000 0.0000 0.0000 2.9979 0.0000 26.4671
#
#
#
# Elastic Compliance Matrix: (Units=1/GPa)
#
#
# Indices 1 2 3 4 5 6 
#
# 1 0.024487 -0.004593 0.007748 0.000000 0.015191 0.000000
# 2 -0.004593 0.010901 -0.013054 0.000000 -0.005563 0.000000
# 3 0.007748 -0.013054 0.051685 0.000000 0.031443 0.000000
# 4 0.000000 0.000000 0.000000 0.038192 0.000000 -0.004326
# 5 0.015191 -0.005563 0.031443 0.000000 0.067961 0.000000
# 6 0.000000 0.000000 0.000000 -0.004326 0.000000 0.038273
#
#
# Mechanical properties :
#
#
# Convention : Reuss Voigt Hill
#
# Bulk Modulus (GPa) = 14.86446 40.36932 27.61689
# Shear Modulus (GPa) = 18.26675 26.32111 22.29393
#
# Velocity S-wave (km/s) = 3.14226 3.77192 3.47140
# Velocity P-wave (km/s) = 4.60432 6.38677 5.56734
#
# Compressibility (1/GPa) = 0.06727457
#
# Stress axis : x y z
#
# Youngs Moduli (GPa) = 40.83873 91.73073 19.34804
#
# Poissons Ratio (x) = 0.42128 -0.14990
# Poissons Ratio (y) = 0.18755 0.25258
# Poissons Ratio (z) = -0.31641 1.19749
#
# Static dielectric constant tensor:
#      x y z
#    x 1.681330 0.000000 0.010550 
#    y 0.000000 1.694770 0.000000 
#    z 0.010550 0.000000 1.689830 
# 
# From -- ./inp_files/169132.got.cif
#   From: 2010.05.17/outbox.cif.g08.bks.cpg/sg12_85_cif.got.tgz:169132.got - 2010.06.03 13:09:07.
