data_PCOD9169619
_publ_section_title
;
Structure prediction by ZEFSAII (Michael W. Deem and Ramdas Pophale) SiO2 
 PCOD9169619
Probable space group: C 2/M
;
_chemical_formula_sum "Si O2"
_cell_formula_units_Z 58
_cell_length_a 16.654598
_cell_length_b 13.221047
_cell_length_c 9.691239
_cell_angle_alpha 90.000000
_cell_angle_beta 66.348932
_cell_angle_gamma 90.000000
_cell_volume 1954.687809
_symmetry_space_group_name_H-M "C 2/M"
_symmetry_group_IT_number 12
_symmetry_cell_setting 'monoclinic'
loop_
_space_group_symop_operation_xyz
x,y,z
-x,y,-z
-x,-y,-z
x,-y,z
1/2+x,1/2+y,z
1/2-x,1/2+y,-z
1/2-x,1/2-y,-z
1/2+x,1/2-y,z
loop_
_atom_site_type_symbol
_atom_site_label
_atom_site_fract_x
_atom_site_fract_y
_atom_site_fract_z
Si Si1 0.000000 0.500000 0.500000
Si Si2 0.816712 0.388201 0.579770
Si Si3 0.009304 0.384627 0.160521
Si Si4 0.319947 0.803601 0.289404
Si Si5 0.083159 0.884594 0.747964
Si Si6 0.110926 0.116778 0.117266
Si Si7 0.299649 0.121529 0.996462
Si Si8 0.598341 0.684639 0.431856
O O1 0.919865 0.415287 0.535600
O O2 0.778411 0.500000 0.649480
O O3 0.784265 0.366940 0.444689
O O4 0.823246 0.267804 0.621822
O O5 0.004582 0.500000 0.224096
O O6 0.923990 0.325013 0.260782
O O7 0.106264 0.343756 0.129297
O O8 0.000000 0.392834 0.000000
O O9 0.336059 0.682942 0.255999
O O10 0.304782 0.858408 0.155889
O O11 0.985421 0.846713 0.859332
O O12 0.094475 0.878657 0.575147
O O13 0.086258 0.000000 0.789413
O O14 0.205763 0.159355 0.007191
O O15 0.110456 0.123221 0.283565
O O16 0.113239 0.000000 0.076680
O O17 0.302228 0.000000 0.975403
O O18 0.500000 0.725830 0.500000
#
# Coordination Sequence:
#
# PCOD9169619 Si02
#       8
#     2   8   8   8   8   8   8   8
#     4   8  16  24  36  60  96 124 136 176 216 264
#     4   9  15  24  38  63  92 117 142 177 216 261
#     4   8  14  26  45  69  92 111 139 185 234 273
#     4  10  17  27  48  69  87 114 153 189 221 264
#     4   9  18  29  43  66  88 118 154 188 214 253
#     4   9  17  29  46  65  90 121 146 183 230 270
#     4   9  17  30  48  71  93 112 140 187 241 275
#     4   9  14  25  43  62  82 111 154 185 211 251
#
# _framework density 29.672255
#
# number of rings (size 3 to 8) (size 9 to 14) (size 15 to 20)
#    0.414    2.621    0.690    2.483    0.000    1.655 
#    0.000    3.448    0.000    6.207    0.000    0.000 
#    0.000    0.000    0.000    0.000    0.000    0.000 
#
# Total GULP energy -161856.651973 kJ/mol
# GULP energy per Si atom -5581.263861 kJ/mol
# Density = 2.960472 g / cm^3
# Si number density = 29.672255 Si / 1000 Ang^3
#
#
#
# Elastic Constant Matrix: (Units=GPa)
#
#
# Indices 1 2 3 4 5 6 
#
# 1 90.6228 -3.6887 34.3887 0.0000 8.5832 0.0000
# 2 -3.6887 117.9330 3.6187 0.0000 15.2367 0.0000
# 3 34.3887 3.6187 88.9406 0.0000 33.9826 0.0000
# 4 0.0000 0.0000 0.0000 -5.6218 0.0000 11.8004
# 5 8.5832 15.2367 33.9826 0.0000 61.9276 0.0000
# 6 0.0000 0.0000 0.0000 11.8004 0.0000 -4.4618
#
#
#
# Elastic Compliance Matrix: (Units=1/GPa)
#
#
# Indices 1 2 3 4 5 6 
#
# 1 0.013025 0.000434 -0.005470 0.000000 0.001090 0.000000
# 2 0.000434 0.008797 0.000410 0.000000 -0.002450 0.000000
# 3 -0.005470 0.000410 0.016563 0.000000 -0.008432 0.000000
# 4 0.000000 0.000000 0.000000 0.039081 0.000000 0.103361
# 5 0.001090 -0.002450 -0.008432 0.000000 0.021227 0.000000
# 6 0.000000 0.000000 0.000000 0.103361 0.000000 0.049242
#
#
# Mechanical properties :
#
#
# Convention : Reuss Voigt Hill
#
# Bulk Modulus (GPa) = 34.32387 40.68155 37.50271
# Shear Modulus (GPa) = 29.95857 27.91399 28.93628
#
# Velocity S-wave (km/s) = 3.18094 3.07048 3.12620
# Velocity P-wave (km/s) = 5.00839 5.12938 5.06925
#
# Compressibility (1/GPa) = 0.02913424
#
# Stress axis : x y z
#
# Youngs Moduli (GPa) = 76.77567 113.67663 60.37400
#
# Poissons Ratio (x) = -0.04939 0.33025
# Poissons Ratio (y) = -0.03336 -0.02476
# Poissons Ratio (z) = 0.41997 -0.04661
#
# Static dielectric constant tensor:
#      x y z
#    x 2.244180 0.000000 -0.131220 
#    y 0.000000 2.355120 0.000000 
#    z -0.131220 0.000000 2.470670 
# 
# From -- ./inp_files/233106.got.cif
#   From: 2010.05.17/outbox.cif.g08.bks.cpg/sg12_117_cif.got.tgz:233106.got - 2010.06.03 13:09:07.
