data_PCOD9169336
_publ_section_title
;
Structure prediction by ZEFSAII (Michael W. Deem and Ramdas Pophale) SiO2 
 PCOD9169336
Probable space group: C 2/M
;
_chemical_formula_sum "Si O2"
_cell_formula_units_Z 56
_cell_length_a 24.473106
_cell_length_b 9.228600
_cell_length_c 23.228574
_cell_angle_alpha 90.000000
_cell_angle_beta 44.162761
_cell_angle_gamma 90.000000
_cell_volume 3655.044367
_symmetry_space_group_name_H-M "C 2/M"
_symmetry_group_IT_number 12
_symmetry_cell_setting 'monoclinic'
loop_
_space_group_symop_operation_xyz
x,y,z
-x,y,-z
-x,-y,-z
x,-y,z
1/2+x,1/2+y,z
1/2-x,1/2+y,-z
1/2-x,1/2-y,-z
1/2+x,1/2-y,z
loop_
_atom_site_type_symbol
_atom_site_label
_atom_site_fract_x
_atom_site_fract_y
_atom_site_fract_z
Si Si1 0.662533 0.171469 0.631905
Si Si2 0.004368 0.171579 0.781258
Si Si3 0.769636 0.666624 0.895926
Si Si4 0.324783 0.171180 0.515460
Si Si5 0.365934 0.167265 0.944251
Si Si6 0.473796 0.672877 0.454573
Si Si7 0.092383 0.170826 0.264285
O O1 0.587505 0.248834 0.716157
O O2 0.657888 0.190158 0.565955
O O3 0.743559 0.246519 0.589159
O O4 0.663202 0.000000 0.643359
O O5 0.944576 0.243750 0.871575
O O6 0.963556 0.190535 0.749252
O O7 0.012650 0.000000 0.784841
O O8 0.752686 0.500000 0.894841
O O9 0.817030 0.668477 0.920984
O O10 0.828956 0.739202 0.806118
O O11 0.690816 0.756784 0.966826
O O12 0.396236 0.240377 0.496233
O O13 0.317001 0.000000 0.532185
O O14 0.381883 0.000000 0.946363
O O15 0.500000 0.698763 0.500000
O O16 0.459267 0.500000 0.458182
O O17 0.543034 0.712328 0.357711
O O18 0.111624 0.000000 0.252667
#
# Coordination Sequence:
#
# PCOD9169336 Si02
#       7
#     8   8   8   8   8   8   8
#     4  10  19  30  46  66  90 119 152 188 228 276
#     4  10  17  26  42  63  89 118 150 185 222 268
#     4   9  16  25  38  56  80 112 148 183 219 263
#     4  10  20  32  47  66  89 117 152 192 233 273
#     4   9  16  25  37  56  84 115 146 179 218 265
#     4  10  20  34  50  67  90 121 157 195 233 273
#     4   9  17  28  42  60  84 116 151 186 225 269
#
# _framework density 15.321289999999999
#
# number of rings (size 3 to 8) (size 9 to 14) (size 15 to 20)
#    0.000    2.429    1.429    2.143    0.000    6.000 
#    0.000    0.000    0.000    0.000    0.000    0.000 
#    0.000    1.143    0.000   12.286    0.000    6.000 
#
# Total GULP energy -156106.407891 kJ/mol
# GULP energy per Si atom -5575.228853 kJ/mol
# Density = 1.528642 g / cm^3
# Si number density = 15.321290 Si / 1000 Ang^3
#
#
#
# Elastic Constant Matrix: (Units=GPa)
#
#
# Indices 1 2 3 4 5 6 
#
# 1 45.9711 48.8357 48.4391 0.0000 -10.3556 0.0000
# 2 48.8357 119.7679 93.8103 -0.0002 -24.1210 0.0001
# 3 48.4391 93.8103 145.4173 -0.0001 -32.7489 0.0000
# 4 0.0000 -0.0002 -0.0001 30.7689 0.0000 -8.8268
# 5 -10.3556 -24.1210 -32.7489 0.0000 18.3539 0.0000
# 6 0.0000 0.0001 0.0000 -8.8268 0.0000 16.7877
#
#
#
# Elastic Compliance Matrix: (Units=1/GPa)
#
#
# Indices 1 2 3 4 5 6 
#
# 1 0.040944 -0.012429 -0.006849 0.000000 -0.005453 0.000000
# 2 -0.012429 0.020887 -0.007910 0.000000 0.006323 0.000000
# 3 -0.006849 -0.007910 0.018472 0.000000 0.018701 0.000000
# 4 0.000000 0.000000 0.000000 0.038273 0.000000 0.020124
# 5 -0.005453 0.006323 0.018701 0.000000 0.093085 0.000000
# 6 0.000000 0.000000 0.000000 0.020124 0.000000 0.070148
#
#
# Mechanical properties :
#
#
# Convention : Reuss Voigt Hill
#
# Bulk Modulus (GPa) = 38.56858 77.03629 57.80244
# Shear Modulus (GPa) = 14.49997 21.18685 17.84341
#
# Velocity S-wave (km/s) = 3.07969 3.72269 3.41635
# Velocity P-wave (km/s) = 6.15417 8.29865 7.30552
#
# Compressibility (1/GPa) = 0.02592784
#
# Stress axis : x y z
#
# Youngs Moduli (GPa) = 24.42348 47.87776 54.13458
#
# Poissons Ratio (x) = 0.59507 0.37075
# Poissons Ratio (y) = 0.30356 0.42821
# Poissons Ratio (z) = 0.16727 0.37871
#
# Static dielectric constant tensor:
#      x y z
#    x 1.469390 0.000000 -0.002870 
#    y 0.000000 1.510160 0.000000 
#    z -0.002870 0.000000 1.501810 
# 
# From -- ./inp_files/237812.got.cif
#   From: 2010.05.17/outbox.cif.g08.bks.cpg/sg12_119_cif.got.tgz:237812.got - 2010.06.03 13:09:07.
