data_PCOD9169141
_publ_section_title
;
Structure prediction by ZEFSAII (Michael W. Deem and Ramdas Pophale) SiO2 
 PCOD9169141
Probable space group: C 2/M
;
_chemical_formula_sum "Si O2"
_cell_formula_units_Z 64
_cell_length_a 15.691466
_cell_length_b 7.665428
_cell_length_c 19.642306
_cell_angle_alpha 90.000000
_cell_angle_beta 98.949629
_cell_angle_gamma 90.000000
_cell_volume 2333.848327
_symmetry_space_group_name_H-M "C 2/M"
_symmetry_group_IT_number 12
_symmetry_cell_setting 'monoclinic'
loop_
_space_group_symop_operation_xyz
x,y,z
-x,y,-z
-x,-y,-z
x,-y,z
1/2+x,1/2+y,z
1/2-x,1/2+y,-z
1/2-x,1/2-y,-z
1/2+x,1/2-y,z
loop_
_atom_site_type_symbol
_atom_site_label
_atom_site_fract_x
_atom_site_fract_y
_atom_site_fract_z
Si Si1 0.176532 0.207816 0.547057
Si Si2 0.909066 0.210045 0.953901
Si Si3 0.548923 0.715102 0.421111
Si Si4 0.689460 0.702790 0.329056
Si Si5 0.742882 0.293280 0.799180
Si Si6 0.681072 0.295793 0.927906
Si Si7 0.000310 0.294518 0.166269
Si Si8 0.427650 0.704509 0.293437
O O1 0.250000 0.250000 0.500000
O O2 0.088318 0.268838 0.498933
O O3 0.218194 0.274734 0.621756
O O4 0.168979 0.000000 0.553208
O O5 0.921246 0.265352 0.877041
O O6 0.907054 0.000000 0.954376
O O7 0.836967 0.278919 0.998539
O O8 0.000000 0.266337 0.000000
O O9 0.546247 0.500000 0.423211
O O10 0.621578 0.772832 0.375260
O O11 0.463855 0.771893 0.369541
O O12 0.672200 0.500000 0.319887
O O13 0.689985 0.778810 0.253781
O O14 0.732058 0.500000 0.809356
O O15 0.741477 0.216474 0.875506
O O16 0.656950 0.217093 0.751927
O O17 0.697600 0.500000 0.939467
O O18 0.585365 0.283571 0.880713
O O19 0.989310 0.500000 0.171709
O O20 0.999098 0.217150 0.242117
O O21 0.409130 0.500000 0.301930
#
# Coordination Sequence:
#
# PCOD9169141 Si02
#       8
#     8   8   8   8   8   8   8   8
#     4   9  16  29  49  71  92 114 146 187 227 264
#     4   8  13  23  38  55  78 112 151 185 216 256
#     4   8  16  31  51  70  85 111 153 190 216 254
#     4  10  19  31  48  70  94 119 148 182 222 269
#     4   9  17  29  46  67  90 118 149 184 225 263
#     4   8  15  27  41  57  81 116 155 186 215 259
#     4  10  17  23  35  60  90 115 142 179 226 270
#     4   9  17  32  49  63  86 120 155 186 217 261
#
# _framework density 27.422521
#
# number of rings (size 3 to 8) (size 9 to 14) (size 15 to 20)
#    0.000    3.125    0.000    4.125    0.000    4.250 
#    0.000    4.375    0.000    3.750    0.000    0.875 
#    0.000    0.000    0.000    0.000    0.000    0.000 
#
# Total GULP energy -178842.231562 kJ/mol
# GULP energy per Si atom -5588.819736 kJ/mol
# Density = 2.736011 g / cm^3
# Si number density = 27.422521 Si / 1000 Ang^3
#
#
#
# Elastic Constant Matrix: (Units=GPa)
#
#
# Indices 1 2 3 4 5 6 
#
# 1 75.1643 4.6065 12.7356 0.0000 -10.1503 0.0000
# 2 4.6065 83.3374 7.5108 0.0000 0.0990 0.0000
# 3 12.7356 7.5108 266.6205 0.0000 -4.7264 0.0000
# 4 0.0000 0.0000 0.0000 20.4446 0.0000 4.8878
# 5 -10.1503 0.0990 -4.7264 0.0000 56.4528 0.0000
# 6 0.0000 0.0000 0.0000 4.8878 0.0000 4.4904
#
#
#
# Elastic Compliance Matrix: (Units=1/GPa)
#
#
# Indices 1 2 3 4 5 6 
#
# 1 0.013776 -0.000711 -0.000595 0.000000 0.002428 0.000000
# 2 -0.000711 0.012067 -0.000309 0.000000 -0.000175 0.000000
# 3 -0.000595 -0.000309 0.003792 0.000000 0.000211 0.000000
# 4 0.000000 0.000000 0.000000 0.066119 0.000000 -0.071969
# 5 0.002428 -0.000175 0.000211 0.000000 0.018169 0.000000
# 6 0.000000 0.000000 0.000000 -0.071969 0.000000 0.301033
#
#
# Mechanical properties :
#
#
# Convention : Reuss Voigt Hill
#
# Bulk Modulus (GPa) = 37.87143 52.75868 45.31505
# Shear Modulus (GPa) = 11.70998 42.96218 27.33608
#
# Velocity S-wave (km/s) = 2.06869 3.96242 3.16071
# Velocity P-wave (km/s) = 4.42112 6.34155 5.46633
#
# Compressibility (1/GPa) = 0.02640513
#
# Stress axis : x y z
#
# Youngs Moduli (GPa) = 72.58738 82.87223 263.74664
#
# Poissons Ratio (x) = 0.05890 0.15693
# Poissons Ratio (y) = 0.05159 0.08152
# Poissons Ratio (z) = 0.04319 0.02561
#
# Static dielectric constant tensor:
#      x y z
#    x 2.337930 0.000000 -0.025500 
#    y 0.000000 1.986520 0.000000 
#    z -0.025500 0.000000 2.150360 
# 
# From -- ./inp_files/287778.got.cif
#   From: 2010.05.17/outbox.cif.g08.bks.cpg/sg12_144_cif.got.tgz:287778.got - 2010.06.03 13:09:07.
