data_PCOD9169230
_publ_section_title
;
Structure prediction by ZEFSAII (Michael W. Deem and Ramdas Pophale) SiO2 
 PCOD9169230
Probable space group: C 2/M
;
_chemical_formula_sum "Si O2"
_cell_formula_units_Z 48
_cell_length_a 34.412978
_cell_length_b 8.359564
_cell_length_c 10.506691
_cell_angle_alpha 90.000000
_cell_angle_beta 114.735838
_cell_angle_gamma 90.000000
_cell_volume 2745.210415
_symmetry_space_group_name_H-M "C 2/M"
_symmetry_group_IT_number 12
_symmetry_cell_setting 'monoclinic'
loop_
_space_group_symop_operation_xyz
x,y,z
-x,y,-z
-x,-y,-z
x,-y,z
1/2+x,1/2+y,z
1/2-x,1/2+y,-z
1/2-x,1/2-y,-z
1/2+x,1/2-y,z
loop_
_atom_site_type_symbol
_atom_site_label
_atom_site_fract_x
_atom_site_fract_y
_atom_site_fract_z
Si Si1 0.539634 0.812279 0.216803
Si Si2 0.228233 0.808125 0.098972
Si Si3 0.722022 0.193448 0.580960
Si Si4 0.867091 0.694942 0.646966
Si Si5 0.548067 0.686772 0.944016
Si Si6 0.637472 0.808640 0.062424
O O1 0.585492 0.752491 0.331045
O O2 0.545116 0.786346 0.071773
O O3 0.535106 0.000000 0.236905
O O4 0.495370 0.726469 0.190989
O O5 0.256002 0.751656 0.258741
O O6 0.180132 0.745122 0.050307
O O7 0.227297 0.000000 0.099600
O O8 0.250000 0.750000 0.000000
O O9 0.750000 0.250000 0.500000
O O10 0.673177 0.247640 0.491542
O O11 0.721826 0.000000 0.580797
O O12 0.868099 0.500000 0.648170
O O13 0.859380 0.743069 0.783986
O O14 0.548078 0.500000 0.976523
O O15 0.593535 0.735047 0.948116
O O16 0.634147 0.000000 0.055533
#
# Coordination Sequence:
#
# PCOD9169230 Si02
#       6
#     8   8   8   8   8   8
#     4   9  15  25  40  62  93 129 163 197 245 298
#     4  11  23  36  52  74 103 136 173 212 253 301
#     4  10  19  33  52  76 100 131 170 210 253 300
#     4   8  15  27  46  70  97 126 160 203 248 294
#     4  10  17  25  39  63  96 128 161 201 245 296
#     4  10  18  31  50  69  95 130 167 207 253 301
#
# _framework density 17.484999999999999
#
# number of rings (size 3 to 8) (size 9 to 14) (size 15 to 20)
#    0.000    2.333    1.667    5.000    0.000    0.667 
#    0.000    0.833    0.000    0.000    0.000    1.167 
#    0.000    9.333    0.000    0.000    0.000    0.000 
#
# Total GULP energy -133739.603840 kJ/mol
# GULP energy per Si atom -5572.483493 kJ/mol
# Density = 1.744520 g / cm^3
# Si number density = 17.485000 Si / 1000 Ang^3
#
#
#
# Elastic Constant Matrix: (Units=GPa)
#
#
# Indices 1 2 3 4 5 6 
#
# 1 159.4193 21.2892 72.0962 0.0000 41.0884 0.0000
# 2 21.2892 30.5917 10.7170 0.0000 3.7662 0.0000
# 3 72.0962 10.7170 72.2567 0.0000 16.8718 0.0000
# 4 0.0000 0.0000 0.0000 8.6083 0.0000 3.8636
# 5 41.0884 3.7662 16.8718 0.0000 34.1936 0.0000
# 6 0.0000 0.0000 0.0000 3.8636 0.0000 27.9278
#
#
#
# Elastic Compliance Matrix: (Units=1/GPa)
#
#
# Indices 1 2 3 4 5 6 
#
# 1 0.015416 -0.005103 -0.011789 0.000000 -0.012146 0.000000
# 2 -0.005103 0.036232 -0.000884 0.000000 0.002577 0.000000
# 3 -0.011789 -0.000884 0.025320 0.000000 0.001770 0.000000
# 4 0.000000 0.000000 0.000000 0.123857 0.000000 -0.017135
# 5 -0.012146 0.002577 0.001770 0.000000 0.042683 0.000000
# 6 0.000000 0.000000 0.000000 -0.017135 0.000000 0.038177
#
#
# Mechanical properties :
#
#
# Convention : Reuss Voigt Hill
#
# Bulk Modulus (GPa) = 24.14503 52.27472 38.20987
# Shear Modulus (GPa) = 15.10377 24.69030 19.89703
#
# Velocity S-wave (km/s) = 2.94226 3.76185 3.37701
# Velocity P-wave (km/s) = 5.03800 6.98788 6.09147
#
# Compressibility (1/GPa) = 0.04141640
#
# Stress axis : x y z
#
# Youngs Moduli (GPa) = 64.86701 27.59972 39.49414
#
# Poissons Ratio (x) = 0.14084 0.46560
# Poissons Ratio (y) = 0.33102 0.03491
# Poissons Ratio (z) = 0.76472 0.02440
#
# Static dielectric constant tensor:
#      x y z
#    x 1.624480 0.000000 0.058100 
#    y 0.000000 1.595170 0.000000 
#    z 0.058100 0.000000 1.596690 
# 
# From -- ./inp_files/185946.got.cif
#   From: 2010.05.17/outbox.cif.g08.bks.cpg/sg12_93_cif.got.tgz:185946.got - 2010.06.03 13:09:07.
