data_PCOD9169539
_publ_section_title
;
Structure prediction by ZEFSAII (Michael W. Deem and Ramdas Pophale) SiO2 
 PCOD9169539
Probable space group: C 2/M
;
_chemical_formula_sum "Si O2"
_cell_formula_units_Z 56
_cell_length_a 19.629508
_cell_length_b 20.773913
_cell_length_c 10.604679
_cell_angle_alpha 90.000000
_cell_angle_beta 56.908444
_cell_angle_gamma 90.000000
_cell_volume 3622.973738
_symmetry_space_group_name_H-M "C 2/M"
_symmetry_group_IT_number 12
_symmetry_cell_setting 'monoclinic'
loop_
_space_group_symop_operation_xyz
x,y,z
-x,y,-z
-x,-y,-z
x,-y,z
1/2+x,1/2+y,z
1/2-x,1/2+y,-z
1/2-x,1/2-y,-z
1/2+x,1/2-y,z
loop_
_atom_site_type_symbol
_atom_site_label
_atom_site_fract_x
_atom_site_fract_y
_atom_site_fract_z
Si Si1 0.045458 0.750770 0.158608
Si Si2 0.865366 0.747537 0.300833
Si Si3 0.683322 0.926030 0.032672
Si Si4 0.073628 0.645927 0.338769
Si Si5 0.907603 0.358914 0.084749
Si Si6 0.197677 0.810264 0.106897
Si Si7 0.199571 0.735392 0.353459
O O1 0.037397 0.703582 0.288148
O O2 0.109238 0.804435 0.134754
O O3 0.957491 0.773105 0.201087
O O4 0.085176 0.703889 0.014014
O O5 0.874345 0.672667 0.246422
O O6 0.837448 0.752027 0.473301
O O7 0.794736 0.778155 0.285850
O O8 0.614310 0.905160 0.203425
O O9 0.705275 0.000000 0.024446
O O10 0.646957 0.910218 0.931116
O O11 0.756673 0.875535 0.971621
O O12 0.146464 0.678324 0.345915
O O13 0.000000 0.621970 0.500000
O O14 0.000000 0.382936 0.000000
O O15 0.194136 0.794111 0.259307
O O16 0.250000 0.750000 0.000000
#
# Coordination Sequence:
#
# PCOD9169539 Si02
#       7
#     8   8   8   8   8   8   8
#     4   9  17  27  49  73 100 128 162 206 253 291
#     4  10  17  27  44  80 104 126 157 207 259 307
#     4  11  22  34  51  71  99 139 176 206 246 302
#     4  10  18  32  49  70 101 132 164 207 245 296
#     4   9  17  30  47  69 102 130 162 199 245 301
#     4  11  17  32  51  73  96 132 166 219 250 287
#     4  10  18  26  49  76 104 124 160 209 255 294
#
# _framework density 15.456915
#
# number of rings (size 3 to 8) (size 9 to 14) (size 15 to 20)
#    0.000    2.000    7.143    0.000    0.000    0.571 
#    0.000    0.000    0.000    0.000    0.000    4.000 
#    0.000    0.000    0.000    0.000    0.000    0.000 
#
# Total GULP energy -155924.726048 kJ/mol
# GULP energy per Si atom -5568.740216 kJ/mol
# Density = 1.542173 g / cm^3
# Si number density = 15.456915 Si / 1000 Ang^3
#
#
#
# Elastic Constant Matrix: (Units=GPa)
#
#
# Indices 1 2 3 4 5 6 
#
# 1 103.9636 29.8751 11.5864 0.0000 -16.2991 0.0000
# 2 29.8751 76.8457 28.9267 0.0000 -12.8149 0.0000
# 3 11.5864 28.9267 74.9014 0.0000 -0.0134 0.0000
# 4 0.0000 0.0000 0.0000 9.5513 0.0000 -0.7464
# 5 -16.2991 -12.8149 -0.0134 0.0000 23.8107 0.0000
# 6 0.0000 0.0000 0.0000 -0.7464 0.0000 12.7408
#
#
#
# Elastic Compliance Matrix: (Units=1/GPa)
#
#
# Indices 1 2 3 4 5 6 
#
# 1 0.011586 -0.003278 -0.000525 0.000000 0.006166 0.000000
# 2 -0.003278 0.017939 -0.006420 0.000000 0.007407 0.000000
# 3 -0.000525 -0.006420 0.015911 0.000000 -0.003806 0.000000
# 4 0.000000 0.000000 0.000000 0.105179 0.000000 0.006162
# 5 0.006166 0.007407 -0.003806 0.000000 0.050203 0.000000
# 6 0.000000 0.000000 0.000000 0.006162 0.000000 0.078849
#
#
# Mechanical properties :
#
#
# Convention : Reuss Voigt Hill
#
# Bulk Modulus (GPa) = 40.01604 44.05411 42.03508
# Shear Modulus (GPa) = 16.21039 21.57539 18.89289
#
# Velocity S-wave (km/s) = 3.24195 3.74015 3.49992
# Velocity P-wave (km/s) = 6.32128 6.87130 6.60202
#
# Compressibility (1/GPa) = 0.02498998
#
# Stress axis : x y z
#
# Youngs Moduli (GPa) = 86.31065 55.74328 62.85084
#
# Poissons Ratio (x) = 0.18275 0.03300
# Poissons Ratio (y) = 0.28296 0.40348
# Poissons Ratio (z) = 0.04532 0.35785
#
# Static dielectric constant tensor:
#      x y z
#    x 1.568590 0.000000 0.006610 
#    y 0.000000 1.473490 0.000000 
#    z 0.006610 0.000000 1.570890 
# 
# From -- ./inp_files/169929.got.cif
#   From: 2010.05.17/outbox.cif.g08.bks.cpg/sg12_85_cif.got.tgz:169929.got - 2010.06.03 13:09:07.
