data_PCOD9169820
_publ_section_title
;
Structure prediction by ZEFSAII (Michael W. Deem and Ramdas Pophale) SiO2 
 PCOD9169820
Probable space group: C 2/M
;
_chemical_formula_sum "Si O2"
_cell_formula_units_Z 56
_cell_length_a 21.881188
_cell_length_b 23.701294
_cell_length_c 12.154220
_cell_angle_alpha 90.000000
_cell_angle_beta 21.312871
_cell_angle_gamma 90.000000
_cell_volume 2291.011604
_symmetry_space_group_name_H-M "C 2/M"
_symmetry_group_IT_number 12
_symmetry_cell_setting 'monoclinic'
loop_
_space_group_symop_operation_xyz
x,y,z
-x,y,-z
-x,-y,-z
x,-y,z
1/2+x,1/2+y,z
1/2-x,1/2+y,-z
1/2-x,1/2-y,-z
1/2+x,1/2-y,z
loop_
_atom_site_type_symbol
_atom_site_label
_atom_site_fract_x
_atom_site_fract_y
_atom_site_fract_z
Si Si1 0.833355 0.719340 0.216666
Si Si2 0.824114 0.935744 0.859791
Si Si3 0.435247 0.266733 0.722275
Si Si4 0.926669 0.564775 0.001491
Si Si5 0.536655 0.437360 0.719184
Si Si6 0.088764 0.345274 0.135310
Si Si7 0.984542 0.821723 0.867658
O O1 0.821312 0.690568 0.115160
O O2 0.861402 0.785080 0.146569
O O3 0.669515 0.705490 0.559309
O O4 0.000000 0.699112 0.000000
O O5 0.000000 0.931603 0.500000
O O6 0.888357 0.934818 0.877498
O O7 0.755966 0.000000 0.952380
O O8 0.702937 0.884932 0.023354
O O9 0.500000 0.291185 0.500000
O O10 0.506938 0.204966 0.639486
O O11 0.439207 0.309450 0.815963
O O12 0.250000 0.250000 0.000000
O O13 0.956812 0.500000 0.920155
O O14 0.722304 0.572896 0.352738
O O15 0.003369 0.607674 0.784309
O O16 0.000000 0.573094 0.000000
O O17 0.544871 0.500000 0.752252
O O18 0.500367 0.387041 0.862406
#
# Coordination Sequence:
#
# PCOD9169820 Si02
#       7
#     8   8   8   8   8   8   8
#     4  11  23  39  58  87 120 164 204 248 299 360
#     4  10  17  28  49  81 116 148 191 241 293 348
#     4  11  24  39  59  86 120 161 201 248 305 370
#     4  10  19  32  53  84 120 155 198 250 301 350
#     4  10  20  33  55  87 117 149 196 251 301 346
#     4  11  20  32  55  80 118 153 192 243 300 353
#     4  11  22  38  61  87 123 157 202 251 304 363
#
# _framework density 24.443351
#
# number of rings (size 3 to 8) (size 9 to 14) (size 15 to 20)
#    0.000    1.429    2.857    3.857    0.000    1.143 
#    0.000    0.000    0.000    2.143    0.000   17.000 
#    0.000    0.000    0.000    0.000    0.000    0.000 
#
# Total GULP energy -156493.235352 kJ/mol
# GULP energy per Si atom -5589.044120 kJ/mol
# Density = 2.438772 g / cm^3
# Si number density = 24.443351 Si / 1000 Ang^3
#
#
#
# Elastic Constant Matrix: (Units=GPa)
#
#
# Indices 1 2 3 4 5 6 
#
# 1 112.8690 17.5045 26.9389 0.0077 -10.9556 0.0030
# 2 17.5045 215.2408 6.8029 -0.0011 10.7430 0.0023
# 3 26.9389 6.8029 42.2205 -0.0218 -21.1376 -0.0020
# 4 0.0077 -0.0011 -0.0218 17.6226 0.0002 -1.8733
# 5 -10.9556 10.7430 -21.1376 0.0002 34.4654 0.0006
# 6 0.0030 0.0023 -0.0020 -1.8733 0.0006 12.1318
#
#
#
# Elastic Compliance Matrix: (Units=1/GPa)
#
#
# Indices 1 2 3 4 5 6 
#
# 1 0.010554 -0.000598 -0.007020 -0.000014 -0.000764 -0.000006
# 2 -0.000598 0.004894 -0.001827 -0.000002 -0.002836 -0.000001
# 3 -0.007020 -0.001827 0.039868 0.000054 0.022789 0.000016
# 4 -0.000014 -0.000002 0.000054 0.057692 0.000029 0.008908
# 5 -0.000764 -0.002836 0.022789 0.000029 0.043632 0.000007
# 6 -0.000006 -0.000001 0.000016 0.008908 0.000007 0.083804
#
#
# Mechanical properties :
#
#
# Convention : Reuss Voigt Hill
#
# Bulk Modulus (GPa) = 27.45309 52.53586 39.99448
# Shear Modulus (GPa) = 18.41784 34.11622 26.26703
#
# Velocity S-wave (km/s) = 2.74796 3.73999 3.28168
# Velocity P-wave (km/s) = 4.61780 6.33953 5.54589
#
# Compressibility (1/GPa) = 0.03642577
#
# Stress axis : x y z
#
# Youngs Moduli (GPa) = 94.75103 204.33654 25.08281
#
# Poissons Ratio (x) = 0.12225 0.17609
# Poissons Ratio (y) = 0.05669 0.04582
# Poissons Ratio (z) = 0.66517 0.37323
#
# Static dielectric constant tensor:
#      x y z
#    x 1.910190 -0.000020 -0.088690 
#    y -0.000020 1.996180 -0.000010 
#    z -0.088690 -0.000010 1.933470 
# 
# From -- ./inp_files/242147.got.cif
#   From: 2010.05.17/outbox.cif.g08.bks.cpg/sg12_122_cif.got.tgz:242147.got - 2010.06.03 13:09:07.
