data_PCOD9169720
_publ_section_title
;
Structure prediction by ZEFSAII (Michael W. Deem and Ramdas Pophale) SiO2 
 PCOD9169720
Probable space group: C 2/M
;
_chemical_formula_sum "Si O2"
_cell_formula_units_Z 64
_cell_length_a 25.052546
_cell_length_b 15.300525
_cell_length_c 18.483908
_cell_angle_alpha 90.000000
_cell_angle_beta 150.442767
_cell_angle_gamma 90.000000
_cell_volume 3495.076631
_symmetry_space_group_name_H-M "C 2/M"
_symmetry_group_IT_number 12
_symmetry_cell_setting 'monoclinic'
loop_
_space_group_symop_operation_xyz
x,y,z
-x,y,-z
-x,-y,-z
x,-y,z
1/2+x,1/2+y,z
1/2-x,1/2+y,-z
1/2-x,1/2-y,-z
1/2+x,1/2-y,z
loop_
_atom_site_type_symbol
_atom_site_label
_atom_site_fract_x
_atom_site_fract_y
_atom_site_fract_z
Si Si1 0.905992 0.892904 0.217384
Si Si2 0.144069 0.105596 0.551522
Si Si3 0.464105 0.100630 0.034030
Si Si4 0.840214 0.151437 0.669912
Si Si5 0.733230 0.393208 0.811388
Si Si6 0.871201 0.103462 0.862108
Si Si7 0.412084 0.396772 0.064263
Si Si8 0.820244 0.645654 0.638952
O O1 0.822373 0.863575 0.180202
O O2 0.882775 0.861375 0.108613
O O3 0.027217 0.866892 0.384174
O O4 0.905521 0.000000 0.215163
O O5 0.165874 0.131111 0.660158
O O6 0.239459 0.137654 0.611817
O O7 0.147568 0.000000 0.553107
O O8 0.567148 0.101725 0.207431
O O9 0.435261 0.000000 0.982204
O O10 0.500000 0.143544 0.000000
O O11 0.356120 0.137340 0.942763
O O12 0.816260 0.144058 0.726950
O O13 0.848045 0.253113 0.659533
O O14 0.746967 0.112107 0.509204
O O15 0.957645 0.110907 0.791689
O O16 0.732522 0.500000 0.814139
O O17 0.846652 0.000000 0.832133
O O18 0.856084 0.139466 0.925413
O O19 0.000000 0.112099 0.000000
O O20 0.387419 0.500000 0.035263
#
# Coordination Sequence:
#
# PCOD9169720 Si02
#       8
#     8   8   8   8   8   8   8   8
#     4   9  16  26  47  73  94 120 154 197 239 275
#     4  10  17  28  46  68  97 128 160 193 230 273
#     4  10  19  31  46  66  97 131 159 187 220 276
#     4  10  20  31  43  68  94 122 157 201 231 277
#     4   9  17  29  44  69  98 123 159 194 224 273
#     4   8  15  28  46  67  91 116 145 190 244 287
#     4   9  16  29  49  72  95 118 146 193 251 287
#     4  11  21  30  44  67  94 132 160 186 232 275
#
# _framework density 18.311472999999999
#
# number of rings (size 3 to 8) (size 9 to 14) (size 15 to 20)
#    0.000    2.500    2.500    1.875    0.000    4.500 
#    0.000    0.000    0.000    0.750    0.000    0.875 
#    0.000    5.000    0.000    0.000    0.000    0.500 
#
# Total GULP energy -178296.842639 kJ/mol
# GULP energy per Si atom -5571.776332 kJ/mol
# Density = 1.826980 g / cm^3
# Si number density = 18.311473 Si / 1000 Ang^3
#
#
#
# Elastic Constant Matrix: (Units=GPa)
#
#
# Indices 1 2 3 4 5 6 
#
# 1 128.3579 0.1380 54.1939 0.0000 -21.3844 0.0000
# 2 0.1380 11.4074 -6.0801 0.0000 -1.8230 0.0000
# 3 54.1939 -6.0801 69.3765 0.0000 -25.1576 0.0000
# 4 0.0000 0.0000 0.0000 -7.5859 0.0000 -1.7102
# 5 -21.3844 -1.8230 -25.1576 0.0000 35.5328 0.0000
# 6 0.0000 0.0000 0.0000 -1.7102 0.0000 -1.5272
#
#
#
# Elastic Compliance Matrix: (Units=1/GPa)
#
#
# Indices 1 2 3 4 5 6 
#
# 1 0.011929 -0.005375 -0.009803 0.000000 -0.000037 0.000000
# 2 -0.005375 0.099886 0.018349 0.000000 0.014881 0.000000
# 3 -0.009803 0.018349 0.029441 0.000000 0.015886 0.000000
# 4 0.000000 0.000000 0.000000 -0.176343 0.000000 0.197472
# 5 -0.000037 0.014881 0.015886 0.000000 0.040132 0.000000
# 6 0.000000 0.000000 0.000000 0.197472 0.000000 -0.875905
#
#
# Mechanical properties :
#
#
# Convention : Reuss Voigt Hill
#
# Bulk Modulus (GPa) = 6.77520 33.96061 20.36790
# Shear Modulus (GPa) = -6.03863 16.00991 4.98564
#
# Velocity S-wave (km/s) = -1.81794 2.96008 1.65185
# Velocity P-wave (km/s) = 0.83577 5.50174 3.84517
#
# Compressibility (1/GPa) = 0.14759712
#
# Stress axis : x y z
#
# Youngs Moduli (GPa) = 83.82696 10.01142 33.96648
#
# Poissons Ratio (x) = 0.05382 0.33298
# Poissons Ratio (y) = 0.45061 -0.62326
# Poissons Ratio (z) = 0.82178 -0.18370
#
# Static dielectric constant tensor:
#      x y z
#    x 1.657210 0.000000 -0.036880 
#    y 0.000000 1.635610 0.000000 
#    z -0.036880 0.000000 1.641430 
# 
# From -- ./inp_files/290472.got.cif
#   From: 2010.05.17/outbox.cif.g08.bks.cpg/sg12_146_cif.got.tgz:290472.got - 2010.06.03 13:09:07.
