data_PCOD9169594
_publ_section_title
;
Structure prediction by ZEFSAII (Michael W. Deem and Ramdas Pophale) SiO2 
 PCOD9169594
Probable space group: C 2/M
;
_chemical_formula_sum "Si O2"
_cell_formula_units_Z 56
_cell_length_a 7.238451
_cell_length_b 21.159124
_cell_length_c 18.447766
_cell_angle_alpha 90.000000
_cell_angle_beta 114.266506
_cell_angle_gamma 90.000000
_cell_volume 2575.800548
_symmetry_space_group_name_H-M "C 2/M"
_symmetry_group_IT_number 12
_symmetry_cell_setting 'monoclinic'
loop_
_space_group_symop_operation_xyz
x,y,z
-x,y,-z
-x,-y,-z
x,-y,z
1/2+x,1/2+y,z
1/2-x,1/2+y,-z
1/2-x,1/2-y,-z
1/2+x,1/2-y,z
loop_
_atom_site_type_symbol
_atom_site_label
_atom_site_fract_x
_atom_site_fract_y
_atom_site_fract_z
Si Si1 0.344970 0.825792 0.919767
Si Si2 0.090111 0.428179 0.867761
Si Si3 0.494934 0.159109 0.415741
Si Si4 0.458049 0.431224 0.093925
Si Si5 0.253569 0.107584 0.251993
Si Si6 0.708937 0.703465 0.645565
Si Si7 0.025297 0.784823 0.761326
O O1 0.472399 0.875329 0.892172
O O2 0.188607 0.872185 0.935398
O O3 0.211541 0.782554 0.845975
O O4 0.500000 0.793354 0.000000
O O5 0.023733 0.500000 0.872209
O O6 0.081295 0.413322 0.780521
O O7 0.334262 0.425114 0.918265
O O8 0.500000 0.141317 0.500000
O O9 0.357710 0.111181 0.346563
O O10 0.395913 0.230408 0.396098
O O11 0.715058 0.165008 0.411797
O O12 0.363768 0.500000 0.066666
O O13 0.554843 0.430590 0.192058
O O14 0.154908 0.177098 0.229062
O O15 0.580219 0.679859 0.693925
O O16 0.922179 0.720945 0.718758
#
# Coordination Sequence:
#
# PCOD9169594 Si02
#       7
#     8   8   8   8   8   8   8
#     4  11  21  32  50  78 102 127 164 215 259 293
#     4   9  18  33  53  72  98 134 168 198 244 304
#     4  10  17  27  46  75 102 123 158 208 254 290
#     4   8  17  33  49  68  97 129 167 198 236 297
#     4   8  16  31  48  68  96 131 165 196 240 295
#     4   9  18  31  50  68  96 135 168 200 244 300
#     4   9  18  34  51  69  95 134 171 205 245 299
#
# _framework density 21.740814
#
# number of rings (size 3 to 8) (size 9 to 14) (size 15 to 20)
#    0.857    2.000    0.000    1.714    0.000    1.714 
#    0.000    2.143    0.000    1.714    0.000    0.000 
#    0.000   12.571    0.000    0.000    0.000    0.000 
#
# Total GULP energy -155872.417150 kJ/mol
# GULP energy per Si atom -5566.872041 kJ/mol
# Density = 2.169133 g / cm^3
# Si number density = 21.740814 Si / 1000 Ang^3
#
#
#
# Elastic Constant Matrix: (Units=GPa)
#
#
# Indices 1 2 3 4 5 6 
#
# 1 68.0964 6.7266 5.9374 0.0000 -7.3642 0.0000
# 2 6.7266 21.9744 8.4055 0.0000 -6.6384 0.0000
# 3 5.9374 8.4055 112.9316 0.0000 -6.4521 0.0000
# 4 0.0000 0.0000 0.0000 22.0390 0.0000 -0.7429
# 5 -7.3642 -6.6384 -6.4521 0.0000 22.3237 0.0000
# 6 0.0000 0.0000 0.0000 -0.7429 0.0000 1.7291
#
#
#
# Elastic Compliance Matrix: (Units=1/GPa)
#
#
# Indices 1 2 3 4 5 6 
#
# 1 0.015483 -0.003404 -0.000332 0.000000 0.003999 0.000000
# 2 -0.003404 0.051713 -0.002904 0.000000 0.013416 0.000000
# 3 -0.000332 -0.002904 0.009185 0.000000 0.001682 0.000000
# 4 0.000000 0.000000 0.000000 0.046041 0.000000 0.019781
# 5 0.003999 0.013416 0.001682 0.000000 0.050590 0.000000
# 6 0.000000 0.000000 0.000000 0.019781 0.000000 0.586825
#
#
# Mechanical properties :
#
#
# Convention : Reuss Voigt Hill
#
# Bulk Modulus (GPa) = 15.84771 27.23793 21.54282
# Shear Modulus (GPa) = 6.29604 21.34723 13.82164
#
# Velocity S-wave (km/s) = 1.70360 3.13692 2.52414
# Velocity P-wave (km/s) = 3.34288 5.06715 4.29249
#
# Compressibility (1/GPa) = 0.06310060
#
# Stress axis : x y z
#
# Youngs Moduli (GPa) = 64.58785 19.33746 108.87837
#
# Poissons Ratio (x) = 0.06583 0.03616
# Poissons Ratio (y) = 0.21987 0.31613
# Poissons Ratio (z) = 0.02145 0.05615
#
# Static dielectric constant tensor:
#      x y z
#    x 1.870620 0.000000 -0.013590 
#    y 0.000000 1.798160 0.000000 
#    z -0.013590 0.000000 1.885570 
# 
# From -- ./inp_files/199937.got.cif
#   From: 2010.05.17/outbox.cif.g08.bks.cpg/sg12_100_cif.got.tgz:199937.got - 2010.06.03 13:09:07.
