data_PCOD9169014
_publ_section_title
;
Structure prediction by ZEFSAII (Michael W. Deem and Ramdas Pophale) SiO2 
 PCOD9169014
Probable space group: C 2/M
;
_chemical_formula_sum "Si O2"
_cell_formula_units_Z 38
_cell_length_a 17.441825
_cell_length_b 16.441424
_cell_length_c 14.947141
_cell_angle_alpha 90.000000
_cell_angle_beta 155.884972
_cell_angle_gamma 90.000000
_cell_volume 1751.280951
_symmetry_space_group_name_H-M "C 2/M"
_symmetry_group_IT_number 12
_symmetry_cell_setting 'monoclinic'
loop_
_space_group_symop_operation_xyz
x,y,z
-x,y,-z
-x,-y,-z
x,-y,z
1/2+x,1/2+y,z
1/2-x,1/2+y,-z
1/2-x,1/2-y,-z
1/2+x,1/2-y,z
loop_
_atom_site_type_symbol
_atom_site_label
_atom_site_fract_x
_atom_site_fract_y
_atom_site_fract_z
Si Si1 0.791930 0.092248 0.348973
Si Si2 0.933863 0.406104 0.703366
Si Si3 0.000000 0.285500 0.000000
Si Si4 0.000000 0.000000 0.000000
Si Si5 0.366687 0.598228 0.169715
Si Si6 0.407346 0.648065 0.762727
O O1 0.672452 0.091803 0.314903
O O2 0.001244 0.113903 0.603588
O O3 0.782762 0.000000 0.302522
O O4 0.678209 0.157382 0.171893
O O5 0.934204 0.500000 0.670976
O O6 0.806468 0.354648 0.500253
O O7 0.148585 0.380051 0.940782
O O8 0.048477 0.228487 0.135032
O O9 0.946289 0.928406 0.868842
O O10 0.379746 0.500000 0.171621
O O11 0.462352 0.638826 0.185566
#
# Coordination Sequence:
#
# PCOD9169014 Si02
#       6
#     8   8   4   2   8   8
#     4   9  19  38  58  77 103 139 185 228 263 310
#     4   9  17  34  60  82 101 140 186 220 259 314
#     4  11  23  35  53  78 114 148 171 217 279 315
#     4  10  16  32  52  76 114 144 154 212 258 318
#     4   9  17  34  60  82 101 140 186 220 259 314
#     4  10  19  34  53  80 115 140 175 212 265 324
#
# _framework density 21.698402999999999
#
# number of rings (size 3 to 8) (size 9 to 14) (size 15 to 20)
#    0.000    2.526    2.105    1.579    0.000    3.368 
#    0.000   12.632    0.000    5.053    0.000    0.000 
#    0.000    0.000    0.000    0.000    0.000    0.000 
#
# Total GULP energy -106005.105822 kJ/mol
# GULP energy per Si atom -5579.216096 kJ/mol
# Density = 2.164902 g / cm^3
# Si number density = 21.698403 Si / 1000 Ang^3
#
#
#
# Elastic Constant Matrix: (Units=GPa)
#
#
# Indices 1 2 3 4 5 6 
#
# 1 65.0902 44.2841 72.2584 0.0000 -2.0740 0.0000
# 2 44.2841 122.7327 94.4958 0.0003 -12.3507 0.0003
# 3 72.2584 94.4958 217.2061 0.0011 10.8632 0.0010
# 4 0.0000 0.0003 0.0011 31.6349 0.0004 -15.8093
# 5 -2.0740 -12.3507 10.8632 0.0004 39.9637 0.0004
# 6 0.0000 0.0003 0.0010 -15.8093 0.0004 8.6581
#
#
#
# Elastic Compliance Matrix: (Units=1/GPa)
#
#
# Indices 1 2 3 4 5 6 
#
# 1 0.025788 -0.003608 -0.007117 0.000008 0.002158 0.000016
# 2 -0.003608 0.013977 -0.005157 -0.000001 0.005534 -0.000003
# 3 -0.007117 -0.005157 0.009442 -0.000007 -0.004530 -0.000013
# 4 0.000008 -0.000001 -0.000007 0.361292 -0.000008 0.659702
# 5 0.002158 0.005534 -0.004530 -0.000008 0.028076 -0.000016
# 6 0.000016 -0.000003 -0.000013 0.659702 -0.000016 1.320083
#
#
# Mechanical properties :
#
#
# Convention : Reuss Voigt Hill
#
# Bulk Modulus (GPa) = 57.33251 91.90062 74.61656
# Shear Modulus (GPa) = 2.78360 28.98406 15.88383
#
# Velocity S-wave (km/s) = 1.13386 3.65878 2.70854
# Velocity P-wave (km/s) = 5.30980 7.76495 6.65164
#
# Compressibility (1/GPa) = 0.01744211
#
# Stress axis : x y z
#
# Youngs Moduli (GPa) = 38.77842 71.54436 105.91040
#
# Poissons Ratio (x) = 0.25811 0.75379
# Poissons Ratio (y) = 0.13990 0.54623
# Poissons Ratio (z) = 0.27599 0.36899
#
# Static dielectric constant tensor:
#      x y z
#    x 1.817400 0.000000 -0.001330 
#    y 0.000000 1.780540 0.000000 
#    z -0.001330 0.000000 1.790270 
# 
# From -- ./inp_files/284431.got.cif
#   From: 2010.05.17/outbox.cif.g08.bks.cpg/sg12_143_cif.got.tgz:284431.got - 2010.06.03 13:09:07.
