data_PCOD9169493
_publ_section_title
;
Structure prediction by ZEFSAII (Michael W. Deem and Ramdas Pophale) SiO2 
 PCOD9169493
Probable space group: C 2/M
;
_chemical_formula_sum "Si O2"
_cell_formula_units_Z 48
_cell_length_a 31.300256
_cell_length_b 8.862858
_cell_length_c 24.325059
_cell_angle_alpha 90.000000
_cell_angle_beta 152.947635
_cell_angle_gamma 90.000000
_cell_volume 3069.025295
_symmetry_space_group_name_H-M "C 2/M"
_symmetry_group_IT_number 12
_symmetry_cell_setting 'monoclinic'
loop_
_space_group_symop_operation_xyz
x,y,z
-x,y,-z
-x,-y,-z
x,-y,z
1/2+x,1/2+y,z
1/2-x,1/2+y,-z
1/2-x,1/2-y,-z
1/2+x,1/2-y,z
loop_
_atom_site_type_symbol
_atom_site_label
_atom_site_fract_x
_atom_site_fract_y
_atom_site_fract_z
Si Si1 0.704826 0.680261 0.683748
Si Si2 0.375882 0.320323 0.594617
Si Si3 0.844742 0.318721 0.674019
Si Si4 0.046801 0.681356 0.423088
Si Si5 0.908757 0.674518 0.355193
Si Si6 0.596836 0.816153 0.137832
O O1 0.698103 0.500000 0.670548
O O2 0.633444 0.753486 0.558035
O O3 0.669857 0.730195 0.703822
O O4 0.810516 0.727823 0.790119
O O5 0.386912 0.500000 0.605296
O O6 0.267052 0.284894 0.454034
O O7 0.388124 0.259217 0.670233
O O8 0.441517 0.242765 0.624729
O O9 0.853770 0.500000 0.679118
O O10 0.888782 0.270071 0.782354
O O11 0.051445 0.500000 0.429670
O O12 0.951288 0.726331 0.345740
O O13 0.878948 0.500000 0.317204
O O14 0.000000 0.678429 0.500000
O O15 0.595186 0.000000 0.136080
O O16 0.500000 0.763076 0.000000
#
# Coordination Sequence:
#
# PCOD9169493 Si02
#       6
#     8   8   8   8   8   8
#     4  10  17  27  43  65  89 116 151 187 222 257
#     4  10  18  28  44  67  91 116 148 184 223 266
#     4   9  17  30  44  63  89 119 151 180 220 267
#     4  10  18  28  43  63  90 122 149 176 221 274
#     4   8  16  28  40  59  87 119 148 175 219 274
#     4   9  17  30  47  66  90 120 154 187 216 257
#
# _framework density 15.640145
#
# number of rings (size 3 to 8) (size 9 to 14) (size 15 to 20)
#    0.000    2.667    1.667    2.500    0.000    4.333 
#    0.000    0.000    0.000    4.500    0.000    1.167 
#    0.000    0.000    0.000    0.000    0.000    0.000 
#
# Total GULP energy -133699.018012 kJ/mol
# GULP energy per Si atom -5570.792417 kJ/mol
# Density = 1.560455 g / cm^3
# Si number density = 15.640145 Si / 1000 Ang^3
#
#
#
# Elastic Constant Matrix: (Units=GPa)
#
#
# Indices 1 2 3 4 5 6 
#
# 1 172.8178 46.1717 53.6517 0.0000 -9.7845 0.0000
# 2 46.1717 31.9638 18.7880 0.0000 -1.6503 0.0000
# 3 53.6517 18.7880 69.1341 0.0000 -3.8037 0.0000
# 4 0.0000 0.0000 0.0000 3.5620 0.0000 -9.2186
# 5 -9.7845 -1.6503 -3.8037 0.0000 14.9219 0.0000
# 6 0.0000 0.0000 0.0000 -9.2186 0.0000 23.5689
#
#
#
# Elastic Compliance Matrix: (Units=1/GPa)
#
#
# Indices 1 2 3 4 5 6 
#
# 1 0.010931 -0.012753 -0.004767 0.000000 0.004542 0.000000
# 2 -0.012753 0.052147 -0.004480 0.000000 -0.003737 0.000000
# 3 -0.004767 -0.004480 0.019455 0.000000 0.001338 0.000000
# 4 0.000000 0.000000 0.000000-22.842255 0.000000 -8.934433
# 5 0.004542 -0.003737 0.001338 0.000000 0.069922 0.000000
# 6 0.000000 0.000000 0.000000 -8.934433 0.000000 -3.452151
#
#
# Mechanical properties :
#
#
# Convention : Reuss Voigt Hill
#
# Bulk Modulus (GPa) = 25.95200 56.79316 41.37258
# Shear Modulus (GPa) = -0.19168 18.76417 9.28625
#
# Velocity S-wave (km/s) = -0.35046 3.46749 2.43933
# Velocity P-wave (km/s) = 4.05776 7.24034 5.86890
#
# Compressibility (1/GPa) = 0.03853268
#
# Stress axis : x y z
#
# Youngs Moduli (GPa) = 91.48499 19.17644 51.39938
#
# Poissons Ratio (x) = 0.24455 0.24503
# Poissons Ratio (y) = 1.16669 0.23029
# Poissons Ratio (z) = 0.43613 0.08592
#
# Static dielectric constant tensor:
#      x y z
#    x 1.552100 0.000000 -0.004710 
#    y 0.000000 1.522160 0.000000 
#    z -0.004710 0.000000 1.492370 
# 
# From -- ./inp_files/329122.got.cif
#   From: 2010.05.17/outbox.cif.g08.bks.cpg/sg12_165_cif.got.tgz:329122.got - 2010.06.03 13:09:07.
