data_PCOD9169937
_publ_section_title
;
Structure prediction by ZEFSAII (Michael W. Deem and Ramdas Pophale) SiO2 
 PCOD9169937
Probable space group: C 2/M
;
_chemical_formula_sum "Si O2"
_cell_formula_units_Z 48
_cell_length_a 23.932312
_cell_length_b 13.280348
_cell_length_c 20.179369
_cell_angle_alpha 90.000000
_cell_angle_beta 155.482897
_cell_angle_gamma 90.000000
_cell_volume 2661.417482
_symmetry_space_group_name_H-M "C 2/M"
_symmetry_group_IT_number 12
_symmetry_cell_setting 'monoclinic'
loop_
_space_group_symop_operation_xyz
x,y,z
-x,y,-z
-x,-y,-z
x,-y,z
1/2+x,1/2+y,z
1/2-x,1/2+y,-z
1/2-x,1/2-y,-z
1/2+x,1/2-y,z
loop_
_atom_site_type_symbol
_atom_site_label
_atom_site_fract_x
_atom_site_fract_y
_atom_site_fract_z
Si Si1 0.663525 0.382320 0.117562
Si Si2 0.955087 0.614425 0.797585
Si Si3 0.802750 0.114576 0.576474
Si Si4 0.695286 0.882080 0.869525
Si Si5 0.558921 0.263872 0.810531
Si Si6 0.366780 0.292986 0.779934
O O1 0.665037 0.500000 0.137676
O O2 0.758729 0.369583 0.156852
O O3 0.697476 0.316882 0.218825
O O4 0.510634 0.351637 0.933648
O O5 0.996631 0.500000 0.855309
O O6 0.831130 0.612899 0.611670
O O7 0.903205 0.677091 0.804728
O O8 0.063268 0.684520 0.876814
O O9 0.784928 0.164657 0.629130
O O10 0.918981 0.177634 0.665593
O O11 0.848757 0.000000 0.635635
O O12 0.580627 0.805059 0.769652
O O13 0.663672 0.000000 0.846977
O O14 0.823103 0.845036 0.051209
#
# Coordination Sequence:
#
# PCOD9169937 Si02
#       6
#     8   8   8   8   8   8
#     4  10  18  29  48  72  97 126 156 194 238 287
#     4  10  20  32  49  71  97 127 163 202 237 273
#     4  10  18  31  52  74  94 123 162 204 240 277
#     4  10  19  30  47  70  99 129 154 190 238 289
#     4  10  18  30  48  69  99 125 158 194 238 283
#     4  10  17  29  48  70  98 123 159 196 240 282
#
# _framework density 18.035502000000001
#
# number of rings (size 3 to 8) (size 9 to 14) (size 15 to 20)
#    0.000    2.000    3.333    5.000    0.000    0.000 
#    0.000    1.667    0.000    4.000    0.000   14.000 
#    0.000    0.000    0.000    0.000    0.000    0.000 
#
# Total GULP energy -133809.809573 kJ/mol
# GULP energy per Si atom -5575.408732 kJ/mol
# Density = 1.799445 g / cm^3
# Si number density = 18.035502 Si / 1000 Ang^3
#
#
#
# Elastic Constant Matrix: (Units=GPa)
#
#
# Indices 1 2 3 4 5 6 
#
# 1 66.0458 19.8766 2.6685 0.0000 -16.0102 0.0000
# 2 19.8766 102.6926 -2.3718 0.0000 -6.9665 0.0000
# 3 2.6685 -2.3718 26.9095 0.0000 -6.0717 0.0000
# 4 0.0000 0.0000 0.0000 24.5707 0.0000 -2.6347
# 5 -16.0102 -6.9665 -6.0717 0.0000 16.8114 0.0000
# 6 0.0000 0.0000 0.0000 -2.6347 0.0000 29.0044
#
#
#
# Elastic Compliance Matrix: (Units=1/GPa)
#
#
# Indices 1 2 3 4 5 6 
#
# 1 0.020495 -0.002618 0.002064 0.000000 0.019178 0.000000
# 2 -0.002618 0.010452 0.001737 0.000000 0.002465 0.000000
# 3 0.002064 0.001737 0.041062 0.000000 0.017516 0.000000
# 4 0.000000 0.000000 0.000000 0.041099 0.000000 0.003733
# 5 0.019178 0.002465 0.017516 0.000000 0.085095 0.000000
# 6 0.000000 0.000000 0.000000 0.003733 0.000000 0.034817
#
#
# Mechanical properties :
#
#
# Convention : Reuss Voigt Hill
#
# Bulk Modulus (GPa) = 13.44536 26.22160 19.83348
# Shear Modulus (GPa) = 19.57366 25.77561 22.67464
#
# Velocity S-wave (km/s) = 3.29794 3.78452 3.54958
# Velocity P-wave (km/s) = 4.68754 5.80235 5.27448
#
# Compressibility (1/GPa) = 0.07437513
#
# Stress axis : x y z
#
# Youngs Moduli (GPa) = 48.79342 95.67636 24.35327
#
# Poissons Ratio (x) = 0.25049 -0.05027
# Poissons Ratio (y) = 0.12775 -0.04230
# Poissons Ratio (z) = -0.10072 -0.16620
#
# Static dielectric constant tensor:
#      x y z
#    x 1.653680 0.000000 0.004490 
#    y 0.000000 1.653580 0.000000 
#    z 0.004490 0.000000 1.631780 
# 
# From -- ./inp_files/289652.got.cif
#   From: 2010.05.17/outbox.cif.g08.bks.cpg/sg12_145_cif.got.tgz:289652.got - 2010.06.03 13:09:07.
