data_PCOD9169930
_publ_section_title
;
Structure prediction by ZEFSAII (Michael W. Deem and Ramdas Pophale) SiO2 
 PCOD9169930
Probable space group: C 2/M
;
_chemical_formula_sum "Si O2"
_cell_formula_units_Z 64
_cell_length_a 31.381647
_cell_length_b 7.556215
_cell_length_c 15.232792
_cell_angle_alpha 90.000000
_cell_angle_beta 99.412605
_cell_angle_gamma 90.000000
_cell_volume 3563.465677
_symmetry_space_group_name_H-M "C 2/M"
_symmetry_group_IT_number 12
_symmetry_cell_setting 'monoclinic'
loop_
_space_group_symop_operation_xyz
x,y,z
-x,y,-z
-x,-y,-z
x,-y,z
1/2+x,1/2+y,z
1/2-x,1/2+y,-z
1/2-x,1/2-y,-z
1/2+x,1/2-y,z
loop_
_atom_site_type_symbol
_atom_site_label
_atom_site_fract_x
_atom_site_fract_y
_atom_site_fract_z
Si Si1 0.118276 0.204055 0.265169
Si Si2 0.649804 0.286490 0.928491
Si Si3 0.813219 0.787095 0.578738
Si Si4 0.055820 0.784299 0.935090
Si Si5 0.183843 0.289616 0.134699
Si Si6 0.539402 0.716455 0.130647
Si Si7 0.220750 0.709849 0.618802
Si Si8 0.218917 0.205997 0.813373
O O1 0.145185 0.282454 0.355339
O O2 0.151473 0.207006 0.194410
O O3 0.073631 0.282032 0.213690
O O4 0.108909 0.000000 0.284956
O O5 0.647999 0.500000 0.920207
O O6 0.600333 0.222578 0.907176
O O7 0.682858 0.217905 0.866102
O O8 0.667694 0.243372 0.030952
O O9 0.809455 0.747164 0.474699
O O10 0.768636 0.720759 0.608552
O O11 0.812870 0.000000 0.588202
O O12 0.010448 0.728585 0.877137
O O13 0.055816 0.000000 0.934432
O O14 0.054352 0.732068 0.037411
O O15 0.183676 0.500000 0.152053
O O16 0.232686 0.218912 0.161194
O O17 0.540460 0.500000 0.132219
O O18 0.224074 0.500000 0.630156
O O19 0.206393 0.783394 0.707254
O O20 0.223314 0.000000 0.839773
#
# Coordination Sequence:
#
# PCOD9169930 Si02
#       8
#     8   8   8   8   8   8   8   8
#     4  10  17  29  48  68  90 120 151 179 218 270
#     4  10  19  32  48  63  86 123 159 187 219 261
#     4   9  18  30  46  67  90 116 146 181 223 268
#     4   8  13  23  42  67  89 111 145 188 224 256
#     4  11  21  30  41  63  94 123 153 187 217 252
#     4   8  13  22  42  69  90 110 143 186 224 259
#     4  10  19  31  48  67  88 117 148 184 225 266
#     4  10  21  33  45  63  89 122 156 189 221 256
#
# _framework density 17.960045000000001
#
# number of rings (size 3 to 8) (size 9 to 14) (size 15 to 20)
#    0.000    2.500    2.500    1.875    0.000    2.000 
#    0.000    0.000    0.000    1.500    0.000    0.875 
#    0.000    7.000    0.000    0.000    0.000    0.000 
#
# Total GULP energy -178472.925702 kJ/mol
# GULP energy per Si atom -5577.278928 kJ/mol
# Density = 1.791917 g / cm^3
# Si number density = 17.960045 Si / 1000 Ang^3
#
#
#
# Elastic Constant Matrix: (Units=GPa)
#
#
# Indices 1 2 3 4 5 6 
#
# 1 111.6370 -0.2242 62.7948 0.0000 29.3906 0.0000
# 2 -0.2242 44.3962 -13.3979 0.0000 2.1381 0.0000
# 3 62.7948 -13.3979 71.6532 0.0000 18.8230 0.0000
# 4 0.0000 0.0000 0.0000 13.0934 0.0000 2.2142
# 5 29.3906 2.1381 18.8230 0.0000 29.8239 0.0000
# 6 0.0000 0.0000 0.0000 2.2142 0.0000 4.5822
#
#
#
# Elastic Compliance Matrix: (Units=1/GPa)
#
#
# Indices 1 2 3 4 5 6 
#
# 1 0.020787 -0.004395 -0.016471 0.000000 -0.009774 0.000000
# 2 -0.004395 0.025557 0.009559 0.000000 -0.003534 0.000000
# 3 -0.016471 0.009559 0.031281 0.000000 -0.004196 0.000000
# 4 0.000000 0.000000 0.000000 0.083170 0.000000 -0.040188
# 5 -0.009774 -0.003534 -0.004196 0.000000 0.046064 0.000000
# 6 0.000000 0.000000 0.000000 -0.040188 0.000000 0.237654
#
#
# Mechanical properties :
#
#
# Convention : Reuss Voigt Hill
#
# Bulk Modulus (GPa) = 18.17862 36.22576 27.20219
# Shear Modulus (GPa) = 10.29941 21.40081 15.85011
#
# Velocity S-wave (km/s) = 2.39731 3.45567 2.97395
# Velocity P-wave (km/s) = 4.21977 6.01134 5.19339
#
# Compressibility (1/GPa) = 0.05500966
#
# Stress axis : x y z
#
# Youngs Moduli (GPa) = 48.10696 39.12803 31.96871
#
# Poissons Ratio (x) = 0.17197 0.52657
# Poissons Ratio (y) = 0.21143 -0.30558
# Poissons Ratio (z) = 0.79238 -0.37402
#
# Static dielectric constant tensor:
#      x y z
#    x 1.640160 0.000000 0.023680 
#    y 0.000000 1.635140 0.000000 
#    z 0.023680 0.000000 1.595170 
# 
# From -- ./inp_files/248425.got.cif
#   From: 2010.05.17/outbox.cif.g08.bks.cpg/sg12_125_cif.got.tgz:248425.got - 2010.06.03 13:09:07.
