data_PCOD9169596
_publ_section_title
;
Structure prediction by ZEFSAII (Michael W. Deem and Ramdas Pophale) SiO2 
 PCOD9169596
Probable space group: C 2/M
;
_chemical_formula_sum "Si O2"
_cell_formula_units_Z 56
_cell_length_a 14.477719
_cell_length_b 8.357053
_cell_length_c 23.817801
_cell_angle_alpha 90.000000
_cell_angle_beta 108.253842
_cell_angle_gamma 90.000000
_cell_volume 2736.726492
_symmetry_space_group_name_H-M "C 2/M"
_symmetry_group_IT_number 12
_symmetry_cell_setting 'monoclinic'
loop_
_space_group_symop_operation_xyz
x,y,z
-x,y,-z
-x,-y,-z
x,-y,z
1/2+x,1/2+y,z
1/2-x,1/2+y,-z
1/2-x,1/2-y,-z
1/2+x,1/2-y,z
loop_
_atom_site_type_symbol
_atom_site_label
_atom_site_fract_x
_atom_site_fract_y
_atom_site_fract_z
Si Si1 0.162987 0.308886 0.226714
Si Si2 0.891866 0.813631 0.428660
Si Si3 0.855626 0.192578 0.003282
Si Si4 0.647984 0.809896 0.693722
Si Si5 0.448352 0.693444 0.903297
Si Si6 0.608904 0.187600 0.455332
Si Si7 0.074741 0.304873 0.327667
O O1 0.168771 0.500000 0.230022
O O2 0.271471 0.238859 0.246045
O O3 0.097591 0.259275 0.161987
O O4 0.118123 0.249367 0.277240
O O5 0.829822 0.773734 0.361890
O O6 0.848788 0.773264 0.481574
O O7 0.991343 0.712255 0.439732
O O8 0.917590 0.000000 0.432914
O O9 0.941138 0.245000 0.062089
O O10 0.856945 0.000000 0.003540
O O11 0.750000 0.250000 0.000000
O O12 0.886491 0.243366 0.946402
O O13 0.539183 0.760429 0.690534
O O14 0.648547 0.000000 0.685624
O O15 0.446791 0.500000 0.900400
O O16 0.625901 0.249618 0.395368
O O17 0.631597 0.000000 0.462621
O O18 0.079184 0.500000 0.329772
#
# Coordination Sequence:
#
# PCOD9169596 Si02
#       7
#     8   8   8   8   8   8   8
#     4  11  22  37  56  82 111 142 181 229 269 309
#     4  10  17  27  46  75 104 131 171 230 283 325
#     4   9  19  37  62  87 115 147 184 222 262 309
#     4  10  20  37  56  75 103 145 185 221 272 337
#     4   9  20  39  57  80 115 153 181 213 264 324
#     4   9  15  28  49  71  97 137 180 220 274 340
#     4   8  18  35  54  74 103 140 180 222 271 326
#
# _framework density 20.462403999999999
#
# number of rings (size 3 to 8) (size 9 to 14) (size 15 to 20)
#    0.000    2.571    0.000    5.143    0.000    2.286 
#    0.000   15.000    0.000    0.000    0.000    0.000 
#    0.000    0.000    0.000    0.000    0.000    0.000 
#
# Total GULP energy -156304.044115 kJ/mol
# GULP energy per Si atom -5582.287290 kJ/mol
# Density = 2.041583 g / cm^3
# Si number density = 20.462404 Si / 1000 Ang^3
#
#
#
# Elastic Constant Matrix: (Units=GPa)
#
#
# Indices 1 2 3 4 5 6 
#
# 1 88.8758 7.0529 41.5956 0.0000 12.8781 0.0000
# 2 7.0529 36.8564 13.5063 0.0000 2.3316 0.0000
# 3 41.5956 13.5063 125.3226 0.0000 18.8692 0.0000
# 4 0.0000 0.0000 0.0000 31.5626 0.0000 -1.5198
# 5 12.8781 2.3316 18.8692 0.0000 20.1967 0.0000
# 6 0.0000 0.0000 0.0000 -1.5198 0.0000 14.9902
#
#
#
# Elastic Compliance Matrix: (Units=1/GPa)
#
#
# Indices 1 2 3 4 5 6 
#
# 1 0.013816 -0.000959 -0.003692 0.000000 -0.005250 0.000000
# 2 -0.000959 0.028319 -0.002716 0.000000 -0.000121 0.000000
# 3 -0.003692 -0.002716 0.010585 0.000000 -0.007221 0.000000
# 4 0.000000 0.000000 0.000000 0.031838 0.000000 0.003228
# 5 -0.005250 -0.000121 -0.007221 0.000000 0.059621 0.000000
# 6 0.000000 0.000000 0.000000 0.003228 0.000000 0.067037
#
#
# Mechanical properties :
#
#
# Convention : Reuss Voigt Hill
#
# Bulk Modulus (GPa) = 26.32484 41.70716 34.01600
# Shear Modulus (GPa) = 20.95455 25.94324 23.44890
#
# Velocity S-wave (km/s) = 3.20355 3.56455 3.38886
# Velocity P-wave (km/s) = 5.15525 6.11293 5.65440
#
# Compressibility (1/GPa) = 0.03798694
#
# Stress axis : x y z
#
# Youngs Moduli (GPa) = 72.37791 35.31252 94.47549
#
# Poissons Ratio (x) = 0.03386 0.34880
# Poissons Ratio (y) = 0.06940 0.25655
# Poissons Ratio (z) = 0.26722 0.09589
#
# Static dielectric constant tensor:
#      x y z
#    x 1.761360 0.000000 -0.004350 
#    y 0.000000 1.701800 0.000000 
#    z -0.004350 0.000000 1.734030 
# 
# From -- ./inp_files/338167.got.cif
#   From: 2010.05.17/outbox.cif.g08.bks.cpg/sg12_170_cif.got.tgz:338167.got - 2010.06.03 13:09:07.
