data_PCOD9169779
_publ_section_title
;
Structure prediction by ZEFSAII (Michael W. Deem and Ramdas Pophale) SiO2 
 PCOD9169779
Probable space group: C 2/M
;
_chemical_formula_sum "Si O2"
_cell_formula_units_Z 48
_cell_length_a 21.044158
_cell_length_b 8.867352
_cell_length_c 32.311428
_cell_angle_alpha 90.000000
_cell_angle_beta 28.524528
_cell_angle_gamma 90.000000
_cell_volume 2879.299233
_symmetry_space_group_name_H-M "C 2/M"
_symmetry_group_IT_number 12
_symmetry_cell_setting 'monoclinic'
loop_
_space_group_symop_operation_xyz
x,y,z
-x,y,-z
-x,-y,-z
x,-y,z
1/2+x,1/2+y,z
1/2-x,1/2+y,-z
1/2-x,1/2-y,-z
1/2+x,1/2-y,z
loop_
_atom_site_type_symbol
_atom_site_label
_atom_site_fract_x
_atom_site_fract_y
_atom_site_fract_z
Si Si1 0.935080 0.682208 0.280803
Si Si2 0.053505 0.672826 0.087073
Si Si3 0.254232 0.182131 0.543184
Si Si4 0.483395 0.182969 0.556916
Si Si5 0.794465 0.325759 0.910949
Si Si6 0.684733 0.680398 0.734695
O O1 0.928331 0.500000 0.285057
O O2 0.864547 0.753027 0.360744
O O3 0.859486 0.743542 0.283250
O O4 0.090662 0.725497 0.186298
O O5 0.018755 0.500000 0.099073
O O6 0.130978 0.679150 0.087006
O O7 0.920986 0.768978 0.170318
O O8 0.159463 0.733224 0.993305
O O9 0.250000 0.250000 0.500000
O O10 0.392255 0.229757 0.486519
O O11 0.248470 0.000000 0.545538
O O12 0.500000 0.235324 0.500000
O O13 0.336875 0.225441 0.656517
O O14 0.486837 0.000000 0.553930
O O15 0.761720 0.500000 0.921429
O O16 0.678767 0.500000 0.732803
#
# Coordination Sequence:
#
# PCOD9169779 Si02
#       6
#     8   8   8   8   8   8
#     4  10  19  31  47  71  99 128 165 207 250 293
#     4   9  16  25  38  63  97 126 158 201 246 291
#     4  11  22  37  54  73 101 133 170 209 249 297
#     4   9  17  32  52  74  97 130 171 206 244 296
#     4   8  15  26  40  60  91 128 162 195 238 295
#     4  10  17  28  48  70  96 131 167 202 246 295
#
# _framework density 16.670724
#
# number of rings (size 3 to 8) (size 9 to 14) (size 15 to 20)
#    0.000    2.500    1.667    3.000    0.000    4.667 
#    0.000    4.167    0.000    0.000    0.000    1.167 
#    0.000    9.333    0.000    0.000    0.000    0.000 
#
# Total GULP energy -133721.919406 kJ/mol
# GULP energy per Si atom -5571.746642 kJ/mol
# Density = 1.663278 g / cm^3
# Si number density = 16.670724 Si / 1000 Ang^3
#
#
#
# Elastic Constant Matrix: (Units=GPa)
#
#
# Indices 1 2 3 4 5 6 
#
# 1 65.5719 23.8651 55.0072 -0.0001 4.8012 0.0016
# 2 23.8651 60.0303 55.4220 -0.0004 4.3396 0.0023
# 3 55.0072 55.4220 175.6665 0.0009 10.0337 -0.0002
# 4 -0.0001 -0.0004 0.0009 30.2719 0.0000 3.9149
# 5 4.8012 4.3396 10.0337 0.0000 13.9269 0.0000
# 6 0.0016 0.0023 -0.0002 3.9149 0.0000 13.4907
#
#
#
# Elastic Compliance Matrix: (Units=1/GPa)
#
#
# Indices 1 2 3 4 5 6 
#
# 1 0.021192 -0.003178 -0.005499 0.000000 -0.002354 -0.000002
# 2 -0.003178 0.024038 -0.006491 0.000001 -0.001718 -0.000004
# 3 -0.005499 -0.006491 0.009635 -0.000001 -0.003023 0.000002
# 4 0.000000 0.000001 -0.000001 0.034322 0.000000 -0.009960
# 5 -0.002354 -0.001718 -0.003023 0.000000 0.075329 0.000001
# 6 -0.000002 -0.000004 0.000002 -0.009960 0.000001 0.077016
#
#
# Mechanical properties :
#
#
# Convention : Reuss Voigt Hill
#
# Bulk Modulus (GPa) = 40.76583 63.31748 52.04166
# Shear Modulus (GPa) = 17.85431 22.66952 20.26192
#
# Velocity S-wave (km/s) = 3.27616 3.69160 3.49007
# Velocity P-wave (km/s) = 6.23038 7.49895 6.89391
#
# Compressibility (1/GPa) = 0.02453035
#
# Stress axis : x y z
#
# Youngs Moduli (GPa) = 47.18664 41.60025 103.78843
#
# Poissons Ratio (x) = 0.13221 0.57073
# Poissons Ratio (y) = 0.14996 0.67366
# Poissons Ratio (z) = 0.25948 0.27001
#
# Static dielectric constant tensor:
#      x y z
#    x 1.528670 0.000000 0.001370 
#    y 0.000000 1.561920 0.000000 
#    z 0.001370 0.000000 1.593120 
# 
# From -- ./inp_files/230394.got.cif
#   From: 2010.05.17/outbox.cif.g08.bks.cpg/sg12_116_cif.got.tgz:230394.got - 2010.06.03 13:09:07.
