data_PCOD9169015
_publ_section_title
;
Structure prediction by ZEFSAII (Michael W. Deem and Ramdas Pophale) SiO2 
 PCOD9169015
Probable space group: C 2/M
;
_chemical_formula_sum "Si O2"
_cell_formula_units_Z 60
_cell_length_a 29.795123
_cell_length_b 9.047569
_cell_length_c 12.978836
_cell_angle_alpha 90.000000
_cell_angle_beta 74.470585
_cell_angle_gamma 90.000000
_cell_volume 3371.020963
_symmetry_space_group_name_H-M "C 2/M"
_symmetry_group_IT_number 12
_symmetry_cell_setting 'monoclinic'
loop_
_space_group_symop_operation_xyz
x,y,z
-x,y,-z
-x,-y,-z
x,-y,z
1/2+x,1/2+y,z
1/2-x,1/2+y,-z
1/2-x,1/2-y,-z
1/2+x,1/2-y,z
loop_
_atom_site_type_symbol
_atom_site_label
_atom_site_fract_x
_atom_site_fract_y
_atom_site_fract_z
Si Si1 0.500000 0.246703 0.500000
Si Si2 0.905601 0.177888 0.299555
Si Si3 0.501075 0.833391 0.264241
Si Si4 0.898954 0.322962 0.891260
Si Si5 0.861681 0.823167 0.112221
Si Si6 0.165570 0.821060 0.239156
Si Si7 0.394798 0.329998 0.531496
Si Si8 0.244305 0.823156 0.891026
O O1 0.496421 0.166689 0.612529
O O2 0.450089 0.327700 0.522231
O O3 0.875431 0.221126 0.219568
O O4 0.888787 0.237466 0.421418
O O5 0.958752 0.230366 0.256617
O O6 0.905299 0.000000 0.305537
O O7 0.550423 0.787163 0.186805
O O8 0.491309 0.000000 0.235398
O O9 0.892404 0.500000 0.889568
O O10 0.860979 0.239996 0.844830
O O11 0.892345 0.264653 0.010616
O O12 0.807606 0.796640 0.119225
O O13 0.869913 0.000000 0.096211
O O14 0.135418 0.767887 0.356221
O O15 0.216788 0.751921 0.204543
O O16 0.167114 0.000000 0.234247
O O17 0.380019 0.500000 0.533628
O O18 0.251607 0.000000 0.893757
O O19 0.250000 0.750000 0.000000
#
# Coordination Sequence:
#
# PCOD9169015 Si02
#       8
#     4   8   8   8   8   8   8   8
#     4  10  16  32  52  78 111 150 185 224 273 322
#     4   9  20  39  59  79 107 149 192 228 268 325
#     4  10  21  34  51  81 115 149 184 226 276 328
#     4  11  22  35  54  82 115 148 182 225 278 332
#     4  10  22  40  60  80 107 144 188 232 276 329
#     4  11  21  35  55  85 116 143 179 229 281 330
#     4   9  18  32  55  83 111 144 185 229 272 321
#     4  11  22  37  58  85 111 143 183 232 284 332
#
# _framework density 17.798762
#
# number of rings (size 3 to 8) (size 9 to 14) (size 15 to 20)
#    0.000    1.867    2.667    1.600    0.000    3.200 
#    0.000    4.000    0.000    0.000    0.000    0.000 
#    0.000    0.000    0.000    0.000    0.000    0.000 
#
# Total GULP energy -167259.041490 kJ/mol
# GULP energy per Si atom -5575.301383 kJ/mol
# Density = 1.775825 g / cm^3
# Si number density = 17.798762 Si / 1000 Ang^3
#
#
#
# Elastic Constant Matrix: (Units=GPa)
#
#
# Indices 1 2 3 4 5 6 
#
# 1 88.7878 31.4580 64.1414 0.0000 5.7000 0.0000
# 2 31.4580 39.3512 29.4549 0.0000 1.0042 0.0000
# 3 64.1414 29.4549 120.8498 0.0000 -2.1838 0.0000
# 4 0.0000 0.0000 0.0000 1.1951 0.0000 -5.5743
# 5 5.7000 1.0042 -2.1838 0.0000 36.4106 0.0000
# 6 0.0000 0.0000 0.0000 -5.5743 0.0000 24.3534
#
#
#
# Elastic Compliance Matrix: (Units=1/GPa)
#
#
# Indices 1 2 3 4 5 6 
#
# 1 0.021770 -0.010533 -0.009053 0.000000 -0.003661 0.000000
# 2 -0.010533 0.036242 -0.003234 0.000000 0.000455 0.000000
# 3 -0.009053 -0.003234 0.013910 0.000000 0.002341 0.000000
# 4 0.000000 0.000000 0.000000-12.371944 0.000000 -2.831823
# 5 -0.003661 0.000455 0.002341 0.000000 0.028165 0.000000
# 6 0.000000 0.000000 0.000000 -2.831823 0.000000 -0.607116
#
#
# Mechanical properties :
#
#
# Convention : Reuss Voigt Hill
#
# Bulk Modulus (GPa) = 38.05140 55.45527 46.75333
# Shear Modulus (GPa) = -0.38988 20.65412 10.13212
#
# Velocity S-wave (km/s) = -0.46853 3.41020 2.38851
# Velocity P-wave (km/s) = 4.59700 6.83596 5.82506
#
# Compressibility (1/GPa) = 0.02628024
#
# Stress axis : x y z
#
# Youngs Moduli (GPa) = 45.93454 27.59213 71.88827
#
# Poissons Ratio (x) = 0.29064 0.65083
# Poissons Ratio (y) = 0.48385 0.23252
# Poissons Ratio (z) = 0.41586 0.08925
#
# Static dielectric constant tensor:
#      x y z
#    x 1.589660 0.000000 -0.005570 
#    y 0.000000 1.607700 0.000000 
#    z -0.005570 0.000000 1.632170 
# 
# From -- ./inp_files/187335.got.cif
#   From: 2010.05.17/outbox.cif.g08.bks.cpg/sg12_94_cif.got.tgz:187335.got - 2010.06.03 13:09:07.
