data_PCOD9169274
_publ_section_title
;
Structure prediction by ZEFSAII (Michael W. Deem and Ramdas Pophale) SiO2 
 PCOD9169274
Probable space group: C 2/M
;
_chemical_formula_sum "Si O2"
_cell_formula_units_Z 44
_cell_length_a 5.520509
_cell_length_b 19.527255
_cell_length_c 20.518391
_cell_angle_alpha 90.000000
_cell_angle_beta 105.281752
_cell_angle_gamma 90.000000
_cell_volume 2133.681161
_symmetry_space_group_name_H-M "C 2/M"
_symmetry_group_IT_number 12
_symmetry_cell_setting 'monoclinic'
loop_
_space_group_symop_operation_xyz
x,y,z
-x,y,-z
-x,-y,-z
x,-y,z
1/2+x,1/2+y,z
1/2-x,1/2+y,-z
1/2-x,1/2-y,-z
1/2+x,1/2-y,z
loop_
_atom_site_type_symbol
_atom_site_label
_atom_site_fract_x
_atom_site_fract_y
_atom_site_fract_z
Si Si1 0.708177 0.500000 0.105140
Si Si2 0.338877 0.083135 0.347114
Si Si3 0.289182 0.000000 0.892508
Si Si4 0.500000 0.206953 0.000000
Si Si5 0.216351 0.350288 0.147294
Si Si6 0.586900 0.583171 0.577806
Si Si7 0.265115 0.863593 0.197078
O O1 0.419069 0.500000 0.067195
O O2 0.748729 0.432322 0.151564
O O3 0.923696 0.500000 0.067748
O O4 0.623798 0.102712 0.387761
O O5 0.283442 0.115423 0.273152
O O6 0.121288 0.103443 0.383114
O O7 0.332849 0.000000 0.341279
O O8 0.247625 0.067416 0.846121
O O9 0.581329 0.164320 0.069096
O O10 0.750000 0.250000 0.000000
O O11 0.502670 0.324014 0.166905
O O12 0.022346 0.329509 0.189795
O O13 0.500000 0.606171 0.500000
O O14 0.585057 0.500000 0.577402
#
# Coordination Sequence:
#
# PCOD9169274 Si02
#       7
#     4   8   4   4   8   8   8
#     4   8  14  24  40  65  95 126 142 190 246 320
#     4  10  17  25  42  63  90 133 173 213 262 300
#     4   8  16  29  50  74 102 120 151 194 266 308
#     4  12  26  45  62  77 100 138 184 206 244 322
#     4  10  21  35  56  78 103 131 162 219 264 316
#     4   9  17  26  35  54  88 133 187 226 240 274
#     4  10  17  30  47  74  99 122 165 209 272 305
#
# _framework density 20.621637
#
# number of rings (size 3 to 8) (size 9 to 14) (size 15 to 20)
#    0.000    2.364    0.909    2.727    0.000    2.545 
#    0.000    0.000    0.000    7.636    0.000    0.000 
#    0.000    0.000    0.000    0.000    0.000  229.091 
#
# Total GULP energy -122609.967599 kJ/mol
# GULP energy per Si atom -5573.180345 kJ/mol
# Density = 2.057470 g / cm^3
# Si number density = 20.621637 Si / 1000 Ang^3
#
#
#
# Elastic Constant Matrix: (Units=GPa)
#
#
# Indices 1 2 3 4 5 6 
#
# 1 229.2579 2.0800 46.0830 0.0000 -11.9766 0.0000
# 2 2.0800 54.0935 -0.2683 0.0000 -3.9803 0.0000
# 3 46.0830 -0.2683 108.8244 0.0000 -8.4984 0.0000
# 4 0.0000 0.0000 0.0000 3.4471 0.0000 0.7917
# 5 -11.9766 -3.9803 -8.4984 0.0000 40.5123 0.0000
# 6 0.0000 0.0000 0.0000 0.7917 0.0000 0.3217
#
#
#
# Elastic Compliance Matrix: (Units=1/GPa)
#
#
# Indices 1 2 3 4 5 6 
#
# 1 0.004809 -0.000121 -0.001959 0.000000 0.000999 0.000000
# 2 -0.000121 0.018628 0.000241 0.000000 0.001845 0.000000
# 3 -0.001959 0.000241 0.010142 0.000000 0.001572 0.000000
# 4 0.000000 0.000000 0.000000 0.667260 0.000000 -1.642144
# 5 0.000999 0.001845 0.001572 0.000000 0.025490 0.000000
# 6 0.000000 0.000000 0.000000 -1.642144 0.000000 7.149838
#
#
# Mechanical properties :
#
#
# Convention : Reuss Voigt Hill
#
# Bulk Modulus (GPa) = 33.44266 54.21836 43.83051
# Shear Modulus (GPa) = 0.63373 31.80829 16.22101
#
# Velocity S-wave (km/s) = 0.55496 3.93169 2.80768
# Velocity P-wave (km/s) = 4.08205 6.85274 5.64017
#
# Compressibility (1/GPa) = 0.02990193
#
# Stress axis : x y z
#
# Youngs Moduli (GPa) = 207.94804 53.68224 98.60078
#
# Poissons Ratio (x) = 0.00650 0.19313
# Poissons Ratio (y) = 0.02519 -0.02379
# Poissons Ratio (z) = 0.40730 -0.01295
#
# Static dielectric constant tensor:
#      x y z
#    x 12.714900 0.000000 2.927940 
#    y 0.000000 1.744570 0.000000 
#    z 2.927940 0.000000 2.461790 
# 
# From -- ./inp_files/253187.got.cif
#   From: 2010.05.17/outbox.cif.g08.bks.cpg/sg12_127_cif.got.tgz:253187.got - 2010.06.03 13:09:07.
