data_PCOD9169267
_publ_section_title
;
Structure prediction by ZEFSAII (Michael W. Deem and Ramdas Pophale) SiO2 
 PCOD9169267
Probable space group: C 2/M
;
_chemical_formula_sum "Si O2"
_cell_formula_units_Z 48
_cell_length_a 17.913741
_cell_length_b 14.175688
_cell_length_c 12.749557
_cell_angle_alpha 90.000000
_cell_angle_beta 105.756899
_cell_angle_gamma 90.000000
_cell_volume 3115.956024
_symmetry_space_group_name_H-M "C 2/M"
_symmetry_group_IT_number 12
_symmetry_cell_setting 'monoclinic'
loop_
_space_group_symop_operation_xyz
x,y,z
-x,y,-z
-x,-y,-z
x,-y,z
1/2+x,1/2+y,z
1/2-x,1/2+y,-z
1/2-x,1/2-y,-z
1/2+x,1/2-y,z
loop_
_atom_site_type_symbol
_atom_site_label
_atom_site_fract_x
_atom_site_fract_y
_atom_site_fract_z
Si Si1 0.500223 0.275582 0.817564
Si Si2 0.837964 0.736288 0.867085
Si Si3 0.706956 0.607181 0.763081
Si Si4 0.427827 0.893664 0.054345
Si Si5 0.036215 0.889442 0.627013
Si Si6 0.865126 0.108496 0.031304
O O1 0.414235 0.259867 0.828449
O O2 0.544788 0.175361 0.842621
O O3 0.502661 0.323310 0.705290
O O4 0.551664 0.342405 0.913916
O O5 0.770163 0.688577 0.774793
O O6 0.860961 0.657412 0.962811
O O7 0.820730 0.829776 0.927816
O O8 0.736526 0.500000 0.756352
O O9 0.629419 0.621517 0.665406
O O10 0.677573 0.612138 0.872652
O O11 0.408521 0.000000 0.077832
O O12 0.500000 0.896586 0.000000
O O13 0.000000 0.870543 0.500000
O O14 0.021477 0.000000 0.648322
O O15 0.874074 0.000000 0.003851
#
# Coordination Sequence:
#
# PCOD9169267 Si02
#       6
#     8   8   8   8   8   8
#     4   9  17  27  43  67  90 117 152 187 220 257
#     4  10  17  25  41  68  97 119 144 181 223 263
#     4   9  17  29  45  65  89 116 148 185 221 262
#     4   8  14  24  38  60  92 124 147 166 198 255
#     4   9  18  34  53  67  82 112 153 193 233 276
#     4   9  17  28  42  63  95 130 152 171 210 267
#
# _framework density 15.404581
#
# number of rings (size 3 to 8) (size 9 to 14) (size 15 to 20)
#    0.000    3.000    0.000    4.000    0.000    2.667 
#    0.000    0.833    0.000    0.500    0.000    0.000 
#    0.000    0.000    0.000    0.000    0.000    0.000 
#
# Total GULP energy -133655.199638 kJ/mol
# GULP energy per Si atom -5568.966652 kJ/mol
# Density = 1.536952 g / cm^3
# Si number density = 15.404581 Si / 1000 Ang^3
#
#
#
# Elastic Constant Matrix: (Units=GPa)
#
#
# Indices 1 2 3 4 5 6 
#
# 1 47.3651 28.9475 19.5889 0.0000 10.8947 0.0000
# 2 28.9475 121.1468 44.6199 0.0000 7.4807 0.0000
# 3 19.5889 44.6199 76.0016 0.0000 9.6658 0.0000
# 4 0.0000 0.0000 0.0000 20.9806 0.0000 0.2321
# 5 10.8947 7.4807 9.6658 0.0000 14.2834 0.0000
# 6 0.0000 0.0000 0.0000 0.2321 0.0000 18.9361
#
#
#
# Elastic Compliance Matrix: (Units=1/GPa)
#
#
# Indices 1 2 3 4 5 6 
#
# 1 0.029320 -0.005042 -0.002285 0.000000 -0.018177 0.000000
# 2 -0.005042 0.011427 -0.005621 0.000000 0.001665 0.000000
# 3 -0.002285 -0.005621 0.018000 0.000000 -0.007494 0.000000
# 4 0.000000 0.000000 0.000000 0.047670 0.000000 -0.000584
# 5 -0.018177 0.001665 -0.007494 0.000000 0.088075 0.000000
# 6 0.000000 0.000000 0.000000 -0.000584 0.000000 0.052816
#
#
# Mechanical properties :
#
#
# Convention : Reuss Voigt Hill
#
# Bulk Modulus (GPa) = 30.44093 47.86956 39.15525
# Shear Modulus (GPa) = 17.59618 20.93050 19.26334
#
# Velocity S-wave (km/s) = 3.38341 3.69008 3.54007
# Velocity P-wave (km/s) = 5.92175 7.02125 6.49481
#
# Compressibility (1/GPa) = 0.03285051
#
# Stress axis : x y z
#
# Youngs Moduli (GPa) = 34.10639 87.51576 55.55705
#
# Poissons Ratio (x) = 0.44123 0.12697
# Poissons Ratio (y) = 0.17196 0.31227
# Poissons Ratio (z) = 0.07795 0.49190
#
# Static dielectric constant tensor:
#      x y z
#    x 1.541550 0.000000 0.018790 
#    y 0.000000 1.537640 0.000000 
#    z 0.018790 0.000000 1.491880 
# 
# From -- ./inp_files/155477.got.cif
#   From: 2010.05.17/outbox.cif.g08.bks.cpg/sg12_78_cif.got.tgz:155477.got - 2010.06.03 13:09:07.
