data_PCOD9169637
_publ_section_title
;
Structure prediction by ZEFSAII (Michael W. Deem and Ramdas Pophale) SiO2 
 PCOD9169637
Probable space group: C 2/M
;
_chemical_formula_sum "Si O2"
_cell_formula_units_Z 64
_cell_length_a 21.547830
_cell_length_b 13.340516
_cell_length_c 11.563383
_cell_angle_alpha 90.000000
_cell_angle_beta 95.474126
_cell_angle_gamma 90.000000
_cell_volume 3308.840985
_symmetry_space_group_name_H-M "C 2/M"
_symmetry_group_IT_number 12
_symmetry_cell_setting 'monoclinic'
loop_
_space_group_symop_operation_xyz
x,y,z
-x,y,-z
-x,-y,-z
x,-y,z
1/2+x,1/2+y,z
1/2-x,1/2+y,-z
1/2-x,1/2-y,-z
1/2+x,1/2-y,z
loop_
_atom_site_type_symbol
_atom_site_label
_atom_site_fract_x
_atom_site_fract_y
_atom_site_fract_z
Si Si1 0.829631 0.885793 0.108201
Si Si2 0.136405 0.115249 0.489842
Si Si3 0.763082 0.387858 0.388037
Si Si4 0.985676 0.618913 0.360633
Si Si5 0.363695 0.748503 0.312804
Si Si6 0.672527 0.383402 0.152734
Si Si7 0.021693 0.886402 0.882824
Si Si8 0.071047 0.230378 0.273894
O O1 0.824001 0.794327 0.197291
O O2 0.904475 0.888116 0.107222
O O3 0.810072 0.000000 0.140817
O O4 0.804925 0.866242 0.974164
O O5 0.210327 0.125369 0.476084
O O6 0.118461 0.148141 0.614570
O O7 0.100613 0.185529 0.394601
O O8 0.120807 0.000000 0.463148
O O9 0.789070 0.500000 0.404125
O O10 0.817877 0.309132 0.389756
O O11 0.725366 0.381652 0.260087
O O12 0.976930 0.500000 0.345458
O O13 0.923464 0.679390 0.309112
O O14 0.000000 0.639220 0.500000
O O15 0.045022 0.659617 0.297658
O O16 0.648020 0.500000 0.150192
O O17 0.621019 0.302013 0.184075
O O18 0.990500 0.829946 0.772549
O O19 0.998427 0.000000 0.876618
O O20 0.000000 0.839337 0.000000
#
# Coordination Sequence:
#
# PCOD9169637 Si02
#       8
#     8   8   8   8   8   8   8   8
#     4  10  20  31  50  82 118 144 169 216 274 326
#     4  10  21  36  55  84 111 133 170 227 279 328
#     4   9  20  37  58  77 100 139 190 230 263 309
#     4  11  24  40  53  74 109 146 187 222 257 315
#     4  12  21  36  55  79 109 147 182 217 268 321
#     4   9  18  35  58  85 111 139 177 222 272 325
#     4  10  17  27  49  82 113 142 172 205 258 330
#     4  11  18  34  57  80 107 143 176 218 266 318
#
# _framework density 19.342120000000001
#
# number of rings (size 3 to 8) (size 9 to 14) (size 15 to 20)
#    0.000    1.750    3.750    3.000    0.000    0.500 
#    0.000    0.625    0.000    7.125    0.000    0.000 
#    0.000    0.000    0.000    0.000    0.000    0.000 
#
# Total GULP energy -178269.790498 kJ/mol
# GULP energy per Si atom -5570.930953 kJ/mol
# Density = 1.929810 g / cm^3
# Si number density = 19.342120 Si / 1000 Ang^3
#
#
#
# Elastic Constant Matrix: (Units=GPa)
#
#
# Indices 1 2 3 4 5 6 
#
# 1 19.7423 19.2093 -10.0377 0.0000 -3.7247 0.0000
# 2 19.2093 90.3981 21.0374 0.0000 -17.5732 0.0000
# 3 -10.0377 21.0374 48.8049 0.0000 -7.2721 0.0000
# 4 0.0000 0.0000 0.0000 29.1301 0.0000 -0.0028
# 5 -3.7247 -17.5732 -7.2721 0.0000 13.9978 0.0000
# 6 0.0000 0.0000 0.0000 -0.0028 0.0000 34.8220
#
#
#
# Elastic Compliance Matrix: (Units=1/GPa)
#
#
# Indices 1 2 3 4 5 6 
#
# 1 0.092921 -0.025230 0.031380 0.000000 0.009354 0.000000
# 2 -0.025230 0.022191 -0.012577 0.000000 0.014611 0.000000
# 3 0.031380 -0.012577 0.033879 0.000000 0.010161 0.000000
# 4 0.000000 0.000000 0.000000 0.034329 0.000000 0.000003
# 5 0.009354 0.014611 0.010161 0.000000 0.097551 0.000000
# 6 0.000000 0.000000 0.000000 0.000003 0.000000 0.028718
#
#
# Mechanical properties :
#
#
# Convention : Reuss Voigt Hill
#
# Bulk Modulus (GPa) = 7.34555 24.37369 15.85962
# Shear Modulus (GPa) = 13.59358 24.17239 18.88298
#
# Velocity S-wave (km/s) = 2.65391 3.53898 3.12791
# Velocity P-wave (km/s) = 3.63275 5.41553 4.61112
#
# Compressibility (1/GPa) = 0.13613694
#
# Stress axis : x y z
#
# Youngs Moduli (GPa) = 10.76186 45.06367 29.51669
#
# Poissons Ratio (x) = 1.13694 -0.92624
# Poissons Ratio (y) = 0.27152 0.37124
# Poissons Ratio (z) = -0.33771 0.56678
#
# Static dielectric constant tensor:
#      x y z
#    x 1.699260 0.000000 -0.009990 
#    y 0.000000 1.694760 0.000000 
#    z -0.009990 0.000000 1.739350 
# 
# From -- ./inp_files/174635.got.cif
#   From: 2010.05.17/outbox.cif.g08.bks.cpg/sg12_88_cif.got.tgz:174635.got - 2010.06.03 13:09:07.
