data_PCOD9169183
_publ_section_title
;
Structure prediction by ZEFSAII (Michael W. Deem and Ramdas Pophale) SiO2 
 PCOD9169183
Probable space group: C 2/M
;
_chemical_formula_sum "Si O2"
_cell_formula_units_Z 48
_cell_length_a 15.674202
_cell_length_b 7.787723
_cell_length_c 20.282457
_cell_angle_alpha 90.000000
_cell_angle_beta 45.614272
_cell_angle_gamma 90.000000
_cell_volume 1769.326723
_symmetry_space_group_name_H-M "C 2/M"
_symmetry_group_IT_number 12
_symmetry_cell_setting 'monoclinic'
loop_
_space_group_symop_operation_xyz
x,y,z
-x,y,-z
-x,-y,-z
x,-y,z
1/2+x,1/2+y,z
1/2-x,1/2+y,-z
1/2-x,1/2-y,-z
1/2+x,1/2-y,z
loop_
_atom_site_type_symbol
_atom_site_label
_atom_site_fract_x
_atom_site_fract_y
_atom_site_fract_z
Si Si1 0.939094 0.807252 0.882112
Si Si2 0.199744 0.302690 0.769883
Si Si3 0.453230 0.202061 0.734954
Si Si4 0.472458 0.293497 0.439953
Si Si5 0.724530 0.789203 0.611561
Si Si6 0.139671 0.294050 0.941446
O O1 0.055767 0.691303 0.831995
O O2 0.892711 0.783036 0.832465
O O3 0.849677 0.779207 0.991029
O O4 0.984968 0.000000 0.862287
O O5 0.241141 0.500000 0.752992
O O6 0.246599 0.232053 0.675371
O O7 0.207926 0.224897 0.839316
O O8 0.437793 0.234539 0.665543
O O9 0.591354 0.267807 0.666686
O O10 0.449064 0.000000 0.748212
O O11 0.500000 0.244762 0.500000
O O12 0.472851 0.500000 0.437012
O O13 0.335390 0.229534 0.507544
O O14 0.724287 0.000000 0.611715
O O15 0.154648 0.500000 0.935782
O O16 0.000000 0.259484 0.000000
#
# Coordination Sequence:
#
# PCOD9169183 Si02
#       6
#     8   8   8   8   8   8
#     4  10  17  24  38  62  91 118 147 185 229 270
#     4   8  14  25  40  59  87 122 155 183 214 261
#     4  10  19  32  49  66  89 122 159 192 220 263
#     4  10  20  33  49  70  95 119 146 186 235 279
#     4   8  15  29  48  69  92 121 155 187 222 265
#     4   8  13  22  36  56  86 121 151 179 216 263
#
# _framework density 27.128962999999999
#
# number of rings (size 3 to 8) (size 9 to 14) (size 15 to 20)
#    0.000    3.000    0.000    4.500    0.000    3.333 
#    0.000    3.333    0.000    0.000    0.000    1.167 
#    0.000    0.000    0.000    0.000    0.000    0.000 
#
# Total GULP energy -134132.185080 kJ/mol
# GULP energy per Si atom -5588.841045 kJ/mol
# Density = 2.706722 g / cm^3
# Si number density = 27.128963 Si / 1000 Ang^3
#
#
#
# Elastic Constant Matrix: (Units=GPa)
#
#
# Indices 1 2 3 4 5 6 
#
# 1 59.2367 -1.9961 14.1519 0.0000 18.9417 0.0000
# 2 -1.9961 62.8825 16.7102 0.0000 -1.5925 0.0001
# 3 14.1519 16.7102 253.9813 0.0000 6.0581 0.0000
# 4 0.0000 0.0000 0.0000 29.6876 0.0000 11.3603
# 5 18.9417 -1.5925 6.0581 0.0000 63.4327 0.0000
# 6 0.0000 0.0001 0.0000 11.3603 0.0000 6.6672
#
#
#
# Elastic Compliance Matrix: (Units=1/GPa)
#
#
# Indices 1 2 3 4 5 6 
#
# 1 0.018907 0.000717 -0.000969 0.000000 -0.005535 0.000000
# 2 0.000717 0.016229 -0.001115 0.000000 0.000300 0.000000
# 3 -0.000969 -0.001115 0.004068 0.000000 -0.000127 0.000000
# 4 0.000000 0.000000 0.000000 0.096799 0.000000 -0.164936
# 5 -0.005535 0.000300 -0.000127 0.000000 0.017437 0.000000
# 6 0.000000 0.000000 0.000000 -0.164936 0.000000 0.431022
#
#
# Mechanical properties :
#
#
# Convention : Reuss Voigt Hill
#
# Bulk Modulus (GPa) = 27.41860 48.20363 37.81112
# Shear Modulus (GPa) = 8.34235 43.10646 25.72440
#
# Velocity S-wave (km/s) = 1.75549 3.99048 3.08267
# Velocity P-wave (km/s) = 3.77329 6.24811 5.16123
#
# Compressibility (1/GPa) = 0.03647160
#
# Stress axis : x y z
#
# Youngs Moduli (GPa) = 52.89051 61.61687 245.84163
#
# Poissons Ratio (x) = -0.04420 0.23814
# Poissons Ratio (y) = -0.03794 0.27409
# Poissons Ratio (z) = 0.05123 0.06870
#
# Static dielectric constant tensor:
#      x y z
#    x 2.330000 0.000000 0.040340 
#    y 0.000000 1.970660 0.000000 
#    z 0.040340 0.000000 2.137530 
# 
# From -- ./inp_files/248772.got.cif
#   From: 2010.05.17/outbox.cif.g08.bks.cpg/sg12_125_cif.got.tgz:248772.got - 2010.06.03 13:09:07.
