data_PCOD9169028
_publ_section_title
;
Structure prediction by ZEFSAII (Michael W. Deem and Ramdas Pophale) SiO2 
 PCOD9169028
Probable space group: C 2/M
;
_chemical_formula_sum "Si O2"
_cell_formula_units_Z 44
_cell_length_a 25.891021
_cell_length_b 9.053544
_cell_length_c 30.106642
_cell_angle_alpha 90.000000
_cell_angle_beta 160.459957
_cell_angle_gamma 90.000000
_cell_volume 2360.377868
_symmetry_space_group_name_H-M "C 2/M"
_symmetry_group_IT_number 12
_symmetry_cell_setting 'monoclinic'
loop_
_space_group_symop_operation_xyz
x,y,z
-x,y,-z
-x,-y,-z
x,-y,z
1/2+x,1/2+y,z
1/2-x,1/2+y,-z
1/2-x,1/2-y,-z
1/2+x,1/2-y,z
loop_
_atom_site_type_symbol
_atom_site_label
_atom_site_fract_x
_atom_site_fract_y
_atom_site_fract_z
Si Si1 0.000181 0.177231 0.598983
Si Si2 0.000000 0.754032 0.000000
Si Si3 0.135660 0.320602 0.943057
Si Si4 0.753201 0.668864 0.870965
Si Si5 0.720449 0.835487 0.712641
Si Si6 0.805534 0.175875 0.679136
O O1 0.836704 0.256416 0.463285
O O2 0.105231 0.233129 0.725435
O O3 0.101011 0.222019 0.637497
O O4 0.984457 0.000000 0.588047
O O5 0.893389 0.670228 0.949230
O O6 0.874367 0.836000 0.867731
O O7 0.135657 0.500000 0.941182
O O8 0.963974 0.258815 0.796934
O O9 0.250000 0.250000 0.000000
O O10 0.191207 0.268402 0.037242
O O11 0.711861 0.500000 0.846877
O O12 0.766387 0.800061 0.699624
O O13 0.650824 0.000000 0.657596
O O14 0.820205 0.000000 0.684121
#
# Coordination Sequence:
#
# PCOD9169028 Si02
#       6
#     8   4   8   8   8   8
#     4  10  21  36  56  85 118 156 194 235 286 349
#     4  10  16  32  54  86 117 156 189 232 291 346
#     4  11  23  42  64  88 114 151 196 246 291 341
#     4   9  19  35  58  86 119 150 191 240 289 343
#     4  10  20  32  51  82 121 158 193 233 284 345
#     4  11  22  38  57  84 118 155 194 240 289 343
#
# _framework density 18.641083999999999
#
# number of rings (size 3 to 8) (size 9 to 14) (size 15 to 20)
#    0.000    1.818    1.818    2.727    0.000    4.364 
#    0.000    3.636    0.000    0.000    0.000    0.000 
#    0.000    0.000    0.000    0.000    0.000    0.000 
#
# Total GULP energy -122704.749637 kJ/mol
# GULP energy per Si atom -5577.488620 kJ/mol
# Density = 1.859866 g / cm^3
# Si number density = 18.641084 Si / 1000 Ang^3
#
#
#
# Elastic Constant Matrix: (Units=GPa)
#
#
# Indices 1 2 3 4 5 6 
#
# 1 88.1117 30.3226 69.2025 -0.0011 2.2765 -0.0006
# 2 30.3226 75.8739 59.4506 -0.0019 7.0517 0.0001
# 3 69.2025 59.4506 175.5527 -0.0006 -3.6955 0.0003
# 4 -0.0011 -0.0019 -0.0006 23.5670 -0.0008 11.0524
# 5 2.2765 7.0517 -3.6955 -0.0008 17.9346 -0.0003
# 6 -0.0006 0.0001 0.0003 11.0524 -0.0003 10.5043
#
#
#
# Elastic Compliance Matrix: (Units=1/GPa)
#
#
# Indices 1 2 3 4 5 6 
#
# 1 0.016795 -0.001668 -0.006114 0.000000 -0.002736 0.000001
# 2 -0.001668 0.019441 -0.006109 0.000002 -0.008691 -0.000003
# 3 -0.006114 -0.006109 0.010287 0.000000 0.005298 0.000000
# 4 0.000000 0.000002 0.000000 0.083767 0.000001 -0.088138
# 5 -0.002736 -0.008691 0.005298 0.000001 0.060614 0.000000
# 6 0.000001 -0.000003 0.000000 -0.088138 0.000000 0.187936
#
#
# Mechanical properties :
#
#
# Convention : Reuss Voigt Hill
#
# Bulk Modulus (GPa) = 53.35599 73.05441 63.20520
# Shear Modulus (GPa) = 12.11040 22.43867 17.27453
#
# Velocity S-wave (km/s) = 2.55161 3.47323 3.04746
# Velocity P-wave (km/s) = 6.11276 7.44040 6.80902
#
# Compressibility (1/GPa) = 0.01874204
#
# Stress axis : x y z
#
# Youngs Moduli (GPa) = 59.54025 51.43829 97.21379
#
# Poissons Ratio (x) = 0.08578 0.59432
# Poissons Ratio (y) = 0.09929 0.59389
# Poissons Ratio (z) = 0.36400 0.31424
#
# Static dielectric constant tensor:
#      x y z
#    x 1.635330 0.000000 -0.031610 
#    y 0.000000 1.644070 0.000000 
#    z -0.031610 0.000000 1.657530 
# 
# From -- ./inp_files/382580.got.cif
#   From: 2010.05.17/outbox.cif.g08.bks.cpg/sg12_192_cif.got.tgz:382580.got - 2010.06.03 13:09:07.
