data_PCOD9169926
_publ_section_title
;
Structure prediction by ZEFSAII (Michael W. Deem and Ramdas Pophale) SiO2 
 PCOD9169926
Probable space group: C 2/M
;
_chemical_formula_sum "Si O2"
_cell_formula_units_Z 50
_cell_length_a 19.194424
_cell_length_b 13.823458
_cell_length_c 10.054400
_cell_angle_alpha 90.000000
_cell_angle_beta 50.385424
_cell_angle_gamma 90.000000
_cell_volume 2055.117340
_symmetry_space_group_name_H-M "C 2/M"
_symmetry_group_IT_number 12
_symmetry_cell_setting 'monoclinic'
loop_
_space_group_symop_operation_xyz
x,y,z
-x,y,-z
-x,-y,-z
x,-y,z
1/2+x,1/2+y,z
1/2-x,1/2+y,-z
1/2-x,1/2-y,-z
1/2+x,1/2-y,z
loop_
_atom_site_type_symbol
_atom_site_label
_atom_site_fract_x
_atom_site_fract_y
_atom_site_fract_z
Si Si1 0.633961 0.887084 0.374889
Si Si2 0.924484 0.109030 0.238525
Si Si3 0.659081 0.719776 0.189724
Si Si4 0.659599 0.393729 0.945456
Si Si5 0.262520 0.388110 0.648587
Si Si6 0.421705 0.829483 0.261827
Si Si7 0.000000 0.500000 0.000000
O O1 0.599406 0.811039 0.307401
O O2 0.741500 0.865043 0.230211
O O3 0.606231 0.858413 0.555537
O O4 0.615930 0.000000 0.371563
O O5 0.901212 0.104579 0.110452
O O6 0.832826 0.111701 0.440823
O O7 0.956664 0.220180 0.215279
O O8 0.963405 0.000000 0.225030
O O9 0.688637 0.658503 0.283001
O O10 0.750000 0.750000 0.000000
O O11 0.616382 0.657517 0.124613
O O12 0.678967 0.500000 0.974114
O O13 0.236582 0.500000 0.708807
O O14 0.170156 0.335750 0.716973
O O15 0.486018 0.913397 0.128811
#
# Coordination Sequence:
#
# PCOD9169926 Si02
#       7
#     8   8   8   8   8   8   2
#     4  10  17  29  48  67 109 149 185 224 284 339
#     4  10  20  33  59  87 112 145 185 235 304 357
#     4  10  19  28  44  81 113 153 177 219 292 357
#     4   9  17  30  48  82 119 148 175 216 299 366
#     4  11  19  31  55  82 114 144 187 239 291 349
#     4  12  20  38  52  81 114 152 199 242 284 337
#     4  12  28  36  58  84 114 160 212 244 282 332
#
# _framework density 24.329509999999999
#
# number of rings (size 3 to 8) (size 9 to 14) (size 15 to 20)
#    0.000    1.600    4.800    2.880    0.000    0.640 
#    0.000    0.400    0.000    0.000    0.000   20.160 
#    0.000    2.560    0.000    0.000    0.000    0.000 
#
# Total GULP energy -139352.168633 kJ/mol
# GULP energy per Si atom -5574.086745 kJ/mol
# Density = 2.427413 g / cm^3
# Si number density = 24.329510 Si / 1000 Ang^3
#
#
#
# Elastic Constant Matrix: (Units=GPa)
#
#
# Indices 1 2 3 4 5 6 
#
# 1 62.0383 26.9879 28.0138 0.0000 5.5940 0.0000
# 2 26.9879 232.7370 82.4098 0.0000 16.9772 0.0000
# 3 28.0138 82.4098 160.3361 0.0000 38.2934 0.0000
# 4 0.0000 0.0000 0.0000 58.2180 0.0000 10.3400
# 5 5.5940 16.9772 38.2934 0.0000 29.8754 0.0000
# 6 0.0000 0.0000 0.0000 10.3400 0.0000 7.3225
#
#
#
# Elastic Compliance Matrix: (Units=1/GPa)
#
#
# Indices 1 2 3 4 5 6 
#
# 1 0.017771 -0.001164 -0.002695 0.000000 0.000788 0.000000
# 2 -0.001164 0.005339 -0.002692 0.000000 0.000635 0.000000
# 3 -0.002695 -0.002692 0.010961 0.000000 -0.012015 0.000000
# 4 0.000000 0.000000 0.000000 0.022927 0.000000 -0.032375
# 5 0.000788 0.000635 -0.012015 0.000000 0.048365 0.000000
# 6 0.000000 0.000000 0.000000 -0.032375 0.000000 0.182281
#
#
# Mechanical properties :
#
#
# Convention : Reuss Voigt Hill
#
# Bulk Modulus (GPa) = 47.69026 81.10382 64.39704
# Shear Modulus (GPa) = 16.24771 40.26317 28.25544
#
# Velocity S-wave (km/s) = 2.58702 4.07247 3.41158
# Velocity P-wave (km/s) = 5.34490 7.45126 6.48418
#
# Compressibility (1/GPa) = 0.02096864
#
# Stress axis : x y z
#
# Youngs Moduli (GPa) = 56.27055 187.31325 91.23147
#
# Poissons Ratio (x) = 0.21803 0.24587
# Poissons Ratio (y) = 0.06550 0.24562
# Poissons Ratio (z) = 0.15165 0.50430
#
# Static dielectric constant tensor:
#      x y z
#    x 2.175860 0.000000 -0.023680 
#    y 0.000000 2.034650 0.000000 
#    z -0.023680 0.000000 1.907830 
# 
# From -- ./inp_files/104384.got.cif
#   From: 2010.05.17/outbox.cif.g08.bks.cpg/sg12_53_cif.got.tgz:104384.got - 2010.06.03 13:09:07.
