data_PCOD9169624
_publ_section_title
;
Structure prediction by ZEFSAII (Michael W. Deem and Ramdas Pophale) SiO2 
 PCOD9169624
Probable space group: C 2/M
;
_chemical_formula_sum "Si O2"
_cell_formula_units_Z 64
_cell_length_a 21.912370
_cell_length_b 15.026077
_cell_length_c 12.171466
_cell_angle_alpha 90.000000
_cell_angle_beta 115.483127
_cell_angle_gamma 90.000000
_cell_volume 3617.654445
_symmetry_space_group_name_H-M "C 2/M"
_symmetry_group_IT_number 12
_symmetry_cell_setting 'monoclinic'
loop_
_space_group_symop_operation_xyz
x,y,z
-x,y,-z
-x,-y,-z
x,-y,z
1/2+x,1/2+y,z
1/2-x,1/2+y,-z
1/2-x,1/2-y,-z
1/2+x,1/2-y,z
loop_
_atom_site_type_symbol
_atom_site_label
_atom_site_fract_x
_atom_site_fract_y
_atom_site_fract_z
Si Si1 0.306588 0.640318 0.623888
Si Si2 0.821089 0.727570 0.996440
Si Si3 0.654981 0.103399 0.793261
Si Si4 0.833447 0.655404 0.588168
Si Si5 0.578656 0.206346 0.540941
Si Si6 0.789267 0.597388 0.774977
Si Si7 0.682238 0.598323 0.115647
Si Si8 0.137017 0.901246 0.562282
O O1 0.228505 0.618866 0.534157
O O2 0.312664 0.746567 0.615530
O O3 0.326806 0.611938 0.760959
O O4 0.351064 0.601029 0.559811
O O5 0.806527 0.672554 0.874986
O O6 0.850189 0.822413 0.980411
O O7 0.750000 0.750000 0.000000
O O8 0.859807 0.664082 0.111320
O O9 0.620791 0.152284 0.664263
O O10 0.736417 0.103068 0.839385
O O11 0.634193 0.000000 0.787612
O O12 0.896856 0.669447 0.558430
O O13 0.835796 0.601179 0.702478
O O14 0.500000 0.193695 0.500000
O O15 0.596815 0.311856 0.561236
O O16 0.794298 0.500000 0.831641
O O17 0.712239 0.608733 0.672533
O O18 0.659314 0.500000 0.065050
O O19 0.111071 0.000000 0.573571
#
# Coordination Sequence:
#
# PCOD9169624 Si02
#       8
#     8   8   8   8   8   8   8   8
#     4   9  14  26  48  74 108 136 158 201 263 314
#     4  10  19  31  48  73 111 140 167 201 252 322
#     4  10  21  35  50  69 100 139 174 211 254 303
#     4   9  17  29  49  74 106 134 170 217 261 303
#     4  11  22  36  54  74 101 140 186 222 258 299
#     4  10  18  30  53  82 107 136 166 209 269 323
#     4  10  17  27  48  77 106 136 163 197 255 319
#     4   9  18  30  49  80 112 136 162 205 263 320
#
# _framework density 17.691022
#
# number of rings (size 3 to 8) (size 9 to 14) (size 15 to 20)
#    0.000    2.250    2.500    3.000    0.000    2.000 
#    0.000    0.625    0.000    0.750    0.000    1.750 
#    0.000    3.250    0.000    0.000    0.000    0.000 
#
# Total GULP energy -178311.342843 kJ/mol
# GULP energy per Si atom -5572.229464 kJ/mol
# Density = 1.765076 g / cm^3
# Si number density = 17.691022 Si / 1000 Ang^3
#
#
#
# Elastic Constant Matrix: (Units=GPa)
#
#
# Indices 1 2 3 4 5 6 
#
# 1 51.0995 12.4983 13.9963 0.0000 -10.5332 0.0000
# 2 12.4983 120.9069 41.2959 0.0000 -12.1020 0.0000
# 3 13.9963 41.2959 65.5743 0.0000 -25.2508 0.0000
# 4 0.0000 0.0000 0.0000 9.7954 0.0000 -2.7077
# 5 -10.5332 -12.1020 -25.2508 0.0000 14.2247 0.0000
# 6 0.0000 0.0000 0.0000 -2.7077 0.0000 9.5300
#
#
#
# Elastic Compliance Matrix: (Units=1/GPa)
#
#
# Indices 1 2 3 4 5 6 
#
# 1 0.024078 -0.002108 0.007468 0.000000 0.029293 0.000000
# 2 -0.002108 0.011090 -0.011067 0.000000 -0.011771 0.000000
# 3 0.007468 -0.011067 0.060451 0.000000 0.103423 0.000000
# 4 0.000000 0.000000 0.000000 0.110790 0.000000 0.031477
# 5 0.029293 -0.011771 0.103423 0.000000 0.265568 0.000000
# 6 0.000000 0.000000 0.000000 0.031477 0.000000 0.113875
#
#
# Mechanical properties :
#
#
# Convention : Reuss Voigt Hill
#
# Bulk Modulus (GPa) = 11.87566 41.46240 26.66903
# Shear Modulus (GPa) = 7.99573 18.02936 13.01254
#
# Velocity S-wave (km/s) = 2.12825 3.19584 2.71504
# Velocity P-wave (km/s) = 3.57305 6.09144 4.99361
#
# Compressibility (1/GPa) = 0.08420583
#
# Stress axis : x y z
#
# Youngs Moduli (GPa) = 41.53180 90.16735 16.54241
#
# Poissons Ratio (x) = 0.19004 -0.12354
# Poissons Ratio (y) = 0.08753 0.18308
# Poissons Ratio (z) = -0.31016 0.99789
#
# Static dielectric constant tensor:
#      x y z
#    x 1.572940 0.000000 -0.030140 
#    y 0.000000 1.668940 0.000000 
#    z -0.030140 0.000000 1.594060 
# 
# From -- ./inp_files/176140.got.cif
#   From: 2010.05.17/outbox.cif.g08.bks.cpg/sg12_89_cif.got.tgz:176140.got - 2010.06.03 13:09:07.
