data_PCOD9169897
_publ_section_title
;
Structure prediction by ZEFSAII (Michael W. Deem and Ramdas Pophale) SiO2 
 PCOD9169897
Probable space group: C 2/M
;
_chemical_formula_sum "Si O2"
_cell_formula_units_Z 64
_cell_length_a 28.595329
_cell_length_b 13.600804
_cell_length_c 11.741521
_cell_angle_alpha 90.000000
_cell_angle_beta 110.727963
_cell_angle_gamma 90.000000
_cell_volume 4270.922555
_symmetry_space_group_name_H-M "C 2/M"
_symmetry_group_IT_number 12
_symmetry_cell_setting 'monoclinic'
loop_
_space_group_symop_operation_xyz
x,y,z
-x,y,-z
-x,-y,-z
x,-y,z
1/2+x,1/2+y,z
1/2-x,1/2+y,-z
1/2-x,1/2-y,-z
1/2+x,1/2-y,z
loop_
_atom_site_type_symbol
_atom_site_label
_atom_site_fract_x
_atom_site_fract_y
_atom_site_fract_z
Si Si1 0.219954 0.889511 0.971759
Si Si2 0.881234 0.310273 0.834732
Si Si3 0.317646 0.194816 0.166863
Si Si4 0.726884 0.189876 0.630317
Si Si5 0.909384 0.381648 0.112223
Si Si6 0.717226 0.114756 0.374073
Si Si7 0.171421 0.889060 0.180214
Si Si8 0.982881 0.386228 0.852544
O O1 0.277132 0.864808 0.055166
O O2 0.189825 0.882101 0.064983
O O3 0.216575 0.000000 0.924596
O O4 0.197922 0.807391 0.870329
O O5 0.832622 0.363829 0.741645
O O6 0.868480 0.195310 0.831562
O O7 0.930825 0.329462 0.803624
O O8 0.891129 0.350946 0.970223
O O9 0.307688 0.172761 0.290138
O O10 0.372209 0.167799 0.169714
O O11 0.706766 0.145426 0.495956
O O12 0.741020 0.305448 0.628782
O O13 0.779578 0.136594 0.703495
O O14 0.906985 0.500000 0.118686
O O15 0.967822 0.352095 0.172190
O O16 0.731080 0.000000 0.377456
O O17 0.154721 0.000000 0.187925
O O18 0.973062 0.500000 0.815175
O O19 0.000000 0.384111 0.000000
#
# Coordination Sequence:
#
# PCOD9169897 Si02
#       8
#     8   8   8   8   8   8   8   8
#     4   9  17  27  41  63  91 118 143 178 217 260
#     4  10  17  29  46  68  87 113 152 189 221 255
#     4  10  18  30  43  65  90 118 149 177 217 270
#     4   9  20  32  43  64  93 121 151 179 216 261
#     4  10  18  28  45  68  90 114 146 183 226 273
#     4  10  19  31  47  65  88 119 153 187 215 253
#     4   9  16  28  44  62  90 122 147 174 218 267
#     4   8  15  27  43  64  89 113 141 183 230 266
#
# _framework density 14.985053000000001
#
# number of rings (size 3 to 8) (size 9 to 14) (size 15 to 20)
#    0.000    2.625    1.250    2.625    1.750    2.000 
#    0.000    0.000    0.000    4.875    0.000    2.625 
#    0.000    0.000    0.000   10.250    0.000    0.250 
#
# Total GULP energy -178283.247746 kJ/mol
# GULP energy per Si atom -5571.351492 kJ/mol
# Density = 1.495095 g / cm^3
# Si number density = 14.985053 Si / 1000 Ang^3
#
#
#
# Elastic Constant Matrix: (Units=GPa)
#
#
# Indices 1 2 3 4 5 6 
#
# 1 91.1434 14.7312 -3.4696 0.0000 -9.0423 0.0000
# 2 14.7312 66.5932 -10.1932 0.0000 1.3866 0.0000
# 3 -3.4696 -10.1932 19.7723 0.0000 -5.0561 0.0000
# 4 0.0000 0.0000 0.0000 10.7467 0.0000 -0.0173
# 5 -9.0423 1.3866 -5.0561 0.0000 12.0973 0.0000
# 6 0.0000 0.0000 0.0000 -0.0173 0.0000 18.1678
#
#
#
# Elastic Compliance Matrix: (Units=1/GPa)
#
#
# Indices 1 2 3 4 5 6 
#
# 1 0.012638 -0.002441 0.003859 0.000000 0.011339 0.000000
# 2 -0.002441 0.016811 0.008150 0.000000 -0.000345 0.000000
# 3 0.003859 0.008150 0.062649 0.000000 0.028135 0.000000
# 4 0.000000 0.000000 0.000000 0.093052 0.000000 0.000089
# 5 0.011339 -0.000345 0.028135 0.000000 0.102937 0.000000
# 6 0.000000 0.000000 0.000000 0.000089 0.000000 0.055042
#
#
# Mechanical properties :
#
#
# Convention : Reuss Voigt Hill
#
# Bulk Modulus (GPa) = 8.99005 19.96062 14.47533
# Shear Modulus (GPa) = 13.84762 19.96506 16.90634
#
# Velocity S-wave (km/s) = 3.04319 3.65407 3.36253
# Velocity P-wave (km/s) = 4.28490 5.58142 4.97557
#
# Compressibility (1/GPa) = 0.11123409
#
# Stress axis : x y z
#
# Youngs Moduli (GPa) = 79.12552 59.48398 15.96191
#
# Poissons Ratio (x) = 0.14521 -0.06160
# Poissons Ratio (y) = 0.19316 -0.13009
# Poissons Ratio (z) = -0.30534 -0.48479
#
# Static dielectric constant tensor:
#      x y z
#    x 1.499420 0.000000 -0.011050 
#    y 0.000000 1.507440 0.000000 
#    z -0.011050 0.000000 1.487160 
# 
# From -- ./inp_files/183051.got.cif
#   From: 2010.05.17/outbox.cif.g08.bks.cpg/sg12_92_cif.got.tgz:183051.got - 2010.06.03 13:09:07.
