data_PCOD9169592
_publ_section_title
;
Structure prediction by ZEFSAII (Michael W. Deem and Ramdas Pophale) SiO2 
 PCOD9169592
Probable space group: C 2/M
;
_chemical_formula_sum "Si O2"
_cell_formula_units_Z 64
_cell_length_a 27.388941
_cell_length_b 21.408372
_cell_length_c 5.544014
_cell_angle_alpha 90.000000
_cell_angle_beta 91.051554
_cell_angle_gamma 90.000000
_cell_volume 3250.199764
_symmetry_space_group_name_H-M "C 2/M"
_symmetry_group_IT_number 12
_symmetry_cell_setting 'monoclinic'
loop_
_space_group_symop_operation_xyz
x,y,z
-x,y,-z
-x,-y,-z
x,-y,z
1/2+x,1/2+y,z
1/2-x,1/2+y,-z
1/2-x,1/2-y,-z
1/2+x,1/2-y,z
loop_
_atom_site_type_symbol
_atom_site_label
_atom_site_fract_x
_atom_site_fract_y
_atom_site_fract_z
Si Si1 0.944613 0.889869 0.555782
Si Si2 0.245316 0.429494 0.490712
Si Si3 0.686929 0.253461 0.919172
Si Si4 0.198640 0.100695 0.001816
Si Si5 0.430587 0.260853 0.095685
Si Si6 0.084254 0.091959 0.945495
Si Si7 0.577466 0.247244 0.406316
Si Si8 0.185984 0.306551 0.418823
O O1 0.942211 0.925883 0.809336
O O2 0.914154 0.823886 0.583533
O O3 0.000000 0.871865 0.500000
O O4 0.925890 0.929377 0.327051
O O5 0.226135 0.500000 0.500124
O O6 0.275719 0.417959 0.742788
O O7 0.203617 0.376773 0.467350
O O8 0.276938 0.423484 0.245345
O O9 0.704001 0.231916 0.656048
O O10 0.698412 0.324606 0.978983
O O11 0.627868 0.248949 0.906068
O O12 0.703160 0.213641 0.152838
O O13 0.141499 0.083191 0.999981
O O14 0.433631 0.335692 0.085193
O O15 0.449329 0.235638 0.845894
O O16 0.449120 0.234517 0.347185
O O17 0.628225 0.209541 0.408004
#
# Coordination Sequence:
#
# PCOD9169592 Si02
#       8
#     8   8   8   8   8   8   8   8
#     4  10  17  27  46  74 110 136 154 191 247 324
#     4  12  26  39  51  72 102 140 187 230 263 297
#     4   9  17  30  50  76  92 121 166 207 263 305
#     4  11  22  38  57  74 104 138 175 224 263 315
#     4   7  12  22  38  58  87 115 148 185 219 282
#     4   9  17  30  46  68  97 133 163 191 245 303
#     4   8  14  25  40  61  91 131 161 184 233 291
#     4  10  19  33  51  72 104 135 171 218 257 308
#
# _framework density 19.691096999999999
#
# number of rings (size 3 to 8) (size 9 to 14) (size 15 to 20)
#    0.000    2.500    0.000    4.500    0.000    5.000 
#    0.000    0.000    0.000    0.000    0.000    0.000 
#    0.000   35.500    0.000    0.000    0.000   70.500 
#
# Total GULP energy -178309.616080 kJ/mol
# GULP energy per Si atom -5572.175503 kJ/mol
# Density = 1.964628 g / cm^3
# Si number density = 19.691097 Si / 1000 Ang^3
#
#
#
# Elastic Constant Matrix: (Units=GPa)
#
#
# Indices 1 2 3 4 5 6 
#
# 1 72.4196 16.7195 25.8248 0.0000 -2.5245 0.0000
# 2 16.7195 77.9290 24.2285 0.0000 12.3976 0.0000
# 3 25.8248 24.2285 224.6826 0.0000 5.4754 0.0000
# 4 0.0000 0.0000 0.0000 -15.7458 0.0000 5.3145
# 5 -2.5245 12.3976 5.4754 0.0000 30.3583 0.0000
# 6 0.0000 0.0000 0.0000 5.3145 0.0000 -5.9302
#
#
#
# Elastic Compliance Matrix: (Units=1/GPa)
#
#
# Indices 1 2 3 4 5 6 
#
# 1 0.015182 -0.003257 -0.001463 0.000000 0.002856 0.000000
# 2 -0.003257 0.014842 -0.001077 0.000000 -0.006138 0.000000
# 3 -0.001463 -0.001077 0.004748 0.000000 -0.000538 0.000000
# 4 0.000000 0.000000 0.000000 -0.091049 0.000000 -0.081596
# 5 0.002856 -0.006138 -0.000538 0.000000 0.035781 0.000000
# 6 0.000000 0.000000 0.000000 -0.081596 0.000000 -0.241754
#
#
# Mechanical properties :
#
#
# Convention : Reuss Voigt Hill
#
# Bulk Modulus (GPa) = 43.14315 56.50852 49.82584
# Shear Modulus (GPa) = -20.58207 22.28702 0.85248
#
# Velocity S-wave (km/s) = -3.23654 3.36792 0.65868
# Velocity P-wave (km/s) = 2.82678 6.62447 5.09285
#
# Compressibility (1/GPa) = 0.02317865
#
# Stress axis : x y z
#
# Youngs Moduli (GPa) = 65.86880 67.37603 210.60884
#
# Poissons Ratio (x) = 0.21942 0.30820
# Poissons Ratio (y) = 0.21451 0.22674
# Poissons Ratio (z) = 0.09639 0.07254
#
# Static dielectric constant tensor:
#      x y z
#    x 1.723010 0.000000 0.006090 
#    y 0.000000 1.667920 0.000000 
#    z 0.006090 0.000000 1.815540 
# 
# From -- ./inp_files/32048.got.cif
#   From: 2010.05.17/outbox.cif.g08.bks.cpg/sg12_17_cif.got.tgz:32048.got - 2010.06.03 13:09:07.
