data_PCOD9169683
_publ_section_title
;
Structure prediction by ZEFSAII (Michael W. Deem and Ramdas Pophale) SiO2 
 PCOD9169683
Probable space group: C 2/M
;
_chemical_formula_sum "Si O2"
_cell_formula_units_Z 64
_cell_length_a 24.951537
_cell_length_b 16.658023
_cell_length_c 9.710112
_cell_angle_alpha 90.000000
_cell_angle_beta 73.920357
_cell_angle_gamma 90.000000
_cell_volume 3878.047097
_symmetry_space_group_name_H-M "C 2/M"
_symmetry_group_IT_number 12
_symmetry_cell_setting 'monoclinic'
loop_
_space_group_symop_operation_xyz
x,y,z
-x,y,-z
-x,-y,-z
x,-y,z
1/2+x,1/2+y,z
1/2-x,1/2+y,-z
1/2-x,1/2-y,-z
1/2+x,1/2-y,z
loop_
_atom_site_type_symbol
_atom_site_label
_atom_site_fract_x
_atom_site_fract_y
_atom_site_fract_z
Si Si1 0.861587 0.594093 0.857954
Si Si2 0.145457 0.263388 0.353070
Si Si3 0.224615 0.212828 0.747818
Si Si4 0.270260 0.410077 0.022941
Si Si5 0.562748 0.904285 0.926437
Si Si6 0.658603 0.589428 0.305357
Si Si7 0.854383 0.666417 0.342028
Si Si8 0.744598 0.585995 0.497157
O O1 0.870076 0.500000 0.806578
O O2 0.871872 0.662415 0.734319
O O3 0.796370 0.600335 0.947194
O O4 0.899599 0.608636 0.964360
O O5 0.212493 0.254904 0.280776
O O6 0.123906 0.172718 0.340126
O O7 0.135811 0.289765 0.518432
O O8 0.210177 0.159302 0.888975
O O9 0.178837 0.277091 0.741059
O O10 0.230109 0.155702 0.611816
O O11 0.278222 0.500000 0.075448
O O12 0.304146 0.406631 0.858382
O O13 0.591264 0.864625 0.773581
O O14 0.561059 0.000000 0.904064
O O15 0.500000 0.876009 0.000000
O O16 0.630873 0.500000 0.326092
O O17 0.701730 0.589149 0.402205
O O18 0.808234 0.598012 0.404579
O O19 0.739599 0.500000 0.570804
#
# Coordination Sequence:
#
# PCOD9169683 Si02
#       8
#     8   8   8   8   8   8   8   8
#     4   9  19  33  51  73  99 135 171 206 255 301
#     4  10  19  31  47  73 108 133 167 204 244 300
#     4  10  18  28  42  69 103 132 170 199 243 290
#     4   9  18  28  42  67 102 139 172 196 235 295
#     4  10  22  39  55  72  95 126 171 222 261 297
#     4  10  18  28  41  65 102 139 168 196 229 282
#     4  11  19  31  47  73  96 135 173 202 250 298
#     4  10  17  28  44  64 100 138 168 197 233 294
#
# _framework density 16.503153000000001
#
# number of rings (size 3 to 8) (size 9 to 14) (size 15 to 20)
#    0.000    2.125    2.500    2.250    1.750    6.500 
#    0.000    0.625    0.000    2.250    0.000    0.000 
#    0.000    9.000    0.000    0.000    0.000    0.000 
#
# Total GULP energy -178305.960157 kJ/mol
# GULP energy per Si atom -5572.061255 kJ/mol
# Density = 1.646559 g / cm^3
# Si number density = 16.503153 Si / 1000 Ang^3
#
#
#
# Elastic Constant Matrix: (Units=GPa)
#
#
# Indices 1 2 3 4 5 6 
#
# 1 25.7982 16.6656 18.3920 0.0000 -6.3916 0.0000
# 2 16.6656 102.2214 32.3359 0.0000 5.3407 0.0000
# 3 18.3920 32.3359 47.4941 0.0000 3.8710 0.0000
# 4 0.0000 0.0000 0.0000 20.9317 0.0000 3.9721
# 5 -6.3916 5.3407 3.8710 0.0000 15.3758 0.0000
# 6 0.0000 0.0000 0.0000 3.9721 0.0000 14.7979
#
#
#
# Elastic Compliance Matrix: (Units=1/GPa)
#
#
# Indices 1 2 3 4 5 6 
#
# 1 0.070652 -0.004928 -0.027094 0.000000 0.037903 0.000000
# 2 -0.004928 0.012888 -0.006467 0.000000 -0.004897 0.000000
# 3 -0.027094 -0.006467 0.037454 0.000000 -0.018446 0.000000
# 4 0.000000 0.000000 0.000000 0.050339 0.000000 -0.013512
# 5 0.037903 -0.004897 -0.018446 0.000000 0.087138 0.000000
# 6 0.000000 0.000000 0.000000 -0.013512 0.000000 0.071204
#
#
# Mechanical properties :
#
#
# Convention : Reuss Voigt Hill
#
# Bulk Modulus (GPa) = 22.71922 34.47785 28.59853
# Shear Modulus (GPa) = 11.86735 17.42910 14.64823
#
# Velocity S-wave (km/s) = 2.68451 3.25331 2.98250
# Velocity P-wave (km/s) = 4.83790 5.92022 5.40621
#
# Compressibility (1/GPa) = 0.04401560
#
# Stress axis : x y z
#
# Youngs Moduli (GPa) = 14.15381 77.59342 26.69971
#
# Poissons Ratio (x) = 0.38241 0.72340
# Poissons Ratio (y) = 0.06975 0.17266
# Poissons Ratio (z) = 0.38348 0.50178
#
# Static dielectric constant tensor:
#      x y z
#    x 1.518360 0.000000 0.017060 
#    y 0.000000 1.623750 0.000000 
#    z 0.017060 0.000000 1.554140 
# 
# From -- ./inp_files/97720.got.cif
#   From: 2010.05.17/outbox.cif.g08.bks.cpg/sg12_49_cif.got.tgz:97720.got - 2010.06.03 13:09:07.
