data_PCOD9169150
_publ_section_title
;
Structure prediction by ZEFSAII (Michael W. Deem and Ramdas Pophale) SiO2 
 PCOD9169150
Probable space group: C 2/M
;
_chemical_formula_sum "Si O2"
_cell_formula_units_Z 48
_cell_length_a 13.769640
_cell_length_b 8.010591
_cell_length_c 17.769205
_cell_angle_alpha 90.000000
_cell_angle_beta 70.788252
_cell_angle_gamma 90.000000
_cell_volume 1850.841521
_symmetry_space_group_name_H-M "C 2/M"
_symmetry_group_IT_number 12
_symmetry_cell_setting 'monoclinic'
loop_
_space_group_symop_operation_xyz
x,y,z
-x,y,-z
-x,-y,-z
x,-y,z
1/2+x,1/2+y,z
1/2-x,1/2+y,-z
1/2-x,1/2-y,-z
1/2+x,1/2-y,z
loop_
_atom_site_type_symbol
_atom_site_label
_atom_site_fract_x
_atom_site_fract_y
_atom_site_fract_z
Si Si1 0.412058 0.805480 0.763160
Si Si2 0.635913 0.199250 0.901097
Si Si3 0.868188 0.813962 0.251936
Si Si4 0.392172 0.797677 0.930648
Si Si5 0.029536 0.689695 0.410668
Si Si6 0.798710 0.317807 0.412691
O O1 0.534007 0.802902 0.756523
O O2 0.366130 0.731537 0.853565
O O3 0.411035 0.733529 0.677720
O O4 0.382237 0.000000 0.763848
O O5 0.685238 0.272897 0.813167
O O6 0.513878 0.232845 0.916364
O O7 0.648617 0.000000 0.898307
O O8 0.659493 0.266511 0.978601
O O9 0.792715 0.796035 0.341391
O O10 0.910084 0.000000 0.238513
O O11 0.380477 0.000000 0.931179
O O12 0.069765 0.500000 0.416142
O O13 0.917234 0.671150 0.403999
O O14 0.000000 0.768952 0.500000
O O15 0.756606 0.500000 0.405008
O O16 0.750000 0.250000 0.500000
#
# Coordination Sequence:
#
# PCOD9169150 Si02
#       6
#     8   8   8   8   8   8
#     4   8  13  23  37  52  74 105 137 166 199 240
#     4   8  12  20  32  46  68  99 133 163 195 237
#     4  10  17  24  35  53  77 103 133 166 203 244
#     4   7  10  17  31  48  67  97 133 163 192 234
#     4   8  14  25  43  65  85 107 137 172 206 240
#     4  10  19  31  46  62  83 110 140 172 205 243
#
# _framework density 25.934151
#
# number of rings (size 3 to 8) (size 9 to 14) (size 15 to 20)
#    0.000    3.500    0.000    5.000    0.000    0.000 
#    0.000    6.667    0.000   12.500    0.000    0.000 
#    0.000    1.333    0.000    2.333    0.000    8.667 
#
# Total GULP energy -133749.170929 kJ/mol
# GULP energy per Si atom -5572.882122 kJ/mol
# Density = 2.587512 g / cm^3
# Si number density = 25.934151 Si / 1000 Ang^3
#
#
#
# Elastic Constant Matrix: (Units=GPa)
#
#
# Indices 1 2 3 4 5 6 
#
# 1 77.4552 0.3926 12.7945 0.0000 22.3796 0.0000
# 2 0.3926 53.1319 21.2463 0.0000 0.0008 0.0000
# 3 12.7945 21.2463 317.2414 0.0000 36.3397 0.0000
# 4 0.0000 0.0000 0.0000 18.5849 0.0000 -0.6898
# 5 22.3796 0.0008 36.3397 0.0000 37.7115 0.0000
# 6 0.0000 0.0000 0.0000 -0.6898 0.0000 11.4028
#
#
#
# Elastic Compliance Matrix: (Units=1/GPa)
#
#
# Indices 1 2 3 4 5 6 
#
# 1 0.015654 -0.000320 0.000511 0.000000 -0.009782 0.000000
# 2 -0.000320 0.019412 -0.001471 0.000000 0.001607 0.000000
# 3 0.000511 -0.001471 0.003670 0.000000 -0.003839 0.000000
# 4 0.000000 0.000000 0.000000 0.053928 0.000000 0.003262
# 5 -0.009782 0.001607 -0.003839 0.000000 0.036022 0.000000
# 6 0.000000 0.000000 0.000000 0.003262 0.000000 0.087895
#
#
# Mechanical properties :
#
#
# Convention : Reuss Voigt Hill
#
# Bulk Modulus (GPa) = 27.64318 57.41060 42.52689
# Shear Modulus (GPa) = 21.62624 41.09950 31.36287
#
# Velocity S-wave (km/s) = 2.89085 3.98523 3.48131
# Velocity P-wave (km/s) = 4.67170 6.58492 5.70903
#
# Compressibility (1/GPa) = 0.03617529
#
# Stress axis : x y z
#
# Youngs Moduli (GPa) = 63.88009 51.51517 272.48621
#
# Poissons Ratio (x) = 0.01647 -0.13912
# Poissons Ratio (y) = 0.02042 0.40089
# Poissons Ratio (z) = -0.03262 0.07579
#
# Static dielectric constant tensor:
#      x y z
#    x 2.052690 0.000000 -0.029310 
#    y 0.000000 1.972960 0.000000 
#    z -0.029310 0.000000 2.180020 
# 
# From -- ./inp_files/280054.got.cif
#   From: 2010.05.17/outbox.cif.g08.bks.cpg/sg12_141_cif.got.tgz:280054.got - 2010.06.03 13:09:07.
