data_PCOD9169743
_publ_section_title
;
Structure prediction by ZEFSAII (Michael W. Deem and Ramdas Pophale) SiO2 
 PCOD9169743
Probable space group: C 2/M
;
_chemical_formula_sum "Si O2"
_cell_formula_units_Z 56
_cell_length_a 13.948100
_cell_length_b 19.527259
_cell_length_c 11.969848
_cell_angle_alpha 90.000000
_cell_angle_beta 72.245319
_cell_angle_gamma 90.000000
_cell_volume 3104.924802
_symmetry_space_group_name_H-M "C 2/M"
_symmetry_group_IT_number 12
_symmetry_cell_setting 'monoclinic'
loop_
_space_group_symop_operation_xyz
x,y,z
-x,y,-z
-x,-y,-z
x,-y,z
1/2+x,1/2+y,z
1/2-x,1/2+y,-z
1/2-x,1/2-y,-z
1/2+x,1/2-y,z
loop_
_atom_site_type_symbol
_atom_site_label
_atom_site_fract_x
_atom_site_fract_y
_atom_site_fract_z
Si Si1 0.916845 0.742180 0.456430
Si Si2 0.727759 0.077100 0.205962
Si Si3 0.772960 0.788966 0.318411
Si Si4 0.816085 0.227275 0.868940
Si Si5 0.088148 0.575886 0.877397
Si Si6 0.472825 0.842905 0.749441
Si Si7 0.698501 0.422760 0.073991
O O1 0.868636 0.775555 0.362743
O O2 0.824278 0.722040 0.568040
O O3 0.000000 0.782805 0.500000
O O4 0.980124 0.678938 0.384338
O O5 0.772908 0.134614 0.269896
O O6 0.610963 0.097948 0.230368
O O7 0.736886 0.000000 0.244438
O O8 0.780120 0.081160 0.065936
O O9 0.751782 0.740764 0.217888
O O10 0.909928 0.278819 0.821222
O O11 0.851608 0.148655 0.870521
O O12 0.750000 0.250000 0.000000
O O13 0.084317 0.500000 0.826926
O O14 0.193363 0.581810 0.903063
O O15 0.062199 0.632503 0.796549
O O16 0.000000 0.579924 0.000000
O O17 0.657189 0.500000 0.112065
#
# Coordination Sequence:
#
# PCOD9169743 Si02
#       7
#     8   8   8   8   8   8   8
#     4  11  21  39  57  81 108 148 191 241 282 316
#     4  10  18  33  53  79 114 148 180 220 282 344
#     4  10  22  37  59  82 114 149 189 234 277 336
#     4  11  18  33  53  84 115 143 187 222 273 339
#     4  10  17  28  46  75 113 150 178 211 278 344
#     4  11  20  31  53  82 113 144 187 231 272 328
#     4  10  19  31  50  76 116 153 176 217 277 338
#
# _framework density 18.035865000000001
#
# number of rings (size 3 to 8) (size 9 to 14) (size 15 to 20)
#    0.000    1.571    7.143    1.286    0.000    0.000 
#    0.000    2.143    0.000    4.714    0.000    2.000 
#    0.000    0.000    0.000    0.000    0.000    0.000 
#
# Total GULP energy -156033.919279 kJ/mol
# GULP energy per Si atom -5572.639974 kJ/mol
# Density = 1.799481 g / cm^3
# Si number density = 18.035865 Si / 1000 Ang^3
#
#
#
# Elastic Constant Matrix: (Units=GPa)
#
#
# Indices 1 2 3 4 5 6 
#
# 1 59.0508 23.8979 24.0044 0.0000 21.5524 0.0000
# 2 23.8979 123.9344 37.1956 0.0000 18.1742 0.0000
# 3 24.0044 37.1956 94.0852 0.0000 14.8093 0.0000
# 4 0.0000 0.0000 0.0000 12.4717 0.0000 0.2895
# 5 21.5524 18.1742 14.8093 0.0000 29.0040 0.0000
# 6 0.0000 0.0000 0.0000 0.2895 0.0000 8.2092
#
#
#
# Elastic Compliance Matrix: (Units=1/GPa)
#
#
# Indices 1 2 3 4 5 6 
#
# 1 0.024563 -0.001471 -0.003216 0.000000 -0.015689 0.000000
# 2 -0.001471 0.009746 -0.002924 0.000000 -0.003522 0.000000
# 3 -0.003216 -0.002924 0.012984 0.000000 -0.002408 0.000000
# 4 0.000000 0.000000 0.000000 0.080247 0.000000 -0.002830
# 5 -0.015689 -0.003522 -0.002408 0.000000 0.049572 0.000000
# 6 0.000000 0.000000 0.000000 -0.002830 0.000000 0.121915
#
#
# Mechanical properties :
#
#
# Convention : Reuss Voigt Hill
#
# Bulk Modulus (GPa) = 31.17882 49.69624 40.43753
# Shear Modulus (GPa) = 15.38749 22.73514 19.06131
#
# Velocity S-wave (km/s) = 2.92406 3.55428 3.25446
# Velocity P-wave (km/s) = 5.35955 6.66767 6.04907
#
# Compressibility (1/GPa) = 0.03207305
#
# Stress axis : x y z
#
# Youngs Moduli (GPa) = 40.71124 102.60425 77.01795
#
# Poissons Ratio (x) = 0.15088 0.24770
# Poissons Ratio (y) = 0.05987 0.22517
# Poissons Ratio (z) = 0.13093 0.29997
#
# Static dielectric constant tensor:
#      x y z
#    x 1.666870 0.000000 0.034240 
#    y 0.000000 1.656450 0.000000 
#    z 0.034240 0.000000 1.631980 
# 
# From -- ./inp_files/147071.got.cif
#   From: 2010.05.17/outbox.cif.g08.bks.cpg/sg12_74_cif.got.tgz:147071.got - 2010.06.03 13:09:07.
