data_PCOD9169649
_publ_section_title
;
Structure prediction by ZEFSAII (Michael W. Deem and Ramdas Pophale) SiO2 
 PCOD9169649
Probable space group: C 2/M
;
_chemical_formula_sum "Si O2"
_cell_formula_units_Z 48
_cell_length_a 16.711650
_cell_length_b 18.642145
_cell_length_c 12.900184
_cell_angle_alpha 90.000000
_cell_angle_beta 33.137368
_cell_angle_gamma 90.000000
_cell_volume 2196.944272
_symmetry_space_group_name_H-M "C 2/M"
_symmetry_group_IT_number 12
_symmetry_cell_setting 'monoclinic'
loop_
_space_group_symop_operation_xyz
x,y,z
-x,y,-z
-x,-y,-z
x,-y,z
1/2+x,1/2+y,z
1/2-x,1/2+y,-z
1/2-x,1/2-y,-z
1/2+x,1/2-y,z
loop_
_atom_site_type_symbol
_atom_site_label
_atom_site_fract_x
_atom_site_fract_y
_atom_site_fract_z
Si Si1 0.912392 0.732919 0.285921
Si Si2 0.470010 0.079002 0.233432
Si Si3 0.141830 0.829355 0.950501
Si Si4 0.319859 0.581191 0.887513
Si Si5 0.646439 0.917842 0.406598
Si Si6 0.410121 0.727623 0.701445
O O1 0.750000 0.750000 0.500000
O O2 0.921986 0.652331 0.230504
O O3 0.008354 0.739639 0.287213
O O4 0.986376 0.789767 0.128119
O O5 0.394177 0.083509 0.428731
O O6 0.434575 0.000000 0.226683
O O7 0.644525 0.081730 0.061789
O O8 0.219738 0.867551 0.769425
O O9 0.255560 0.767051 0.859840
O O10 0.145918 0.891024 0.034093
O O11 0.371839 0.500000 0.814329
O O12 0.388225 0.642960 0.742386
O O13 0.500000 0.898875 0.500000
O O14 0.681732 0.000000 0.339788
O O15 0.500000 0.739651 0.500000
#
# Coordination Sequence:
#
# PCOD9169649 Si02
#       6
#     8   8   8   8   8   8
#     4  11  22  38  56  83 114 150 189 229 282 335
#     4  10  18  33  54  79 110 145 185 223 275 343
#     4  11  18  33  55  82 113 140 188 228 275 334
#     4  10  18  31  54  80 107 142 188 233 271 320
#     4  10  17  27  52  87 116 139 172 227 287 338
#     4  11  21  36  57  82 112 142 185 235 276 326
#
# _framework density 21.848528000000002
#
# number of rings (size 3 to 8) (size 9 to 14) (size 15 to 20)
#    0.000    1.500    5.000    3.000    0.000    0.333 
#    0.000    7.500    0.000    2.000    0.000    2.333 
#    0.000    0.000    0.000    0.000    0.000    0.000 
#
# Total GULP energy -134138.875807 kJ/mol
# GULP energy per Si atom -5589.119825 kJ/mol
# Density = 2.179880 g / cm^3
# Si number density = 21.848528 Si / 1000 Ang^3
#
#
#
# Elastic Constant Matrix: (Units=GPa)
#
#
# Indices 1 2 3 4 5 6 
#
# 1 22.8937 15.1874 22.6106 -0.0001 -0.1149 -0.0004
# 2 15.1874 198.7237 45.6513 0.0000 -22.8213 -0.0001
# 3 22.6106 45.6513 115.7432 -0.0002 -11.1368 -0.0003
# 4 -0.0001 0.0000 -0.0002 35.5303 0.0002 -1.2496
# 5 -0.1149 -22.8213 -11.1368 0.0002 23.6158 0.0004
# 6 -0.0004 -0.0001 -0.0003 -1.2496 0.0004 1.9665
#
#
#
# Elastic Compliance Matrix: (Units=1/GPa)
#
#
# Indices 1 2 3 4 5 6 
#
# 1 0.055846 -0.002681 -0.010554 0.000001 -0.007297 0.000012
# 2 -0.002681 0.006165 -0.001399 0.000000 0.005285 -0.000002
# 3 -0.010554 -0.001399 0.011647 0.000000 0.004089 -0.000001
# 4 0.000001 0.000000 0.000000 0.028788 -0.000001 0.018294
# 5 -0.007297 0.005285 0.004089 -0.000001 0.049344 -0.000011
# 6 0.000012 -0.000002 -0.000001 0.018294 -0.000011 0.520153
#
#
# Mechanical properties :
#
#
# Convention : Reuss Voigt Hill
#
# Bulk Modulus (GPa) = 22.52834 56.02880 39.27857
# Shear Modulus (GPa) = 6.98314 29.14994 18.06654
#
# Velocity S-wave (km/s) = 1.78972 3.65661 2.87871
# Velocity P-wave (km/s) = 3.82156 6.59754 5.39129
#
# Compressibility (1/GPa) = 0.04438853
#
# Stress axis : x y z
#
# Youngs Moduli (GPa) = 17.90640 162.19430 85.85939
#
# Poissons Ratio (x) = 0.43491 0.90616
# Poissons Ratio (y) = 0.04801 0.12015
# Poissons Ratio (z) = 0.18899 0.22698
#
# Static dielectric constant tensor:
#      x y z
#    x 1.832670 0.000000 -0.004640 
#    y 0.000000 1.845810 0.000000 
#    z -0.004640 0.000000 1.772700 
# 
# From -- ./inp_files/62792.got.cif
#   From: 2010.05.17/outbox.cif.g08.bks.cpg/sg12_32_cif.got.tgz:62792.got - 2010.06.03 13:09:07.
