data_PCOD9169466
_publ_section_title
;
Structure prediction by ZEFSAII (Michael W. Deem and Ramdas Pophale) SiO2 
 PCOD9169466
Probable space group: C 2/M
;
_chemical_formula_sum "Si O2"
_cell_formula_units_Z 56
_cell_length_a 29.240452
_cell_length_b 8.822073
_cell_length_c 14.714024
_cell_angle_alpha 90.000000
_cell_angle_beta 77.609769
_cell_angle_gamma 90.000000
_cell_volume 3707.245304
_symmetry_space_group_name_H-M "C 2/M"
_symmetry_group_IT_number 12
_symmetry_cell_setting 'monoclinic'
loop_
_space_group_symop_operation_xyz
x,y,z
-x,y,-z
-x,-y,-z
x,-y,z
1/2+x,1/2+y,z
1/2-x,1/2+y,-z
1/2-x,1/2-y,-z
1/2+x,1/2-y,z
loop_
_atom_site_type_symbol
_atom_site_label
_atom_site_fract_x
_atom_site_fract_y
_atom_site_fract_z
Si Si1 0.571069 0.179514 0.798170
Si Si2 0.266375 0.817441 0.270877
Si Si3 0.611093 0.682788 0.967515
Si Si4 0.219606 0.818424 0.932094
Si Si5 0.707587 0.681834 0.459741
Si Si6 0.519327 0.324843 0.095724
Si Si7 0.647823 0.682138 0.647113
O O1 0.596356 0.240508 0.879100
O O2 0.517004 0.229196 0.830182
O O3 0.598855 0.254157 0.703185
O O4 0.575154 0.000000 0.792796
O O5 0.265295 0.749314 0.171268
O O6 0.220520 0.776226 0.351034
O O7 0.311539 0.751151 0.305171
O O8 0.270527 0.000000 0.265192
O O9 0.606770 0.500000 0.957164
O O10 0.664465 0.718390 0.967768
O O11 0.572954 0.726313 0.060353
O O12 0.224011 0.000000 0.928436
O O13 0.250000 0.750000 0.000000
O O14 0.710438 0.500000 0.462398
O O15 0.750000 0.750000 0.500000
O O16 0.661694 0.723961 0.537300
O O17 0.517896 0.500000 0.126115
O O18 0.500000 0.320696 0.000000
O O19 0.648604 0.500000 0.656288
#
# Coordination Sequence:
#
# PCOD9169466 Si02
#       7
#     8   8   8   8   8   8   8
#     4  11  19  25  39  64  90 115 144 179 215 254
#     4  10  18  30  45  63  85 111 145 186 224 258
#     4   9  18  32  46  58  80 114 148 180 219 262
#     4  11  22  34  48  65  86 116 152 188 222 258
#     4   8  16  27  41  60  83 111 144 177 212 256
#     4   8  15  28  43  58  79 111 145 175 211 261
#     4  10  17  27  42  61  87 120 149 174 210 260
#
# _framework density 15.105556
#
# number of rings (size 3 to 8) (size 9 to 14) (size 15 to 20)
#    0.000    2.429    1.429    3.429    0.000    4.286 
#    0.000    0.000    0.000    0.000    0.000    0.000 
#    0.000    1.143    0.000   13.143    0.000    5.143 
#
# Total GULP energy -155923.012308 kJ/mol
# GULP energy per Si atom -5568.679011 kJ/mol
# Density = 1.507118 g / cm^3
# Si number density = 15.105556 Si / 1000 Ang^3
#
#
#
# Elastic Constant Matrix: (Units=GPa)
#
#
# Indices 1 2 3 4 5 6 
#
# 1 69.6301 35.4805 65.8179 0.0000 -22.4386 0.0000
# 2 35.4805 50.3950 42.7245 0.0000 -15.5340 0.0000
# 3 65.8179 42.7245 120.8867 0.0000 -33.9143 0.0000
# 4 0.0000 0.0000 0.0000 19.1808 0.0000 -3.7913
# 5 -22.4386 -15.5340 -33.9143 0.0000 29.1931 0.0000
# 6 0.0000 0.0000 0.0000 -3.7913 0.0000 16.3742
#
#
#
# Elastic Compliance Matrix: (Units=1/GPa)
#
#
# Indices 1 2 3 4 5 6 
#
# 1 0.034276 -0.011376 -0.013275 0.000000 0.004870 0.000000
# 2 -0.011376 0.032631 -0.004333 0.000000 0.003586 0.000000
# 3 -0.013275 -0.004333 0.020060 0.000000 0.010795 0.000000
# 4 0.000000 0.000000 0.000000 0.054636 0.000000 0.012650
# 5 0.004870 0.003586 0.010795 0.000000 0.052447 0.000000
# 6 0.000000 0.000000 0.000000 0.012650 0.000000 0.064001
#
#
# Mechanical properties :
#
#
# Convention : Reuss Voigt Hill
#
# Bulk Modulus (GPa) = 34.48405 58.77307 46.62856
# Shear Modulus (GPa) = 15.35226 19.40888 17.38057
#
# Velocity S-wave (km/s) = 3.19145 3.58842 3.39574
# Velocity P-wave (km/s) = 6.03811 7.49411 6.80516
#
# Compressibility (1/GPa) = 0.02899891
#
# Stress axis : x y z
#
# Youngs Moduli (GPa) = 29.17482 30.64530 49.85149
#
# Poissons Ratio (x) = 0.34864 0.66177
# Poissons Ratio (y) = 0.33191 0.21600
# Poissons Ratio (z) = 0.38729 0.13278
#
# Static dielectric constant tensor:
#      x y z
#    x 1.492950 0.000000 -0.053110 
#    y 0.000000 1.497010 0.000000 
#    z -0.053110 0.000000 1.524820 
# 
# From -- ./inp_files/247749.got.cif
#   From: 2010.05.17/outbox.cif.g08.bks.cpg/sg12_124_cif.got.tgz:247749.got - 2010.06.03 13:09:07.
