data_PCOD9169785
_publ_section_title
;
Structure prediction by ZEFSAII (Michael W. Deem and Ramdas Pophale) SiO2 
 PCOD9169785
Probable space group: C 2/M
;
_chemical_formula_sum "Si O2"
_cell_formula_units_Z 64
_cell_length_a 18.298202
_cell_length_b 13.666613
_cell_length_c 29.751837
_cell_angle_alpha 90.000000
_cell_angle_beta 147.868527
_cell_angle_gamma 90.000000
_cell_volume 3957.159509
_symmetry_space_group_name_H-M "C 2/M"
_symmetry_group_IT_number 12
_symmetry_cell_setting 'monoclinic'
loop_
_space_group_symop_operation_xyz
x,y,z
-x,y,-z
-x,-y,-z
x,-y,z
1/2+x,1/2+y,z
1/2-x,1/2+y,-z
1/2-x,1/2-y,-z
1/2+x,1/2-y,z
loop_
_atom_site_type_symbol
_atom_site_label
_atom_site_fract_x
_atom_site_fract_y
_atom_site_fract_z
Si Si1 0.523494 0.203530 0.380833
Si Si2 0.230487 0.617312 0.802229
Si Si3 0.011197 0.883944 0.899622
Si Si4 0.860685 0.763548 0.952239
Si Si5 0.099344 0.386733 0.594915
Si Si6 0.625932 0.382438 0.859578
Si Si7 0.811111 0.884506 0.547404
Si Si8 0.349706 0.382027 0.670499
O O1 0.409764 0.169130 0.286149
O O2 0.465340 0.171789 0.398487
O O3 0.669478 0.148273 0.450381
O O4 0.562602 0.317513 0.401959
O O5 0.212623 0.500000 0.797501
O O6 0.349572 0.633483 0.826302
O O7 0.286441 0.665860 0.877213
O O8 0.065337 0.860418 0.877849
O O9 0.032229 0.000000 0.917077
O O10 0.093602 0.825190 0.980418
O O11 0.760328 0.677766 0.916362
O O12 0.000000 0.727749 0.000000
O O13 0.114935 0.500000 0.618128
O O14 0.243978 0.345892 0.652857
O O15 0.000000 0.387623 0.500000
O O16 0.647678 0.500000 0.868548
O O17 0.504730 0.353799 0.761785
O O18 0.799189 0.859581 0.594318
O O19 0.832462 0.000000 0.553854
O O20 0.344157 0.500000 0.671266
#
# Coordination Sequence:
#
# PCOD9169785 Si02
#       8
#     8   8   8   8   8   8   8   8
#     4  11  20  30  50  76  97 130 164 199 244 289
#     4  10  19  32  51  75  98 120 157 205 247 290
#     4   9  18  33  52  73  96 122 155 203 256 294
#     4  10  20  33  49  70  98 131 161 192 243 298
#     4  10  17  28  48  73  98 121 154 205 252 285
#     4  10  19  31  49  72  98 128 164 202 237 285
#     4  10  20  33  47  70 103 135 164 196 237 288
#     4   9  17  30  48  71  98 125 156 201 252 286
#
# _framework density 16.173217000000001
#
# number of rings (size 3 to 8) (size 9 to 14) (size 15 to 20)
#    0.000    2.125    1.250    3.375    0.000    3.750 
#    0.000    0.000    0.000    1.125    0.000    5.250 
#    0.000    0.000    0.000    0.000    0.000    0.000 
#
# Total GULP energy -178390.017950 kJ/mol
# GULP energy per Si atom -5574.688061 kJ/mol
# Density = 1.613641 g / cm^3
# Si number density = 16.173217 Si / 1000 Ang^3
#
#
#
# Elastic Constant Matrix: (Units=GPa)
#
#
# Indices 1 2 3 4 5 6 
#
# 1 56.0211 37.5539 28.1644 0.0000 10.8023 0.0000
# 2 37.5539 74.2465 41.9208 0.0000 10.7795 0.0000
# 3 28.1644 41.9208 113.6954 0.0001 12.2609 0.0000
# 4 0.0000 0.0000 0.0001 22.6315 0.0000 5.5361
# 5 10.8023 10.7795 12.2609 0.0000 21.3902 0.0000
# 6 0.0000 0.0000 0.0000 5.5361 0.0000 26.6305
#
#
#
# Elastic Compliance Matrix: (Units=1/GPa)
#
#
# Indices 1 2 3 4 5 6 
#
# 1 0.028357 -0.012347 -0.001704 0.000000 -0.007122 0.000000
# 2 -0.012347 0.022970 -0.005153 0.000000 -0.002386 0.000000
# 3 -0.001704 -0.005153 0.011453 0.000000 -0.003107 0.000000
# 4 0.000000 0.000000 0.000000 0.046554 0.000000 -0.009678
# 5 -0.007122 -0.002386 -0.003107 0.000000 0.053331 0.000000
# 6 0.000000 0.000000 0.000000 -0.009678 0.000000 0.039563
#
#
# Mechanical properties :
#
#
# Convention : Reuss Voigt Hill
#
# Bulk Modulus (GPa) = 41.03239 51.02681 46.02960
# Shear Modulus (GPa) = 20.09973 23.21869 21.65921
#
# Velocity S-wave (km/s) = 3.52913 3.79308 3.66348
# Velocity P-wave (km/s) = 6.48321 7.12755 6.81300
#
# Compressibility (1/GPa) = 0.02437099
#
# Stress axis : x y z
#
# Youngs Moduli (GPa) = 35.26431 43.53530 87.31529
#
# Poissons Ratio (x) = 0.53753 0.14880
# Poissons Ratio (y) = 0.43541 0.44997
# Poissons Ratio (z) = 0.06009 0.22435
#
# Static dielectric constant tensor:
#      x y z
#    x 1.546810 0.000000 0.006970 
#    y 0.000000 1.522320 0.000000 
#    z 0.006970 0.000000 1.569960 
# 
# From -- ./inp_files/296675.got.cif
#   From: 2010.05.17/outbox.cif.g08.bks.cpg/sg12_149_cif.got.tgz:296675.got - 2010.06.03 13:09:07.
