data_PCOD9169367
_publ_section_title
;
Structure prediction by ZEFSAII (Michael W. Deem and Ramdas Pophale) SiO2 
 PCOD9169367
Probable space group: C 2/M
;
_chemical_formula_sum "Si O2"
_cell_formula_units_Z 48
_cell_length_a 31.586514
_cell_length_b 8.810139
_cell_length_c 12.514036
_cell_angle_alpha 90.000000
_cell_angle_beta 61.223548
_cell_angle_gamma 90.000000
_cell_volume 3052.362149
_symmetry_space_group_name_H-M "C 2/M"
_symmetry_group_IT_number 12
_symmetry_cell_setting 'monoclinic'
loop_
_space_group_symop_operation_xyz
x,y,z
-x,y,-z
-x,-y,-z
x,-y,z
1/2+x,1/2+y,z
1/2-x,1/2+y,-z
1/2-x,1/2-y,-z
1/2+x,1/2-y,z
loop_
_atom_site_type_symbol
_atom_site_label
_atom_site_fract_x
_atom_site_fract_y
_atom_site_fract_z
Si Si1 0.471305 0.318371 0.641440
Si Si2 0.265562 0.817685 0.867237
Si Si3 0.132800 0.682483 0.190919
Si Si4 0.164470 0.818090 0.922952
Si Si5 0.579028 0.182246 0.907575
Si Si6 0.504812 0.182714 0.819862
O O1 0.500000 0.273389 0.500000
O O2 0.467621 0.500000 0.649041
O O3 0.417790 0.248448 0.709565
O O4 0.498561 0.260682 0.714148
O O5 0.321743 0.774696 0.787910
O O6 0.221262 0.774879 0.843576
O O7 0.264929 0.000000 0.875142
O O8 0.250000 0.750000 0.000000
O O9 0.129568 0.500000 0.187693
O O10 0.145258 0.746420 0.057711
O O11 0.129608 0.758802 0.872786
O O12 0.160967 0.000000 0.934940
O O13 0.552222 0.225483 0.830371
O O14 0.584383 0.000000 0.901626
O O15 0.541179 0.220207 0.048771
O O16 0.504826 0.000000 0.807158
#
# Coordination Sequence:
#
# PCOD9169367 Si02
#       6
#     8   8   8   8   8   8
#     4  11  23  35  47  67  94 121 154 196 235 270
#     4   8  16  27  40  62  91 120 150 183 221 269
#     4  10  18  30  46  63  89 124 158 190 223 266
#     4  10  17  26  43  69  97 123 149 181 228 277
#     4   9  17  29  46  69  95 122 151 187 227 270
#     4   9  18  32  48  66  91 122 156 190 225 271
#
# _framework density 15.725526
#
# number of rings (size 3 to 8) (size 9 to 14) (size 15 to 20)
#    0.000    2.500    1.667    2.500    0.000    3.333 
#    0.000    1.667    0.000    0.000    0.000    1.167 
#    0.000    0.000    0.000    0.000    0.000    0.000 
#
# Total GULP energy -133665.066134 kJ/mol
# GULP energy per Si atom -5569.377756 kJ/mol
# Density = 1.568973 g / cm^3
# Si number density = 15.725526 Si / 1000 Ang^3
#
#
#
# Elastic Constant Matrix: (Units=GPa)
#
#
# Indices 1 2 3 4 5 6 
#
# 1 184.9664 44.0554 56.5523 0.0000 7.0352 0.0000
# 2 44.0554 29.3856 26.9013 0.0000 3.1930 0.0000
# 3 56.5523 26.9013 67.8973 0.0000 4.0942 0.0000
# 4 0.0000 0.0000 0.0000 16.1898 0.0000 3.6231
# 5 7.0352 3.1930 4.0942 0.0000 13.8153 0.0000
# 6 0.0000 0.0000 0.0000 3.6231 0.0000 24.9361
#
#
#
# Elastic Compliance Matrix: (Units=1/GPa)
#
#
# Indices 1 2 3 4 5 6 
#
# 1 0.008882 -0.010167 -0.003297 0.000000 -0.001196 0.000000
# 2 -0.010167 0.065560 -0.017213 0.000000 -0.004874 0.000000
# 3 -0.003297 -0.017213 0.024389 0.000000 -0.001570 0.000000
# 4 0.000000 0.000000 0.000000 0.063843 0.000000 -0.009276
# 5 -0.001196 -0.004874 -0.001570 0.000000 0.074584 0.000000
# 6 0.000000 0.000000 0.000000 -0.009276 0.000000 0.041450
#
#
# Mechanical properties :
#
#
# Convention : Reuss Voigt Hill
#
# Bulk Modulus (GPa) = 26.68373 59.69636 43.19005
# Shear Modulus (GPa) = 14.18215 21.30426 17.74321
#
# Velocity S-wave (km/s) = 3.00635 3.68469 3.36267
# Velocity P-wave (km/s) = 5.39037 7.49310 6.52697
#
# Compressibility (1/GPa) = 0.03747602
#
# Stress axis : x y z
#
# Youngs Moduli (GPa) = 112.59311 15.25312 41.00191
#
# Poissons Ratio (x) = 0.15508 0.13519
# Poissons Ratio (y) = 1.14473 0.70578
# Poissons Ratio (z) = 0.37124 0.26256
#
# Static dielectric constant tensor:
#      x y z
#    x 1.582410 0.000000 -0.000880 
#    y 0.000000 1.527070 0.000000 
#    z -0.000880 0.000000 1.477300 
# 
# From -- ./inp_files/179217.got.cif
#   From: 2010.05.17/outbox.cif.g08.bks.cpg/sg12_90_cif.got.tgz:179217.got - 2010.06.03 13:09:07.
