data_PCOD9169797
_publ_section_title
;
Structure prediction by ZEFSAII (Michael W. Deem and Ramdas Pophale) SiO2 
 PCOD9169797
Probable space group: C 2/M
;
_chemical_formula_sum "Si O2"
_cell_formula_units_Z 40
_cell_length_a 14.021281
_cell_length_b 12.424415
_cell_length_c 11.654168
_cell_angle_alpha 90.000000
_cell_angle_beta 116.505176
_cell_angle_gamma 90.000000
_cell_volume 1816.839389
_symmetry_space_group_name_H-M "C 2/M"
_symmetry_group_IT_number 12
_symmetry_cell_setting 'monoclinic'
loop_
_space_group_symop_operation_xyz
x,y,z
-x,y,-z
-x,-y,-z
x,-y,z
1/2+x,1/2+y,z
1/2-x,1/2+y,-z
1/2-x,1/2-y,-z
1/2+x,1/2-y,z
loop_
_atom_site_type_symbol
_atom_site_label
_atom_site_fract_x
_atom_site_fract_y
_atom_site_fract_z
Si Si1 0.437415 0.623828 0.812828
Si Si2 0.904803 0.500000 0.806031
Si Si3 0.643964 0.000000 0.945961
Si Si4 0.234808 0.293416 0.273257
Si Si5 0.605387 0.377624 0.480837
Si Si6 0.334587 0.624313 0.096316
O O1 0.425688 0.500000 0.844538
O O2 0.338546 0.693882 0.798989
O O3 0.425408 0.631722 0.668136
O O4 0.557342 0.665328 0.904583
O O5 0.885979 0.500000 0.934626
O O6 0.846140 0.390680 0.740808
O O7 0.027301 0.500000 0.830072
O O8 0.722653 0.102734 0.969850
O O9 0.313330 0.290655 0.423926
O O10 0.305236 0.321571 0.199926
O O11 0.500000 0.370646 0.500000
O O12 0.648661 0.500000 0.520756
O O13 0.365028 0.500000 0.142902
#
# Coordination Sequence:
#
# PCOD9169797 Si02
#       6
#     8   4   4   8   8   8
#     4  10  20  30  47  70  98 128 156 189 234 283
#     4   9  16  28  48  81  90 116 151 211 243 262
#     4   7  14  28  51  70 100 107 154 209 241 268
#     4  11  17  29  50  73  96 117 163 197 233 277
#     4  10  17  28  49  70  91 123 160 198 233 268
#     4   8  15  31  51  69  92 120 157 195 230 275
#
# _framework density 22.016255999999998
#
# number of rings (size 3 to 8) (size 9 to 14) (size 15 to 20)
#    0.600    2.000    4.000    0.600    0.000    0.000 
#    0.000    1.000    2.200    0.600    0.000   11.200 
#    0.000    0.000    0.000    0.000    0.000    0.000 
#
# Total GULP energy -111513.157030 kJ/mol
# GULP energy per Si atom -5575.657851 kJ/mol
# Density = 2.196615 g / cm^3
# Si number density = 22.016256 Si / 1000 Ang^3
#
#
#
# Elastic Constant Matrix: (Units=GPa)
#
#
# Indices 1 2 3 4 5 6 
#
# 1 84.6520 24.5120 22.6132 0.0000 24.0200 0.0000
# 2 24.5120 39.4020 22.2472 0.0000 13.3543 0.0000
# 3 22.6132 22.2472 85.9656 0.0000 20.9800 0.0000
# 4 0.0000 0.0000 0.0000 13.4885 0.0000 10.5772
# 5 24.0200 13.3543 20.9800 0.0000 38.2855 0.0000
# 6 0.0000 0.0000 0.0000 10.5772 0.0000 32.0402
#
#
#
# Elastic Compliance Matrix: (Units=1/GPa)
#
#
# Indices 1 2 3 4 5 6 
#
# 1 0.016130 -0.007234 -0.000597 0.000000 -0.007270 0.000000
# 2 -0.007234 0.034739 -0.006046 0.000000 -0.004266 0.000000
# 3 -0.000597 -0.006046 0.014716 0.000000 -0.005581 0.000000
# 4 0.000000 0.000000 0.000000 0.100033 0.000000 -0.033023
# 5 -0.007270 -0.004266 -0.005581 0.000000 0.035227 0.000000
# 6 0.000000 0.000000 0.000000 -0.033023 0.000000 0.042112
#
#
# Mechanical properties :
#
#
# Convention : Reuss Voigt Hill
#
# Bulk Modulus (GPa) = 26.43287 38.75160 32.59223
# Shear Modulus (GPa) = 17.64781 26.13933 21.89357
#
# Velocity S-wave (km/s) = 2.83429 3.44942 3.15688
# Velocity P-wave (km/s) = 4.76897 5.78829 5.30318
#
# Compressibility (1/GPa) = 0.03783169
#
# Stress axis : x y z
#
# Youngs Moduli (GPa) = 61.99709 28.78602 67.95169
#
# Poissons Ratio (x) = 0.20823 0.04055
# Poissons Ratio (y) = 0.44846 0.41086
# Poissons Ratio (z) = 0.03700 0.17405
#
# Static dielectric constant tensor:
#      x y z
#    x 1.807330 0.000000 0.031410 
#    y 0.000000 1.844390 0.000000 
#    z 0.031410 0.000000 1.858020 
# 
# From -- ./inp_files/211621.got.cif
#   From: 2010.05.17/outbox.cif.g08.bks.cpg/sg12_106_cif.got.tgz:211621.got - 2010.06.03 13:09:07.
