data_PCOD9169058
_publ_section_title
;
Structure prediction by ZEFSAII (Michael W. Deem and Ramdas Pophale) SiO2 
 PCOD9169058
Probable space group: C 2/M
;
_chemical_formula_sum "Si O2"
_cell_formula_units_Z 32
_cell_length_a 24.251209
_cell_length_b 11.442420
_cell_length_c 7.241845
_cell_angle_alpha 90.000000
_cell_angle_beta 41.436880
_cell_angle_gamma 90.000000
_cell_volume 1329.914423
_symmetry_space_group_name_H-M "C 2/M"
_symmetry_group_IT_number 12
_symmetry_cell_setting 'monoclinic'
loop_
_space_group_symop_operation_xyz
x,y,z
-x,y,-z
-x,-y,-z
x,-y,z
1/2+x,1/2+y,z
1/2-x,1/2+y,-z
1/2-x,1/2-y,-z
1/2+x,1/2-y,z
loop_
_atom_site_type_symbol
_atom_site_label
_atom_site_fract_x
_atom_site_fract_y
_atom_site_fract_z
Si Si1 0.902094 0.500000 0.702839
Si Si2 0.118911 0.755532 0.303638
Si Si3 0.902872 0.500000 0.268336
Si Si4 0.950464 0.132796 0.856660
Si Si5 0.331802 0.247876 0.416826
O O1 0.871120 0.630657 0.825200
O O2 0.885818 0.500000 0.526733
O O3 0.000000 0.500000 0.500000
O O4 0.114405 0.849789 0.151374
O O5 0.176869 0.764035 0.339439
O O6 0.026010 0.775923 0.629209
O O7 0.867352 0.619617 0.285156
O O8 0.000000 0.500000 0.000000
O O9 0.981930 0.000000 0.777269
O O10 0.899556 0.161323 0.168107
O O11 0.250000 0.250000 0.500000
#
# Coordination Sequence:
#
# PCOD9169058 Si02
#       5
#     4   8   4   8   8
#     4  10  16  32  64  92 120 145 206 274 308 343
#     4  10  21  39  65  98 121 161 215 265 311 376
#     4  10  22  40  66  94 119 161 228 264 302 381
#     4  11  23  39  65  93 125 165 215 256 311 383
#     4  11  25  41  63  92 133 169 206 263 329 380
#
# _framework density 24.061698
#
# number of rings (size 3 to 8) (size 9 to 14) (size 15 to 20)
#    0.000    1.500    2.500    5.250    1.750    4.000 
#    0.000    0.000    0.000    0.000    0.000    0.000 
#    0.000    0.000    0.000    0.000    0.000    0.000 
#
# Total GULP energy -89355.282483 kJ/mol
# GULP energy per Si atom -5584.705155 kJ/mol
# Density = 2.400693 g / cm^3
# Si number density = 24.061698 Si / 1000 Ang^3
#
#
#
# Elastic Constant Matrix: (Units=GPa)
#
#
# Indices 1 2 3 4 5 6 
#
# 1 156.1035 25.8164 13.6103 0.0000 0.6506 0.0000
# 2 25.8164 133.2038 15.5974 0.0000 -11.8735 0.0000
# 3 13.6103 15.5974 40.5803 0.0000 9.6319 0.0000
# 4 0.0000 0.0000 0.0000 21.3034 0.0000 1.9110
# 5 0.6506 -11.8735 9.6319 0.0000 45.2767 0.0000
# 6 0.0000 0.0000 0.0000 1.9110 0.0000 39.7140
#
#
#
# Elastic Compliance Matrix: (Units=1/GPa)
#
#
# Indices 1 2 3 4 5 6 
#
# 1 0.006747 -0.001091 -0.001846 0.000000 0.000010 0.000000
# 2 -0.001091 0.008402 -0.003571 0.000000 0.002979 0.000000
# 3 -0.001846 -0.003571 0.028278 0.000000 -0.006926 0.000000
# 4 0.000000 0.000000 0.000000 0.047144 0.000000 -0.002269
# 5 0.000010 0.002979 -0.006926 0.000000 0.024341 0.000000
# 6 0.000000 0.000000 0.000000 -0.002269 0.000000 0.025289
#
#
# Mechanical properties :
#
#
# Convention : Reuss Voigt Hill
#
# Bulk Modulus (GPa) = 32.88117 48.88177 40.88147
# Shear Modulus (GPa) = 30.60830 39.58304 35.09567
#
# Velocity S-wave (km/s) = 3.57049 4.06034 3.82327
# Velocity P-wave (km/s) = 5.54011 6.50700 6.04293
#
# Compressibility (1/GPa) = 0.03041255
#
# Stress axis : x y z
#
# Youngs Moduli (GPa) = 148.20749 119.01491 35.36330
#
# Poissons Ratio (x) = 0.12981 0.06528
# Poissons Ratio (y) = 0.16165 0.12627
# Poissons Ratio (z) = 0.27360 0.42497
#
# Static dielectric constant tensor:
#      x y z
#    x 1.969460 0.000000 0.006950 
#    y 0.000000 1.966750 0.000000 
#    z 0.006950 0.000000 1.943150 
# 
# From -- ./inp_files/83253.got.cif
#   From: 2010.05.17/outbox.cif.g08.bks.cpg/sg12_42_cif.got.tgz:83253.got - 2010.06.03 13:09:07.
