data_PCOD9169622
_publ_section_title
;
Structure prediction by ZEFSAII (Michael W. Deem and Ramdas Pophale) SiO2 
 PCOD9169622
Probable space group: C 2/M
;
_chemical_formula_sum "Si O2"
_cell_formula_units_Z 48
_cell_length_a 9.554501
_cell_length_b 23.772941
_cell_length_c 18.856187
_cell_angle_alpha 90.000000
_cell_angle_beta 35.329478
_cell_angle_gamma 90.000000
_cell_volume 2476.743602
_symmetry_space_group_name_H-M "C 2/M"
_symmetry_group_IT_number 12
_symmetry_cell_setting 'monoclinic'
loop_
_space_group_symop_operation_xyz
x,y,z
-x,y,-z
-x,-y,-z
x,-y,z
1/2+x,1/2+y,z
1/2-x,1/2+y,-z
1/2-x,1/2-y,-z
1/2+x,1/2-y,z
loop_
_atom_site_type_symbol
_atom_site_label
_atom_site_fract_x
_atom_site_fract_y
_atom_site_fract_z
Si Si1 0.220959 0.437895 0.817112
Si Si2 0.756784 0.624392 0.823513
Si Si3 0.802272 0.064503 0.003526
Si Si4 0.753275 0.820541 0.850150
Si Si5 0.980865 0.235730 0.140036
Si Si6 0.264740 0.935000 0.360444
O O1 0.300020 0.500000 0.807290
O O2 0.337077 0.383790 0.803561
O O3 0.244478 0.434034 0.721735
O O4 0.930644 0.432049 0.949395
O O5 0.740511 0.607728 0.913842
O O6 0.656383 0.686058 0.846589
O O7 0.031439 0.607236 0.694096
O O8 0.561964 0.582444 0.867586
O O9 0.804499 0.000000 0.028376
O O10 0.958154 0.786426 0.807294
O O11 0.678674 0.790823 0.807412
O O12 0.500000 0.819092 0.000000
O O13 0.250000 0.250000 0.000000
O O14 0.000000 0.923216 0.500000
O O15 0.330931 0.000000 0.351438
#
# Coordination Sequence:
#
# PCOD9169622 Si02
#       6
#     8   8   8   8   8   8
#     4   9  18  33  53  78 113 148 181 226 286 347
#     4  10  17  27  48  73 110 140 178 226 275 332
#     4   9  16  25  46  77 107 140 171 220 280 340
#     4  10  21  34  50  79 112 153 184 222 277 341
#     4  10  22  32  49  77 113 147 185 226 272 334
#     4   9  18  33  57  86 111 146 195 241 282 331
#
# _framework density 19.380286999999999
#
# number of rings (size 3 to 8) (size 9 to 14) (size 15 to 20)
#    0.000    2.500    0.000    5.000   11.667    0.333 
#    0.000    2.500    0.000    2.000    0.000    3.500 
#    0.000    0.000    0.000    0.000    0.000    0.000 
#
# Total GULP energy -133719.454287 kJ/mol
# GULP energy per Si atom -5571.643929 kJ/mol
# Density = 1.933618 g / cm^3
# Si number density = 19.380287 Si / 1000 Ang^3
#
#
#
# Elastic Constant Matrix: (Units=GPa)
#
#
# Indices 1 2 3 4 5 6 
#
# 1 79.9101 50.7413 15.2827 -0.0002 -6.7613 0.0001
# 2 50.7413 106.9610 25.0369 0.0011 -11.0365 0.0000
# 3 15.2827 25.0369 67.5089 0.0031 -17.0500 0.0000
# 4 -0.0002 0.0011 0.0031 15.5080 -0.0001 -5.1538
# 5 -6.7613 -11.0365 -17.0500 -0.0001 12.0717 -0.0001
# 6 0.0001 0.0000 0.0000 -5.1538 -0.0001 44.7924
#
#
#
# Elastic Compliance Matrix: (Units=1/GPa)
#
#
# Indices 1 2 3 4 5 6 
#
# 1 0.017992 -0.008219 -0.000587 0.000001 0.001734 0.000000
# 2 -0.008219 0.014301 -0.002027 -0.000001 0.005609 0.000000
# 3 -0.000587 -0.002027 0.023545 -0.000004 0.031073 0.000000
# 4 0.000001 -0.000001 -0.000004 0.067047 -0.000006 0.007714
# 5 0.001734 0.005609 0.031073 -0.000006 0.132825 0.000000
# 6 0.000000 0.000000 0.000000 0.007714 0.000000 0.023213
#
#
# Mechanical properties :
#
#
# Convention : Reuss Voigt Hill
#
# Bulk Modulus (GPa) = 29.26249 48.50021 38.88135
# Shear Modulus (GPa) = 16.02670 25.36237 20.69454
#
# Velocity S-wave (km/s) = 2.87881 3.62148 3.27129
# Velocity P-wave (km/s) = 5.11683 6.52431 5.86296
#
# Compressibility (1/GPa) = 0.03417344
#
# Stress axis : x y z
#
# Youngs Moduli (GPa) = 55.58077 69.92372 42.47141
#
# Poissons Ratio (x) = 0.57469 0.02493
# Poissons Ratio (y) = 0.45681 0.08608
# Poissons Ratio (z) = 0.03262 0.14171
#
# Static dielectric constant tensor:
#      x y z
#    x 1.748510 0.000000 0.021630 
#    y 0.000000 1.741070 0.000000 
#    z 0.021630 0.000000 1.694090 
# 
# From -- ./inp_files/336618.got.cif
#   From: 2010.05.17/outbox.cif.g08.bks.cpg/sg12_169_cif.got.tgz:336618.got - 2010.06.03 13:09:07.
