data_PCOD9169031
_publ_section_title
;
Structure prediction by ZEFSAII (Michael W. Deem and Ramdas Pophale) SiO2 
 PCOD9169031
Probable space group: C 2/M
;
_chemical_formula_sum "Si O2"
_cell_formula_units_Z 40
_cell_length_a 8.610096
_cell_length_b 25.044626
_cell_length_c 7.180026
_cell_angle_alpha 90.000000
_cell_angle_beta 93.315455
_cell_angle_gamma 90.000000
_cell_volume 1545.685216
_symmetry_space_group_name_H-M "C 2/M"
_symmetry_group_IT_number 12
_symmetry_cell_setting 'monoclinic'
loop_
_space_group_symop_operation_xyz
x,y,z
-x,y,-z
-x,-y,-z
x,-y,z
1/2+x,1/2+y,z
1/2-x,1/2+y,-z
1/2-x,1/2-y,-z
1/2+x,1/2-y,z
loop_
_atom_site_type_symbol
_atom_site_label
_atom_site_fract_x
_atom_site_fract_y
_atom_site_fract_z
Si Si1 0.657858 0.600143 0.120283
Si Si2 0.383717 0.000000 0.622191
Si Si3 0.121250 0.500000 0.892242
Si Si4 0.726157 0.611060 0.515053
Si Si5 0.258542 0.212036 0.690549
Si Si6 0.385247 0.814914 0.217844
O O1 0.774853 0.551905 0.096440
O O2 0.616361 0.595491 0.337185
O O3 0.767186 0.650955 0.081949
O O4 0.500000 0.597775 0.000000
O O5 0.297794 0.941943 0.609523
O O6 0.428026 0.000000 0.866951
O O7 0.419400 0.000000 0.370132
O O8 0.668475 0.657303 0.646827
O O9 0.849968 0.647694 0.400205
O O10 0.250000 0.250000 0.500000
O O11 0.430016 0.194025 0.767432
O O12 0.173146 0.254765 0.809295
#
# Coordination Sequence:
#
# PCOD9169031 Si02
#       6
#     8   4   4   8   8   8
#     4  10  21  40  62  85 123 174 216 243 315 399
#     4  12  16  34  63  97 109 153 213 257 297 386
#     4  12  25  38  64  96 132 161 200 271 330 367
#     4   9  18  30  62  91 112 151 215 256 297 365
#     4  10  16  32  55  91 121 145 203 270 320 356
#     4   9  20  32  60  91 117 159 211 260 316 364
#
# _framework density 25.878491
#
# number of rings (size 3 to 8) (size 9 to 14) (size 15 to 20)
#    1.200    0.800    2.000    5.100    0.000    0.000 
#    0.000    5.000    4.400    2.400    0.000    0.000 
#    0.000    0.000    0.000    0.000    0.000    0.000 
#
# Total GULP energy -111350.504003 kJ/mol
# GULP energy per Si atom -5567.525200 kJ/mol
# Density = 2.581959 g / cm^3
# Si number density = 25.878491 Si / 1000 Ang^3
#
#
#
# Elastic Constant Matrix: (Units=GPa)
#
#
# Indices 1 2 3 4 5 6 
#
# 1 65.0750 63.7510 62.0156 0.0000 28.4810 0.0000
# 2 63.7510 272.1032 89.7246 0.0000 25.0480 0.0000
# 3 62.0156 89.7246 218.7160 0.0000 38.0351 0.0000
# 4 0.0000 0.0000 0.0000 -74.5284 0.0000 71.2003
# 5 28.4810 25.0480 38.0351 0.0000 52.5517 0.0000
# 6 0.0000 0.0000 0.0000 71.2003 0.0000 9.1165
#
#
#
# Elastic Compliance Matrix: (Units=1/GPa)
#
#
# Indices 1 2 3 4 5 6 
#
# 1 0.028151 -0.004183 -0.004530 0.000000 -0.009985 0.000000
# 2 -0.004183 0.004907 -0.000932 0.000000 0.000602 0.000000
# 3 -0.004530 -0.000932 0.006560 0.000000 -0.001849 0.000000
# 4 0.000000 0.000000 0.000000 -0.001586 0.000000 0.012385
# 5 -0.009985 0.000602 -0.001849 0.000000 0.025491 0.000000
# 6 0.000000 0.000000 0.000000 0.012385 0.000000 0.012964
#
#
# Mechanical properties :
#
#
# Convention : Reuss Voigt Hill
#
# Bulk Modulus (GPa) = 49.18877 109.65294 79.42085
# Shear Modulus (GPa) = 48.75513 20.12151 34.43832
#
# Velocity S-wave (km/s) = 4.34522 2.79146 3.65193
# Velocity P-wave (km/s) = 6.65007 7.27007 6.96697
#
# Compressibility (1/GPa) = 0.02032985
#
# Stress axis : x y z
#
# Youngs Moduli (GPa) = 35.52220 203.79798 152.43125
#
# Poissons Ratio (x) = 0.85244 0.69050
# Poissons Ratio (y) = 0.14858 0.14202
# Poissons Ratio (z) = 0.16091 0.18988
#
# Static dielectric constant tensor:
#      x y z
#    x 2.327910 0.000000 -0.597620 
#    y 0.000000 1.931730 0.000000 
#    z -0.597620 0.000000 3.129500 
# 
# From -- ./inp_files/208110.got.cif
#   From: 2010.05.17/outbox.cif.g08.bks.cpg/sg12_105_cif.got.tgz:208110.got - 2010.06.03 13:09:07.
