data_PCOD9169887
_publ_section_title
;
Structure prediction by ZEFSAII (Michael W. Deem and Ramdas Pophale) SiO2 
 PCOD9169887
Probable space group: C 2/M
;
_chemical_formula_sum "Si O2"
_cell_formula_units_Z 56
_cell_length_a 27.981518
_cell_length_b 8.642283
_cell_length_c 14.971103
_cell_angle_alpha 90.000000
_cell_angle_beta 76.377719
_cell_angle_gamma 90.000000
_cell_volume 3518.531957
_symmetry_space_group_name_H-M "C 2/M"
_symmetry_group_IT_number 12
_symmetry_cell_setting 'monoclinic'
loop_
_space_group_symop_operation_xyz
x,y,z
-x,y,-z
-x,-y,-z
x,-y,z
1/2+x,1/2+y,z
1/2-x,1/2+y,-z
1/2-x,1/2-y,-z
1/2+x,1/2-y,z
loop_
_atom_site_type_symbol
_atom_site_label
_atom_site_fract_x
_atom_site_fract_y
_atom_site_fract_z
Si Si1 0.709675 0.186681 0.898285
Si Si2 0.682787 0.184869 0.107145
Si Si3 0.211316 0.812894 0.392085
Si Si4 0.864851 0.814480 0.429747
Si Si5 0.126229 0.815252 0.289339
Si Si6 0.556831 0.185340 0.466042
Si Si7 0.181469 0.686978 0.715484
O O1 0.764470 0.256237 0.879377
O O2 0.682110 0.231814 0.819455
O O3 0.715405 0.000000 0.893995
O O4 0.682673 0.229031 0.002420
O O5 0.639306 0.255059 0.185588
O O6 0.681354 0.000000 0.114268
O O7 0.183930 0.759779 0.493829
O O8 0.173845 0.773387 0.328941
O O9 0.265666 0.757081 0.346221
O O10 0.213956 0.000000 0.394349
O O11 0.910496 0.753912 0.467680
O O12 0.859753 0.753722 0.331678
O O13 0.865659 0.000000 0.430494
O O14 0.080626 0.743716 0.362838
O O15 0.121652 0.000000 0.291340
O O16 0.500000 0.231259 0.500000
O O17 0.560216 0.000000 0.467741
O O18 0.179812 0.500000 0.711728
#
# Coordination Sequence:
#
# PCOD9169887 Si02
#       7
#     8   8   8   8   8   8   8
#     4   9  18  30  44  63  94 134 172 206 238 275
#     4  10  18  28  44  68  95 128 169 207 241 278
#     4   8  15  27  42  61  89 126 160 191 224 269
#     4  10  20  31  45  69  96 124 159 194 236 286
#     4  10  18  31  50  71  97 128 161 196 240 288
#     4  10  21  37  55  75  96 119 153 196 240 288
#     4  10  17  29  45  62  92 133 168 197 232 271
#
# _framework density 15.915729000000001
#
# number of rings (size 3 to 8) (size 9 to 14) (size 15 to 20)
#    0.000    2.429    1.429    3.000    0.000    2.286 
#    0.000    0.714    0.000    0.000    0.000    1.000 
#    0.000    8.000    0.000    0.000    0.000    0.000 
#
# Total GULP energy -156068.746313 kJ/mol
# GULP energy per Si atom -5573.883797 kJ/mol
# Density = 1.587950 g / cm^3
# Si number density = 15.915729 Si / 1000 Ang^3
#
#
#
# Elastic Constant Matrix: (Units=GPa)
#
#
# Indices 1 2 3 4 5 6 
#
# 1 66.3807 24.0942 65.2340 0.0000 -3.2017 0.0000
# 2 24.0942 30.4407 39.6584 0.0000 0.2988 0.0000
# 3 65.2340 39.6584 142.6899 0.0000 9.6094 0.0000
# 4 0.0000 0.0000 0.0000 21.4668 0.0000 0.2912
# 5 -3.2017 0.2988 9.6094 0.0000 21.3672 0.0000
# 6 0.0000 0.0000 0.0000 0.2912 0.0000 18.8288
#
#
#
# Elastic Compliance Matrix: (Units=1/GPa)
#
#
# Indices 1 2 3 4 5 6 
#
# 1 0.030847 -0.008207 -0.012520 0.000000 0.010367 0.000000
# 2 -0.008207 0.054412 -0.011588 0.000000 0.003221 0.000000
# 3 -0.012520 -0.011588 0.016570 0.000000 -0.009166 0.000000
# 4 0.000000 0.000000 0.000000 0.046593 0.000000 -0.000720
# 5 0.010367 0.003221 -0.009166 0.000000 0.052431 0.000000
# 6 0.000000 0.000000 0.000000 -0.000720 0.000000 0.053121
#
#
# Mechanical properties :
#
#
# Convention : Reuss Voigt Hill
#
# Bulk Modulus (GPa) = 26.88189 55.27605 41.07897
# Shear Modulus (GPa) = 15.10563 19.70085 17.40324
#
# Velocity S-wave (km/s) = 3.08409 3.52209 3.31034
# Velocity P-wave (km/s) = 5.44141 7.16561 6.36219
#
# Compressibility (1/GPa) = 0.03719977
#
# Stress axis : x y z
#
# Youngs Moduli (GPa) = 32.41830 18.37840 60.35110
#
# Poissons Ratio (x) = 0.15083 0.75557
# Poissons Ratio (y) = 0.26605 0.69934
# Poissons Ratio (z) = 0.40586 0.21297
#
# Static dielectric constant tensor:
#      x y z
#    x 1.505910 0.000000 0.007800 
#    y 0.000000 1.534830 0.000000 
#    z 0.007800 0.000000 1.568320 
# 
# From -- ./inp_files/242998.got.cif
#   From: 2010.05.17/outbox.cif.g08.bks.cpg/sg12_122_cif.got.tgz:242998.got - 2010.06.03 13:09:07.
