data_PCOD9169257
_publ_section_title
;
Structure prediction by ZEFSAII (Michael W. Deem and Ramdas Pophale) SiO2 
 PCOD9169257
Probable space group: C 2/M
;
_chemical_formula_sum "Si O2"
_cell_formula_units_Z 40
_cell_length_a 9.800954
_cell_length_b 19.951652
_cell_length_c 9.632882
_cell_angle_alpha 90.000000
_cell_angle_beta 88.802099
_cell_angle_gamma 90.000000
_cell_volume 1883.252389
_symmetry_space_group_name_H-M "C 2/M"
_symmetry_group_IT_number 12
_symmetry_cell_setting 'monoclinic'
loop_
_space_group_symop_operation_xyz
x,y,z
-x,y,-z
-x,-y,-z
x,-y,z
1/2+x,1/2+y,z
1/2-x,1/2+y,-z
1/2-x,1/2-y,-z
1/2+x,1/2-y,z
loop_
_atom_site_type_symbol
_atom_site_label
_atom_site_fract_x
_atom_site_fract_y
_atom_site_fract_z
Si Si1 0.279598 0.677923 0.930741
Si Si2 0.776991 0.170261 0.486688
Si Si3 0.503667 0.684286 0.292672
Si Si4 0.555974 0.839278 0.688911
Si Si5 0.622965 0.923780 0.111827
O O1 0.429077 0.674338 0.858291
O O2 0.172176 0.669733 0.805946
O O3 0.250000 0.750000 0.000000
O O4 0.241163 0.620749 0.040787
O O5 0.750000 0.250000 0.500000
O O6 0.891681 0.153077 0.598745
O O7 0.637605 0.139659 0.548454
O O8 0.852298 0.159962 0.338160
O O9 0.504651 0.764423 0.321140
O O10 0.444043 0.888694 0.753252
O O11 0.664431 0.000000 0.137528
O O12 0.500000 0.924522 0.000000
#
# Coordination Sequence:
#
# PCOD9169257 Si02
#       5
#     8   8   8   8   8
#     4  10  17  25  41  64  89 112 143 177 210 252
#     4   8  15  25  39  61  87 108 136 172 219 252
#     4   9  15  25  40  61  89 109 135 181 213 250
#     4   9  16  26  41  62  88 110 143 173 214 251
#     4   9  17  28  41  60  89 117 141 174 214 255
#
# _framework density 21.239850000000001
#
# number of rings (size 3 to 8) (size 9 to 14) (size 15 to 20)
#    0.000    3.000    2.000    0.000    0.000    0.000 
#    0.000    0.000    0.000    1.200    0.000   22.400 
#    0.000    0.000    0.000    0.000    0.000    0.000 
#
# Total GULP energy -111549.045643 kJ/mol
# GULP energy per Si atom -5577.452282 kJ/mol
# Density = 2.119151 g / cm^3
# Si number density = 21.239850 Si / 1000 Ang^3
#
#
#
# Elastic Constant Matrix: (Units=GPa)
#
#
# Indices 1 2 3 4 5 6 
#
# 1 99.8389 31.0069 79.3454 0.0000 -42.9952 0.0000
# 2 31.0069 94.5342 63.7812 0.0000 -41.9600 0.0000
# 3 79.3454 63.7812 181.5184 0.0000 -69.2180 0.0000
# 4 0.0000 0.0000 0.0000 14.7675 0.0000 -6.5929
# 5 -42.9952 -41.9600 -69.2180 0.0000 71.2881 0.0000
# 6 0.0000 0.0000 0.0000 -6.5929 0.0000 16.6687
#
#
#
# Elastic Compliance Matrix: (Units=1/GPa)
#
#
# Indices 1 2 3 4 5 6 
#
# 1 0.016264 0.000469 -0.005444 0.000000 0.004799 0.000000
# 2 0.000469 0.015353 -0.003248 0.000000 0.006165 0.000000
# 3 -0.005444 -0.003248 0.011193 0.000000 0.005673 0.000000
# 4 0.000000 0.000000 0.000000 0.082238 0.000000 0.032527
# 5 0.004799 0.006165 0.005673 0.000000 0.026059 0.000000
# 6 0.000000 0.000000 0.000000 0.032527 0.000000 0.072858
#
#
# Mechanical properties :
#
#
# Convention : Reuss Voigt Hill
#
# Bulk Modulus (GPa) = 37.93317 80.46205 59.19761
# Shear Modulus (GPa) = 20.06429 33.99539 27.02984
#
# Velocity S-wave (km/s) = 3.07686 4.00502 3.57122
# Velocity P-wave (km/s) = 5.52457 7.70401 6.70346
#
# Compressibility (1/GPa) = 0.02636215
#
# Stress axis : x y z
#
# Youngs Moduli (GPa) = 61.48668 65.13552 89.33802
#
# Poissons Ratio (x) = -0.03052 0.48634
# Poissons Ratio (y) = -0.02881 0.29021
# Poissons Ratio (z) = 0.33472 0.21159
#
# Static dielectric constant tensor:
#      x y z
#    x 1.890430 0.000000 0.029300 
#    y 0.000000 1.689840 0.000000 
#    z 0.029300 0.000000 1.846850 
# 
# From -- ./inp_files/130346.got.cif
#   From: 2010.05.17/outbox.cif.g08.bks.cpg/sg12_66_cif.got.tgz:130346.got - 2010.06.03 13:09:07.
