data_PCOD9169303
_publ_section_title
;
Structure prediction by ZEFSAII (Michael W. Deem and Ramdas Pophale) SiO2 
 PCOD9169303
Probable space group: C 2/M
;
_chemical_formula_sum "Si O2"
_cell_formula_units_Z 64
_cell_length_a 17.510895
_cell_length_b 15.331635
_cell_length_c 14.486199
_cell_angle_alpha 90.000000
_cell_angle_beta 76.323299
_cell_angle_gamma 90.000000
_cell_volume 3778.844650
_symmetry_space_group_name_H-M "C 2/M"
_symmetry_group_IT_number 12
_symmetry_cell_setting 'monoclinic'
loop_
_space_group_symop_operation_xyz
x,y,z
-x,y,-z
-x,-y,-z
x,-y,z
1/2+x,1/2+y,z
1/2-x,1/2+y,-z
1/2-x,1/2-y,-z
1/2+x,1/2-y,z
loop_
_atom_site_type_symbol
_atom_site_label
_atom_site_fract_x
_atom_site_fract_y
_atom_site_fract_z
Si Si1 0.981318 0.893575 0.108775
Si Si2 0.672575 0.395247 0.389157
Si Si3 0.675405 0.101746 0.551722
Si Si4 0.076151 0.900981 0.253796
Si Si5 0.510383 0.153878 0.602312
Si Si6 0.170550 0.894461 0.735149
Si Si7 0.657870 0.894415 0.345768
Si Si8 0.929068 0.150278 0.407403
O O1 0.894278 0.870392 0.170026
O O2 0.043836 0.861266 0.167846
O O3 0.984605 0.000000 0.109346
O O4 0.000000 0.864868 0.000000
O O5 0.679158 0.500000 0.375728
O O6 0.754810 0.360449 0.406070
O O7 0.642569 0.358924 0.299695
O O8 0.606601 0.379502 0.485868
O O9 0.588450 0.108972 0.619478
O O10 0.669117 0.138142 0.449077
O O11 0.695135 0.000000 0.533575
O O12 0.998944 0.904693 0.341480
O O13 0.100859 0.000000 0.225006
O O14 0.500000 0.119660 0.500000
O O15 0.424608 0.140441 0.669280
O O16 0.534465 0.254351 0.592919
O O17 0.260942 0.871849 0.727968
O O18 0.140890 0.853754 0.647398
O O19 0.167384 0.000000 0.723718
O O20 0.650815 0.000000 0.349976
#
# Coordination Sequence:
#
# PCOD9169303 Si02
#       8
#     8   8   8   8   8   8   8   8
#     4   8  14  25  42  65  90 107 127 170 220 255
#     4  10  17  26  40  57  80 115 148 171 199 245
#     4   9  17  29  42  55  76 112 153 183 208 239
#     4   9  17  26  39  59  84 113 140 163 197 253
#     4  10  20  29  37  57  83 116 147 180 219 238
#     4   9  16  28  47  66  83 111 146 173 203 252
#     4   9  16  30  46  58  77 110 153 186 206 240
#     4  11  18  27  38  59  89 113 141 171 209 244
#
# _framework density 16.936394
#
# number of rings (size 3 to 8) (size 9 to 14) (size 15 to 20)
#    0.000    2.625    1.250    3.375    0.000    3.000 
#    2.250    0.000    0.000    0.000    0.000    3.500 
#    0.000    0.125    0.000   11.625    0.000    0.000 
#
# Total GULP energy -178160.533992 kJ/mol
# GULP energy per Si atom -5567.516687 kJ/mol
# Density = 1.689785 g / cm^3
# Si number density = 16.936394 Si / 1000 Ang^3
#
#
#
# Elastic Constant Matrix: (Units=GPa)
#
#
# Indices 1 2 3 4 5 6 
#
# 1 123.1166 5.7695 52.1407 0.0000 4.6293 0.0000
# 2 5.7695 14.7458 -0.7265 0.0000 0.3351 0.0000
# 3 52.1407 -0.7265 88.1431 0.0000 7.0461 0.0000
# 4 0.0000 0.0000 0.0000 -0.0512 0.0000 0.8983
# 5 4.6293 0.3351 7.0461 0.0000 14.0883 0.0000
# 6 0.0000 0.0000 0.0000 0.8983 0.0000 15.3635
#
#
#
# Elastic Compliance Matrix: (Units=1/GPa)
#
#
# Indices 1 2 3 4 5 6 
#
# 1 0.011153 -0.004684 -0.006617 0.000000 -0.000244 0.000000
# 2 -0.004684 0.069864 0.003496 0.000000 -0.001871 0.000000
# 3 -0.006617 0.003496 0.015751 0.000000 -0.005787 0.000000
# 4 0.000000 0.000000 0.000000 -9.637914 0.000000 0.563537
# 5 -0.000244 -0.001871 -0.005787 0.000000 0.074000 0.000000
# 6 0.000000 0.000000 0.000000 0.563537 0.000000 0.032139
#
#
# Mechanical properties :
#
#
# Convention : Reuss Voigt Hill
#
# Bulk Modulus (GPa) = 12.32160 37.81921 25.07040
# Shear Modulus (GPa) = -0.53235 17.13491 8.30128
#
# Velocity S-wave (km/s) = -0.56125 3.18421 2.21632
# Velocity P-wave (km/s) = 2.62126 5.99145 4.62431
#
# Compressibility (1/GPa) = 0.08115829
#
# Stress axis : x y z
#
# Youngs Moduli (GPa) = 89.65920 14.31358 63.48912
#
# Poissons Ratio (x) = 0.06705 0.42010
# Poissons Ratio (y) = 0.41999 -0.22198
# Poissons Ratio (z) = 0.59326 -0.05005
#
# Static dielectric constant tensor:
#      x y z
#    x 1.652790 0.000000 0.007310 
#    y 0.000000 1.609260 0.000000 
#    z 0.007310 0.000000 1.556680 
# 
# From -- ./inp_files/215904.got.cif
#   From: 2010.05.17/outbox.cif.g08.bks.cpg/sg12_108_cif.got.tgz:215904.got - 2010.06.03 13:09:07.
