data_PCOD9169425
_publ_section_title
;
Structure prediction by ZEFSAII (Michael W. Deem and Ramdas Pophale) SiO2 
 PCOD9169425
Probable space group: C 2/M
;
_chemical_formula_sum "Si O2"
_cell_formula_units_Z 48
_cell_length_a 8.250637
_cell_length_b 19.971273
_cell_length_c 18.832437
_cell_angle_alpha 90.000000
_cell_angle_beta 121.164944
_cell_angle_gamma 90.000000
_cell_volume 2655.288205
_symmetry_space_group_name_H-M "C 2/M"
_symmetry_group_IT_number 12
_symmetry_cell_setting 'monoclinic'
loop_
_space_group_symop_operation_xyz
x,y,z
-x,y,-z
-x,-y,-z
x,-y,z
1/2+x,1/2+y,z
1/2-x,1/2+y,-z
1/2-x,1/2-y,-z
1/2+x,1/2-y,z
loop_
_atom_site_type_symbol
_atom_site_label
_atom_site_fract_x
_atom_site_fract_y
_atom_site_fract_z
Si Si1 0.792496 0.778901 0.637500
Si Si2 0.119787 0.324762 0.737514
Si Si3 0.803881 0.789043 0.917239
Si Si4 0.177097 0.420664 0.257951
Si Si5 0.560881 0.852141 0.087327
Si Si6 0.478135 0.651443 0.418934
O O1 0.708585 0.825428 0.679959
O O2 0.651100 0.716917 0.594830
O O3 0.986296 0.742139 0.707654
O O4 0.835056 0.819930 0.576264
O O5 0.281255 0.317589 0.833113
O O6 0.986614 0.385373 0.731750
O O7 0.624052 0.816157 0.919896
O O8 0.805513 0.708929 0.907337
O O9 0.000000 0.807134 0.000000
O O10 0.165478 0.500000 0.257877
O O11 0.149926 0.394766 0.171041
O O12 0.369400 0.393133 0.336571
O O13 0.500000 0.887792 0.000000
O O14 0.500000 0.616975 0.500000
#
# Coordination Sequence:
#
# PCOD9169425 Si02
#       6
#     8   8   8   8   8   8
#     4   9  17  31  53  79 102 125 157 202 262 309
#     4   9  17  31  51  72 101 132 162 204 250 302
#     4  10  17  26  46  77 102 120 152 202 259 302
#     4  10  22  37  50  67  98 142 179 205 239 286
#     4  10  19  31  51  75 100 128 160 204 253 303
#     4  10  19  32  54  81 106 129 159 205 255 304
#
# _framework density 18.077133
#
# number of rings (size 3 to 8) (size 9 to 14) (size 15 to 20)
#    0.000    2.333    0.000    6.500    0.000    2.000 
#    0.000    0.833    0.000    9.000    0.000    0.000 
#    0.000    0.667    0.000    0.000    0.000    0.000 
#
# Total GULP energy -133810.038205 kJ/mol
# GULP energy per Si atom -5575.418259 kJ/mol
# Density = 1.803599 g / cm^3
# Si number density = 18.077133 Si / 1000 Ang^3
#
#
#
# Elastic Constant Matrix: (Units=GPa)
#
#
# Indices 1 2 3 4 5 6 
#
# 1 44.9134 3.5718 22.0745 0.0000 -21.6057 0.0000
# 2 3.5718 61.0453 19.7792 0.0000 -10.9108 0.0000
# 3 22.0745 19.7792 94.9412 0.0000 -24.5453 0.0000
# 4 0.0000 0.0000 0.0000 5.3732 0.0000 -1.6615
# 5 -21.6057 -10.9108 -24.5453 0.0000 29.3318 0.0000
# 6 0.0000 0.0000 0.0000 -1.6615 0.0000 5.2648
#
#
#
# Elastic Compliance Matrix: (Units=1/GPa)
#
#
# Indices 1 2 3 4 5 6 
#
# 1 0.035302 0.003206 -0.002354 0.000000 0.025226 0.000000
# 2 0.003206 0.018321 -0.002794 0.000000 0.006838 0.000000
# 3 -0.002354 -0.002794 0.013967 0.000000 0.008914 0.000000
# 4 0.000000 0.000000 0.000000 0.206236 0.000000 0.065087
# 5 0.025226 0.006838 0.008914 0.000000 0.062677 0.000000
# 6 0.000000 0.000000 0.000000 0.065087 0.000000 0.210483
#
#
# Mechanical properties :
#
#
# Convention : Reuss Voigt Hill
#
# Bulk Modulus (GPa) = 15.69729 32.41676 24.05703
# Shear Modulus (GPa) = 8.73961 18.35890 13.54925
#
# Velocity S-wave (km/s) = 2.20116 3.19028 2.74071
# Velocity P-wave (km/s) = 3.89391 5.61622 4.83241
#
# Compressibility (1/GPa) = 0.06370525
#
# Stress axis : x y z
#
# Youngs Moduli (GPa) = 28.32680 54.58121 71.59753
#
# Poissons Ratio (x) = -0.17498 0.16855
# Poissons Ratio (y) = -0.09081 0.20007
# Poissons Ratio (z) = 0.06669 0.15252
#
# Static dielectric constant tensor:
#      x y z
#    x 1.645020 0.000000 0.005530 
#    y 0.000000 1.576150 0.000000 
#    z 0.005530 0.000000 1.694060 
# 
# From -- ./inp_files/257542.got.cif
#   From: 2010.05.17/outbox.cif.g08.bks.cpg/sg12_129_cif.got.tgz:257542.got - 2010.06.03 13:09:07.
