data_PCOD9169248
_publ_section_title
;
Structure prediction by ZEFSAII (Michael W. Deem and Ramdas Pophale) SiO2 
 PCOD9169248
Probable space group: C 2/M
;
_chemical_formula_sum "Si O2"
_cell_formula_units_Z 64
_cell_length_a 21.088122
_cell_length_b 28.915702
_cell_length_c 9.756650
_cell_angle_alpha 90.000000
_cell_angle_beta 25.955389
_cell_angle_gamma 90.000000
_cell_volume 2603.876285
_symmetry_space_group_name_H-M "C 2/M"
_symmetry_group_IT_number 12
_symmetry_cell_setting 'monoclinic'
loop_
_space_group_symop_operation_xyz
x,y,z
-x,y,-z
-x,-y,-z
x,-y,z
1/2+x,1/2+y,z
1/2-x,1/2+y,-z
1/2-x,1/2-y,-z
1/2+x,1/2-y,z
loop_
_atom_site_type_symbol
_atom_site_label
_atom_site_fract_x
_atom_site_fract_y
_atom_site_fract_z
Si Si1 0.676614 0.797275 0.188803
Si Si2 0.860714 0.812822 0.359543
Si Si3 0.523552 0.446984 0.169252
Si Si4 0.210265 0.913531 0.538033
Si Si5 0.127011 0.712416 0.588332
Si Si6 0.557256 0.886169 0.702729
Si Si7 0.204944 0.892154 0.009755
Si Si8 0.382659 0.947495 0.853368
O O1 0.500000 0.799885 0.500000
O O2 0.706821 0.795353 0.291856
O O3 0.763606 0.843239 0.975620
O O4 0.750000 0.750000 0.000000
O O5 0.817730 0.864221 0.483886
O O6 0.911439 0.766637 0.341339
O O7 0.728987 0.796521 0.518945
O O8 0.000000 0.823374 0.000000
O O9 0.569397 0.500000 0.112794
O O10 0.357379 0.447761 0.442083
O O11 0.615537 0.428134 0.858620
O O12 0.561157 0.409446 0.213193
O O13 0.362968 0.906235 0.318263
O O14 0.018944 0.668386 0.797202
O O15 0.676103 0.890081 0.346747
O O16 0.428234 0.915561 0.891079
O O17 0.241213 0.930912 0.050297
O O18 0.500000 0.942874 0.500000
O O19 0.383972 0.000000 0.894154
#
# Coordination Sequence:
#
# PCOD9169248 Si02
#       8
#     8   8   8   8   8   8   8   8
#     4  11  24  39  58  82 114 156 188 232 284 335
#     4  10  18  31  53  72 101 146 181 224 278 329
#     4  10  17  25  40  66 103 139 172 214 274 340
#     4   9  16  25  39  64  95 135 170 212 277 333
#     4   9  20  33  49  76 103 142 189 224 271 341
#     4   8  15  27  40  60  95 130 170 213 271 321
#     4   9  17  30  45  67 100 141 174 215 272 323
#     4   9  15  24  41  63  91 130 170 211 267 330
#
# _framework density 24.578741000000001
#
# number of rings (size 3 to 8) (size 9 to 14) (size 15 to 20)
#    0.000    2.625    1.250    3.750    1.750    3.500 
#    0.000    0.000    0.000    0.000    0.000    0.000 
#    0.000   11.500    2.500    1.250    0.000    0.000 
#
# Total GULP energy -178148.473837 kJ/mol
# GULP energy per Si atom -5567.139807 kJ/mol
# Density = 2.452280 g / cm^3
# Si number density = 24.578741 Si / 1000 Ang^3
#
#
#
# Elastic Constant Matrix: (Units=GPa)
#
#
# Indices 1 2 3 4 5 6 
#
# 1 78.4484 59.8626 -2.6524 0.0029 -19.6400 0.0009
# 2 59.8626 181.6617 33.3243 0.0033 -26.7417 0.0007
# 3 -2.6524 33.3243 59.8251 0.0062 -4.4057 0.0047
# 4 0.0029 0.0033 0.0062 0.7986 -0.0034 -2.0933
# 5 -19.6400 -26.7417 -4.4057 -0.0034 25.5729 -0.0021
# 6 0.0009 0.0007 0.0047 -2.0933 -0.0021 45.1285
#
#
#
# Elastic Compliance Matrix: (Units=1/GPa)
#
#
# Indices 1 2 3 4 5 6 
#
# 1 0.020013 -0.006052 0.004988 -0.000051 0.009900 -0.000003
# 2 -0.006052 0.008987 -0.004988 0.000047 0.003890 0.000003
# 3 0.004988 -0.004988 0.019865 -0.000169 0.002037 -0.000010
# 4 -0.000051 0.000047 -0.000169 1.425545 0.000175 0.066126
# 5 0.009900 0.003890 0.002037 0.000175 0.051126 0.000010
# 6 -0.000003 0.000003 -0.000010 0.066126 0.000010 0.025226
#
#
# Mechanical properties :
#
#
# Convention : Reuss Voigt Hill
#
# Bulk Modulus (GPa) = 27.20370 55.66716 41.43543
# Shear Modulus (GPa) = 3.17436 29.59338 16.38387
#
# Velocity S-wave (km/s) = 1.13768 3.47367 2.58464
# Velocity P-wave (km/s) = 3.58019 6.22785 5.07956
#
# Compressibility (1/GPa) = 0.03675971
#
# Stress axis : x y z
#
# Youngs Moduli (GPa) = 49.96772 111.27468 50.34004
#
# Poissons Ratio (x) = 0.67348 -0.25108
# Poissons Ratio (y) = 0.30243 0.25108
# Poissons Ratio (z) = -0.24923 0.55501
#
# Static dielectric constant tensor:
#      x y z
#    x 1.932640 0.000000 0.075960 
#    y 0.000000 2.153350 0.000000 
#    z 0.075960 0.000000 2.063780 
# 
# From -- ./inp_files/170603.got.cif
#   From: 2010.05.17/outbox.cif.g08.bks.cpg/sg12_86_cif.got.tgz:170603.got - 2010.06.03 13:09:07.
