data_PCOD9169966
_publ_section_title
;
Structure prediction by ZEFSAII (Michael W. Deem and Ramdas Pophale) SiO2 
 PCOD9169966
Probable space group: C 2/M
;
_chemical_formula_sum "Si O2"
_cell_formula_units_Z 56
_cell_length_a 10.025080
_cell_length_b 19.650578
_cell_length_c 15.033402
_cell_angle_alpha 90.000000
_cell_angle_beta 117.904682
_cell_angle_gamma 90.000000
_cell_volume 2617.211154
_symmetry_space_group_name_H-M "C 2/M"
_symmetry_group_IT_number 12
_symmetry_cell_setting 'monoclinic'
loop_
_space_group_symop_operation_xyz
x,y,z
-x,y,-z
-x,-y,-z
x,-y,z
1/2+x,1/2+y,z
1/2-x,1/2+y,-z
1/2-x,1/2-y,-z
1/2+x,1/2-y,z
loop_
_atom_site_type_symbol
_atom_site_label
_atom_site_fract_x
_atom_site_fract_y
_atom_site_fract_z
Si Si1 0.227277 0.677225 0.259412
Si Si2 0.136321 0.577613 0.699770
Si Si3 0.710259 0.329201 0.995617
Si Si4 0.523236 0.921444 0.871967
Si Si5 0.949296 0.176850 0.579582
Si Si6 0.866868 0.333783 0.562445
Si Si7 0.609389 0.327130 0.168278
O O1 0.408573 0.670717 0.310733
O O2 0.188378 0.670078 0.352019
O O3 0.162215 0.750868 0.210417
O O4 0.133323 0.619739 0.179043
O O5 0.156683 0.500000 0.679344
O O6 0.080539 0.578625 0.786361
O O7 0.289941 0.620181 0.746129
O O8 0.004996 0.614829 0.604309
O O9 0.853550 0.378795 0.033472
O O10 0.654081 0.337360 0.079220
O O11 0.750000 0.250000 0.000000
O O12 0.569337 0.339847 0.886230
O O13 0.510483 0.000000 0.895029
O O14 0.923230 0.257823 0.560297
O O15 0.780329 0.149550 0.542242
O O16 0.000000 0.147707 0.500000
#
# Coordination Sequence:
#
# PCOD9169966 Si02
#       7
#     8   8   8   8   8   8   8
#     4  10  17  29  49  71  95 121 160 196 230 280
#     4   9  17  30  47  69  98 125 155 193 235 282
#     4  10  19  31  47  70  98 122 157 200 236 275
#     4   9  18  31  47  68  97 127 154 192 240 279
#     4   9  17  28  46  73  97 118 156 198 230 274
#     4   9  17  29  46  72  97 123 153 191 242 271
#     4  10  19  29  48  74  93 122 163 195 235 276
#
# _framework density 21.396820000000002
#
# number of rings (size 3 to 8) (size 9 to 14) (size 15 to 20)
#    0.000    2.571    2.857    0.000    0.000    0.571 
#    0.000    3.571    0.000    6.429    0.000    3.000 
#    0.000    0.000    0.000    0.000    0.000    0.000 
#
# Total GULP energy -156320.141275 kJ/mol
# GULP energy per Si atom -5582.862188 kJ/mol
# Density = 2.134812 g / cm^3
# Si number density = 21.396820 Si / 1000 Ang^3
#
#
#
# Elastic Constant Matrix: (Units=GPa)
#
#
# Indices 1 2 3 4 5 6 
#
# 1 60.5469 30.5845 80.6533 0.0000 36.3235 0.0000
# 2 30.5845 141.5551 78.7173 0.0000 61.4417 0.0000
# 3 80.6533 78.7173 174.1524 0.0000 59.8568 0.0000
# 4 0.0000 0.0000 0.0000 24.7462 0.0000 7.3188
# 5 36.3235 61.4417 59.8568 0.0000 74.2348 0.0000
# 6 0.0000 0.0000 0.0000 7.3188 0.0000 21.1168
#
#
#
# Elastic Compliance Matrix: (Units=1/GPa)
#
#
# Indices 1 2 3 4 5 6 
#
# 1 0.049329 0.006690 -0.021678 0.000000 -0.012195 0.000000
# 2 0.006690 0.012820 -0.005701 0.000000 -0.009288 0.000000
# 3 -0.021678 -0.005701 0.018110 0.000000 0.000723 0.000000
# 4 0.000000 0.000000 0.000000 0.045026 0.000000 -0.015605
# 5 -0.012195 -0.009288 0.000723 0.000000 0.026542 0.000000
# 6 0.000000 0.000000 0.000000 -0.015605 0.000000 0.052764
#
#
# Mechanical properties :
#
#
# Convention : Reuss Voigt Hill
#
# Bulk Modulus (GPa) = 25.71883 84.01828 54.86855
# Shear Modulus (GPa) = 19.31031 36.43950 27.87491
#
# Velocity S-wave (km/s) = 3.00740 4.13126 3.61329
# Velocity P-wave (km/s) = 4.90971 7.88089 6.56558
#
# Compressibility (1/GPa) = 0.03888202
#
# Stress axis : x y z
#
# Youngs Moduli (GPa) = 20.27196 78.00010 55.21933
#
# Poissons Ratio (x) = -0.52180 1.19702
# Poissons Ratio (y) = -0.13562 0.31479
# Poissons Ratio (z) = 0.43945 0.44466
#
# Static dielectric constant tensor:
#      x y z
#    x 1.895670 0.000000 -0.057650 
#    y 0.000000 1.699660 0.000000 
#    z -0.057650 0.000000 1.832930 
# 
# From -- ./inp_files/263825.got.cif
#   From: 2010.05.17/outbox.cif.g08.bks.cpg/sg12_132_cif.got.tgz:263825.got - 2010.06.03 13:09:07.
