data_PCOD9169136
_publ_section_title
;
Structure prediction by ZEFSAII (Michael W. Deem and Ramdas Pophale) SiO2 
 PCOD9169136
Probable space group: C 2/M
;
_chemical_formula_sum "Si O2"
_cell_formula_units_Z 64
_cell_length_a 24.849261
_cell_length_b 9.190738
_cell_length_c 19.056066
_cell_angle_alpha 90.000000
_cell_angle_beta 99.382308
_cell_angle_gamma 90.000000
_cell_volume 4293.862645
_symmetry_space_group_name_H-M "C 2/M"
_symmetry_group_IT_number 12
_symmetry_cell_setting 'monoclinic'
loop_
_space_group_symop_operation_xyz
x,y,z
-x,y,-z
-x,-y,-z
x,-y,z
1/2+x,1/2+y,z
1/2-x,1/2+y,-z
1/2-x,1/2-y,-z
1/2+x,1/2-y,z
loop_
_atom_site_type_symbol
_atom_site_label
_atom_site_fract_x
_atom_site_fract_y
_atom_site_fract_z
Si Si1 0.737208 0.827252 0.386961
Si Si2 0.497605 0.172880 0.164390
Si Si3 0.047029 0.673945 0.453642
Si Si4 0.457544 0.326804 0.696117
Si Si5 0.398437 0.326134 0.882495
Si Si6 0.443568 0.332431 0.033537
Si Si7 0.663096 0.671036 0.264011
Si Si8 0.169899 0.326563 0.514340
O O1 0.709101 0.763045 0.312040
O O2 0.794522 0.755692 0.420211
O O3 0.696922 0.793088 0.444207
O O4 0.742334 0.000000 0.383365
O O5 0.501447 0.249484 0.240751
O O6 0.553130 0.228512 0.138535
O O7 0.450665 0.230719 0.102164
O O8 0.496683 0.000000 0.170424
O O9 0.047917 0.500000 0.438868
O O10 0.037788 0.759822 0.379822
O O11 0.106468 0.712595 0.497094
O O12 0.000000 0.702528 0.500000
O O13 0.465861 0.500000 0.698382
O O14 0.395608 0.300134 0.711203
O O15 0.412414 0.500000 0.876960
O O16 0.347249 0.300329 0.820817
O O17 0.397482 0.298796 0.965531
O O18 0.438344 0.500000 0.055222
O O19 0.500000 0.323738 0.000000
O O20 0.674766 0.500000 0.275735
O O21 0.174793 0.500000 0.526261
#
# Coordination Sequence:
#
# PCOD9169136 Si02
#       8
#     8   8   8   8   8   8   8   8
#     4  10  18  27  43  63  83 108 139 174 210 247
#     4  10  17  23  35  53  74 100 135 175 210 241
#     4  10  20  34  50  66  85 108 136 175 220 259
#     4  10  19  30  43  58  79 107 141 174 209 253
#     4   8  15  25  35  50  74 106 138 167 203 248
#     4   8  13  23  35  47  70 102 136 168 201 243
#     4   9  16  26  40  58  80 108 139 173 210 245
#     4   9  18  31  44  61  84 108 135 168 211 256
#
# _framework density 14.904995
#
# number of rings (size 3 to 8) (size 9 to 14) (size 15 to 20)
#    0.000    2.750    1.250    3.375    0.000    5.500 
#    0.000    0.000    0.000    0.000    0.000    0.000 
#    0.000    0.000    0.000    1.125    0.000   12.625 
#
# Total GULP energy -178145.072737 kJ/mol
# GULP energy per Si atom -5567.033523 kJ/mol
# Density = 1.487107 g / cm^3
# Si number density = 14.904995 Si / 1000 Ang^3
#
#
#
# Elastic Constant Matrix: (Units=GPa)
#
#
# Indices 1 2 3 4 5 6 
#
# 1 55.1265 34.7702 51.7575 0.0000 17.3295 0.0000
# 2 34.7702 64.0567 66.2644 0.0000 20.0880 0.0000
# 3 51.7575 66.2644 116.4506 0.0000 41.5784 0.0000
# 4 0.0000 0.0000 0.0000 26.2941 0.0000 7.2383
# 5 17.3295 20.0880 41.5784 0.0000 24.7301 0.0000
# 6 0.0000 0.0000 0.0000 7.2383 0.0000 13.0374
#
#
#
# Elastic Compliance Matrix: (Units=1/GPa)
#
#
# Indices 1 2 3 4 5 6 
#
# 1 0.032228 -0.006305 -0.011262 0.000000 0.001472 0.000000
# 2 -0.006305 0.041139 -0.025652 0.000000 0.014131 0.000000
# 3 -0.011262 -0.025652 0.044864 0.000000 -0.046701 0.000000
# 4 0.000000 0.000000 0.000000 0.044892 0.000000 -0.024924
# 5 0.001472 0.014131 -0.046701 0.000000 0.106445 0.000000
# 6 0.000000 0.000000 0.000000 -0.024924 0.000000 0.090540
#
#
# Mechanical properties :
#
#
# Convention : Reuss Voigt Hill
#
# Bulk Modulus (GPa) = 31.45423 60.13534 45.79478
# Shear Modulus (GPa) = 10.93749 18.33511 14.63630
#
# Velocity S-wave (km/s) = 2.71184 3.51113 3.13704
# Velocity P-wave (km/s) = 5.56367 7.54127 6.62665
#
# Compressibility (1/GPa) = 0.03179223
#
# Stress axis : x y z
#
# Youngs Moduli (GPa) = 31.02939 24.30806 22.28946
#
# Poissons Ratio (x) = 0.15327 0.25102
# Poissons Ratio (y) = 0.19564 0.57178
# Poissons Ratio (z) = 0.34944 0.62356
#
# Static dielectric constant tensor:
#      x y z
#    x 1.474150 0.000000 0.034130 
#    y 0.000000 1.491010 0.000000 
#    z 0.034130 0.000000 1.517070 
# 
# From -- ./inp_files/291579.got.cif
#   From: 2010.05.17/outbox.cif.g08.bks.cpg/sg12_146_cif.got.tgz:291579.got - 2010.06.03 13:09:07.
