data_PCOD9169294
_publ_section_title
;
Structure prediction by ZEFSAII (Michael W. Deem and Ramdas Pophale) SiO2 
 PCOD9169294
Probable space group: C 2/M
;
_chemical_formula_sum "Si O2"
_cell_formula_units_Z 48
_cell_length_a 13.928366
_cell_length_b 8.173876
_cell_length_c 22.208103
_cell_angle_alpha 90.000000
_cell_angle_beta 125.659609
_cell_angle_gamma 90.000000
_cell_volume 2054.282720
_symmetry_space_group_name_H-M "C 2/M"
_symmetry_group_IT_number 12
_symmetry_cell_setting 'monoclinic'
loop_
_space_group_symop_operation_xyz
x,y,z
-x,y,-z
-x,-y,-z
x,-y,z
1/2+x,1/2+y,z
1/2-x,1/2+y,-z
1/2-x,1/2-y,-z
1/2+x,1/2-y,z
loop_
_atom_site_type_symbol
_atom_site_label
_atom_site_fract_x
_atom_site_fract_y
_atom_site_fract_z
Si Si1 0.215182 0.697260 0.420994
Si Si2 0.762866 0.188552 0.136695
Si Si3 0.597678 0.695622 0.982799
Si Si4 0.962769 0.309460 0.285088
Si Si5 0.908785 0.190565 0.824521
Si Si6 0.705793 0.691556 0.674060
O O1 0.210198 0.500000 0.418512
O O2 0.250000 0.750000 0.500000
O O3 0.301391 0.745126 0.397771
O O4 0.086684 0.759484 0.353666
O O5 0.897043 0.221477 0.205681
O O6 0.684329 0.297667 0.153408
O O7 0.736489 0.000000 0.140590
O O8 0.716286 0.225122 0.052730
O O9 0.613610 0.500000 0.983435
O O10 0.530355 0.754995 0.898242
O O11 0.500000 0.724992 0.000000
O O12 0.974575 0.500000 0.274204
O O13 0.876486 0.290153 0.311019
O O14 0.840586 0.285292 0.747125
O O15 0.922344 0.000000 0.813656
O O16 0.676137 0.500000 0.668443
#
# Coordination Sequence:
#
# PCOD9169294 Si02
#       6
#     8   8   8   8   8   8
#     4  10  24  42  61  84 111 142 177 220 273 330
#     4  10  17  25  43  73 105 140 181 225 269 310
#     4   8  14  24  39  64 101 141 181 222 263 312
#     4  10  20  37  58  81 110 147 184 218 266 328
#     4   9  16  27  45  71 103 143 184 220 264 318
#     4  10  20  36  57  84 113 142 179 226 274 316
#
# _framework density 23.365818000000001
#
# number of rings (size 3 to 8) (size 9 to 14) (size 15 to 20)
#    0.000    2.500    0.000    6.000    0.000    7.000 
#    0.000    3.333    0.000    1.000    0.000    0.000 
#    0.000    0.000    0.000    0.000    0.000    0.000 
#
# Total GULP energy -134103.969194 kJ/mol
# GULP energy per Si atom -5587.665383 kJ/mol
# Density = 2.331264 g / cm^3
# Si number density = 23.365818 Si / 1000 Ang^3
#
#
#
# Elastic Constant Matrix: (Units=GPa)
#
#
# Indices 1 2 3 4 5 6 
#
# 1 57.1468 1.4520 31.6250 0.0000 -1.3689 0.0000
# 2 1.4520 43.7646 1.5885 0.0000 -3.7327 0.0000
# 3 31.6250 1.5885 128.1648 0.0000 -21.0191 0.0000
# 4 0.0000 0.0000 0.0000 37.6058 0.0000 3.0846
# 5 -1.3689 -3.7327 -21.0191 0.0000 39.7124 0.0000
# 6 0.0000 0.0000 0.0000 3.0846 0.0000 14.2048
#
#
#
# Elastic Compliance Matrix: (Units=1/GPa)
#
#
# Indices 1 2 3 4 5 6 
#
# 1 0.020452 -0.000672 -0.005402 0.000000 -0.002217 0.000000
# 2 -0.000672 0.023057 0.000254 0.000000 0.002278 0.000000
# 3 -0.005402 0.000254 0.009971 0.000000 0.005115 0.000000
# 4 0.000000 0.000000 0.000000 0.027074 0.000000 -0.005879
# 5 -0.002217 0.002278 0.005115 0.000000 0.028026 0.000000
# 6 0.000000 0.000000 0.000000 -0.005879 0.000000 0.071676
#
#
# Mechanical properties :
#
#
# Convention : Reuss Voigt Hill
#
# Bulk Modulus (GPa) = 23.90037 33.15634 28.52836
# Shear Modulus (GPa) = 24.29041 31.26531 27.77786
#
# Velocity S-wave (km/s) = 3.22773 3.66194 3.45167
# Velocity P-wave (km/s) = 4.91345 5.66575 5.30296
#
# Compressibility (1/GPa) = 0.04184035
#
# Stress axis : x y z
#
# Youngs Moduli (GPa) = 48.89454 43.37094 100.28935
#
# Poissons Ratio (x) = 0.02913 0.54176
# Poissons Ratio (y) = 0.03284 -0.02543
# Poissons Ratio (z) = 0.26413 -0.01100
#
# Static dielectric constant tensor:
#      x y z
#    x 1.985910 0.000000 -0.001300 
#    y 0.000000 1.783560 0.000000 
#    z -0.001300 0.000000 1.895420 
# 
# From -- ./inp_files/314496.got.cif
#   From: 2010.05.17/outbox.cif.g08.bks.cpg/sg12_158_cif.got.tgz:314496.got - 2010.06.03 13:09:07.
