data_PCOD9169490
_publ_section_title
;
Structure prediction by ZEFSAII (Michael W. Deem and Ramdas Pophale) SiO2 
 PCOD9169490
Probable space group: C 2/M
;
_chemical_formula_sum "Si O2"
_cell_formula_units_Z 56
_cell_length_a 27.861851
_cell_length_b 8.665307
_cell_length_c 17.933647
_cell_angle_alpha 90.000000
_cell_angle_beta 125.049342
_cell_angle_gamma 90.000000
_cell_volume 3544.581233
_symmetry_space_group_name_H-M "C 2/M"
_symmetry_group_IT_number 12
_symmetry_cell_setting 'monoclinic'
loop_
_space_group_symop_operation_xyz
x,y,z
-x,y,-z
-x,-y,-z
x,-y,z
1/2+x,1/2+y,z
1/2-x,1/2+y,-z
1/2-x,1/2-y,-z
1/2+x,1/2-y,z
loop_
_atom_site_type_symbol
_atom_site_label
_atom_site_fract_x
_atom_site_fract_y
_atom_site_fract_z
Si Si1 0.985005 0.186142 0.606903
Si Si2 0.840548 0.318051 0.111432
Si Si3 0.330663 0.813126 0.934044
Si Si4 0.040078 0.184516 0.966893
Si Si5 0.020603 0.319055 0.790498
Si Si6 0.406525 0.688023 0.401800
Si Si7 0.707593 0.684747 0.780130
O O1 0.932309 0.234941 0.504896
O O2 0.984389 0.252597 0.689037
O O3 0.045015 0.232627 0.617150
O O4 0.985231 0.000000 0.611135
O O5 0.827652 0.500000 0.110272
O O6 0.910829 0.299309 0.170144
O O7 0.815225 0.224226 0.157526
O O8 0.818924 0.269040 0.010144
O O9 0.274824 0.760613 0.836003
O O10 0.334333 0.000000 0.936309
O O11 0.393821 0.748831 0.968315
O O12 0.013897 0.238499 0.864313
O O13 0.042863 0.000000 0.969934
O O14 0.000000 0.237092 0.000000
O O15 0.009536 0.500000 0.789364
O O16 0.405796 0.500000 0.401022
O O17 0.342256 0.744198 0.320867
O O18 0.709336 0.500000 0.773700
#
# Coordination Sequence:
#
# PCOD9169490 Si02
#       7
#     8   8   8   8   8   8   8
#     4   9  15  27  44  63  90 126 163 194 223 256
#     4   9  17  27  37  58  91 122 153 186 219 260
#     4   9  19  31  44  65  92 119 149 185 227 273
#     4  10  21  36  53  71  88 111 147 187 229 280
#     4  10  19  30  46  69  95 121 151 188 231 274
#     4   8  15  25  41  64  91 125 164 196 219 251
#     4  10  17  27  43  63  89 125 161 187 216 258
#
# _framework density 15.798762999999999
#
# number of rings (size 3 to 8) (size 9 to 14) (size 15 to 20)
#    0.000    2.714    1.429    3.000    0.000    4.000 
#    0.000    2.143    0.000    0.000    0.000    1.000 
#    0.000    0.000    0.000    0.000    0.000    0.000 
#
# Total GULP energy -155987.048854 kJ/mol
# GULP energy per Si atom -5570.966030 kJ/mol
# Density = 1.576280 g / cm^3
# Si number density = 15.798763 Si / 1000 Ang^3
#
#
#
# Elastic Constant Matrix: (Units=GPa)
#
#
# Indices 1 2 3 4 5 6 
#
# 1 60.3813 14.0849 59.1780 0.0000 -3.9241 0.0000
# 2 14.0849 6.5083 23.6761 0.0000 -0.2166 0.0000
# 3 59.1780 23.6761 155.8052 0.0000 9.4479 0.0000
# 4 0.0000 0.0000 0.0000 15.8416 0.0000 0.9555
# 5 -3.9241 -0.2166 9.4479 0.0000 16.4458 0.0000
# 6 0.0000 0.0000 0.0000 0.9555 0.0000 11.5740
#
#
#
# Elastic Compliance Matrix: (Units=1/GPa)
#
#
# Indices 1 2 3 4 5 6 
#
# 1 0.036278 -0.057099 -0.005783 0.000000 0.011227 0.000000
# 2 -0.057099 0.455027 -0.048692 0.000000 0.020341 0.000000
# 3 -0.005783 -0.048692 0.016719 0.000000 -0.011626 0.000000
# 4 0.000000 0.000000 0.000000 0.063441 0.000000 -0.005237
# 5 0.011227 0.020341 -0.011626 0.000000 0.070432 0.000000
# 6 0.000000 0.000000 0.000000 -0.005237 0.000000 0.086833
#
#
# Mechanical properties :
#
#
# Convention : Reuss Voigt Hill
#
# Bulk Modulus (GPa) = 3.51030 46.28587 24.89808
# Shear Modulus (GPa) = 4.77630 17.15601 10.96615
#
# Velocity S-wave (km/s) = 1.74062 3.29889 2.63746
# Velocity P-wave (km/s) = 2.50328 6.62352 5.00686
#
# Compressibility (1/GPa) = 0.28487630
#
# Stress axis : x y z
#
# Youngs Moduli (GPa) = 27.56468 2.19767 59.81197
#
# Poissons Ratio (x) = 0.12548 0.34591
# Poissons Ratio (y) = 1.57391 2.91235
# Poissons Ratio (z) = 0.15942 0.10701
#
# Static dielectric constant tensor:
#      x y z
#    x 1.502740 0.000000 0.022240 
#    y 0.000000 1.533020 0.000000 
#    z 0.022240 0.000000 1.566730 
# 
# From -- ./inp_files/291447.got.cif
#   From: 2010.05.17/outbox.cif.g08.bks.cpg/sg12_146_cif.got.tgz:291447.got - 2010.06.03 13:09:07.
