data_PCOD9169828
_publ_section_title
;
Structure prediction by ZEFSAII (Michael W. Deem and Ramdas Pophale) SiO2 
 PCOD9169828
Probable space group: C 2/M
;
_chemical_formula_sum "Si O2"
_cell_formula_units_Z 40
_cell_length_a 29.524720
_cell_length_b 8.675534
_cell_length_c 13.131362
_cell_angle_alpha 90.000000
_cell_angle_beta 44.037425
_cell_angle_gamma 90.000000
_cell_volume 2338.065183
_symmetry_space_group_name_H-M "C 2/M"
_symmetry_group_IT_number 12
_symmetry_cell_setting 'monoclinic'
loop_
_space_group_symop_operation_xyz
x,y,z
-x,y,-z
-x,-y,-z
x,-y,z
1/2+x,1/2+y,z
1/2-x,1/2+y,-z
1/2-x,1/2-y,-z
1/2+x,1/2-y,z
loop_
_atom_site_type_symbol
_atom_site_label
_atom_site_fract_x
_atom_site_fract_y
_atom_site_fract_z
Si Si1 0.422841 0.821335 0.152650
Si Si2 0.179079 0.814478 0.090295
Si Si3 0.570519 0.687395 0.427754
Si Si4 0.100306 0.685666 0.031473
Si Si5 0.956229 0.183806 0.304292
O O1 0.416497 0.730526 0.267866
O O2 0.405925 0.000000 0.197349
O O3 0.500000 0.816197 0.000000
O O4 0.388871 0.765275 0.103859
O O5 0.127956 0.762230 0.260271
O O6 0.151467 0.753471 0.027899
O O7 0.180177 0.000000 0.087166
O O8 0.250000 0.750000 0.000000
O O9 0.500000 0.738182 0.500000
O O10 0.570431 0.500000 0.425035
O O11 0.575884 0.732923 0.537152
O O12 0.101101 0.500000 0.032001
O O13 0.028102 0.741842 0.180233
O O14 0.964910 0.000000 0.292033
#
# Coordination Sequence:
#
# PCOD9169828 Si02
#       5
#     8   8   8   8   8
#     4   8  16  29  44  68 104 136 162 205 260 303
#     4  11  22  37  55  75 104 137 173 211 253 308
#     4   9  17  32  52  75 104 136 166 207 261 303
#     4  10  19  32  49  72 104 138 170 207 256 302
#     4  10  17  28  50  77 102 132 171 210 252 303
#
# _framework density 17.108162
#
# number of rings (size 3 to 8) (size 9 to 14) (size 15 to 20)
#    0.000    2.400    2.000    3.000    0.000    4.400 
#    0.000    5.000    0.000    1.200    0.000    0.000 
#    0.000    0.000    0.000    0.000    0.000    0.000 
#
# Total GULP energy -111475.988783 kJ/mol
# GULP energy per Si atom -5573.799439 kJ/mol
# Density = 1.706922 g / cm^3
# Si number density = 17.108162 Si / 1000 Ang^3
#
#
#
# Elastic Constant Matrix: (Units=GPa)
#
#
# Indices 1 2 3 4 5 6 
#
# 1 148.2703 38.5390 85.7687 0.0000 28.9386 0.0000
# 2 38.5390 43.7326 28.4338 0.0000 10.1318 0.0000
# 3 85.7687 28.4338 103.4582 0.0000 21.9149 0.0000
# 4 0.0000 0.0000 0.0000 -56.7032 0.0000 12.8460
# 5 28.9386 10.1318 21.9149 0.0000 34.1610 0.0000
# 6 0.0000 0.0000 0.0000 12.8460 0.0000 29.3994
#
#
#
# Elastic Compliance Matrix: (Units=1/GPa)
#
#
# Indices 1 2 3 4 5 6 
#
# 1 0.014683 -0.005595 -0.009665 0.000000 -0.004579 0.000000
# 2 -0.005595 0.030423 -0.003259 0.000000 -0.002193 0.000000
# 3 -0.009665 -0.003259 0.019251 0.000000 -0.003196 0.000000
# 4 0.000000 0.000000 0.000000 -0.016047 0.000000 0.007012
# 5 -0.004579 -0.002193 -0.003196 0.000000 0.035853 0.000000
# 6 0.000000 0.000000 0.000000 0.007012 0.000000 0.030951
#
#
# Mechanical properties :
#
#
# Convention : Reuss Voigt Hill
#
# Bulk Modulus (GPa) = 36.60265 66.77155 51.68710
# Shear Modulus (GPa) = 31.00640 10.88607 20.94623
#
# Velocity S-wave (km/s) = 4.26182 2.52525 3.50286
# Velocity P-wave (km/s) = 6.75713 6.90046 6.82917
#
# Compressibility (1/GPa) = 0.02732043
#
# Stress axis : x y z
#
# Youngs Moduli (GPa) = 68.10508 32.86954 51.94585
#
# Poissons Ratio (x) = 0.18389 0.50206
# Poissons Ratio (y) = 0.38102 0.16928
# Poissons Ratio (z) = 0.65824 0.10711
#
# Static dielectric constant tensor:
#      x y z
#    x 1.583660 0.000000 0.037690 
#    y 0.000000 1.582720 0.000000 
#    z 0.037690 0.000000 1.578340 
# 
# From -- ./inp_files/162385.got.cif
#   From: 2010.05.17/outbox.cif.g08.bks.cpg/sg12_82_cif.got.tgz:162385.got - 2010.06.03 13:09:07.
