data_PCOD9169735
_publ_section_title
;
Structure prediction by ZEFSAII (Michael W. Deem and Ramdas Pophale) SiO2 
 PCOD9169735
Probable space group: C 2/M
;
_chemical_formula_sum "Si O2"
_cell_formula_units_Z 60
_cell_length_a 15.083623
_cell_length_b 18.215425
_cell_length_c 11.240412
_cell_angle_alpha 90.000000
_cell_angle_beta 117.797615
_cell_angle_gamma 90.000000
_cell_volume 2731.959981
_symmetry_space_group_name_H-M "C 2/M"
_symmetry_group_IT_number 12
_symmetry_cell_setting 'monoclinic'
loop_
_space_group_symop_operation_xyz
x,y,z
-x,y,-z
-x,-y,-z
x,-y,z
1/2+x,1/2+y,z
1/2-x,1/2+y,-z
1/2-x,1/2-y,-z
1/2+x,1/2-y,z
loop_
_atom_site_type_symbol
_atom_site_label
_atom_site_fract_x
_atom_site_fract_y
_atom_site_fract_z
Si Si1 0.141329 0.082799 0.650427
Si Si2 0.826404 0.279084 0.146563
Si Si3 0.876225 0.671307 0.556560
Si Si4 0.983583 0.809907 0.671000
Si Si5 0.000000 0.639496 0.000000
Si Si6 0.319122 0.414347 0.610276
Si Si7 0.303481 0.809261 0.778900
Si Si8 0.946074 0.583705 0.220879
O O1 0.159564 0.083838 0.519893
O O2 0.243615 0.115403 0.767781
O O3 0.052852 0.133784 0.642056
O O4 0.120525 0.000000 0.673591
O O5 0.773076 0.253892 0.234235
O O6 0.849066 0.364716 0.161353
O O7 0.935389 0.239865 0.207760
O O8 0.750000 0.250000 0.000000
O O9 0.919976 0.751637 0.550964
O O10 0.788243 0.625260 0.439006
O O11 0.831749 0.690618 0.659272
O O12 0.971142 0.618276 0.638647
O O13 0.907831 0.858530 0.703607
O O14 0.902917 0.689263 0.918818
O O15 0.011010 0.592561 0.886699
O O16 0.321574 0.500000 0.651320
O O17 0.926830 0.500000 0.236920
#
# Coordination Sequence:
#
# PCOD9169735 Si02
#       8
#     8   8   8   8   4   8   8   8
#     4   9  18  31  48  73 104 130 156 198 253 302
#     4  10  19  35  48  68  99 131 168 203 241 287
#     4   9  19  32  48  72 101 129 162 198 245 293
#     4  10  19  30  47  70  98 132 167 194 232 298
#     4  10  17  28  46  72  99 118 154 198 251 292
#     4  10  18  31  51  75 103 130 155 198 255 302
#     4   9  18  31  49  69  95 131 165 199 242 291
#     4  10  19  30  48  72  97 125 158 199 246 293
#
# _framework density 21.962254000000001
#
# number of rings (size 3 to 8) (size 9 to 14) (size 15 to 20)
#    0.000    2.400    1.333    1.800    0.000    4.800 
#    0.000    0.667    0.000    1.600    0.000    0.467 
#    0.000   20.267    0.000    0.000    0.000    0.000 
#
# Total GULP energy -167527.388324 kJ/mol
# GULP energy per Si atom -5584.246277 kJ/mol
# Density = 2.191227 g / cm^3
# Si number density = 21.962254 Si / 1000 Ang^3
#
#
#
# Elastic Constant Matrix: (Units=GPa)
#
#
# Indices 1 2 3 4 5 6 
#
# 1 48.7388 55.1560 29.2733 0.0000 28.9959 0.0000
# 2 55.1560 198.5030 30.5364 0.0000 24.2125 0.0000
# 3 29.2733 30.5364 71.6422 0.0000 31.2379 0.0000
# 4 0.0000 0.0000 0.0000 15.4337 0.0000 4.2191
# 5 28.9959 24.2125 31.2379 0.0000 35.6046 0.0000
# 6 0.0000 0.0000 0.0000 4.2191 0.0000 34.2621
#
#
#
# Elastic Compliance Matrix: (Units=1/GPa)
#
#
# Indices 1 2 3 4 5 6 
#
# 1 0.055149 -0.010606 -0.002551 0.000000 -0.035462 0.000000
# 2 -0.010606 0.007593 -0.000676 0.000000 0.004067 0.000000
# 3 -0.002551 -0.000676 0.022969 0.000000 -0.017615 0.000000
# 4 0.000000 0.000000 0.000000 0.067050 0.000000 -0.008257
# 5 -0.035462 0.004067 -0.017615 0.000000 0.069655 0.000000
# 6 0.000000 0.000000 0.000000 -0.008257 0.000000 0.030203
#
#
# Mechanical properties :
#
#
# Convention : Reuss Voigt Hill
#
# Bulk Modulus (GPa) = 17.22794 60.97948 39.10371
# Shear Modulus (GPa) = 16.68699 30.65464 23.67081
#
# Velocity S-wave (km/s) = 2.75944 3.74008 3.28654
# Velocity P-wave (km/s) = 4.24430 6.81739 5.67850
#
# Compressibility (1/GPa) = 0.05804524
#
# Stress axis : x y z
#
# Youngs Moduli (GPa) = 18.13256 131.70821 43.53615
#
# Poissons Ratio (x) = 1.39687 0.11107
# Poissons Ratio (y) = 0.19231 0.02943
# Poissons Ratio (z) = 0.04626 0.08903
#
# Static dielectric constant tensor:
#      x y z
#    x 1.858640 0.000000 -0.009890 
#    y 0.000000 1.815500 0.000000 
#    z -0.009890 0.000000 1.850040 
# 
# From -- ./inp_files/277623.got.cif
#   From: 2010.05.17/outbox.cif.g08.bks.cpg/sg12_139_cif.got.tgz:277623.got - 2010.06.03 13:09:07.
