data_PCOD9169456
_publ_section_title
;
Structure prediction by ZEFSAII (Michael W. Deem and Ramdas Pophale) SiO2 
 PCOD9169456
Probable space group: C 2/M
;
_chemical_formula_sum "Si O2"
_cell_formula_units_Z 64
_cell_length_a 28.120656
_cell_length_b 8.859079
_cell_length_c 24.773736
_cell_angle_alpha 90.000000
_cell_angle_beta 135.664759
_cell_angle_gamma 90.000000
_cell_volume 4313.132749
_symmetry_space_group_name_H-M "C 2/M"
_symmetry_group_IT_number 12
_symmetry_cell_setting 'monoclinic'
loop_
_space_group_symop_operation_xyz
x,y,z
-x,y,-z
-x,-y,-z
x,-y,z
1/2+x,1/2+y,z
1/2-x,1/2+y,-z
1/2-x,1/2-y,-z
1/2+x,1/2-y,z
loop_
_atom_site_type_symbol
_atom_site_label
_atom_site_fract_x
_atom_site_fract_y
_atom_site_fract_z
Si Si1 0.302565 0.318819 0.499911
Si Si2 0.910031 0.819205 0.669349
Si Si3 0.814881 0.680923 0.023291
Si Si4 0.347930 0.680972 0.817209
Si Si5 0.964305 0.678661 0.178666
Si Si6 0.696280 0.818838 0.330011
Si Si7 0.498688 0.322973 0.902634
Si Si8 0.850187 0.179349 0.938152
O O1 0.299342 0.500000 0.500116
O O2 0.250000 0.250000 0.500000
O O3 0.375729 0.276002 0.583972
O O4 0.269784 0.276939 0.415822
O O5 0.861628 0.751004 0.677418
O O6 0.986049 0.759457 0.739049
O O7 0.909014 0.000000 0.674126
O O8 0.811856 0.500000 0.021525
O O9 0.885453 0.727328 0.110432
O O10 0.750000 0.750000 0.000000
O O11 0.820466 0.737442 0.966085
O O12 0.338405 0.500000 0.806113
O O13 0.312915 0.757965 0.737660
O O14 0.428863 0.708951 0.876339
O O15 0.326253 0.730453 0.859577
O O16 0.966753 0.500000 0.189024
O O17 0.994774 0.720819 0.144825
O O18 0.688842 0.000000 0.324801
O O19 0.496772 0.500000 0.884199
O O20 0.567769 0.302399 0.992216
O O21 0.163272 0.000000 0.067482
#
# Coordination Sequence:
#
# PCOD9169456 Si02
#       8
#     8   8   8   8   8   8   8   8
#     4   8  16  27  38  54  78 112 151 185 216 250
#     4  10  17  27  42  59  82 114 152 186 215 256
#     4  10  21  36  52  68  88 112 141 179 223 268
#     4  10  18  27  41  62  88 118 152 182 210 253
#     4  10  19  29  43  66  90 112 142 181 222 259
#     4  10  18  27  39  57  85 119 151 185 221 250
#     4   9  16  27  42  59  84 117 149 179 210 248
#     4   9  18  31  46  64  86 114 147 181 217 256
#
# _framework density 14.838403
#
# number of rings (size 3 to 8) (size 9 to 14) (size 15 to 20)
#    0.000    2.500    1.250    1.875    0.000    4.500 
#    0.000    0.000    0.000    3.750    0.000    0.000 
#    0.000    1.000    0.000   11.250    0.000    5.000 
#
# Total GULP energy -178191.272626 kJ/mol
# GULP energy per Si atom -5568.477270 kJ/mol
# Density = 1.480463 g / cm^3
# Si number density = 14.838403 Si / 1000 Ang^3
#
#
#
# Elastic Constant Matrix: (Units=GPa)
#
#
# Indices 1 2 3 4 5 6 
#
# 1 64.3440 28.4956 61.4056 0.0000 1.5467 0.0000
# 2 28.4956 32.6664 42.1568 0.0000 0.6215 0.0001
# 3 61.4056 42.1568 130.7967 0.0000 -5.7066 0.0000
# 4 0.0000 0.0000 0.0000 21.8766 0.0000 1.2332
# 5 1.5467 0.6215 -5.7066 0.0000 13.4263 0.0000
# 6 0.0000 0.0001 0.0000 1.2332 0.0000 14.5105
#
#
#
# Elastic Compliance Matrix: (Units=1/GPa)
#
#
# Indices 1 2 3 4 5 6 
#
# 1 0.032472 -0.013803 -0.011138 0.000000 -0.007836 0.000000
# 2 -0.013803 0.059575 -0.013013 0.000000 -0.006699 0.000000
# 3 -0.011138 -0.013013 0.017475 0.000000 0.009313 0.000000
# 4 0.000000 0.000000 0.000000 0.045931 0.000000 -0.003903
# 5 -0.007836 -0.006699 0.009313 0.000000 0.079652 0.000000
# 6 0.000000 0.000000 0.000000 -0.003903 0.000000 0.069247
#
#
# Mechanical properties :
#
#
# Convention : Reuss Voigt Hill
#
# Bulk Modulus (GPa) = 29.75047 54.65813 42.20430
# Shear Modulus (GPa) = 12.77253 16.34595 14.55924
#
# Velocity S-wave (km/s) = 2.93708 3.32263 3.13579
# Velocity P-wave (km/s) = 5.62095 7.18578 6.45099
#
# Compressibility (1/GPa) = 0.03361291
#
# Stress axis : x y z
#
# Youngs Moduli (GPa) = 30.79594 16.78556 57.22489
#
# Poissons Ratio (x) = 0.23170 0.63735
# Poissons Ratio (y) = 0.42509 0.74469
# Poissons Ratio (z) = 0.34299 0.21844
#
# Static dielectric constant tensor:
#      x y z
#    x 1.450050 0.000000 0.006600 
#    y 0.000000 1.499840 0.000000 
#    z 0.006600 0.000000 1.546340 
# 
# From -- ./inp_files/350970.got.cif
#   From: 2010.05.17/outbox.cif.g08.bks.cpg/sg12_176_cif.got.tgz:350970.got - 2010.06.03 13:09:07.
