data_PCOD9169993
_publ_section_title
;
Structure prediction by ZEFSAII (Michael W. Deem and Ramdas Pophale) SiO2 
 PCOD9169993
Probable space group: C 2/M
;
_chemical_formula_sum "Si O2"
_cell_formula_units_Z 56
_cell_length_a 10.246902
_cell_length_b 29.319056
_cell_length_c 12.612126
_cell_angle_alpha 90.000000
_cell_angle_beta 78.485337
_cell_angle_gamma 90.000000
_cell_volume 3712.794790
_symmetry_space_group_name_H-M "C 2/M"
_symmetry_group_IT_number 12
_symmetry_cell_setting 'monoclinic'
loop_
_space_group_symop_operation_xyz
x,y,z
-x,y,-z
-x,-y,-z
x,-y,z
1/2+x,1/2+y,z
1/2-x,1/2+y,-z
1/2-x,1/2-y,-z
1/2+x,1/2-y,z
loop_
_atom_site_type_symbol
_atom_site_label
_atom_site_fract_x
_atom_site_fract_y
_atom_site_fract_z
Si Si1 0.128995 0.050486 0.626130
Si Si2 0.857485 0.693784 0.067941
Si Si3 0.107113 0.146764 0.712296
Si Si4 0.688126 0.550506 0.373988
Si Si5 0.154856 0.793094 0.496593
Si Si6 0.861249 0.801398 0.078312
Si Si7 0.792495 0.853601 0.718502
O O1 0.155197 0.094611 0.692608
O O2 0.196542 0.055637 0.499772
O O3 0.970169 0.050931 0.627243
O O4 0.161820 0.000000 0.663321
O O5 0.866469 0.747125 0.099401
O O6 0.803181 0.666144 0.176523
O O7 0.754208 0.690579 0.987861
O O8 0.000000 0.679301 0.000000
O O9 0.151860 0.174693 0.600829
O O10 0.155190 0.171215 0.810629
O O11 0.945312 0.146833 0.736127
O O12 0.738944 0.500000 0.336484
O O13 0.744833 0.594851 0.307848
O O14 0.250000 0.750000 0.500000
O O15 0.203681 0.822355 0.387518
O O16 0.000000 0.779716 0.500000
O O17 0.000000 0.814231 0.000000
#
# Coordination Sequence:
#
# PCOD9169993 Si02
#       7
#     8   8   8   8   8   8   8
#     4   8  13  23  42  71 100 123 152 192 239 293
#     4  10  21  34  50  68  93 128 173 207 229 275
#     4  10  17  29  50  71  98 129 157 195 247 292
#     4   8  13  23  43  70  98 124 155 193 237 288
#     4  10  20  32  46  71 103 132 155 193 246 292
#     4  10  19  34  50  68  93 130 168 201 239 281
#     4  10  17  30  49  70  98 127 162 200 239 288
#
# _framework density 15.082976
#
# number of rings (size 3 to 8) (size 9 to 14) (size 15 to 20)
#    0.000    2.571    2.857    1.714    0.000    0.000 
#    2.571    0.000    0.000    1.714    0.000    0.000 
#    0.000    3.429    0.000    0.000    0.000    0.000 
#
# Total GULP energy -155954.398106 kJ/mol
# GULP energy per Si atom -5569.799932 kJ/mol
# Density = 1.504865 g / cm^3
# Si number density = 15.082976 Si / 1000 Ang^3
#
#
#
# Elastic Constant Matrix: (Units=GPa)
#
#
# Indices 1 2 3 4 5 6 
#
# 1 37.9207 34.2929 26.8844 0.0000 -13.9424 0.0000
# 2 34.2929 127.7678 74.5549 0.0000 -8.2161 0.0000
# 3 26.8844 74.5549 107.5868 0.0000 -13.3629 0.0000
# 4 0.0000 0.0000 0.0000 23.7770 0.0000 -2.0526
# 5 -13.9424 -8.2161 -13.3629 0.0000 20.3529 0.0000
# 6 0.0000 0.0000 0.0000 -2.0526 0.0000 13.8664
#
#
#
# Elastic Compliance Matrix: (Units=1/GPa)
#
#
# Indices 1 2 3 4 5 6 
#
# 1 0.046054 -0.009844 -0.001374 0.000000 0.026673 0.000000
# 2 -0.009844 0.015254 -0.008910 0.000000 -0.006436 0.000000
# 3 -0.001374 -0.008910 0.016603 0.000000 0.006363 0.000000
# 4 0.000000 0.000000 0.000000 0.042602 0.000000 0.006306
# 5 0.026673 -0.006436 0.006363 0.000000 0.068984 0.000000
# 6 0.000000 0.000000 0.000000 0.006306 0.000000 0.073050
#
#
# Mechanical properties :
#
#
# Convention : Reuss Voigt Hill
#
# Bulk Modulus (GPa) = 26.55683 60.52664 43.54173
# Shear Modulus (GPa) = 15.85512 20.76880 18.31196
#
# Velocity S-wave (km/s) = 3.24573 3.71478 3.48815
# Velocity P-wave (km/s) = 5.62954 7.65609 6.71965
#
# Compressibility (1/GPa) = 0.03765510
#
# Stress axis : x y z
#
# Youngs Moduli (GPa) = 21.71372 65.55505 60.23009
#
# Poissons Ratio (x) = 0.64533 0.08273
# Poissons Ratio (y) = 0.21375 0.53667
# Poissons Ratio (z) = 0.02982 0.58412
#
# Static dielectric constant tensor:
#      x y z
#    x 1.489220 0.000000 -0.000120 
#    y 0.000000 1.513160 0.000000 
#    z -0.000120 0.000000 1.478810 
# 
# From -- ./inp_files/136310.got.cif
#   From: 2010.05.17/outbox.cif.g08.bks.cpg/sg12_69_cif.got.tgz:136310.got - 2010.06.03 13:09:07.
