data_PCOD9169578
_publ_section_title
;
Structure prediction by ZEFSAII (Michael W. Deem and Ramdas Pophale) SiO2 
 PCOD9169578
Probable space group: C 2/M
;
_chemical_formula_sum "Si O2"
_cell_formula_units_Z 48
_cell_length_a 28.119070
_cell_length_b 8.094876
_cell_length_c 21.381781
_cell_angle_alpha 90.000000
_cell_angle_beta 146.382429
_cell_angle_gamma 90.000000
_cell_volume 2694.560551
_symmetry_space_group_name_H-M "C 2/M"
_symmetry_group_IT_number 12
_symmetry_cell_setting 'monoclinic'
loop_
_space_group_symop_operation_xyz
x,y,z
-x,y,-z
-x,-y,-z
x,-y,z
1/2+x,1/2+y,z
1/2-x,1/2+y,-z
1/2-x,1/2-y,-z
1/2+x,1/2-y,z
loop_
_atom_site_type_symbol
_atom_site_label
_atom_site_fract_x
_atom_site_fract_y
_atom_site_fract_z
Si Si1 0.774939 0.198186 0.119461
Si Si2 0.441378 0.297602 0.495472
Si Si3 0.069285 0.804739 0.026626
Si Si4 0.455493 0.698384 0.270189
Si Si5 0.084277 0.696164 0.901699
Si Si6 0.260265 0.696680 0.250582
O O1 0.859786 0.266153 0.179989
O O2 0.783905 0.220952 0.203578
O O3 0.772683 0.000000 0.105980
O O4 0.681531 0.267132 0.999592
O O5 0.500000 0.247717 0.500000
O O6 0.440653 0.500000 0.493414
O O7 0.482537 0.243753 0.606249
O O8 0.342844 0.242781 0.379194
O O9 0.059557 0.734483 0.945955
O O10 0.056624 0.000000 0.007362
O O11 0.166374 0.772613 0.156474
O O12 0.000000 0.737309 0.000000
O O13 0.452674 0.500000 0.272729
O O14 0.474249 0.739925 0.218836
O O15 0.088691 0.500000 0.900934
O O16 0.251248 0.500000 0.250531
#
# Coordination Sequence:
#
# PCOD9169578 Si02
#       6
#     8   8   8   8   8   8
#     4   8  14  25  43  67  96 131 165 197 231 276
#     4   9  15  26  48  74 103 139 174 200 227 278
#     4  10  21  37  56  75  94 120 158 208 262 308
#     4  10  17  27  46  70 101 140 171 195 230 280
#     4  10  20  32  47  71 100 128 163 205 249 293
#     4   9  16  29  50  77 103 129 166 205 240 284
#
# _framework density 17.813665
#
# number of rings (size 3 to 8) (size 9 to 14) (size 15 to 20)
#    0.000    2.667    1.667    2.500    0.000    1.333 
#    0.000    4.167    0.000    2.000    0.000    0.000 
#    0.000    0.000    0.000    0.000    0.000    0.000 
#
# Total GULP energy -133724.213306 kJ/mol
# GULP energy per Si atom -5571.842221 kJ/mol
# Density = 1.777312 g / cm^3
# Si number density = 17.813665 Si / 1000 Ang^3
#
#
#
# Elastic Constant Matrix: (Units=GPa)
#
#
# Indices 1 2 3 4 5 6 
#
# 1 75.0977 3.2779 65.5084 0.0000 -1.9782 0.0000
# 2 3.2779 12.2565 11.4317 0.0000 -3.9900 0.0000
# 3 65.5084 11.4317 111.3449 0.0000 -27.0510 0.0000
# 4 0.0000 0.0000 0.0000 68.6634 0.0000 46.1434
# 5 -1.9782 -3.9900 -27.0510 0.0000 24.6666 0.0000
# 6 0.0000 0.0000 0.0000 46.1434 0.0000 61.1332
#
#
#
# Elastic Compliance Matrix: (Units=1/GPa)
#
#
# Indices 1 2 3 4 5 6 
#
# 1 0.039608 0.009050 -0.031496 0.000000 -0.029900 0.000000
# 2 0.009050 0.092964 -0.015049 0.000000 -0.000740 0.000000
# 3 -0.031496 -0.015049 0.037967 0.000000 0.036677 0.000000
# 4 0.000000 0.000000 0.000000 0.029556 0.000000 -0.022309
# 5 -0.029900 -0.000740 0.036677 0.000000 0.078245 0.000000
# 6 0.000000 0.000000 0.000000 -0.022309 0.000000 0.033196
#
#
# Mechanical properties :
#
#
# Convention : Reuss Voigt Hill
#
# Bulk Modulus (GPa) = 10.46581 39.90391 25.18486
# Shear Modulus (GPa) = 11.95095 38.79137 25.37116
#
# Velocity S-wave (km/s) = 2.59296 4.67156 3.77802
# Velocity P-wave (km/s) = 3.85389 7.17965 5.76194
#
# Compressibility (1/GPa) = 0.09554920
#
# Stress axis : x y z
#
# Youngs Moduli (GPa) = 25.24762 10.75681 26.33856
#
# Poissons Ratio (x) = -0.09735 0.82956
# Poissons Ratio (y) = -0.22849 0.39636
# Poissons Ratio (z) = 0.79520 0.16188
#
# Static dielectric constant tensor:
#      x y z
#    x 1.612850 0.000000 -0.009610 
#    y 0.000000 1.627660 0.000000 
#    z -0.009610 0.000000 1.642550 
# 
# From -- ./inp_files/287950.got.cif
#   From: 2010.05.17/outbox.cif.g08.bks.cpg/sg12_144_cif.got.tgz:287950.got - 2010.06.03 13:09:07.
