data_PCOD9169965
_publ_section_title
;
Structure prediction by ZEFSAII (Michael W. Deem and Ramdas Pophale) SiO2 
 PCOD9169965
Probable space group: C 2/M
;
_chemical_formula_sum "Si O2"
_cell_formula_units_Z 56
_cell_length_a 21.085670
_cell_length_b 7.354775
_cell_length_c 31.332975
_cell_angle_alpha 90.000000
_cell_angle_beta 146.212265
_cell_angle_gamma 90.000000
_cell_volume 2702.247732
_symmetry_space_group_name_H-M "C 2/M"
_symmetry_group_IT_number 12
_symmetry_cell_setting 'monoclinic'
loop_
_space_group_symop_operation_xyz
x,y,z
-x,y,-z
-x,-y,-z
x,-y,z
1/2+x,1/2+y,z
1/2-x,1/2+y,-z
1/2-x,1/2-y,-z
1/2+x,1/2-y,z
loop_
_atom_site_type_symbol
_atom_site_label
_atom_site_fract_x
_atom_site_fract_y
_atom_site_fract_z
Si Si1 0.542996 0.221081 0.090804
Si Si2 0.701416 0.222485 0.254760
Si Si3 0.565177 0.721868 0.660561
Si Si4 0.676361 0.221203 0.079396
Si Si5 0.670856 0.213079 0.333472
Si Si6 0.926620 0.219338 0.236087
Si Si7 0.680953 0.717389 0.504971
O O1 0.599287 0.281026 0.166312
O O2 0.624170 0.272525 0.096359
O O3 0.541953 0.000000 0.090609
O O4 0.415381 0.280541 0.007238
O O5 0.821094 0.277306 0.300505
O O6 0.689154 0.287153 0.296313
O O7 0.699500 0.000000 0.253819
O O8 0.564864 0.500000 0.660719
O O9 0.566873 0.779473 0.710938
O O10 0.448045 0.783737 0.573182
O O11 0.806628 0.281831 0.149158
O O12 0.677085 0.000000 0.079126
O O13 0.539817 0.226746 0.274529
O O14 0.749640 0.289609 0.415516
O O15 0.699455 0.000000 0.346585
O O16 0.924618 0.000000 0.235596
O O17 0.673974 0.500000 0.505725
O O18 0.750000 0.750000 0.500000
#
# Coordination Sequence:
#
# PCOD9169965 Si02
#       7
#     8   8   8   8   8   8   8
#     4   8  12  21  39  66  96 116 141 190 236 263
#     4   9  16  28  44  66  96 123 148 186 235 275
#     4   9  16  27  47  69  88 116 153 191 227 263
#     4   8  13  21  40  70  93 112 148 194 229 257
#     4  10  21  32  45  68  97 125 150 183 231 280
#     4  10  17  29  49  71  92 119 155 191 225 266
#     4  10  19  31  47  69  93 118 152 190 227 268
#
# _framework density 20.723489000000001
#
# number of rings (size 3 to 8) (size 9 to 14) (size 15 to 20)
#    0.000    2.857    2.857    0.857    0.000    0.571 
#    0.000    3.571    0.000    1.714    0.000    4.000 
#    0.000    0.000    0.000    0.000    0.000    0.000 
#
# Total GULP energy -156287.666171 kJ/mol
# GULP energy per Si atom -5581.702363 kJ/mol
# Density = 2.067632 g / cm^3
# Si number density = 20.723489 Si / 1000 Ang^3
#
#
#
# Elastic Constant Matrix: (Units=GPa)
#
#
# Indices 1 2 3 4 5 6 
#
# 1 139.3237 -1.5236 91.6141 0.0006 -16.5411 0.0001
# 2 -1.5236 76.3217 4.7325 0.0014 -4.9262 -0.0010
# 3 91.6141 4.7325 208.7658 -0.0002 -10.4749 0.0007
# 4 0.0006 0.0014 -0.0002 -3.0372 -0.0001 9.8678
# 5 -16.5411 -4.9262 -10.4749 -0.0001 29.6692 0.0007
# 6 0.0001 -0.0010 0.0007 9.8678 0.0007 7.9090
#
#
#
# Elastic Compliance Matrix: (Units=1/GPa)
#
#
# Indices 1 2 3 4 5 6 
#
# 1 0.010659 0.000780 -0.004470 0.000000 0.004494 -0.000001
# 2 0.000780 0.013309 -0.000521 0.000002 0.002461 -0.000001
# 3 -0.004470 -0.000521 0.006754 -0.000001 -0.000194 0.000000
# 4 0.000000 0.000002 -0.000001 -0.065151 -0.000002 0.081287
# 5 0.004494 0.002461 -0.000194 -0.000002 0.036551 -0.000001
# 6 -0.000001 -0.000001 0.000000 0.081287 -0.000001 0.025019
#
#
# Mechanical properties :
#
#
# Convention : Reuss Voigt Hill
#
# Bulk Modulus (GPa) = 44.84092 68.22858 56.53475
# Shear Modulus (GPa) = 116.29698 28.88076 72.58887
#
# Velocity S-wave (km/s) = 7.49935 3.73718 5.92481
# Velocity P-wave (km/s) = 9.83218 7.18448 8.61071
#
# Compressibility (1/GPa) = 0.02230106
#
# Stress axis : x y z
#
# Youngs Moduli (GPa) = 93.82068 75.13641 148.07026
#
# Poissons Ratio (x) = -0.05861 0.66181
# Poissons Ratio (y) = -0.07318 0.07707
# Poissons Ratio (z) = 0.41934 0.03911
#
# Static dielectric constant tensor:
#      x y z
#    x 1.677180 0.000000 -0.007870 
#    y 0.000000 1.857640 0.000000 
#    z -0.007870 0.000000 1.748360 
# 
# From -- ./inp_files/276056.got.cif
#   From: 2010.05.17/outbox.cif.g08.bks.cpg/sg12_139_cif.got.tgz:276056.got - 2010.06.03 13:09:07.
