data_PCOD9169516
_publ_section_title
;
Structure prediction by ZEFSAII (Michael W. Deem and Ramdas Pophale) SiO2 
 PCOD9169516
Probable space group: C 2/M
;
_chemical_formula_sum "Si O2"
_cell_formula_units_Z 48
_cell_length_a 24.981278
_cell_length_b 9.029272
_cell_length_c 14.611888
_cell_angle_alpha 90.000000
_cell_angle_beta 109.940875
_cell_angle_gamma 90.000000
_cell_volume 3098.292349
_symmetry_space_group_name_H-M "C 2/M"
_symmetry_group_IT_number 12
_symmetry_cell_setting 'monoclinic'
loop_
_space_group_symop_operation_xyz
x,y,z
-x,y,-z
-x,-y,-z
x,-y,z
1/2+x,1/2+y,z
1/2-x,1/2+y,-z
1/2-x,1/2-y,-z
1/2+x,1/2-y,z
loop_
_atom_site_type_symbol
_atom_site_label
_atom_site_fract_x
_atom_site_fract_y
_atom_site_fract_z
Si Si1 0.038672 0.821919 0.434871
Si Si2 0.018218 0.678330 0.230194
Si Si3 0.330195 0.677373 0.485062
Si Si4 0.277352 0.677301 0.651826
Si Si5 0.558739 0.829347 0.975266
Si Si6 0.618471 0.677189 0.168332
O O1 0.017181 0.740591 0.331501
O O2 0.104449 0.778390 0.490326
O O3 0.000000 0.789542 0.500000
O O4 0.037809 0.000000 0.418494
O O5 0.023206 0.500000 0.231233
O O6 0.072527 0.748539 0.209770
O O7 0.962375 0.718044 0.137327
O O8 0.326788 0.500000 0.475532
O O9 0.310530 0.717549 0.576918
O O10 0.284197 0.748702 0.390673
O O11 0.270646 0.500000 0.648182
O O12 0.318836 0.718810 0.759205
O O13 0.577998 0.000000 0.984163
O O14 0.500000 0.826197 0.000000
O O15 0.602836 0.731540 0.057688
O O16 0.612640 0.500000 0.171782
#
# Coordination Sequence:
#
# PCOD9169516 Si02
#       6
#     8   8   8   8   8   8
#     4  10  20  34  50  67  90 120 155 193 227 264
#     4  10  19  30  44  63  92 123 152 187 224 268
#     4   9  17  30  44  63  89 118 151 183 222 269
#     4   9  17  28  43  65  92 119 148 182 221 269
#     4   8  16  28  40  61  91 120 149 181 222 272
#     4  10  17  27  44  67  93 120 151 184 224 272
#
# _framework density 15.492407
#
# number of rings (size 3 to 8) (size 9 to 14) (size 15 to 20)
#    0.000    2.667    1.667    2.000    0.000    6.000 
#    0.000    0.000    0.000    0.000    0.000    1.167 
#    0.000    0.000    0.000    0.000    0.000    0.000 
#
# Total GULP energy -133684.137907 kJ/mol
# GULP energy per Si atom -5570.172413 kJ/mol
# Density = 1.545715 g / cm^3
# Si number density = 15.492407 Si / 1000 Ang^3
#
#
#
# Elastic Constant Matrix: (Units=GPa)
#
#
# Indices 1 2 3 4 5 6 
#
# 1 68.7726 28.5397 62.1510 0.0000 13.2820 0.0000
# 2 28.5397 37.3030 55.6286 0.0000 10.9093 0.0000
# 3 62.1510 55.6286 150.4371 0.0000 31.0202 0.0000
# 4 0.0000 0.0000 0.0000 29.6507 0.0000 6.1112
# 5 13.2820 10.9093 31.0202 0.0000 23.1980 0.0000
# 6 0.0000 0.0000 0.0000 6.1112 0.0000 15.6081
#
#
#
# Elastic Compliance Matrix: (Units=1/GPa)
#
#
# Indices 1 2 3 4 5 6 
#
# 1 0.024257 -0.008088 -0.006836 0.000000 -0.000944 0.000000
# 2 -0.008088 0.062527 -0.020257 0.000000 0.002313 0.000000
# 3 -0.006836 -0.020257 0.019593 0.000000 -0.012760 0.000000
# 4 0.000000 0.000000 0.000000 0.036687 0.000000 -0.014364
# 5 -0.000944 0.002313 -0.012760 0.000000 0.059622 0.000000
# 6 0.000000 0.000000 0.000000 -0.014364 0.000000 0.069694
#
#
# Mechanical properties :
#
#
# Convention : Reuss Voigt Hill
#
# Bulk Modulus (GPa) = 27.76596 61.01682 44.39139
# Shear Modulus (GPa) = 14.09453 21.03759 17.56606
#
# Velocity S-wave (km/s) = 3.01951 3.68901 3.37092
# Velocity P-wave (km/s) = 5.48797 7.59049 6.62319
#
# Compressibility (1/GPa) = 0.03601533
#
# Stress axis : x y z
#
# Youngs Moduli (GPa) = 41.22451 15.99297 51.03839
#
# Poissons Ratio (x) = 0.12936 0.34890
# Poissons Ratio (y) = 0.33344 1.03387
# Poissons Ratio (z) = 0.28181 0.32397
#
# Static dielectric constant tensor:
#      x y z
#    x 1.488830 0.000000 0.018840 
#    y 0.000000 1.518640 0.000000 
#    z 0.018840 0.000000 1.538370 
# 
# From -- ./inp_files/179330.got.cif
#   From: 2010.05.17/outbox.cif.g08.bks.cpg/sg12_90_cif.got.tgz:179330.got - 2010.06.03 13:09:07.
