data_PCOD9169022
_publ_section_title
;
Structure prediction by ZEFSAII (Michael W. Deem and Ramdas Pophale) SiO2 
 PCOD9169022
Probable space group: C 2/M
;
_chemical_formula_sum "Si O2"
_cell_formula_units_Z 52
_cell_length_a 19.310544
_cell_length_b 19.412620
_cell_length_c 12.163685
_cell_angle_alpha 90.000000
_cell_angle_beta 146.652161
_cell_angle_gamma 90.000000
_cell_volume 2506.604099
_symmetry_space_group_name_H-M "C 2/M"
_symmetry_group_IT_number 12
_symmetry_cell_setting 'monoclinic'
loop_
_space_group_symop_operation_xyz
x,y,z
-x,y,-z
-x,-y,-z
x,-y,z
1/2+x,1/2+y,z
1/2-x,1/2+y,-z
1/2-x,1/2-y,-z
1/2+x,1/2-y,z
loop_
_atom_site_type_symbol
_atom_site_label
_atom_site_fract_x
_atom_site_fract_y
_atom_site_fract_z
Si Si1 0.365243 0.000000 0.637467
Si Si2 0.575919 0.711545 0.708511
Si Si3 0.851089 0.000000 0.815544
Si Si4 0.487824 0.708160 0.835557
Si Si5 0.569935 0.000000 0.707687
Si Si6 0.078004 0.352039 0.287263
Si Si7 0.165485 0.644182 0.896611
Si Si8 0.803229 0.852238 0.751964
O O1 0.464158 0.000000 0.665238
O O2 0.386208 0.925149 0.719626
O O3 0.226271 0.000000 0.401516
O O4 0.500000 0.694522 0.500000
O O5 0.497757 0.704186 0.718044
O O6 0.621913 0.791281 0.763947
O O7 0.696599 0.663200 0.881153
O O8 0.809418 0.072028 0.812941
O O9 0.000000 0.000000 0.000000
O O10 0.419038 0.780402 0.773659
O O11 0.400843 0.651233 0.778001
O O12 0.628664 0.699167 0.072193
O O13 0.500000 0.000000 0.500000
O O14 0.649435 0.930420 0.823615
O O15 0.167958 0.343144 0.515056
O O16 0.934201 0.355517 0.135994
#
# Coordination Sequence:
#
# PCOD9169022 Si02
#       8
#     4   8   4   8   4   8   8   8
#     4   8  18  30  48  70 100 137 173 210 262 310
#     4  10  21  37  55  78 109 145 182 218 265 331
#     4  10  16  32  54  74 105 136 163 219 268 307
#     4  10  20  32  53  79 107 140 171 220 269 317
#     4  10  18  32  51  81 107 135 180 236 274 305
#     4   9  18  33  53  76 106 137 171 222 268 318
#     4   9  20  35  54  78 104 142 184 226 275 315
#     4  10  20  35  53  83 109 133 176 219 276 321
#
# _framework density 20.745199
#
# number of rings (size 3 to 8) (size 9 to 14) (size 15 to 20)
#    0.000    2.462    1.538    0.923    0.000   11.077 
#    0.000    0.385    0.000    1.846    0.000   19.385 
#    0.000    0.000    0.000    0.000    0.000    0.000 
#
# Total GULP energy -144962.288505 kJ/mol
# GULP energy per Si atom -5575.472635 kJ/mol
# Density = 2.069798 g / cm^3
# Si number density = 20.745199 Si / 1000 Ang^3
#
#
#
# Elastic Constant Matrix: (Units=GPa)
#
#
# Indices 1 2 3 4 5 6 
#
# 1 69.6663 8.0742 30.1271 0.0000 -2.6581 0.0000
# 2 8.0742 153.1613 54.1866 0.0000 -3.9717 0.0000
# 3 30.1271 54.1866 96.4524 0.0000 -2.4720 0.0000
# 4 0.0000 0.0000 0.0000 30.2924 0.0000 9.7022
# 5 -2.6581 -3.9717 -2.4720 0.0000 28.8924 0.0000
# 6 0.0000 0.0000 0.0000 9.7022 0.0000 8.0898
#
#
#
# Elastic Compliance Matrix: (Units=1/GPa)
#
#
# Indices 1 2 3 4 5 6 
#
# 1 0.016816 0.001238 -0.005917 0.000000 0.001211 0.000000
# 2 0.001238 0.008255 -0.005004 0.000000 0.000821 0.000000
# 3 -0.005917 -0.005004 0.015028 0.000000 0.000054 0.000000
# 4 0.000000 0.000000 0.000000 0.053601 0.000000 -0.064285
# 5 0.001211 0.000821 0.000054 0.000000 0.034840 0.000000
# 6 0.000000 0.000000 0.000000 -0.064285 0.000000 0.200710
#
#
# Mechanical properties :
#
#
# Convention : Reuss Voigt Hill
#
# Bulk Modulus (GPa) = 48.22827 56.00618 52.11722
# Shear Modulus (GPa) = 14.06363 28.58106 21.32235
#
# Velocity S-wave (km/s) = 2.60652 3.71579 3.20944
# Velocity P-wave (km/s) = 5.68832 6.74279 6.23788
#
# Compressibility (1/GPa) = 0.02073473
#
# Stress axis : x y z
#
# Youngs Moduli (GPa) = 59.46846 121.13503 66.54095
#
# Poissons Ratio (x) = -0.15000 0.39373
# Poissons Ratio (y) = -0.07364 0.33294
# Poissons Ratio (z) = 0.35188 0.60610
#
# Static dielectric constant tensor:
#      x y z
#    x 1.793460 0.000000 0.027290 
#    y 0.000000 1.839140 0.000000 
#    z 0.027290 0.000000 1.732670 
# 
# From -- ./inp_files/241191.got.cif
#   From: 2010.05.17/outbox.cif.g08.bks.cpg/sg12_121_cif.got.tgz:241191.got - 2010.06.03 13:09:07.
