data_PCOD9169019
_publ_section_title
;
Structure prediction by ZEFSAII (Michael W. Deem and Ramdas Pophale) SiO2 
 PCOD9169019
Probable space group: C 2/M
;
_chemical_formula_sum "Si O2"
_cell_formula_units_Z 48
_cell_length_a 11.139718
_cell_length_b 14.930274
_cell_length_c 26.262781
_cell_angle_alpha 90.000000
_cell_angle_beta 153.437559
_cell_angle_gamma 90.000000
_cell_volume 1953.251259
_symmetry_space_group_name_H-M "C 2/M"
_symmetry_group_IT_number 12
_symmetry_cell_setting 'monoclinic'
loop_
_space_group_symop_operation_xyz
x,y,z
-x,y,-z
-x,-y,-z
x,-y,z
1/2+x,1/2+y,z
1/2-x,1/2+y,-z
1/2-x,1/2-y,-z
1/2+x,1/2-y,z
loop_
_atom_site_type_symbol
_atom_site_label
_atom_site_fract_x
_atom_site_fract_y
_atom_site_fract_z
Si Si1 0.775491 0.845219 0.946418
Si Si2 0.702812 0.643747 0.874318
Si Si3 0.188346 0.840764 0.193818
Si Si4 0.634044 0.898804 0.498817
Si Si5 0.725721 0.104792 0.420906
Si Si6 0.800712 0.135192 0.244996
O O1 0.715886 0.751477 0.893211
O O2 0.497779 0.893156 0.852377
O O3 0.000000 0.896851 0.000000
O O4 0.944387 0.826343 0.061735
O O5 0.461633 0.609441 0.817277
O O6 0.652476 0.622436 0.797013
O O7 0.000000 0.610214 0.000000
O O8 0.467938 0.887225 0.285872
O O9 0.286814 0.742088 0.245783
O O10 0.500000 0.858542 0.500000
O O11 0.629573 0.857923 0.439942
O O12 0.951182 0.901978 0.630488
O O13 0.521129 0.000000 0.452716
O O14 0.000000 0.142091 0.500000
O O15 0.778456 0.000000 0.450660
#
# Coordination Sequence:
#
# PCOD9169019 Si02
#       6
#     8   8   8   8   8   8
#     4  10  19  31  52  87 118 147 171 219 293 337
#     4  10  16  32  52  86 116 147 174 214 283 343
#     4  11  20  33  60  85 112 147 186 232 275 337
#     4  10  23  43  60  78 113 156 191 232 288 334
#     4  10  24  43  59  78 111 155 194 235 287 332
#     4  11  20  33  60  87 112 145 186 232 273 338
#
# _framework density 24.574413
#
# number of rings (size 3 to 8) (size 9 to 14) (size 15 to 20)
#    0.000    1.667    5.000    2.000    2.333    1.333 
#    0.000    0.833    0.000    2.000    0.000    0.000 
#    0.000    0.000    0.000    0.000    0.000    0.000 
#
# Total GULP energy -133877.650637 kJ/mol
# GULP energy per Si atom -5578.235443 kJ/mol
# Density = 2.451848 g / cm^3
# Si number density = 24.574413 Si / 1000 Ang^3
#
#
#
# Elastic Constant Matrix: (Units=GPa)
#
#
# Indices 1 2 3 4 5 6 
#
# 1 111.0689 -2.6397 25.2221 -0.0003 27.5427 -0.0004
# 2 -2.6397 59.2597 -2.5351 0.0008 -0.1782 -0.0001
# 3 25.2221 -2.5351 137.8555 0.0022 18.7019 -0.0013
# 4 -0.0003 0.0008 0.0022 -3.5612 -0.0004 0.3360
# 5 27.5427 -0.1782 18.7019 -0.0004 50.7416 0.0002
# 6 -0.0004 -0.0001 -0.0013 0.3360 0.0002 -14.0844
#
#
#
# Elastic Compliance Matrix: (Units=1/GPa)
#
#
# Indices 1 2 3 4 5 6 
#
# 1 0.010605 0.000405 -0.001213 -0.000001 -0.005308 0.000000
# 2 0.000405 0.016904 0.000272 0.000004 -0.000261 0.000000
# 3 -0.001213 0.000272 0.007780 0.000005 -0.002208 -0.000001
# 4 -0.000001 0.000004 0.000005 -0.281435 -0.000004 -0.006715
# 5 -0.005308 -0.000261 -0.002208 -0.000004 0.023402 0.000001
# 6 0.000000 0.000000 -0.000001 -0.006715 0.000001 -0.071161
#
#
# Mechanical properties :
#
#
# Convention : Reuss Voigt Hill
#
# Bulk Modulus (GPa) = 29.22534 38.69763 33.96149
# Shear Modulus (GPa) = -17.76661 25.82831 4.03085
#
# Velocity S-wave (km/s) = -2.69173 3.24547 1.28212
# Velocity P-wave (km/s) = 1.50262 5.46126 4.00520
#
# Compressibility (1/GPa) = 0.03421688
#
# Stress axis : x y z
#
# Youngs Moduli (GPa) = 94.29817 59.15848 128.52714
#
# Poissons Ratio (x) = -0.02393 0.15587
# Poissons Ratio (y) = -0.03815 -0.03498
# Poissons Ratio (z) = 0.11436 -0.01610
#
# Static dielectric constant tensor:
#      x y z
#    x 2.114670 0.000000 -0.034070 
#    y 0.000000 1.943570 0.000000 
#    z -0.034070 0.000000 1.975530 
# 
# From -- ./inp_files/131067.got.cif
#   From: 2010.05.17/outbox.cif.g08.bks.cpg/sg12_66_cif.got.tgz:131067.got - 2010.06.03 13:09:07.
