data_PCOD9169017
_publ_section_title
;
Structure prediction by ZEFSAII (Michael W. Deem and Ramdas Pophale) SiO2 
 PCOD9169017
Probable space group: C 2/M
;
_chemical_formula_sum "Si O2"
_cell_formula_units_Z 44
_cell_length_a 9.574260
_cell_length_b 25.589513
_cell_length_c 13.063088
_cell_angle_alpha 90.000000
_cell_angle_beta 124.687746
_cell_angle_gamma 90.000000
_cell_volume 2631.632885
_symmetry_space_group_name_H-M "C 2/M"
_symmetry_group_IT_number 12
_symmetry_cell_setting 'monoclinic'
loop_
_space_group_symop_operation_xyz
x,y,z
-x,y,-z
-x,-y,-z
x,-y,z
1/2+x,1/2+y,z
1/2-x,1/2+y,-z
1/2-x,1/2-y,-z
1/2+x,1/2-y,z
loop_
_atom_site_type_symbol
_atom_site_label
_atom_site_fract_x
_atom_site_fract_y
_atom_site_fract_z
Si Si1 0.366582 0.000000 0.036764
Si Si2 0.790325 0.614221 0.081195
Si Si3 0.425987 0.387180 0.814745
Si Si4 0.380765 0.291417 0.664407
Si Si5 0.484987 0.500000 0.867015
Si Si6 0.000000 0.748130 0.500000
Si Si7 0.568047 0.777242 0.914932
O O1 0.367440 0.944493 0.099594
O O2 0.500000 0.000000 0.000000
O O3 0.178080 0.000000 0.910671
O O4 0.717266 0.628177 0.162583
O O5 0.912485 0.661132 0.099783
O O6 0.615752 0.616235 0.941898
O O7 0.418454 0.349866 0.716021
O O8 0.396769 0.448487 0.790676
O O9 0.177239 0.283357 0.580218
O O10 0.467746 0.280058 0.591464
O O11 0.459924 0.252282 0.782812
O O12 0.500000 0.500000 0.000000
O O13 0.500000 0.770308 0.000000
O O14 0.750000 0.750000 0.000000
#
# Coordination Sequence:
#
# PCOD9169017 Si02
#       7
#     4   8   8   8   4   4   8
#     4  10  18  30  44  70 118 157 169 200 252 335
#     4  10  18  30  48  80 116 145 168 210 270 340
#     4  10  17  31  56  79 108 147 178 215 267 336
#     4  11  22  38  58  77 109 149 189 232 279 323
#     4  10  16  32  52  80 114 150 175 202 272 357
#     4  10  24  42  54  74 104 152 202 234 264 322
#     4  12  22  32  52  86 116 137 173 227 290 345
#
# _framework density 16.719657999999999
#
# number of rings (size 3 to 8) (size 9 to 14) (size 15 to 20)
#    0.000    1.455    5.455    3.818    0.000    0.000 
#    0.000    0.000    0.000    1.091    0.000    5.091 
#    0.000    0.000    0.000    0.000    0.000    0.000 
#
# Total GULP energy -122540.107809 kJ/mol
# GULP energy per Si atom -5570.004900 kJ/mol
# Density = 1.668160 g / cm^3
# Si number density = 16.719658 Si / 1000 Ang^3
#
#
#
# Elastic Constant Matrix: (Units=GPa)
#
#
# Indices 1 2 3 4 5 6 
#
# 1 106.9753 22.9775 30.9062 0.0000 -18.6546 0.0000
# 2 22.9775 118.4740 43.3973 0.0000 -13.8576 0.0000
# 3 30.9062 43.3973 68.3178 0.0000 -15.3630 0.0000
# 4 0.0000 0.0000 0.0000 15.7070 0.0000 1.1859
# 5 -18.6546 -13.8576 -15.3630 0.0000 25.8788 0.0000
# 6 0.0000 0.0000 0.0000 1.1859 0.0000 5.4984
#
#
#
# Elastic Compliance Matrix: (Units=1/GPa)
#
#
# Indices 1 2 3 4 5 6 
#
# 1 0.011512 -0.000154 -0.003765 0.000000 0.005981 0.000000
# 2 -0.000154 0.011094 -0.006539 0.000000 0.001947 0.000000
# 3 -0.003765 -0.006539 0.022039 0.000000 0.006868 0.000000
# 4 0.000000 0.000000 0.000000 0.064720 0.000000 -0.013958
# 5 0.005981 0.001947 0.006868 0.000000 0.048073 0.000000
# 6 0.000000 0.000000 0.000000 -0.013958 0.000000 0.184883
#
#
# Mechanical properties :
#
#
# Convention : Reuss Voigt Hill
#
# Bulk Modulus (GPa) = 42.14502 54.25878 48.20190
# Shear Modulus (GPa) = 13.47179 22.51589 17.99384
#
# Velocity S-wave (km/s) = 2.84164 3.67368 3.28412
# Velocity P-wave (km/s) = 6.00235 7.10754 6.57820
#
# Compressibility (1/GPa) = 0.02372760
#
# Stress axis : x y z
#
# Youngs Moduli (GPa) = 86.86817 90.14095 45.37362
#
# Poissons Ratio (x) = 0.01388 0.17084
# Poissons Ratio (y) = 0.01337 0.29672
# Poissons Ratio (z) = 0.32707 0.58948
#
# Static dielectric constant tensor:
#      x y z
#    x 1.566490 0.000000 -0.005980 
#    y 0.000000 1.623840 0.000000 
#    z -0.005980 0.000000 1.552980 
# 
# From -- ./inp_files/122148.got.cif
#   From: 2010.05.17/outbox.cif.g08.bks.cpg/sg12_62_cif.got.tgz:122148.got - 2010.06.03 13:09:07.
