data_PCOD9169827
_publ_section_title
;
Structure prediction by ZEFSAII (Michael W. Deem and Ramdas Pophale) SiO2 
 PCOD9169827
Probable space group: C 2/M
;
_chemical_formula_sum "Si O2"
_cell_formula_units_Z 64
_cell_length_a 26.318678
_cell_length_b 14.433991
_cell_length_c 9.534185
_cell_angle_alpha 90.000000
_cell_angle_beta 98.296482
_cell_angle_gamma 90.000000
_cell_volume 3583.975912
_symmetry_space_group_name_H-M "C 2/M"
_symmetry_group_IT_number 12
_symmetry_cell_setting 'monoclinic'
loop_
_space_group_symop_operation_xyz
x,y,z
-x,y,-z
-x,-y,-z
x,-y,z
1/2+x,1/2+y,z
1/2-x,1/2+y,-z
1/2-x,1/2-y,-z
1/2+x,1/2-y,z
loop_
_atom_site_type_symbol
_atom_site_label
_atom_site_fract_x
_atom_site_fract_y
_atom_site_fract_z
Si Si1 0.076095 0.798842 0.768250
Si Si2 0.600714 0.610109 0.075821
Si Si3 0.392156 0.104955 0.125938
Si Si4 0.306896 0.610630 0.687117
Si Si5 0.187507 0.607282 0.677836
Si Si6 0.049721 0.603306 0.121417
Si Si7 0.134965 0.216219 0.530419
Si Si8 0.539584 0.710654 0.288773
O O1 0.077751 0.687209 0.786517
O O2 0.120231 0.825975 0.675803
O O3 0.018125 0.819070 0.698535
O O4 0.088674 0.841030 0.924544
O O5 0.599343 0.500000 0.056678
O O6 0.655192 0.636487 0.169386
O O7 0.559331 0.642854 0.173862
O O8 0.336061 0.112273 0.173827
O O9 0.410774 0.000000 0.163360
O O10 0.401725 0.117963 0.964073
O O11 0.312710 0.500000 0.669095
O O12 0.247640 0.629817 0.696633
O O13 0.325955 0.662176 0.554640
O O14 0.180574 0.500000 0.629251
O O15 0.156827 0.681204 0.571123
O O16 0.053329 0.500000 0.184378
O O17 0.042852 0.686395 0.224918
O O18 0.000000 0.605198 0.000000
O O19 0.080658 0.212421 0.428870
#
# Coordination Sequence:
#
# PCOD9169827 Si02
#       8
#     8   8   8   8   8   8   8   8
#     4  11  20  34  52  78 107 141 173 218 264 309
#     4  10  21  36  56  78 100 133 182 229 269 315
#     4   9  17  30  50  78 104 133 171 209 258 313
#     4   9  19  38  60  77 100 138 178 222 274 316
#     4   9  18  35  58  78 106 142 176 213 262 316
#     4  10  17  28  50  76 105 140 175 213 258 307
#     4  10  22  34  53  79 110 140 178 214 258 313
#     4  11  20  34  51  76 111 143 176 209 260 318
#
# _framework density 17.857264000000001
#
# number of rings (size 3 to 8) (size 9 to 14) (size 15 to 20)
#    0.000    2.125    2.500    1.125    0.000    2.000 
#    0.000    2.500    2.750    7.500    0.000    0.000 
#    0.000    0.000    0.000    0.000    0.000    0.000 
#
# Total GULP energy -178244.780719 kJ/mol
# GULP energy per Si atom -5570.149397 kJ/mol
# Density = 1.781662 g / cm^3
# Si number density = 17.857264 Si / 1000 Ang^3
#
#
#
# Elastic Constant Matrix: (Units=GPa)
#
#
# Indices 1 2 3 4 5 6 
#
# 1 124.7919 31.3352 37.4116 0.0000 -12.7869 0.0000
# 2 31.3352 46.0687 23.5825 0.0000 -1.2353 0.0000
# 3 37.4116 23.5825 44.3512 0.0000 -8.6731 0.0000
# 4 0.0000 0.0000 0.0000 17.5699 0.0000 -2.1450
# 5 -12.7869 -1.2353 -8.6731 0.0000 16.5780 0.0000
# 6 0.0000 0.0000 0.0000 -2.1450 0.0000 23.1078
#
#
#
# Elastic Compliance Matrix: (Units=1/GPa)
#
#
# Indices 1 2 3 4 5 6 
#
# 1 0.011586 -0.004485 -0.006356 0.000000 0.005277 0.000000
# 2 -0.004485 0.032258 -0.015123 0.000000 -0.008968 0.000000
# 3 -0.006356 -0.015123 0.038734 0.000000 0.014235 0.000000
# 4 0.000000 0.000000 0.000000 0.057568 0.000000 0.005344
# 5 0.005277 -0.008968 0.014235 0.000000 0.071170 0.000000
# 6 0.000000 0.000000 0.000000 0.005344 0.000000 0.043772
#
#
# Mechanical properties :
#
#
# Convention : Reuss Voigt Hill
#
# Bulk Modulus (GPa) = 32.62685 44.43003 38.52844
# Shear Modulus (GPa) = 15.76136 19.64331 17.70233
#
# Velocity S-wave (km/s) = 2.97413 3.32025 3.15195
# Velocity P-wave (km/s) = 5.48676 6.29551 5.90500
#
# Compressibility (1/GPa) = 0.03064960
#
# Stress axis : x y z
#
# Youngs Moduli (GPa) = 86.31254 30.99975 25.81743
#
# Poissons Ratio (x) = 0.13904 0.16410
# Poissons Ratio (y) = 0.38714 0.39043
# Poissons Ratio (z) = 0.54862 0.46880
#
# Static dielectric constant tensor:
#      x y z
#    x 1.634070 0.000000 -0.017990 
#    y 0.000000 1.616250 0.000000 
#    z -0.017990 0.000000 1.601640 
# 
# From -- ./inp_files/104666.got.cif
#   From: 2010.05.17/outbox.cif.g08.bks.cpg/sg12_53_cif.got.tgz:104666.got - 2010.06.03 13:09:07.
