data_PCOD9169408
_publ_section_title
;
Structure prediction by ZEFSAII (Michael W. Deem and Ramdas Pophale) SiO2 
 PCOD9169408
Probable space group: C 2/M
;
_chemical_formula_sum "Si O2"
_cell_formula_units_Z 48
_cell_length_a 18.469809
_cell_length_b 11.173359
_cell_length_c 15.981520
_cell_angle_alpha 90.000000
_cell_angle_beta 38.386258
_cell_angle_gamma 90.000000
_cell_volume 2047.989495
_symmetry_space_group_name_H-M "C 2/M"
_symmetry_group_IT_number 12
_symmetry_cell_setting 'monoclinic'
loop_
_space_group_symop_operation_xyz
x,y,z
-x,y,-z
-x,-y,-z
x,-y,z
1/2+x,1/2+y,z
1/2-x,1/2+y,-z
1/2-x,1/2-y,-z
1/2+x,1/2-y,z
loop_
_atom_site_type_symbol
_atom_site_label
_atom_site_fract_x
_atom_site_fract_y
_atom_site_fract_z
Si Si1 0.125444 0.134697 0.053325
Si Si2 0.874312 0.128695 0.407344
Si Si3 0.684628 0.714060 0.358402
Si Si4 0.879237 0.370809 0.452596
Si Si5 0.095248 0.132352 0.840712
Si Si6 0.767000 0.137211 0.861540
O O1 0.181641 0.248099 0.954068
O O2 0.161150 0.000000 0.989254
O O3 0.986647 0.139597 0.165921
O O4 0.162561 0.138428 0.115767
O O5 0.829295 0.133087 0.546665
O O6 0.932828 0.259911 0.354618
O O7 0.756982 0.128620 0.455633
O O8 0.933434 0.000000 0.348349
O O9 0.618478 0.832553 0.452286
O O10 0.658894 0.661997 0.290500
O O11 0.817288 0.759412 0.232673
O O12 0.930001 0.500000 0.390272
O O13 0.151340 0.000000 0.791867
O O14 0.000000 0.135654 0.000000
O O15 0.718043 0.000000 0.897447
#
# Coordination Sequence:
#
# PCOD9169408 Si02
#       6
#     8   8   8   8   8   8
#     4   9  19  34  47  61  87 122 157 191 224 260
#     4   8  15  27  41  63  93 113 136 183 233 266
#     4  10  17  26  45  68  90 115 149 181 221 268
#     4   8  15  26  42  65  89 113 143 182 224 264
#     4  10  18  29  44  66  91 119 154 190 221 257
#     4  10  19  31  47  65  88 120 154 189 228 265
#
# _framework density 23.437621
#
# number of rings (size 3 to 8) (size 9 to 14) (size 15 to 20)
#    1.000    1.833    1.667    1.000    0.000    0.667 
#    0.000    2.500    0.000    0.000    0.000    4.667 
#    0.000   21.333    0.000    0.000    0.000    0.000 
#
# Total GULP energy -133609.361471 kJ/mol
# GULP energy per Si atom -5567.056728 kJ/mol
# Density = 2.338428 g / cm^3
# Si number density = 23.437621 Si / 1000 Ang^3
#
#
#
# Elastic Constant Matrix: (Units=GPa)
#
#
# Indices 1 2 3 4 5 6 
#
# 1 53.1156 16.2344 7.3011 0.0000 20.3976 0.0000
# 2 16.2344 216.6405 45.9643 0.0000 3.4500 0.0000
# 3 7.3011 45.9643 72.5300 0.0000 33.5137 0.0000
# 4 0.0000 0.0000 0.0000 41.1789 0.0000 -2.9533
# 5 20.3976 3.4500 33.5137 0.0000 42.5782 0.0000
# 6 0.0000 0.0000 0.0000 -2.9533 0.0000 14.9571
#
#
#
# Elastic Compliance Matrix: (Units=1/GPa)
#
#
# Indices 1 2 3 4 5 6 
#
# 1 0.025819 -0.003346 0.008033 0.000000 -0.018421 0.000000
# 2 -0.003346 0.006121 -0.006371 0.000000 0.006121 0.000000
# 3 0.008033 -0.006371 0.029162 0.000000 -0.026285 0.000000
# 4 0.000000 0.000000 0.000000 0.024633 0.000000 0.004864
# 5 -0.018421 0.006121 -0.026285 0.000000 0.052504 0.000000
# 6 0.000000 0.000000 0.000000 0.004864 0.000000 0.067818
#
#
# Mechanical properties :
#
#
# Convention : Reuss Voigt Hill
#
# Bulk Modulus (GPa) = 17.32067 53.47621 35.39844
# Shear Modulus (GPa) = 21.86567 37.92859 29.89713
#
# Velocity S-wave (km/s) = 3.05770 4.02715 3.57543
# Velocity P-wave (km/s) = 4.45783 6.67007 5.67283
#
# Compressibility (1/GPa) = 0.05773447
#
# Stress axis : x y z
#
# Youngs Moduli (GPa) = 38.73084 163.37705 34.29179
#
# Poissons Ratio (x) = 0.54662 -0.27546
# Poissons Ratio (y) = 0.12958 0.21846
# Poissons Ratio (z) = -0.31112 1.04080
#
# Static dielectric constant tensor:
#      x y z
#    x 1.949440 0.000000 0.092790 
#    y 0.000000 1.900660 0.000000 
#    z 0.092790 0.000000 2.111290 
# 
# From -- ./inp_files/222391.got.cif
#   From: 2010.05.17/outbox.cif.g08.bks.cpg/sg12_112_cif.got.tgz:222391.got - 2010.06.03 13:09:07.
