data_PCOD9169296
_publ_section_title
;
Structure prediction by ZEFSAII (Michael W. Deem and Ramdas Pophale) SiO2 
 PCOD9169296
Probable space group: C 2/M
;
_chemical_formula_sum "Si O2"
_cell_formula_units_Z 40
_cell_length_a 25.556005
_cell_length_b 8.987756
_cell_length_c 7.973348
_cell_angle_alpha 90.000000
_cell_angle_beta 69.335546
_cell_angle_gamma 90.000000
_cell_volume 1713.580379
_symmetry_space_group_name_H-M "C 2/M"
_symmetry_group_IT_number 12
_symmetry_cell_setting 'monoclinic'
loop_
_space_group_symop_operation_xyz
x,y,z
-x,y,-z
-x,-y,-z
x,-y,z
1/2+x,1/2+y,z
1/2-x,1/2+y,-z
1/2-x,1/2-y,-z
1/2+x,1/2-y,z
loop_
_atom_site_type_symbol
_atom_site_label
_atom_site_fract_x
_atom_site_fract_y
_atom_site_fract_z
Si Si1 0.325001 0.830291 0.597915
Si Si2 0.715158 0.672480 0.893296
Si Si3 0.985989 0.320077 0.263775
Si Si4 0.578883 0.323020 0.343891
Si Si5 0.883389 0.672831 0.168307
O O1 0.258673 0.812409 0.688294
O O2 0.357636 0.720508 0.686211
O O3 0.349425 0.816247 0.384025
O O4 0.338107 0.000000 0.638935
O O5 0.708436 0.500000 0.939596
O O6 0.655364 0.738426 0.914663
O O7 0.750000 0.750000 0.000000
O O8 0.987257 0.500000 0.275437
O O9 0.952357 0.247944 0.458336
O O10 0.946439 0.282979 0.150194
O O11 0.047770 0.254594 0.222473
O O12 0.571557 0.500000 0.344450
O O13 0.885276 0.500000 0.115937
#
# Coordination Sequence:
#
# PCOD9169296 Si02
#       5
#     8   8   8   8   8
#     4   9  19  35  53  75 103 137 171 206 253 307
#     4  11  23  37  54  74 101 136 172 211 257 305
#     4   9  16  28  46  70 104 139 165 199 249 304
#     4  10  17  25  44  75 105 132 165 208 250 292
#     4   9  18  33  54  78 103 132 170 210 250 298
#
# _framework density 23.342936999999999
#
# number of rings (size 3 to 8) (size 9 to 14) (size 15 to 20)
#    0.000    2.400    0.000    6.000    0.000    5.600 
#    0.000    0.000    0.000    1.200    0.000    8.400 
#    0.000    0.000    0.000    0.000    0.000    0.000 
#
# Total GULP energy -111768.886100 kJ/mol
# GULP energy per Si atom -5588.444305 kJ/mol
# Density = 2.328981 g / cm^3
# Si number density = 23.342937 Si / 1000 Ang^3
#
#
#
# Elastic Constant Matrix: (Units=GPa)
#
#
# Indices 1 2 3 4 5 6 
#
# 1 196.6695 99.9616 36.8546 0.0000 25.2258 0.0000
# 2 99.9616 128.9749 44.0097 0.0000 41.9503 0.0000
# 3 36.8546 44.0097 68.0209 0.0000 18.1102 0.0000
# 4 0.0000 0.0000 0.0000 12.7718 0.0000 10.3670
# 5 25.2258 41.9503 18.1102 0.0000 54.9485 0.0000
# 6 0.0000 0.0000 0.0000 10.3670 0.0000 35.9311
#
#
#
# Elastic Compliance Matrix: (Units=1/GPa)
#
#
# Indices 1 2 3 4 5 6 
#
# 1 0.008497 -0.006902 -0.000551 0.000000 0.001550 0.000000
# 2 -0.006902 0.017762 -0.005465 0.000000 -0.008590 0.000000
# 3 -0.000551 -0.005465 0.019027 0.000000 -0.001846 0.000000
# 4 0.000000 0.000000 0.000000 0.102243 0.000000 -0.029500
# 5 0.001550 -0.008590 -0.001846 0.000000 0.024654 0.000000
# 6 0.000000 0.000000 0.000000 -0.029500 0.000000 0.036343
#
#
# Mechanical properties :
#
#
# Convention : Reuss Voigt Hill
#
# Bulk Modulus (GPa) = 51.41377 83.92413 67.66895
# Shear Modulus (GPa) = 20.76027 34.91957 27.83992
#
# Velocity S-wave (km/s) = 2.98545 3.87193 3.45722
# Velocity P-wave (km/s) = 5.82727 7.48464 6.70735
#
# Compressibility (1/GPa) = 0.01945004
#
# Stress axis : x y z
#
# Youngs Moduli (GPa) = 117.68734 56.30135 52.55593
#
# Poissons Ratio (x) = 0.38858 0.02896
# Poissons Ratio (y) = 0.81224 0.28723
# Poissons Ratio (z) = 0.06485 0.30770
#
# Static dielectric constant tensor:
#      x y z
#    x 1.940510 0.000000 -0.054760 
#    y 0.000000 1.787160 0.000000 
#    z -0.054760 0.000000 1.977410 
# 
# From -- ./inp_files/101021.got.cif
#   From: 2010.05.17/outbox.cif.g08.bks.cpg/sg12_51_cif.got.tgz:101021.got - 2010.06.03 13:09:07.
