data_PCOD9169347
_publ_section_title
;
Structure prediction by ZEFSAII (Michael W. Deem and Ramdas Pophale) SiO2 
 PCOD9169347
Probable space group: C 2/M
;
_chemical_formula_sum "Si O2"
_cell_formula_units_Z 48
_cell_length_a 29.470338
_cell_length_b 8.516382
_cell_length_c 12.524555
_cell_angle_alpha 90.000000
_cell_angle_beta 109.932296
_cell_angle_gamma 90.000000
_cell_volume 2955.117900
_symmetry_space_group_name_H-M "C 2/M"
_symmetry_group_IT_number 12
_symmetry_cell_setting 'monoclinic'
loop_
_space_group_symop_operation_xyz
x,y,z
-x,y,-z
-x,-y,-z
x,-y,z
1/2+x,1/2+y,z
1/2-x,1/2+y,-z
1/2-x,1/2-y,-z
1/2+x,1/2-y,z
loop_
_atom_site_type_symbol
_atom_site_label
_atom_site_fract_x
_atom_site_fract_y
_atom_site_fract_z
Si Si1 0.574829 0.315238 0.556188
Si Si2 0.001299 0.684839 0.336922
Si Si3 0.865208 0.190032 0.045561
Si Si4 0.764808 0.810951 0.894997
Si Si5 0.474565 0.310149 0.089091
Si Si6 0.835689 0.688094 0.256210
O O1 0.572168 0.500000 0.535556
O O2 0.550763 0.227066 0.437137
O O3 0.540732 0.272262 0.629984
O O4 0.628534 0.263839 0.629862
O O5 0.992174 0.500000 0.337560
O O6 0.999395 0.739951 0.213915
O O7 0.918079 0.235289 0.048006
O O8 0.854556 0.262652 0.153373
O O9 0.864409 0.000000 0.057003
O O10 0.820943 0.235399 0.931348
O O11 0.720635 0.760319 0.783828
O O12 0.763457 0.000000 0.894245
O O13 0.750000 0.750000 0.000000
O O14 0.477033 0.500000 0.097763
O O15 0.500000 0.260991 0.000000
O O16 0.838489 0.500000 0.267221
#
# Coordination Sequence:
#
# PCOD9169347 Si02
#       6
#     8   8   8   8   8   8
#     4  11  20  31  48  68  94 125 154 186 234 289
#     4  11  21  33  48  68  93 121 157 196 235 274
#     4   9  16  28  44  62  90 126 158 189 227 273
#     4   8  15  25  39  61  89 120 152 185 225 274
#     4  10  20  33  49  69  95 128 163 194 227 271
#     4  10  17  26  42  67  95 121 151 188 231 276
#
# _framework density 16.243006000000001
#
# number of rings (size 3 to 8) (size 9 to 14) (size 15 to 20)
#    0.000    2.167    1.667    4.500    0.000    1.000 
#    0.000    0.000    0.000    0.000    0.000    1.167 
#    0.000    0.000    0.000    0.000    0.000    0.000 
#
# Total GULP energy -133741.698763 kJ/mol
# GULP energy per Si atom -5572.570782 kJ/mol
# Density = 1.620604 g / cm^3
# Si number density = 16.243006 Si / 1000 Ang^3
#
#
#
# Elastic Constant Matrix: (Units=GPa)
#
#
# Indices 1 2 3 4 5 6 
#
# 1 66.8871 4.3205 47.3642 0.0000 18.2395 0.0000
# 2 4.3205 17.9615 0.0737 0.0000 -2.1568 0.0000
# 3 47.3642 0.0737 84.7925 0.0000 17.8726 0.0000
# 4 0.0000 0.0000 0.0000 66.2359 0.0000 0.4039
# 5 18.2395 -2.1568 17.8726 0.0000 30.5800 0.0000
# 6 0.0000 0.0000 0.0000 0.4039 0.0000 14.6376
#
#
#
# Elastic Compliance Matrix: (Units=1/GPa)
#
#
# Indices 1 2 3 4 5 6 
#
# 1 0.027389 -0.007620 -0.013385 0.000000 -0.009051 0.000000
# 2 -0.007620 0.058346 0.002715 0.000000 0.007073 0.000000
# 3 -0.013385 0.002715 0.020010 0.000000 -0.003520 0.000000
# 4 0.000000 0.000000 0.000000 0.015100 0.000000 -0.000417
# 5 -0.009051 0.007073 -0.003520 0.000000 0.040656 0.000000
# 6 0.000000 0.000000 0.000000 -0.000417 0.000000 0.068329
#
#
# Mechanical properties :
#
#
# Convention : Reuss Voigt Hill
#
# Bulk Modulus (GPa) = 14.45832 30.35087 22.40460
# Shear Modulus (GPa) = 17.27333 30.14955 23.71144
#
# Velocity S-wave (km/s) = 3.26457 4.31299 3.82487
# Velocity P-wave (km/s) = 4.80941 6.59762 5.77317
#
# Compressibility (1/GPa) = 0.06916432
#
# Stress axis : x y z
#
# Youngs Moduli (GPa) = 36.51109 17.13919 49.97591
#
# Poissons Ratio (x) = 0.13060 0.66892
# Poissons Ratio (y) = 0.27822 -0.13568
# Poissons Ratio (z) = 0.48869 -0.04653
#
# Static dielectric constant tensor:
#      x y z
#    x 1.567890 0.000000 0.054540 
#    y 0.000000 1.544640 0.000000 
#    z 0.054540 0.000000 1.538880 
# 
# From -- ./inp_files/185948.got.cif
#   From: 2010.05.17/outbox.cif.g08.bks.cpg/sg12_93_cif.got.tgz:185948.got - 2010.06.03 13:09:07.
