data_PCOD9169056
_publ_section_title
;
Structure prediction by ZEFSAII (Michael W. Deem and Ramdas Pophale) SiO2 
 PCOD9169056
Probable space group: C 2/M
;
_chemical_formula_sum "Si O2"
_cell_formula_units_Z 54
_cell_length_a 14.441606
_cell_length_b 22.911352
_cell_length_c 11.051398
_cell_angle_alpha 90.000000
_cell_angle_beta 142.961091
_cell_angle_gamma 90.000000
_cell_volume 2202.609748
_symmetry_space_group_name_H-M "C 2/M"
_symmetry_group_IT_number 12
_symmetry_cell_setting 'monoclinic'
loop_
_space_group_symop_operation_xyz
x,y,z
-x,y,-z
-x,-y,-z
x,-y,z
1/2+x,1/2+y,z
1/2-x,1/2+y,-z
1/2-x,1/2-y,-z
1/2+x,1/2-y,z
loop_
_atom_site_type_symbol
_atom_site_label
_atom_site_fract_x
_atom_site_fract_y
_atom_site_fract_z
Si Si1 0.430190 0.733122 0.686954
Si Si2 0.462136 0.153493 0.283256
Si Si3 0.965238 0.064326 0.289989
Si Si4 0.500000 0.792914 0.000000
Si Si5 0.766673 0.067443 0.834396
Si Si6 0.801604 0.613619 0.868046
Si Si7 0.809429 0.889442 0.616599
Si Si8 0.000000 0.500000 0.000000
O O1 0.250000 0.750000 0.500000
O O2 0.514311 0.776221 0.678532
O O3 0.418899 0.663852 0.687021
O O4 0.509460 0.752307 0.894470
O O5 0.363897 0.116431 0.276532
O O6 0.374538 0.139324 0.067626
O O7 0.632597 0.128285 0.440839
O O8 0.145323 0.067780 0.444948
O O9 0.933577 0.000000 0.302982
O O10 0.878694 0.068473 0.067909
O O11 0.876008 0.106351 0.287741
O O12 0.354578 0.836239 0.830564
O O13 0.839310 0.084050 0.780692
O O14 0.708444 0.000000 0.766072
O O15 0.882706 0.552397 0.925890
#
# Coordination Sequence:
#
# PCOD9169056 Si02
#       8
#     8   8   8   4   8   8   8   2
#     4   9  20  38  57  83 117 150 193 244 294 346
#     4   9  20  38  55  79 112 149 196 241 281 337
#     4  10  20  35  52  83 122 147 183 234 294 349
#     4   9  18  35  62  84 107 148 201 238 276 346
#     4  10  21  36  56  84 114 153 200 238 282 354
#     4   9  18  35  58  83 104 144 196 235 277 333
#     4  11  21  34  56  81 120 153 182 234 298 351
#     4  10  16  32  64  78  96 144 190 238 266 328
#
# _framework density 24.516373000000002
#
# number of rings (size 3 to 8) (size 9 to 14) (size 15 to 20)
#    0.000    2.370    0.741    1.333    3.111    2.963 
#    2.667    2.222    3.259    8.000    0.000    0.000 
#    0.000    0.000    0.000    0.000    0.000    0.000 
#
# Total GULP energy -150340.406151 kJ/mol
# GULP energy per Si atom -5568.163191 kJ/mol
# Density = 2.446057 g / cm^3
# Si number density = 24.516373 Si / 1000 Ang^3
#
#
#
# Elastic Constant Matrix: (Units=GPa)
#
#
# Indices 1 2 3 4 5 6 
#
# 1 124.3290 29.1615 15.6735 0.0000 28.4220 0.0000
# 2 29.1615 123.3240 10.5798 0.0000 14.8206 0.0000
# 3 15.6735 10.5798 67.5361 0.0000 -3.4693 0.0000
# 4 0.0000 0.0000 0.0000 9.1275 0.0000 1.2635
# 5 28.4220 14.8206 -3.4693 0.0000 33.3545 0.0000
# 6 0.0000 0.0000 0.0000 1.2635 0.0000 7.8417
#
#
#
# Elastic Compliance Matrix: (Units=1/GPa)
#
#
# Indices 1 2 3 4 5 6 
#
# 1 0.010703 -0.001231 -0.002746 0.000000 -0.008859 0.000000
# 2 -0.001231 0.008871 -0.001259 0.000000 -0.003024 0.000000
# 3 -0.002746 -0.001259 0.015875 0.000000 0.004551 0.000000
# 4 0.000000 0.000000 0.000000 0.112058 0.000000 -0.018055
# 5 -0.008859 -0.003024 0.004551 0.000000 0.039347 0.000000
# 6 0.000000 0.000000 0.000000 -0.018055 0.000000 0.130432
#
#
# Mechanical properties :
#
#
# Convention : Reuss Voigt Hill
#
# Bulk Modulus (GPa) = 40.03676 47.33542 43.68609
# Shear Modulus (GPa) = 14.87716 27.38304 21.13010
#
# Velocity S-wave (km/s) = 2.46606 3.34567 2.93896
# Velocity P-wave (km/s) = 4.94719 5.85443 5.41982
#
# Compressibility (1/GPa) = 0.02497704
#
# Stress axis : x y z
#
# Youngs Moduli (GPa) = 93.42906 112.72438 62.99087
#
# Poissons Ratio (x) = 0.13872 0.17299
# Poissons Ratio (y) = 0.11498 0.07933
# Poissons Ratio (z) = 0.25658 0.14197
#
# Static dielectric constant tensor:
#      x y z
#    x 1.959710 0.000000 -0.030640 
#    y 0.000000 2.019150 0.000000 
#    z -0.030640 0.000000 2.000040 
# 
# From -- ./inp_files/217759.got.cif
#   From: 2010.05.17/outbox.cif.g08.bks.cpg/sg12_109_cif.got.tgz:217759.got - 2010.06.03 13:09:07.
