data_PCOD9169464
_publ_section_title
;
Structure prediction by ZEFSAII (Michael W. Deem and Ramdas Pophale) SiO2 
 PCOD9169464
Probable space group: C 2/M
;
_chemical_formula_sum "Si O2"
_cell_formula_units_Z 56
_cell_length_a 35.057327
_cell_length_b 13.746016
_cell_length_c 7.984769
_cell_angle_alpha 90.000000
_cell_angle_beta 96.107735
_cell_angle_gamma 90.000000
_cell_volume 3826.006855
_symmetry_space_group_name_H-M "C 2/M"
_symmetry_group_IT_number 12
_symmetry_cell_setting 'monoclinic'
loop_
_space_group_symop_operation_xyz
x,y,z
-x,y,-z
-x,-y,-z
x,-y,z
1/2+x,1/2+y,z
1/2-x,1/2+y,-z
1/2-x,1/2-y,-z
1/2+x,1/2-y,z
loop_
_atom_site_type_symbol
_atom_site_label
_atom_site_fract_x
_atom_site_fract_y
_atom_site_fract_z
Si Si1 0.703066 0.698451 0.147435
Si Si2 0.877453 0.885084 0.391035
Si Si3 0.202015 0.883525 0.501622
Si Si4 0.748708 0.886709 0.137377
Si Si5 0.959192 0.112110 0.531411
Si Si6 0.959005 0.888214 0.930849
Si Si7 0.375639 0.614822 0.994687
O O1 0.716279 0.666152 0.338650
O O2 0.713844 0.810616 0.122907
O O3 0.658344 0.672133 0.110396
O O4 0.725076 0.638980 0.011520
O O5 0.841028 0.846951 0.475483
O O6 0.919539 0.843000 0.447588
O O7 0.879937 0.000000 0.436703
O O8 0.869148 0.879645 0.190402
O O9 0.227197 0.869359 0.680420
O O10 0.200529 0.000000 0.471916
O O11 0.737995 0.000000 0.126864
O O12 0.957116 0.108890 0.730144
O O13 0.000000 0.157109 0.500000
O O14 0.960219 0.000000 0.465373
O O15 0.918593 0.848051 0.976816
O O16 0.959886 0.000000 0.998056
O O17 0.000000 0.843314 0.000000
O O18 0.373734 0.500000 0.943655
#
# Coordination Sequence:
#
# PCOD9169464 Si02
#       7
#     8   8   8   8   8   8   8
#     4  11  20  31  50  68  86 118 152 181 226 269
#     4   9  16  25  38  56  80 110 142 181 215 248
#     4  10  18  30  47  66  88 113 147 184 222 264
#     4  10  21  35  47  66  92 114 146 189 227 267
#     4   9  15  22  31  47  73 107 144 176 210 247
#     4   9  16  24  35  54  80 112 146 178 213 255
#     4  10  17  27  42  61  86 114 148 183 217 257
#
# _framework density 14.636668999999999
#
# number of rings (size 3 to 8) (size 9 to 14) (size 15 to 20)
#    0.000    2.286    1.429    3.429    0.000    5.714 
#    0.000    0.000    0.000    0.000    0.000    0.000 
#    0.000    0.571    0.000    0.000    0.000   12.143 
#
# Total GULP energy -155925.939672 kJ/mol
# GULP energy per Si atom -5568.783560 kJ/mol
# Density = 1.460336 g / cm^3
# Si number density = 14.636669 Si / 1000 Ang^3
#
#
#
# Elastic Constant Matrix: (Units=GPa)
#
#
# Indices 1 2 3 4 5 6 
#
# 1 84.5975 35.8787 23.8786 0.0000 -0.1990 0.0000
# 2 35.8787 46.8339 21.7093 0.0000 3.3058 0.0000
# 3 23.8786 21.7093 66.8951 0.0000 -7.3251 0.0000
# 4 0.0000 0.0000 0.0000 9.1402 0.0000 -0.2907
# 5 -0.1990 3.3058 -7.3251 0.0000 23.3754 0.0000
# 6 0.0000 0.0000 0.0000 -0.2907 0.0000 11.6145
#
#
#
# Elastic Compliance Matrix: (Units=1/GPa)
#
#
# Indices 1 2 3 4 5 6 
#
# 1 0.017835 -0.012796 -0.002070 0.000000 0.001313 0.000000
# 2 -0.012796 0.035251 -0.007694 0.000000 -0.007505 0.000000
# 3 -0.002070 -0.007694 0.018952 0.000000 0.007009 0.000000
# 4 0.000000 0.000000 0.000000 0.109493 0.000000 0.002741
# 5 0.001313 -0.007505 0.007009 0.000000 0.046049 0.000000
# 6 0.000000 0.000000 0.000000 0.002741 0.000000 0.086168
#
#
# Mechanical properties :
#
#
# Convention : Reuss Voigt Hill
#
# Bulk Modulus (GPa) = 37.14994 40.13998 38.64496
# Shear Modulus (GPa) = 13.59276 16.61667 15.10472
#
# Velocity S-wave (km/s) = 3.05073 3.37304 3.21593
# Velocity P-wave (km/s) = 6.15189 6.53098 6.34427
#
# Compressibility (1/GPa) = 0.02691794
#
# Stress axis : x y z
#
# Youngs Moduli (GPa) = 56.06920 28.36763 52.76459
#
# Poissons Ratio (x) = 0.36300 0.10921
# Poissons Ratio (y) = 0.71749 0.40598
# Poissons Ratio (z) = 0.11605 0.21826
#
# Static dielectric constant tensor:
#      x y z
#    x 1.532100 0.000000 0.007260 
#    y 0.000000 1.448970 0.000000 
#    z 0.007260 0.000000 1.508630 
# 
# From -- ./inp_files/110877.got.cif
#   From: 2010.05.17/outbox.cif.g08.bks.cpg/sg12_56_cif.got.tgz:110877.got - 2010.06.03 13:09:07.
