data_PCOD9169375
_publ_section_title
;
Structure prediction by ZEFSAII (Michael W. Deem and Ramdas Pophale) SiO2 
 PCOD9169375
Probable space group: C 2/M
;
_chemical_formula_sum "Si O2"
_cell_formula_units_Z 50
_cell_length_a 24.782350
_cell_length_b 7.643362
_cell_length_c 16.917628
_cell_angle_alpha 90.000000
_cell_angle_beta 45.227075
_cell_angle_gamma 90.000000
_cell_volume 2274.918191
_symmetry_space_group_name_H-M "C 2/M"
_symmetry_group_IT_number 12
_symmetry_cell_setting 'monoclinic'
loop_
_space_group_symop_operation_xyz
x,y,z
-x,y,-z
-x,-y,-z
x,-y,z
1/2+x,1/2+y,z
1/2-x,1/2+y,-z
1/2-x,1/2-y,-z
1/2+x,1/2-y,z
loop_
_atom_site_type_symbol
_atom_site_label
_atom_site_fract_x
_atom_site_fract_y
_atom_site_fract_z
Si Si1 0.576154 0.286167 0.872852
Si Si2 0.368915 0.293650 0.740228
Si Si3 0.960457 0.686970 0.438342
Si Si4 0.500000 0.500000 0.500000
Si Si5 0.961366 0.211373 0.262894
Si Si6 0.214226 0.211773 0.839570
Si Si7 0.638817 0.711097 0.077153
O O1 0.573809 0.500000 0.875820
O O2 0.574878 0.231720 0.782509
O O3 0.653545 0.231738 0.836478
O O4 0.500000 0.231553 0.000000
O O5 0.395435 0.500000 0.712227
O O6 0.447065 0.188844 0.659250
O O7 0.301774 0.267547 0.747769
O O8 0.334155 0.245822 0.862578
O O9 0.932362 0.500000 0.496178
O O10 0.933958 0.717450 0.375556
O O11 0.948472 0.847661 0.508333
O O12 0.050277 0.258968 0.163935
O O13 0.957258 0.000000 0.272209
O O14 0.213769 0.000000 0.840221
O O15 0.181046 0.280187 0.957190
O O16 0.642085 0.500000 0.069029
#
# Coordination Sequence:
#
# PCOD9169375 Si02
#       7
#     8   8   8   2   8   8   8
#     4   9  15  25  47  74 107 155 204 242 271 306
#     4  10  19  33  47  70 109 149 184 225 284 329
#     4  11  22  38  62  89 115 141 173 222 285 354
#     4  12  22  44  64  94 114 132 168 224 296 360
#     4   9  15  30  50  75 114 152 187 233 281 320
#     4  10  17  26  43  73 103 148 207 235 263 315
#     4   8  14  24  43  65  98 147 192 234 267 313
#
# _framework density 21.978809999999999
#
# number of rings (size 3 to 8) (size 9 to 14) (size 15 to 20)
#    0.000    2.400    3.200    2.160    0.000    0.000 
#    0.000    4.000    0.000    0.960    0.000    1.120 
#    0.000    0.000    0.000    0.000    0.000    0.000 
#
# Total GULP energy -139268.587212 kJ/mol
# GULP energy per Si atom -5570.743488 kJ/mol
# Density = 2.192879 g / cm^3
# Si number density = 21.978810 Si / 1000 Ang^3
#
#
#
# Elastic Constant Matrix: (Units=GPa)
#
#
# Indices 1 2 3 4 5 6 
#
# 1 147.9106 12.4871 18.4206 -0.0271 22.8156 0.0125
# 2 12.4871 94.7848 19.4927 -0.0128 10.5572 0.0016
# 3 18.4206 19.4927 49.8164 -0.0054 21.5283 0.0047
# 4 -0.0271 -0.0128 -0.0054 -1.8879 0.0050 -6.9855
# 5 22.8156 10.5572 21.5283 0.0050 32.3692 -0.0055
# 6 0.0125 0.0016 0.0047 -6.9855 -0.0055 14.8041
#
#
#
# Elastic Compliance Matrix: (Units=1/GPa)
#
#
# Indices 1 2 3 4 5 6 
#
# 1 0.007613 -0.000342 -0.000576 -0.000032 -0.004871 -0.000023
# 2 -0.000342 0.011515 -0.004014 -0.000023 -0.000845 -0.000011
# 3 -0.000576 -0.004014 0.029633 -0.000015 -0.017993 -0.000022
# 4 -0.000032 -0.000023 -0.000015 -0.192897 0.000055 -0.091021
# 5 -0.004871 -0.000845 -0.017993 0.000055 0.046570 0.000053
# 6 -0.000023 -0.000011 -0.000022 -0.091021 0.000053 0.024600
#
#
# Mechanical properties :
#
#
# Convention : Reuss Voigt Hill
#
# Bulk Modulus (GPa) = 25.70903 43.70140 34.70521
# Shear Modulus (GPa) = -99.72751 25.19783 -37.26484
#
# Velocity S-wave (km/s) = -6.74336 3.38961 -4.12210
# Velocity P-wave (km/s) = 6.99342 5.93683 2.61362
#
# Compressibility (1/GPa) = 0.03889683
#
# Stress axis : x y z
#
# Youngs Moduli (GPa) = 131.35666 86.84417 33.74578
#
# Poissons Ratio (x) = 0.02969 0.01944
# Poissons Ratio (y) = 0.04491 0.13546
# Poissons Ratio (z) = 0.07567 0.34861
#
# Static dielectric constant tensor:
#      x y z
#    x 1.764030 -0.000010 0.092740 
#    y -0.000010 1.844900 0.000000 
#    z 0.092740 0.000000 1.544350 
# 
# From -- ./inp_files/237228.got.cif
#   From: 2010.05.17/outbox.cif.g08.bks.cpg/sg12_119_cif.got.tgz:237228.got - 2010.06.03 13:09:07.
