data_PCOD9169131
_publ_section_title
;
Structure prediction by ZEFSAII (Michael W. Deem and Ramdas Pophale) SiO2 
 PCOD9169131
Probable space group: C 2/M
;
_chemical_formula_sum "Si O2"
_cell_formula_units_Z 56
_cell_length_a 20.294344
_cell_length_b 7.685321
_cell_length_c 33.855677
_cell_angle_alpha 90.000000
_cell_angle_beta 146.603531
_cell_angle_gamma 90.000000
_cell_volume 2906.498262
_symmetry_space_group_name_H-M "C 2/M"
_symmetry_group_IT_number 12
_symmetry_cell_setting 'monoclinic'
loop_
_space_group_symop_operation_xyz
x,y,z
-x,y,-z
-x,-y,-z
x,-y,z
1/2+x,1/2+y,z
1/2-x,1/2+y,-z
1/2-x,1/2-y,-z
1/2+x,1/2-y,z
loop_
_atom_site_type_symbol
_atom_site_label
_atom_site_fract_x
_atom_site_fract_y
_atom_site_fract_z
Si Si1 0.995066 0.713280 0.191305
Si Si2 0.422800 0.709997 0.499511
Si Si3 0.350168 0.209568 0.807293
Si Si4 0.235032 0.792082 0.038545
Si Si5 0.514595 0.200969 0.050423
Si Si6 0.851941 0.701268 0.348276
Si Si7 0.699644 0.198685 0.346634
O O1 0.998580 0.500000 0.193341
O O2 0.857155 0.765309 0.121232
O O3 0.060539 0.768643 0.183310
O O4 0.076178 0.776450 0.268519
O O5 0.500000 0.769674 0.500000
O O6 0.417769 0.500000 0.495975
O O7 0.506890 0.761150 0.578046
O O8 0.287982 0.775440 0.424136
O O9 0.394628 0.277732 0.871723
O O10 0.217230 0.256663 0.726561
O O11 0.359395 0.000000 0.812871
O O12 0.223100 0.000000 0.037173
O O13 0.250000 0.750000 0.000000
O O14 0.115586 0.705565 0.994824
O O15 0.552663 0.000000 0.063346
O O16 0.500000 0.283420 0.000000
O O17 0.832797 0.500000 0.347825
O O18 0.782662 0.804469 0.348423
O O19 0.673834 0.000000 0.345472
#
# Coordination Sequence:
#
# PCOD9169131 Si02
#       7
#     8   8   8   8   8   8   8
#     4   8  14  26  44  64  86 117 153 190 227 270
#     4   8  13  22  35  50  73 111 150 180 216 268
#     4   9  16  30  46  60  84 118 155 191 230 281
#     4  11  20  32  51  74 100 127 162 201 241 288
#     4  10  21  37  54  71  94 126 163 204 250 293
#     4  10  17  22  33  56  83 111 145 185 226 271
#     4   8  14  25  38  52  77 114 152 183 219 269
#
# _framework density 19.267171999999999
#
# number of rings (size 3 to 8) (size 9 to 14) (size 15 to 20)
#    0.000    2.857    1.429    3.429    0.000    3.429 
#    0.000    0.714    0.000    0.000    0.000    0.000 
#    0.000    1.143    0.000    2.286    0.000    4.714 
#
# Total GULP energy -155877.196538 kJ/mol
# GULP energy per Si atom -5567.042733 kJ/mol
# Density = 1.922332 g / cm^3
# Si number density = 19.267172 Si / 1000 Ang^3
#
#
#
# Elastic Constant Matrix: (Units=GPa)
#
#
# Indices 1 2 3 4 5 6 
#
# 1 27.2838 -7.2704 23.5116 0.0001 -11.4073 -0.0004
# 2 -7.2704 45.5144 -1.7185 0.0003 -3.1468 -0.0011
# 3 23.5116 -1.7185 218.6245 0.0000 -5.3929 0.0001
# 4 0.0001 0.0003 0.0000 6.1170 0.0000 6.8012
# 5 -11.4073 -3.1468 -5.3929 0.0000 14.4580 0.0000
# 6 -0.0004 -0.0011 0.0001 6.8012 0.0000 3.7347
#
#
#
# Elastic Compliance Matrix: (Units=1/GPa)
#
#
# Indices 1 2 3 4 5 6 
#
# 1 0.068690 0.014563 -0.005912 0.000014 0.055160 -0.000014
# 2 0.014563 0.025413 -0.000955 0.000011 0.016665 -0.000011
# 3 -0.005912 -0.000955 0.005129 -0.000001 -0.002959 0.000001
# 4 0.000014 0.000011 -0.000001 -0.159532 0.000011 0.290516
# 5 0.055160 0.016665 -0.002959 0.000011 0.115211 -0.000011
# 6 -0.000014 -0.000011 0.000001 0.290516 -0.000011 -0.261291
#
#
# Mechanical properties :
#
#
# Convention : Reuss Voigt Hill
#
# Bulk Modulus (GPa) = 8.72420 35.60757 22.16588
# Shear Modulus (GPa) = -27.23866 23.32195 -1.95836
#
# Velocity S-wave (km/s) = -3.76404 3.48293 -1.00927
# Velocity P-wave (km/s) = 3.78852 5.89028 3.18925
#
# Compressibility (1/GPa) = 0.11462364
#
# Stress axis : x y z
#
# Youngs Moduli (GPa) = 14.55825 39.34925 194.95685
#
# Poissons Ratio (x) = -0.57304 1.15258
# Poissons Ratio (y) = -0.21201 0.18624
# Poissons Ratio (z) = 0.08607 0.03759
#
# Static dielectric constant tensor:
#      x y z
#    x 1.615330 0.000000 -0.007570 
#    y 0.000000 1.713970 0.000000 
#    z -0.007570 0.000000 1.780910 
# 
# From -- ./inp_files/377750.got.cif
#   From: 2010.05.17/outbox.cif.g08.bks.cpg/sg12_189_cif.got.tgz:377750.got - 2010.06.03 13:09:07.
