data_PCOD9169111
_publ_section_title
;
Structure prediction by ZEFSAII (Michael W. Deem and Ramdas Pophale) SiO2 
 PCOD9169111
Probable space group: C 2/M
;
_chemical_formula_sum "Si O2"
_cell_formula_units_Z 48
_cell_length_a 13.783043
_cell_length_b 16.479910
_cell_length_c 12.166191
_cell_angle_alpha 90.000000
_cell_angle_beta 122.217845
_cell_angle_gamma 90.000000
_cell_volume 2337.969717
_symmetry_space_group_name_H-M "C 2/M"
_symmetry_group_IT_number 12
_symmetry_cell_setting 'monoclinic'
loop_
_space_group_symop_operation_xyz
x,y,z
-x,y,-z
-x,-y,-z
x,-y,z
1/2+x,1/2+y,z
1/2-x,1/2+y,-z
1/2-x,1/2-y,-z
1/2+x,1/2-y,z
loop_
_atom_site_type_symbol
_atom_site_label
_atom_site_fract_x
_atom_site_fract_y
_atom_site_fract_z
Si Si1 0.577258 0.085687 0.937250
Si Si2 0.245879 0.272313 0.733905
Si Si3 0.017758 0.792771 0.686339
Si Si4 0.890260 0.233751 0.015138
Si Si5 0.816629 0.092746 0.597752
Si Si6 0.120868 0.645608 0.324665
O O1 0.485875 0.094563 0.783451
O O2 0.641793 0.000000 0.967470
O O3 0.500000 0.082141 0.000000
O O4 0.639970 0.171298 0.983968
O O5 0.288260 0.301257 0.879504
O O6 0.270706 0.345421 0.664442
O O7 0.325441 0.197443 0.742743
O O8 0.120478 0.232915 0.668509
O O9 0.936598 0.870767 0.624751
O O10 0.931140 0.716456 0.631084
O O11 0.071550 0.798579 0.842803
O O12 0.000000 0.227327 0.000000
O O13 0.720365 0.098106 0.445295
O O14 0.829274 0.000000 0.642812
#
# Coordination Sequence:
#
# PCOD9169111 Si02
#       6
#     8   8   8   8   8   8
#     4   9  15  28  52  79 106 137 180 241 299 342
#     4  11  20  38  62  86 116 162 205 241 297 368
#     4  10  21  37  63  87 117 159 205 242 296 370
#     4  10  16  35  59  87 113 153 201 246 299 363
#     4  11  24  41  59  87 125 161 203 252 298 348
#     4  10  20  36  57  82 115 157 201 242 300 362
#
# _framework density 20.530633000000002
#
# number of rings (size 3 to 8) (size 9 to 14) (size 15 to 20)
#    0.000    1.833    6.667    3.000    0.000    2.667 
#    0.000   10.000    0.000    0.000    0.000    0.000 
#    0.000    0.000    0.000    0.000    0.000    0.000 
#
# Total GULP energy -133767.000348 kJ/mol
# GULP energy per Si atom -5573.625014 kJ/mol
# Density = 2.048390 g / cm^3
# Si number density = 20.530633 Si / 1000 Ang^3
#
#
#
# Elastic Constant Matrix: (Units=GPa)
#
#
# Indices 1 2 3 4 5 6 
#
# 1 92.1090 3.7507 -6.0523 0.0000 11.2823 0.0000
# 2 3.7507 68.0913 22.0645 0.0000 -4.2275 0.0000
# 3 -6.0523 22.0645 77.1859 0.0000 1.0358 0.0000
# 4 0.0000 0.0000 0.0000 17.2023 0.0000 0.6491
# 5 11.2823 -4.2275 1.0358 0.0000 22.2453 0.0000
# 6 0.0000 0.0000 0.0000 0.6491 0.0000 9.3635
#
#
#
# Elastic Compliance Matrix: (Units=1/GPa)
#
#
# Indices 1 2 3 4 5 6 
#
# 1 0.011789 -0.001509 0.001441 0.000000 -0.006333 0.000000
# 2 -0.001509 0.016623 -0.004926 0.000000 0.004154 0.000000
# 3 0.001441 -0.004926 0.014508 0.000000 -0.002342 0.000000
# 4 0.000000 0.000000 0.000000 0.058284 0.000000 -0.004040
# 5 -0.006333 0.004154 -0.002342 0.000000 0.049064 0.000000
# 6 0.000000 0.000000 0.000000 -0.004040 0.000000 0.107078
#
#
# Mechanical properties :
#
#
# Convention : Reuss Voigt Hill
#
# Bulk Modulus (GPa) = 30.36656 30.76798 30.56727
# Shear Modulus (GPa) = 17.96537 24.27043 21.11790
#
# Velocity S-wave (km/s) = 2.96134 3.44198 3.21067
# Velocity P-wave (km/s) = 5.14934 5.55115 5.35401
#
# Compressibility (1/GPa) = 0.03293096
#
# Stress axis : x y z
#
# Youngs Moduli (GPa) = 84.82814 60.15584 68.92591
#
# Poissons Ratio (x) = 0.09080 -0.09931
# Poissons Ratio (y) = 0.12804 0.33954
# Poissons Ratio (z) = -0.12222 0.29633
#
# Static dielectric constant tensor:
#      x y z
#    x 1.793240 0.000000 -0.006150 
#    y 0.000000 1.734110 0.000000 
#    z -0.006150 0.000000 1.782020 
# 
# From -- ./inp_files/214999.got.cif
#   From: 2010.05.17/outbox.cif.g08.bks.cpg/sg12_108_cif.got.tgz:214999.got - 2010.06.03 13:09:07.
