data_PCOD9169846
_publ_section_title
;
Structure prediction by ZEFSAII (Michael W. Deem and Ramdas Pophale) SiO2 
 PCOD9169846
Probable space group: C 2/M
;
_chemical_formula_sum "Si O2"
_cell_formula_units_Z 32
_cell_length_a 28.050221
_cell_length_b 9.769269
_cell_length_c 7.507339
_cell_angle_alpha 90.000000
_cell_angle_beta 44.381970
_cell_angle_gamma 90.000000
_cell_volume 1438.910893
_symmetry_space_group_name_H-M "C 2/M"
_symmetry_group_IT_number 12
_symmetry_cell_setting 'monoclinic'
loop_
_space_group_symop_operation_xyz
x,y,z
-x,y,-z
-x,-y,-z
x,-y,z
1/2+x,1/2+y,z
1/2-x,1/2+y,-z
1/2-x,1/2-y,-z
1/2+x,1/2-y,z
loop_
_atom_site_type_symbol
_atom_site_label
_atom_site_fract_x
_atom_site_fract_y
_atom_site_fract_z
Si Si1 0.330066 0.657642 0.723048
Si Si2 0.281559 0.847633 0.565555
Si Si3 0.928452 0.159597 0.754719
Si Si4 0.076660 0.752938 0.832070
O O1 0.304947 0.500000 0.800127
O O2 0.281115 0.765678 0.753350
O O3 0.364083 0.711646 0.814362
O O4 0.394807 0.658163 0.409599
O O5 0.250000 0.750000 0.500000
O O6 0.251389 0.000000 0.648411
O O7 0.362656 0.856045 0.312482
O O8 0.922740 0.171507 0.980627
O O9 0.000000 0.223129 0.500000
O O10 0.929596 0.000000 0.701911
O O11 0.000000 0.705393 0.000000
#
# Coordination Sequence:
#
# PCOD9169846 Si02
#       4
#     8   8   8   8
#     4   9  19  33  55  84 116 148 190 235 280 335
#     4  10  22  40  62  84 114 153 195 238 291 349
#     4  10  17  28  51  87 121 152 191 234 282 338
#     4  10  20  34  58  86 122 152 189 235 291 335
#
# _framework density 22.239041
#
# number of rings (size 3 to 8) (size 9 to 14) (size 15 to 20)
#    1.500    0.750    2.500    1.500    0.000    1.500 
#    0.000    2.500    0.000    3.000    0.000    0.000 
#    0.000    0.000    0.000    0.000    0.000    0.000 
#
# Total GULP energy -89132.952411 kJ/mol
# GULP energy per Si atom -5570.809526 kJ/mol
# Density = 2.218842 g / cm^3
# Si number density = 22.239041 Si / 1000 Ang^3
#
#
#
# Elastic Constant Matrix: (Units=GPa)
#
#
# Indices 1 2 3 4 5 6 
#
# 1 183.7810 51.9475 33.4704 0.0000 6.0702 0.0000
# 2 51.9475 110.8492 -1.4312 0.0000 -4.3066 0.0000
# 3 33.4704 -1.4312 69.3309 0.0000 -1.7651 0.0000
# 4 0.0000 0.0000 0.0000 9.2036 0.0000 -1.6764
# 5 6.0702 -4.3066 -1.7651 0.0000 46.1837 0.0000
# 6 0.0000 0.0000 0.0000 -1.6764 0.0000 -15.4404
#
#
#
# Elastic Compliance Matrix: (Units=1/GPa)
#
#
# Indices 1 2 3 4 5 6 
#
# 1 0.007099 -0.003426 -0.003533 0.000000 -0.001388 0.000000
# 2 -0.003426 0.010711 0.001914 0.000000 0.001522 0.000000
# 3 -0.003533 0.001914 0.016201 0.000000 0.001262 0.000000
# 4 0.000000 0.000000 0.000000 0.106546 0.000000 -0.011568
# 5 -0.001388 0.001522 0.001262 0.000000 0.022025 0.000000
# 6 0.000000 0.000000 0.000000 -0.011568 0.000000 -0.063509
#
#
# Mechanical properties :
#
#
# Convention : Reuss Voigt Hill
#
# Bulk Modulus (GPa) = 41.80675 59.10385 50.45530
# Shear Modulus (GPa) = 42.68509 26.65435 34.66972
#
# Velocity S-wave (km/s) = 4.38582 3.46575 3.95265
# Velocity P-wave (km/s) = 6.66985 6.53066 6.60062
#
# Compressibility (1/GPa) = 0.02391958
#
# Stress axis : x y z
#
# Youngs Moduli (GPa) = 140.86358 93.36347 61.72486
#
# Poissons Ratio (x) = 0.31990 0.21809
# Poissons Ratio (y) = 0.48265 -0.11814
# Poissons Ratio (z) = 0.49770 -0.17870
#
# Static dielectric constant tensor:
#      x y z
#    x 1.836540 0.000000 -0.063290 
#    y 0.000000 1.893190 0.000000 
#    z -0.063290 0.000000 1.951040 
# 
# From -- ./inp_files/100572.got.cif
#   From: 2010.05.17/outbox.cif.g08.bks.cpg/sg12_51_cif.got.tgz:100572.got - 2010.06.03 13:09:07.
