data_PCOD9169387
_publ_section_title
;
Structure prediction by ZEFSAII (Michael W. Deem and Ramdas Pophale) SiO2 
 PCOD9169387
Probable space group: C 2/M
;
_chemical_formula_sum "Si O2"
_cell_formula_units_Z 64
_cell_length_a 19.389801
_cell_length_b 9.352483
_cell_length_c 21.963088
_cell_angle_alpha 90.000000
_cell_angle_beta 69.161766
_cell_angle_gamma 90.000000
_cell_volume 3722.323506
_symmetry_space_group_name_H-M "C 2/M"
_symmetry_group_IT_number 12
_symmetry_cell_setting 'monoclinic'
loop_
_space_group_symop_operation_xyz
x,y,z
-x,y,-z
-x,-y,-z
x,-y,z
1/2+x,1/2+y,z
1/2-x,1/2+y,-z
1/2-x,1/2-y,-z
1/2+x,1/2-y,z
loop_
_atom_site_type_symbol
_atom_site_label
_atom_site_fract_x
_atom_site_fract_y
_atom_site_fract_z
Si Si1 0.159489 0.669041 0.328488
Si Si2 0.829959 0.169520 0.295189
Si Si3 0.920116 0.832118 0.897627
Si Si4 0.597253 0.332394 0.856018
Si Si5 0.402560 0.832240 0.781095
Si Si6 0.410355 0.835500 0.021751
Si Si7 0.055281 0.669240 0.660250
Si Si8 0.479023 0.669536 0.576732
O O1 0.140274 0.500000 0.341049
O O2 0.242491 0.690954 0.324169
O O3 0.150830 0.700313 0.259050
O O4 0.100580 0.763430 0.382830
O O5 0.859403 0.207156 0.218565
O O6 0.874363 0.261481 0.329872
O O7 0.845452 0.000000 0.299197
O O8 0.892406 0.762135 0.843917
O O9 0.009629 0.816113 0.870700
O O10 0.903574 0.000000 0.905725
O O11 0.891805 0.750974 0.966523
O O12 0.610393 0.500000 0.864953
O O13 0.617880 0.239996 0.908250
O O14 0.484690 0.810203 0.727326
O O15 0.395403 0.000000 0.798999
O O16 0.387337 0.000000 0.024720
O O17 0.500000 0.832825 0.000000
O O18 0.063527 0.500000 0.647896
O O19 0.034727 0.749632 0.604577
O O20 0.500000 0.691913 0.500000
O O21 0.479394 0.500000 0.589251
#
# Coordination Sequence:
#
# PCOD9169387 Si02
#       8
#     8   8   8   8   8   8   8   8
#     4   9  20  36  55  80 109 141 173 211 259 311
#     4  10  19  34  54  78 110 142 173 212 262 312
#     4  10  17  26  44  69  95 127 169 215 262 309
#     4   9  17  28  44  68  98 132 167 208 258 310
#     4   9  17  30  47  71 101 132 169 213 259 305
#     4   9  17  27  40  62  94 130 166 212 263 308
#     4  10  20  33  54  82 109 138 175 215 256 305
#     4  10  21  38  60  83 108 139 175 214 255 302
#
# _framework density 17.193562
#
# number of rings (size 3 to 8) (size 9 to 14) (size 15 to 20)
#    0.000    2.500    1.250    2.250    0.000    6.000 
#    0.000    0.625    0.000    0.750    0.000    0.000 
#    0.000    0.000    0.000    0.000    0.000    0.000 
#
# Total GULP energy -178505.715585 kJ/mol
# GULP energy per Si atom -5578.303612 kJ/mol
# Density = 1.715443 g / cm^3
# Si number density = 17.193562 Si / 1000 Ang^3
#
#
#
# Elastic Constant Matrix: (Units=GPa)
#
#
# Indices 1 2 3 4 5 6 
#
# 1 69.2733 55.9554 45.5527 0.0000 16.9133 0.0000
# 2 55.9554 111.8253 91.2022 0.0000 18.5407 0.0000
# 3 45.5527 91.2022 120.7946 0.0000 18.8821 0.0000
# 4 0.0000 0.0000 0.0000 31.2746 0.0000 6.7175
# 5 16.9133 18.5407 18.8821 0.0000 15.1325 0.0000
# 6 0.0000 0.0000 0.0000 6.7175 0.0000 19.9736
#
#
#
# Elastic Compliance Matrix: (Units=1/GPa)
#
#
# Indices 1 2 3 4 5 6 
#
# 1 0.027545 -0.012037 0.001501 0.000000 -0.017910 0.000000
# 2 -0.012037 0.029381 -0.017541 0.000000 -0.000657 0.000000
# 3 0.001501 -0.017541 0.022186 0.000000 -0.007870 0.000000
# 4 0.000000 0.000000 0.000000 0.034464 0.000000 -0.011591
# 5 -0.017910 -0.000657 -0.007870 0.000000 0.096726 0.000000
# 6 0.000000 0.000000 0.000000 -0.011591 0.000000 0.053964
#
#
# Mechanical properties :
#
#
# Convention : Reuss Voigt Hill
#
# Bulk Modulus (GPa) = 43.56007 76.36822 59.96414
# Shear Modulus (GPa) = 15.24049 20.55498 17.89774
#
# Velocity S-wave (km/s) = 2.98049 3.46136 3.22988
# Velocity P-wave (km/s) = 6.10201 7.77739 6.99008
#
# Compressibility (1/GPa) = 0.02295681
#
# Stress axis : x y z
#
# Youngs Moduli (GPa) = 36.30470 34.03613 45.07251
#
# Poissons Ratio (x) = 0.40970 -0.06764
# Poissons Ratio (y) = 0.43701 0.79061
# Poissons Ratio (z) = -0.05448 0.59702
#
# Static dielectric constant tensor:
#      x y z
#    x 1.572140 0.000000 0.002580 
#    y 0.000000 1.574600 0.000000 
#    z 0.002580 0.000000 1.559790 
# 
# From -- ./inp_files/319117.got.cif
#   From: 2010.05.17/outbox.cif.g08.bks.cpg/sg12_160_cif.got.tgz:319117.got - 2010.06.03 13:09:07.
