data_PCOD9169591
_publ_section_title
;
Structure prediction by ZEFSAII (Michael W. Deem and Ramdas Pophale) SiO2 
 PCOD9169591
Probable space group: C 2/M
;
_chemical_formula_sum "Si O2"
_cell_formula_units_Z 64
_cell_length_a 22.493492
_cell_length_b 7.429204
_cell_length_c 15.529733
_cell_angle_alpha 90.000000
_cell_angle_beta 112.430228
_cell_angle_gamma 90.000000
_cell_volume 2398.817378
_symmetry_space_group_name_H-M "C 2/M"
_symmetry_group_IT_number 12
_symmetry_cell_setting 'monoclinic'
loop_
_space_group_symop_operation_xyz
x,y,z
-x,y,-z
-x,-y,-z
x,-y,z
1/2+x,1/2+y,z
1/2-x,1/2+y,-z
1/2-x,1/2-y,-z
1/2+x,1/2-y,z
loop_
_atom_site_type_symbol
_atom_site_label
_atom_site_fract_x
_atom_site_fract_y
_atom_site_fract_z
Si Si1 0.921852 0.282673 0.363120
Si Si2 0.089683 0.704110 0.011903
Si Si3 0.045892 0.707105 0.353872
Si Si4 0.274141 0.217645 0.697154
Si Si5 0.921243 0.278966 0.807473
Si Si6 0.236311 0.209214 0.116767
Si Si7 0.835256 0.203230 0.476720
Si Si8 0.372900 0.219794 0.145318
O O1 0.917608 0.500000 0.375026
O O2 0.878433 0.202142 0.413550
O O3 0.898140 0.236133 0.253708
O O4 0.996467 0.223348 0.397748
O O5 0.065222 0.500000 0.991402
O O6 0.063043 0.782180 0.086892
O O7 0.167480 0.697021 0.069841
O O8 0.087008 0.785155 0.915095
O O9 0.026323 0.500000 0.332640
O O10 0.040915 0.784637 0.255501
O O11 0.118803 0.708458 0.427609
O O12 0.347860 0.274137 0.745349
O O13 0.244361 0.276683 0.771719
O O14 0.232162 0.282923 0.593339
O O15 0.272477 0.000000 0.693262
O O16 0.922881 0.500000 0.810988
O O17 0.298188 0.278427 0.099444
O O18 0.226053 0.000000 0.091850
O O19 0.824967 0.000000 0.499949
O O20 0.372581 0.000000 0.140785
#
# Coordination Sequence:
#
# PCOD9169591 Si02
#       8
#     8   8   8   8   8   8   8   8
#     4  10  20  36  54  75 104 134 168 209 252 299
#     4   9  17  31  50  71 102 138 167 202 248 295
#     4  10  21  36  55  74  97 136 175 209 251 298
#     4   9  18  33  52  74 103 135 164 203 256 305
#     4   8  16  33  53  73 100 134 172 205 242 297
#     4  10  17  27  46  74 106 134 165 203 247 297
#     4  11  22  35  54  79 103 129 166 211 260 307
#     4   9  17  29  48  74 102 133 166 205 249 294
#
# _framework density 26.679811999999998
#
# number of rings (size 3 to 8) (size 9 to 14) (size 15 to 20)
#    0.000    2.500    1.250    2.250    0.000    3.000 
#    0.000    4.375    0.000    3.750    0.000    0.000 
#    0.000    6.000    0.000    0.000    0.000    0.000 
#
# Total GULP energy -178946.290374 kJ/mol
# GULP energy per Si atom -5592.071574 kJ/mol
# Density = 2.661909 g / cm^3
# Si number density = 26.679812 Si / 1000 Ang^3
#
#
#
# Elastic Constant Matrix: (Units=GPa)
#
#
# Indices 1 2 3 4 5 6 
#
# 1 84.4504 9.0150 42.0579 0.0000 1.4928 0.0000
# 2 9.0150 95.1679 -1.1111 0.0000 -3.0633 0.0000
# 3 42.0579 -1.1111 147.3649 0.0000 -15.5938 0.0000
# 4 0.0000 0.0000 0.0000 -5.9465 0.0000 23.9948
# 5 1.4928 -3.0633 -15.5938 0.0000 62.0485 0.0000
# 6 0.0000 0.0000 0.0000 23.9948 0.0000 -48.1384
#
#
#
# Elastic Compliance Matrix: (Units=1/GPa)
#
#
# Indices 1 2 3 4 5 6 
#
# 1 0.014108 -0.001432 -0.004192 0.000000 -0.001464 0.000000
# 2 -0.001432 0.010673 0.000564 0.000000 0.000703 0.000000
# 3 -0.004192 0.000564 0.008219 0.000000 0.002194 0.000000
# 4 0.000000 0.000000 0.000000 0.166282 0.000000 0.082884
# 5 -0.001464 0.000703 0.002194 0.000000 0.016738 0.000000
# 6 0.000000 0.000000 0.000000 0.082884 0.000000 0.020540
#
#
# Mechanical properties :
#
#
# Convention : Reuss Voigt Hill
#
# Bulk Modulus (GPa) = 43.71103 47.43410 45.57257
# Shear Modulus (GPa) = 19.66130 20.06082 19.86106
#
# Velocity S-wave (km/s) = 2.71760 2.74507 2.73137
# Velocity P-wave (km/s) = 5.12506 5.27872 5.20246
#
# Compressibility (1/GPa) = 0.02287752
#
# Stress axis : x y z
#
# Youngs Moduli (GPa) = 70.88293 93.69746 121.67348
#
# Poissons Ratio (x) = 0.13422 0.51006
# Poissons Ratio (y) = 0.10154 -0.06858
# Poissons Ratio (z) = 0.29714 -0.05282
#
# Static dielectric constant tensor:
#      x y z
#    x 2.118020 0.000000 0.011240 
#    y 0.000000 2.039000 0.000000 
#    z 0.011240 0.000000 2.102850 
# 
# From -- ./inp_files/244090.got.cif
#   From: 2010.05.17/outbox.cif.g08.bks.cpg/sg12_123_cif.got.tgz:244090.got - 2010.06.03 13:09:07.
