data_PCOD9169486
_publ_section_title
;
Structure prediction by ZEFSAII (Michael W. Deem and Ramdas Pophale) SiO2 
 PCOD9169486
Probable space group: C 2/M
;
_chemical_formula_sum "Si O2"
_cell_formula_units_Z 64
_cell_length_a 31.469483
_cell_length_b 7.427484
_cell_length_c 32.586102
_cell_angle_alpha 90.000000
_cell_angle_beta 152.333143
_cell_angle_gamma 90.000000
_cell_volume 3536.635567
_symmetry_space_group_name_H-M "C 2/M"
_symmetry_group_IT_number 12
_symmetry_cell_setting 'monoclinic'
loop_
_space_group_symop_operation_xyz
x,y,z
-x,y,-z
-x,-y,-z
x,-y,z
1/2+x,1/2+y,z
1/2-x,1/2+y,-z
1/2-x,1/2-y,-z
1/2+x,1/2-y,z
loop_
_atom_site_type_symbol
_atom_site_label
_atom_site_fract_x
_atom_site_fract_y
_atom_site_fract_z
Si Si1 0.306671 0.718399 0.870917
Si Si2 0.622633 0.711860 0.927296
Si Si3 0.333914 0.281314 0.124933
Si Si4 0.028979 0.779547 0.927650
Si Si5 0.109038 0.208500 0.739064
Si Si6 0.354755 0.716774 0.384501
Si Si7 0.484120 0.279802 0.420443
Si Si8 0.155858 0.210474 0.188904
O O1 0.301320 0.500000 0.866103
O O2 0.210186 0.784759 0.805676
O O3 0.325863 0.783980 0.841123
O O4 0.389625 0.770474 0.971656
O O5 0.603182 0.500000 0.906969
O O6 0.623505 0.784366 0.881629
O O7 0.555621 0.784609 0.904916
O O8 0.726753 0.730952 0.032614
O O9 0.336103 0.500000 0.126954
O O10 0.381413 0.214416 0.207091
O O11 0.932037 0.716443 0.862449
O O12 0.028206 0.000000 0.925597
O O13 0.041752 0.285574 0.646891
O O14 0.082650 0.000000 0.721733
O O15 0.355674 0.500000 0.385026
O O16 0.419186 0.775220 0.477244
O O17 0.406159 0.775486 0.386606
O O18 0.250193 0.774759 0.294405
O O19 0.482555 0.500000 0.418492
O O20 0.135546 0.000000 0.165018
#
# Coordination Sequence:
#
# PCOD9169486 Si02
#       8
#     8   8   8   8   8   8   8   8
#     4  10  18  28  41  59  83 113 145 168 192 237
#     4   9  16  28  43  59  81 111 140 164 199 246
#     4   9  17  26  41  64  85 103 132 174 207 235
#     4   9  17  29  43  57  81 117 146 165 195 242
#     4  10  17  27  43  63  86 109 133 167 208 243
#     4   9  16  29  45  60  78 107 141 168 204 252
#     4   8  15  27  44  60  80 109 136 163 205 256
#     4  10  19  29  42  61  83 109 143 178 202 228
#
# _framework density 18.096295999999999
#
# number of rings (size 3 to 8) (size 9 to 14) (size 15 to 20)
#    0.000    2.750    2.500    1.125    0.000    1.500 
#    0.000    3.125    0.000    1.500    0.000    0.875 
#    0.000    0.000    0.000    0.000    0.000    0.000 
#
# Total GULP energy -178460.640185 kJ/mol
# GULP energy per Si atom -5576.895006 kJ/mol
# Density = 1.805511 g / cm^3
# Si number density = 18.096296 Si / 1000 Ang^3
#
#
#
# Elastic Constant Matrix: (Units=GPa)
#
#
# Indices 1 2 3 4 5 6 
#
# 1 112.2754 0.2129 64.3504 0.0013 -24.1342 0.0002
# 2 0.2129 54.8942 -9.5057 0.0041 -2.6290 0.0088
# 3 64.3504 -9.5057 93.8780 -0.0016 -27.0521 0.0003
# 4 0.0013 0.0041 -0.0016 13.5630 -0.0004 3.9223
# 5 -24.1342 -2.6290 -27.0521 -0.0004 32.6080 0.0002
# 6 0.0002 0.0088 0.0003 3.9223 0.0002 5.8670
#
#
#
# Elastic Compliance Matrix: (Units=1/GPa)
#
#
# Indices 1 2 3 4 5 6 
#
# 1 0.015077 -0.001577 -0.009614 -0.000003 0.003056 0.000004
# 2 -0.001577 0.019115 0.004106 0.000004 0.003780 -0.000032
# 3 -0.009614 0.004106 0.020636 0.000006 0.010336 -0.000011
# 4 -0.000003 0.000004 0.000006 0.091401 0.000004 -0.061105
# 5 0.003056 0.003780 0.010336 0.000004 0.041809 -0.000010
# 6 0.000004 -0.000032 -0.000011 -0.061105 -0.000010 0.211295
#
#
# Mechanical properties :
#
#
# Convention : Reuss Voigt Hill
#
# Bulk Modulus (GPa) = 24.59534 41.24031 32.91782
# Shear Modulus (GPa) = 11.70810 24.14028 17.92419
#
# Velocity S-wave (km/s) = 2.54636 3.65635 3.15062
# Velocity P-wave (km/s) = 4.71870 6.37683 5.60937
#
# Compressibility (1/GPa) = 0.04065810
#
# Stress axis : x y z
#
# Youngs Moduli (GPa) = 66.32833 52.31502 48.45914
#
# Poissons Ratio (x) = 0.08249 0.46586
# Poissons Ratio (y) = 0.10459 -0.19896
# Poissons Ratio (z) = 0.63765 -0.21479
#
# Static dielectric constant tensor:
#      x y z
#    x 1.627970 0.000000 -0.034250 
#    y 0.000000 1.702100 0.000000 
#    z -0.034250 0.000000 1.608700 
# 
# From -- ./inp_files/248341.got.cif
#   From: 2010.05.17/outbox.cif.g08.bks.cpg/sg12_125_cif.got.tgz:248341.got - 2010.06.03 13:09:07.
