data_PCOD9169805
_publ_section_title
;
Structure prediction by ZEFSAII (Michael W. Deem and Ramdas Pophale) SiO2 
 PCOD9169805
Probable space group: C 2/M
;
_chemical_formula_sum "Si O2"
_cell_formula_units_Z 36
_cell_length_a 10.205645
_cell_length_b 15.102020
_cell_length_c 10.499573
_cell_angle_alpha 90.000000
_cell_angle_beta 75.286801
_cell_angle_gamma 90.000000
_cell_volume 1565.191880
_symmetry_space_group_name_H-M "C 2/M"
_symmetry_group_IT_number 12
_symmetry_cell_setting 'monoclinic'
loop_
_space_group_symop_operation_xyz
x,y,z
-x,y,-z
-x,-y,-z
x,-y,z
1/2+x,1/2+y,z
1/2-x,1/2+y,-z
1/2-x,1/2-y,-z
1/2+x,1/2-y,z
loop_
_atom_site_type_symbol
_atom_site_label
_atom_site_fract_x
_atom_site_fract_y
_atom_site_fract_z
Si Si1 0.592064 0.099429 0.813582
Si Si2 0.001572 0.096624 0.323764
Si Si3 0.337093 0.598646 0.958471
Si Si4 0.500000 0.750736 0.000000
Si Si5 0.216745 0.843588 0.450472
O O1 0.711138 0.102454 0.891934
O O2 0.501190 0.182409 0.878657
O O3 0.659978 0.114884 0.659360
O O4 0.531934 0.000000 0.834409
O O5 0.851731 0.104292 0.415145
O O6 0.031834 0.101416 0.168489
O O7 0.097512 0.164258 0.374283
O O8 0.057158 0.000000 0.349488
O O9 0.332164 0.500000 0.019776
O O10 0.367271 0.687046 0.030158
O O11 0.250000 0.750000 0.500000
#
# Coordination Sequence:
#
# PCOD9169805 Si02
#       5
#     8   8   8   4   8
#     4  10  21  35  49  71 103 136 167 202 243 294
#     4   9  17  32  51  72  97 125 156 197 247 296
#     4   9  19  34  52  75 102 128 162 209 253 289
#     4  12  20  32  52  76  98 134 174 204 238 290
#     4  10  17  28  49  75  94 118 159 206 243 283
#
# _framework density 23.000374999999998
#
# number of rings (size 3 to 8) (size 9 to 14) (size 15 to 20)
#    0.000    2.222    0.000    6.667    0.000    0.000 
#    0.000    0.000    0.000    0.000    0.000  101.111 
#    0.000    0.000    0.000    0.000    0.000    0.000 
#
# Total GULP energy -100298.418055 kJ/mol
# GULP energy per Si atom -5572.134336 kJ/mol
# Density = 2.294802 g / cm^3
# Si number density = 23.000375 Si / 1000 Ang^3
#
#
#
# Elastic Constant Matrix: (Units=GPa)
#
#
# Indices 1 2 3 4 5 6 
#
# 1 32.3063 31.9423 -3.6357 0.0000 2.9457 0.0000
# 2 31.9423 166.2907 15.1804 0.0000 7.7626 0.0000
# 3 -3.6357 15.1804 48.6158 0.0000 -26.6997 0.0000
# 4 0.0000 0.0000 0.0000 32.4142 0.0000 3.2062
# 5 2.9457 7.7626 -26.6997 0.0000 28.1331 0.0000
# 6 0.0000 0.0000 0.0000 3.2062 0.0000 32.0170
#
#
#
# Elastic Compliance Matrix: (Units=1/GPa)
#
#
# Indices 1 2 3 4 5 6 
#
# 1 0.040327 -0.009052 0.010224 0.000000 0.007978 0.000000
# 2 -0.009052 0.009059 -0.009102 0.000000 -0.010190 0.000000
# 3 0.010224 -0.009102 0.052148 0.000000 0.050932 0.000000
# 4 0.000000 0.000000 0.000000 0.031159 0.000000 -0.003120
# 5 0.007978 -0.010190 0.050932 0.000000 0.085858 0.000000
# 6 0.000000 0.000000 0.000000 -0.003120 0.000000 0.031546
#
#
# Mechanical properties :
#
#
# Convention : Reuss Voigt Hill
#
# Bulk Modulus (GPa) = 11.67219 37.13187 24.40203
# Shear Modulus (GPa) = 16.97706 32.09458 24.53582
#
# Velocity S-wave (km/s) = 2.71979 3.73955 3.26967
# Velocity P-wave (km/s) = 3.86637 5.90125 4.98866
#
# Compressibility (1/GPa) = 0.08567370
#
# Stress axis : x y z
#
# Youngs Moduli (GPa) = 24.79731 110.38826 19.17630
#
# Poissons Ratio (x) = 0.99924 -0.19606
# Poissons Ratio (y) = 0.22447 0.17454
# Poissons Ratio (z) = -0.25353 1.00475
#
# Static dielectric constant tensor:
#      x y z
#    x 1.908000 0.000000 -0.040470 
#    y 0.000000 1.983590 0.000000 
#    z -0.040470 0.000000 1.930550 
# 
# From -- ./inp_files/129027.got.cif
#   From: 2010.05.17/outbox.cif.g08.bks.cpg/sg12_65_cif.got.tgz:129027.got - 2010.06.03 13:09:07.
