data_PCOD9169156
_publ_section_title
;
Structure prediction by ZEFSAII (Michael W. Deem and Ramdas Pophale) SiO2 
 PCOD9169156
Probable space group: C 2/M
;
_chemical_formula_sum "Si O2"
_cell_formula_units_Z 64
_cell_length_a 20.519752
_cell_length_b 9.222658
_cell_length_c 24.738978
_cell_angle_alpha 90.000000
_cell_angle_beta 123.060913
_cell_angle_gamma 90.000000
_cell_volume 3923.748654
_symmetry_space_group_name_H-M "C 2/M"
_symmetry_group_IT_number 12
_symmetry_cell_setting 'monoclinic'
loop_
_space_group_symop_operation_xyz
x,y,z
-x,y,-z
-x,-y,-z
x,-y,z
1/2+x,1/2+y,z
1/2-x,1/2+y,-z
1/2-x,1/2-y,-z
1/2+x,1/2-y,z
loop_
_atom_site_type_symbol
_atom_site_label
_atom_site_fract_x
_atom_site_fract_y
_atom_site_fract_z
Si Si1 0.713034 0.667183 0.565290
Si Si2 0.909436 0.827689 0.950243
Si Si3 0.039997 0.330896 0.842715
Si Si4 0.628370 0.828430 0.175934
Si Si5 0.799739 0.172921 0.694141
Si Si6 0.869209 0.333953 0.560865
Si Si7 0.557393 0.827103 0.299838
Si Si8 0.668166 0.328386 0.968854
O O1 0.700175 0.500000 0.573483
O O2 0.730732 0.761543 0.626344
O O3 0.791664 0.673000 0.563776
O O4 0.646186 0.730745 0.496508
O O5 0.874765 0.738005 0.885021
O O6 0.905961 0.000000 0.936156
O O7 0.865707 0.801241 0.986569
O O8 0.000000 0.789592 0.000000
O O9 0.061219 0.500000 0.858799
O O10 0.106030 0.232684 0.898007
O O11 0.958273 0.308190 0.837506
O O12 0.019516 0.304237 0.770415
O O13 0.688697 0.745503 0.242115
O O14 0.643903 0.000000 0.182980
O O15 0.877169 0.226338 0.697378
O O16 0.796056 0.000000 0.695413
O O17 0.876220 0.500000 0.545486
O O18 0.938581 0.300428 0.634293
O O19 0.578185 0.000000 0.301594
O O20 0.676860 0.500000 0.965950
O O21 0.750000 0.250000 0.000000
#
# Coordination Sequence:
#
# PCOD9169156 Si02
#       8
#     8   8   8   8   8   8   8   8
#     4   9  15  22  31  45  71 105 144 185 225 270
#     4  10  20  35  53  74  98 122 156 200 243 282
#     4   9  17  30  47  67  91 119 153 192 237 284
#     4  10  19  30  47  69  92 118 152 194 237 283
#     4  10  17  24  36  54  79 111 147 186 230 276
#     4   8  13  21  32  47  70 102 142 182 223 269
#     4   8  15  26  38  55  79 108 144 188 230 275
#     4  11  23  37  53  72  98 128 158 197 241 290
#
# _framework density 16.310932999999999
#
# number of rings (size 3 to 8) (size 9 to 14) (size 15 to 20)
#    0.000    2.625    1.250    3.750    0.000    6.250 
#    0.000    0.000    0.000    0.000    0.000    0.000 
#    0.000    0.000    0.000    1.125    0.000   23.000 
#
# Total GULP energy -178227.792434 kJ/mol
# GULP energy per Si atom -5569.618514 kJ/mol
# Density = 1.627381 g / cm^3
# Si number density = 16.310933 Si / 1000 Ang^3
#
#
#
# Elastic Constant Matrix: (Units=GPa)
#
#
# Indices 1 2 3 4 5 6 
#
# 1 30.9285 32.4914 29.6485 0.0000 2.1153 0.0000
# 2 32.4914 108.7411 101.4860 0.0000 0.1088 0.0000
# 3 29.6485 101.4860 176.6042 0.0000 0.6208 0.0000
# 4 0.0000 0.0000 0.0000 36.3376 0.0000 -0.0137
# 5 2.1153 0.1088 0.6208 0.0000 4.5246 0.0000
# 6 0.0000 0.0000 0.0000 -0.0137 0.0000 13.2442
#
#
#
# Elastic Compliance Matrix: (Units=1/GPa)
#
#
# Indices 1 2 3 4 5 6 
#
# 1 0.049380 -0.015246 0.000552 0.000000 -0.022795 0.000000
# 2 -0.015246 0.024545 -0.011574 0.000000 0.008126 0.000000
# 3 0.000552 -0.011574 0.012227 0.000000 -0.001657 0.000000
# 4 0.000000 0.000000 0.000000 0.027520 0.000000 0.000028
# 5 -0.022795 0.008126 -0.001657 0.000000 0.231704 0.000000
# 6 0.000000 0.000000 0.000000 0.000028 0.000000 0.075505
#
#
# Mechanical properties :
#
#
# Convention : Reuss Voigt Hill
#
# Bulk Modulus (GPa) = 29.74947 71.50285 50.62616
# Shear Modulus (GPa) = 10.31730 20.99781 15.65755
#
# Velocity S-wave (km/s) = 2.51776 3.59185 3.10165
# Velocity P-wave (km/s) = 5.17018 7.81885 6.62816
#
# Compressibility (1/GPa) = 0.03361405
#
# Stress axis : x y z
#
# Youngs Moduli (GPa) = 20.25120 40.74070 81.78841
#
# Poissons Ratio (x) = 0.62115 -0.04512
# Poissons Ratio (y) = 0.30876 0.94663
# Poissons Ratio (z) = -0.01117 0.47154
#
# Static dielectric constant tensor:
#      x y z
#    x 1.514400 0.000000 0.001870 
#    y 0.000000 1.542400 0.000000 
#    z 0.001870 0.000000 1.584280 
# 
# From -- ./inp_files/345625.got.cif
#   From: 2010.05.17/outbox.cif.g08.bks.cpg/sg12_173_cif.got.tgz:345625.got - 2010.06.03 13:09:07.
