data_PCOD9169474
_publ_section_title
;
Structure prediction by ZEFSAII (Michael W. Deem and Ramdas Pophale) SiO2 
 PCOD9169474
Probable space group: C 2/M
;
_chemical_formula_sum "Si O2"
_cell_formula_units_Z 48
_cell_length_a 14.769952
_cell_length_b 8.843644
_cell_length_c 18.860381
_cell_angle_alpha 90.000000
_cell_angle_beta 91.734466
_cell_angle_gamma 90.000000
_cell_volume 2462.417975
_symmetry_space_group_name_H-M "C 2/M"
_symmetry_group_IT_number 12
_symmetry_cell_setting 'monoclinic'
loop_
_space_group_symop_operation_xyz
x,y,z
-x,y,-z
-x,-y,-z
x,-y,z
1/2+x,1/2+y,z
1/2-x,1/2+y,-z
1/2-x,1/2-y,-z
1/2+x,1/2-y,z
loop_
_atom_site_type_symbol
_atom_site_label
_atom_site_fract_x
_atom_site_fract_y
_atom_site_fract_z
Si Si1 0.822093 0.667803 0.910459
Si Si2 0.630879 0.680477 0.675010
Si Si3 0.378457 0.667659 0.039879
Si Si4 0.327691 0.178539 0.174302
Si Si5 0.777405 0.820265 0.576391
Si Si6 0.469554 0.822304 0.581331
O O1 0.852830 0.500000 0.888956
O O2 0.730692 0.643870 0.955118
O O3 0.775470 0.767499 0.847746
O O4 0.891459 0.753717 0.964040
O O5 0.622846 0.500000 0.669294
O O6 0.639772 0.732108 0.756271
O O7 0.718469 0.739647 0.634979
O O8 0.547875 0.762892 0.634241
O O9 0.418686 0.500000 0.047516
O O10 0.390675 0.774238 0.108511
O O11 0.329529 0.000000 0.184916
O O12 0.750000 0.750000 0.500000
O O13 0.881524 0.779055 0.590182
O O14 0.761151 0.000000 0.575826
O O15 0.500000 0.807745 0.500000
O O16 0.450433 0.000000 0.593422
#
# Coordination Sequence:
#
# PCOD9169474 Si02
#       6
#     8   8   8   8   8   8
#     4   8  13  21  35  58  90 129 170 213 260 310
#     4  12  24  38  57  82 112 146 183 227 277 327
#     4   8  13  21  35  58  90 129 170 213 260 310
#     4  10  17  27  42  65  99 136 174 218 268 319
#     4  12  24  40  61  85 110 141 180 224 272 326
#     4  11  23  40  62  85 110 140 180 225 272 327
#
# _framework density 19.493034999999999
#
# number of rings (size 3 to 8) (size 9 to 14) (size 15 to 20)
#    1.000    0.833    1.667    5.500    0.000    0.667 
#    0.000    0.000    0.000    0.000    0.000    0.000 
#    0.000    5.333    0.000   53.333    0.000   32.000 
#
# Total GULP energy -133680.482729 kJ/mol
# GULP energy per Si atom -5570.020114 kJ/mol
# Density = 1.944867 g / cm^3
# Si number density = 19.493035 Si / 1000 Ang^3
#
#
#
# Elastic Constant Matrix: (Units=GPa)
#
#
# Indices 1 2 3 4 5 6 
#
# 1 28.5131 -15.5919 14.3993 0.0000 1.8347 0.0000
# 2 -15.5919 110.5091 18.8918 0.0000 7.3063 0.0000
# 3 14.3993 18.8918 87.7271 0.0000 24.9505 0.0000
# 4 0.0000 0.0000 0.0000 30.3656 0.0000 6.6587
# 5 1.8347 7.3063 24.9505 0.0000 16.9482 0.0000
# 6 0.0000 0.0000 0.0000 6.6587 0.0000 20.6672
#
#
#
# Elastic Compliance Matrix: (Units=1/GPa)
#
#
# Indices 1 2 3 4 5 6 
#
# 1 0.044462 0.007650 -0.011420 0.000000 0.008701 0.000000
# 2 0.007650 0.010745 -0.003469 0.000000 -0.000353 0.000000
# 3 -0.011420 -0.003469 0.022783 0.000000 -0.030808 0.000000
# 4 0.000000 0.000000 0.000000 0.035436 0.000000 -0.011417
# 5 0.008701 -0.000353 -0.030808 0.000000 0.103567 0.000000
# 6 0.000000 0.000000 0.000000 -0.011417 0.000000 0.052064
#
#
# Mechanical properties :
#
#
# Convention : Reuss Voigt Hill
#
# Bulk Modulus (GPa) = 15.74506 29.12753 22.43630
# Shear Modulus (GPa) = 16.40929 27.53285 21.97107
#
# Velocity S-wave (km/s) = 2.90453 3.76233 3.36091
# Velocity P-wave (km/s) = 4.39809 5.81794 5.15712
#
# Compressibility (1/GPa) = 0.06351197
#
# Stress axis : x y z
#
# Youngs Moduli (GPa) = 22.49093 93.06808 43.89325
#
# Poissons Ratio (x) = -0.71200 0.50126
# Poissons Ratio (y) = -0.17206 0.15227
# Poissons Ratio (z) = 0.25685 0.32287
#
# Static dielectric constant tensor:
#      x y z
#    x 1.723940 0.000000 0.000680 
#    y 0.000000 1.695270 0.000000 
#    z 0.000680 0.000000 1.682250 
# 
# From -- ./inp_files/307983.got.cif
#   From: 2010.05.17/outbox.cif.g08.bks.cpg/sg12_154_cif.got.tgz:307983.got - 2010.06.03 13:09:07.
