data_PCOD9169172
_publ_section_title
;
Structure prediction by ZEFSAII (Michael W. Deem and Ramdas Pophale) SiO2 
 PCOD9169172
Probable space group: C 2/M
;
_chemical_formula_sum "Si O2"
_cell_formula_units_Z 56
_cell_length_a 25.085065
_cell_length_b 8.687870
_cell_length_c 17.033576
_cell_angle_alpha 90.000000
_cell_angle_beta 75.149995
_cell_angle_gamma 90.000000
_cell_volume 3588.237690
_symmetry_space_group_name_H-M "C 2/M"
_symmetry_group_IT_number 12
_symmetry_cell_setting 'monoclinic'
loop_
_space_group_symop_operation_xyz
x,y,z
-x,y,-z
-x,-y,-z
x,-y,z
1/2+x,1/2+y,z
1/2-x,1/2+y,-z
1/2-x,1/2-y,-z
1/2+x,1/2-y,z
loop_
_atom_site_type_symbol
_atom_site_label
_atom_site_fract_x
_atom_site_fract_y
_atom_site_fract_z
Si Si1 0.543821 0.814158 0.048252
Si Si2 0.081762 0.316890 0.441857
Si Si3 0.169662 0.685341 0.987430
Si Si4 0.533234 0.685102 0.224508
Si Si5 0.972589 0.184250 0.397942
Si Si6 0.226801 0.316440 0.131696
Si Si7 0.142854 0.183967 0.281309
O O1 0.529388 0.756920 0.140570
O O2 0.543652 0.000000 0.049325
O O3 0.500000 0.761283 0.000000
O O4 0.606321 0.765313 0.004501
O O5 0.076503 0.500000 0.440408
O O6 0.076301 0.260875 0.533760
O O7 0.132584 0.260286 0.369927
O O8 0.029125 0.238559 0.418871
O O9 0.172939 0.500000 0.978874
O O10 0.211529 0.760708 0.910195
O O11 0.191841 0.725575 0.066327
O O12 0.534085 0.500000 0.217912
O O13 0.483776 0.726894 0.303175
O O14 0.591001 0.731107 0.244799
O O15 0.968551 0.000000 0.405459
O O16 0.224949 0.500000 0.141015
O O17 0.197575 0.237699 0.216409
O O18 0.141036 0.000000 0.290014
#
# Coordination Sequence:
#
# PCOD9169172 Si02
#       7
#     8   8   8   8   8   8   8
#     4  10  20  33  48  65  87 116 151 189 227 264
#     4  10  17  24  37  59  84 113 146 179 214 257
#     4   9  18  31  44  62  87 115 145 183 226 266
#     4   9  18  29  43  61  83 114 150 184 220 263
#     4   9  16  27  39  55  81 114 147 179 217 262
#     4  10  18  28  45  66  86 114 148 185 220 264
#     4  10  18  28  42  61  88 119 147 179 219 265
#
# _framework density 15.606547000000001
#
# number of rings (size 3 to 8) (size 9 to 14) (size 15 to 20)
#    0.000    2.429    1.429    4.286    0.000    4.286 
#    0.000    0.000    0.000    0.000    0.000    0.000 
#    0.000    1.143    0.000    3.429    0.000    5.571 
#
# Total GULP energy -155995.400196 kJ/mol
# GULP energy per Si atom -5571.264293 kJ/mol
# Density = 1.557103 g / cm^3
# Si number density = 15.606547 Si / 1000 Ang^3
#
#
#
# Elastic Constant Matrix: (Units=GPa)
#
#
# Indices 1 2 3 4 5 6 
#
# 1 61.1009 14.7586 52.4528 0.0000 -9.6382 0.0000
# 2 14.7586 22.6983 30.8208 0.0000 -8.7072 0.0000
# 3 52.4528 30.8208 136.2408 0.0000 -32.2757 0.0000
# 4 0.0000 0.0000 0.0000 29.7352 0.0000 -5.9306
# 5 -9.6382 -8.7072 -32.2757 0.0000 21.3132 0.0000
# 6 0.0000 0.0000 0.0000 -5.9306 0.0000 13.5475
#
#
#
# Elastic Compliance Matrix: (Units=1/GPa)
#
#
# Indices 1 2 3 4 5 6 
#
# 1 0.025196 -0.005141 -0.009880 0.000000 -0.005669 0.000000
# 2 -0.005141 0.065228 -0.010939 0.000000 0.007758 0.000000
# 3 -0.009880 -0.010939 0.017936 0.000000 0.018224 0.000000
# 4 0.000000 0.000000 0.000000 0.036847 0.000000 0.016130
# 5 -0.005669 0.007758 0.018224 0.000000 0.075123 0.000000
# 6 0.000000 0.000000 0.000000 0.016130 0.000000 0.080876
#
#
# Mechanical properties :
#
#
# Convention : Reuss Voigt Hill
#
# Bulk Modulus (GPa) = 17.71816 46.23380 31.97598
# Shear Modulus (GPa) = 13.44303 21.05305 17.24804
#
# Velocity S-wave (km/s) = 2.93810 3.67684 3.32803
# Velocity P-wave (km/s) = 4.78409 6.90757 5.94147
#
# Compressibility (1/GPa) = 0.05643928
#
# Stress axis : x y z
#
# Youngs Moduli (GPa) = 39.68910 15.33076 55.75423
#
# Poissons Ratio (x) = 0.07882 0.55087
# Poissons Ratio (y) = 0.20405 0.60989
# Poissons Ratio (z) = 0.39214 0.16770
#
# Static dielectric constant tensor:
#      x y z
#    x 1.499260 0.000000 -0.026430 
#    y 0.000000 1.517690 0.000000 
#    z -0.026430 0.000000 1.555490 
# 
# From -- ./inp_files/243063.got.cif
#   From: 2010.05.17/outbox.cif.g08.bks.cpg/sg12_122_cif.got.tgz:243063.got - 2010.06.03 13:09:07.
