data_PCOD9169756
_publ_section_title
;
Structure prediction by ZEFSAII (Michael W. Deem and Ramdas Pophale) SiO2 
 PCOD9169756
Probable space group: C 2/M
;
_chemical_formula_sum "Si O2"
_cell_formula_units_Z 48
_cell_length_a 11.509951
_cell_length_b 24.297480
_cell_length_c 13.082724
_cell_angle_alpha 90.000000
_cell_angle_beta 37.774195
_cell_angle_gamma 90.000000
_cell_volume 2241.172194
_symmetry_space_group_name_H-M "C 2/M"
_symmetry_group_IT_number 12
_symmetry_cell_setting 'monoclinic'
loop_
_space_group_symop_operation_xyz
x,y,z
-x,y,-z
-x,-y,-z
x,-y,z
1/2+x,1/2+y,z
1/2-x,1/2+y,-z
1/2-x,1/2-y,-z
1/2+x,1/2-y,z
loop_
_atom_site_type_symbol
_atom_site_label
_atom_site_fract_x
_atom_site_fract_y
_atom_site_fract_z
Si Si1 0.272218 0.308980 0.540331
Si Si2 0.223177 0.190078 0.232333
Si Si3 0.269651 0.500000 0.278222
Si Si4 0.275361 0.683439 0.154223
Si Si5 0.768207 0.000000 0.041150
Si Si6 0.767598 0.881953 0.360067
Si Si7 0.731910 0.617886 0.039603
O O1 0.250000 0.250000 0.500000
O O2 0.196000 0.310305 0.708857
O O3 0.497153 0.318239 0.394956
O O4 0.199591 0.355192 0.512803
O O5 0.246766 0.251560 0.172919
O O6 0.294895 0.145415 0.101529
O O7 0.500840 0.500000 0.116218
O O8 0.211484 0.444387 0.375897
O O9 0.208690 0.500000 0.201741
O O10 0.205405 0.655966 0.307851
O O11 0.500000 0.673212 0.000000
O O12 0.205550 0.654671 0.100175
O O13 0.708503 0.944502 0.025052
O O14 0.999508 0.881263 0.201744
#
# Coordination Sequence:
#
# PCOD9169756 Si02
#       7
#     8   8   4   8   4   8   8
#     4  10  19  33  48  64  94 129 162 190 222 273
#     4  10  20  31  46  69  97 127 155 189 231 276
#     4   9  14  24  43  67  91 118 153 186 235 273
#     4  10  17  28  47  71 100 120 145 191 238 277
#     4   9  14  24  43  65  93 123 145 184 238 280
#     4   9  16  27  45  68  92 121 152 191 232 271
#     4   9  17  27  42  69  97 117 149 192 235 280
#
# _framework density 21.417363999999999
#
# number of rings (size 3 to 8) (size 9 to 14) (size 15 to 20)
#    0.000    2.500    3.333    0.500    0.000    0.000 
#    0.000    0.833    0.000    5.000    0.000    4.083 
#    0.000    0.000    0.000    0.000    0.000    0.000 
#
# Total GULP energy -134089.280187 kJ/mol
# GULP energy per Si atom -5587.053341 kJ/mol
# Density = 2.136862 g / cm^3
# Si number density = 21.417364 Si / 1000 Ang^3
#
#
#
# Elastic Constant Matrix: (Units=GPa)
#
#
# Indices 1 2 3 4 5 6 
#
# 1 91.2725 50.3038 54.2823 0.0005 23.9253 -0.0001
# 2 50.3038 204.1482 82.0766 0.0000 68.8738 0.0000
# 3 54.2823 82.0766 109.8285 0.0002 46.4778 0.0000
# 4 0.0005 0.0000 0.0002 -57.6639 -0.0004 30.7441
# 5 23.9253 68.8738 46.4778 -0.0004 52.5775 0.0000
# 6 -0.0001 0.0000 0.0000 30.7441 0.0000 21.9908
#
#
#
# Elastic Compliance Matrix: (Units=1/GPa)
#
#
# Indices 1 2 3 4 5 6 
#
# 1 0.015698 -0.001279 -0.007172 0.000000 0.000872 0.000000
# 2 -0.001279 0.009416 -0.002286 0.000000 -0.009731 0.000000
# 3 -0.007172 -0.002286 0.018709 0.000000 -0.010279 0.000000
# 4 0.000000 0.000000 0.000000 -0.009936 0.000000 0.013891
# 5 0.000872 -0.009731 -0.010279 0.000000 0.040457 0.000000
# 6 0.000000 0.000000 0.000000 0.013891 0.000000 0.026054
#
#
# Mechanical properties :
#
#
# Convention : Reuss Voigt Hill
#
# Bulk Modulus (GPa) = 44.74666 86.50830 65.62748
# Shear Modulus (GPa) = 38.66371 17.95331 28.30851
#
# Velocity S-wave (km/s) = 4.25343 2.89841 3.63954
# Velocity P-wave (km/s) = 6.71270 7.18891 6.95488
#
# Compressibility (1/GPa) = 0.02234804
#
# Stress axis : x y z
#
# Youngs Moduli (GPa) = 63.70341 106.20523 53.45139
#
# Poissons Ratio (x) = 0.13581 0.38334
# Poissons Ratio (y) = 0.08146 0.12222
# Poissons Ratio (z) = 0.45687 0.24284
#
# Static dielectric constant tensor:
#      x y z
#    x 1.830440 0.000000 -0.056860 
#    y 0.000000 1.730660 0.000000 
#    z -0.056860 0.000000 1.819850 
# 
# From -- ./inp_files/51473.got.cif
#   From: 2010.05.17/outbox.cif.g08.bks.cpg/sg12_26_cif.got.tgz:51473.got - 2010.06.03 13:09:07.
