data_PCOD9169468
_publ_section_title
;
Structure prediction by ZEFSAII (Michael W. Deem and Ramdas Pophale) SiO2 
 PCOD9169468
Probable space group: C 2/M
;
_chemical_formula_sum "Si O2"
_cell_formula_units_Z 64
_cell_length_a 27.776621
_cell_length_b 8.766228
_cell_length_c 20.353274
_cell_angle_alpha 90.000000
_cell_angle_beta 121.011926
_cell_angle_gamma 90.000000
_cell_volume 4247.542376
_symmetry_space_group_name_H-M "C 2/M"
_symmetry_group_IT_number 12
_symmetry_cell_setting 'monoclinic'
loop_
_space_group_symop_operation_xyz
x,y,z
-x,y,-z
-x,-y,-z
x,-y,z
1/2+x,1/2+y,z
1/2-x,1/2+y,-z
1/2-x,1/2-y,-z
1/2+x,1/2-y,z
loop_
_atom_site_type_symbol
_atom_site_label
_atom_site_fract_x
_atom_site_fract_y
_atom_site_fract_z
Si Si1 0.131890 0.816467 0.330755
Si Si2 0.696247 0.316895 0.499596
Si Si3 0.580488 0.682816 0.943050
Si Si4 0.789244 0.183401 0.971567
Si Si5 0.527660 0.818416 0.182661
Si Si6 0.590007 0.182251 0.090159
Si Si7 0.241289 0.683292 0.331982
Si Si8 0.285943 0.317134 0.820686
O O1 0.144687 0.773745 0.416013
O O2 0.073097 0.751987 0.264020
O O3 0.183624 0.749493 0.323632
O O4 0.132807 0.000000 0.324859
O O5 0.699040 0.500000 0.499783
O O6 0.750000 0.250000 0.500000
O O7 0.707414 0.273142 0.583006
O O8 0.577755 0.500000 0.943638
O O9 0.534254 0.746802 0.860709
O O10 0.645140 0.727923 0.973915
O O11 0.567808 0.749792 0.006468
O O12 0.770563 0.228755 0.884458
O O13 0.787317 0.000000 0.972898
O O14 0.750000 0.250000 0.000000
O O15 0.552607 0.786825 0.127441
O O16 0.524828 0.000000 0.189319
O O17 0.650525 0.257976 0.143885
O O18 0.595729 0.000000 0.087510
O O19 0.235955 0.500000 0.326260
O O20 0.248061 0.746997 0.263623
O O21 0.285151 0.500000 0.816232
#
# Coordination Sequence:
#
# PCOD9169468 Si02
#       8
#     8   8   8   8   8   8   8   8
#     4  10  18  28  42  59  85 123 157 188 225 258
#     4   8  16  27  39  57  82 115 154 189 222 258
#     4  10  21  34  47  65  87 113 148 183 221 267
#     4   9  20  36  52  69  88 112 143 182 225 271
#     4  11  21  30  42  63  90 119 155 189 217 257
#     4  10  19  30  43  61  88 118 150 186 220 253
#     4  10  17  27  42  62  88 117 153 192 223 259
#     4  10  19  30  45  67  91 117 152 185 222 268
#
# _framework density 15.067537
#
# number of rings (size 3 to 8) (size 9 to 14) (size 15 to 20)
#    0.000    2.250    1.250    3.375    0.000    7.000 
#    0.000    0.000    0.000    0.000    0.000    0.000 
#    0.000    1.000    0.000   11.250    0.000    5.625 
#
# Total GULP energy -178301.780226 kJ/mol
# GULP energy per Si atom -5571.930632 kJ/mol
# Density = 1.503324 g / cm^3
# Si number density = 15.067537 Si / 1000 Ang^3
#
#
#
# Elastic Constant Matrix: (Units=GPa)
#
#
# Indices 1 2 3 4 5 6 
#
# 1 44.5854 26.3868 56.5607 0.0000 -12.8279 0.0000
# 2 26.3868 33.6098 44.4413 0.0000 -3.2252 0.0000
# 3 56.5607 44.4413 162.8356 0.0000 0.3939 0.0000
# 4 0.0000 0.0000 0.0000 23.9777 0.0000 -2.0477
# 5 -12.8279 -3.2252 0.3939 0.0000 12.0557 0.0000
# 6 0.0000 0.0000 0.0000 -2.0477 0.0000 17.0443
#
#
#
# Elastic Compliance Matrix: (Units=1/GPa)
#
#
# Indices 1 2 3 4 5 6 
#
# 1 0.119664 -0.042872 -0.030147 0.000000 0.116846 0.000000
# 2 -0.042872 0.063999 -0.002506 0.000000 -0.028415 0.000000
# 3 -0.030147 -0.002506 0.017377 0.000000 -0.033317 0.000000
# 4 0.000000 0.000000 0.000000 0.042138 0.000000 0.005063
# 5 0.116846 -0.028415 -0.033317 0.000000 0.200766 0.000000
# 6 0.000000 0.000000 0.000000 0.005063 0.000000 0.059279
#
#
# Mechanical properties :
#
#
# Convention : Reuss Voigt Hill
#
# Bulk Modulus (GPa) = 20.00414 55.08982 37.54698
# Shear Modulus (GPa) = 7.45226 18.19169 12.82197
#
# Velocity S-wave (km/s) = 2.22635 3.47845 2.92030
# Velocity P-wave (km/s) = 4.46251 7.26458 6.02860
#
# Compressibility (1/GPa) = 0.04998965
#
# Stress axis : x y z
#
# Youngs Moduli (GPa) = 8.35671 15.62524 57.54590
#
# Poissons Ratio (x) = 0.66988 1.73485
# Poissons Ratio (y) = 0.35827 0.14424
# Poissons Ratio (z) = 0.25193 0.03916
#
# Static dielectric constant tensor:
#      x y z
#    x 1.462320 0.000000 -0.003290 
#    y 0.000000 1.504180 0.000000 
#    z -0.003290 0.000000 1.561540 
# 
# From -- ./inp_files/326957.got.cif
#   From: 2010.05.17/outbox.cif.g08.bks.cpg/sg12_164_cif.got.tgz:326957.got - 2010.06.03 13:09:07.
