data_PCOD9169298
_publ_section_title
;
Structure prediction by ZEFSAII (Michael W. Deem and Ramdas Pophale) SiO2 
 PCOD9169298
Probable space group: C 2/M
;
_chemical_formula_sum "Si O2"
_cell_formula_units_Z 64
_cell_length_a 5.155012
_cell_length_b 34.305481
_cell_length_c 27.771424
_cell_angle_alpha 90.000000
_cell_angle_beta 107.438054
_cell_angle_gamma 90.000000
_cell_volume 4685.528798
_symmetry_space_group_name_H-M "C 2/M"
_symmetry_group_IT_number 12
_symmetry_cell_setting 'monoclinic'
loop_
_space_group_symop_operation_xyz
x,y,z
-x,y,-z
-x,-y,-z
x,-y,z
1/2+x,1/2+y,z
1/2-x,1/2+y,-z
1/2-x,1/2-y,-z
1/2+x,1/2-y,z
loop_
_atom_site_type_symbol
_atom_site_label
_atom_site_fract_x
_atom_site_fract_y
_atom_site_fract_z
Si Si1 0.300238 0.547548 0.531682
Si Si2 0.400905 0.354751 0.892614
Si Si3 0.967392 0.046891 0.353544
Si Si4 0.628473 0.723987 0.057581
Si Si5 0.358217 0.047113 0.289638
Si Si6 0.018534 0.388896 0.057577
Si Si7 0.223635 0.454181 0.129956
Si Si8 0.307744 0.919691 0.181431
O O1 0.500000 0.559131 0.500000
O O2 0.300182 0.500000 0.533397
O O3 0.401366 0.561466 0.589480
O O4 0.000000 0.559953 0.500000
O O5 0.360185 0.309495 0.901846
O O6 0.721349 0.364148 0.909506
O O7 0.260218 0.375434 0.838789
O O8 0.251945 0.376129 0.929377
O O9 0.648616 0.054473 0.330699
O O10 0.126038 0.059047 0.314373
O O11 0.997791 0.000000 0.356426
O O12 0.421488 0.758012 0.062049
O O13 0.500000 0.708110 0.000000
O O14 0.339952 0.070583 0.239084
O O15 0.337609 0.000000 0.278688
O O16 0.090248 0.432923 0.076795
O O17 0.000000 0.383516 0.000000
O O18 0.183683 0.500000 0.128468
O O19 0.541891 0.443710 0.149243
O O20 0.070774 0.434806 0.167120
#
# Coordination Sequence:
#
# PCOD9169298 Si02
#       8
#     8   8   8   8   8   8   8   8
#     4   9  15  23  34  47  67  93 119 150 194 243
#     4  10  20  33  46  62  83 101 125 151 181 236
#     4   9  17  25  35  53  71  92 123 161 201 233
#     4  10  19  30  47  68  85 101 119 145 185 229
#     4  10  17  26  39  53  72  94 125 165 198 227
#     4  10  19  30  45  60  77 103 124 149 188 224
#     4  10  19  30  42  57  75  95 128 162 190 231
#     4  10  20  31  44  58  74 103 129 157 201 231
#
# _framework density 13.659077
#
# number of rings (size 3 to 8) (size 9 to 14) (size 15 to 20)
#    0.000    2.250    0.000    4.500    0.000    5.250 
#    0.000    0.000    0.000    4.500    0.000    0.000 
#    0.000    0.000    0.000    0.000    0.000    0.000 
#
# Total GULP energy -178365.638966 kJ/mol
# GULP energy per Si atom -5573.926218 kJ/mol
# Density = 1.362799 g / cm^3
# Si number density = 13.659077 Si / 1000 Ang^3
#
#
#
# Elastic Constant Matrix: (Units=GPa)
#
#
# Indices 1 2 3 4 5 6 
#
# 1 44.8937 -5.4354 -9.0215 0.0000 -6.7598 0.0000
# 2 -5.4354 34.0176 10.8193 0.0000 2.0456 0.0000
# 3 -9.0215 10.8193 48.4923 0.0000 -1.5199 0.0000
# 4 0.0000 0.0000 0.0000 6.2150 0.0000 -1.2035
# 5 -6.7598 2.0456 -1.5199 0.0000 13.8217 0.0000
# 6 0.0000 0.0000 0.0000 -1.2035 0.0000 8.2735
#
#
#
# Elastic Compliance Matrix: (Units=1/GPa)
#
#
# Indices 1 2 3 4 5 6 
#
# 1 0.025343 0.001790 0.004712 0.000000 0.012648 0.000000
# 2 0.001790 0.032187 -0.006994 0.000000 -0.004657 0.000000
# 3 0.004712 -0.006994 0.023244 0.000000 0.005895 0.000000
# 4 0.000000 0.000000 0.000000 0.165565 0.000000 0.024084
# 5 0.012648 -0.004657 0.005895 0.000000 0.079873 0.000000
# 6 0.000000 0.000000 0.000000 0.024084 0.000000 0.124371
#
#
# Mechanical properties :
#
#
# Convention : Reuss Voigt Hill
#
# Bulk Modulus (GPa) = 12.53306 13.34760 12.94033
# Shear Modulus (GPa) = 10.45666 14.39812 12.42739
#
# Velocity S-wave (km/s) = 2.76985 3.25022 3.01961
# Velocity P-wave (km/s) = 4.40738 4.88656 4.65314
#
# Compressibility (1/GPa) = 0.07978899
#
# Stress axis : x y z
#
# Youngs Moduli (GPa) = 39.45897 31.06829 43.02237
#
# Poissons Ratio (x) = -0.05562 -0.20271
# Poissons Ratio (y) = -0.07064 0.30091
# Poissons Ratio (z) = -0.18592 0.21730
#
# Static dielectric constant tensor:
#      x y z
#    x 1.466180 0.000000 -0.001750 
#    y 0.000000 1.433750 0.000000 
#    z -0.001750 0.000000 1.446230 
# 
# From -- ./inp_files/331539.got.cif
#   From: 2010.05.17/outbox.cif.g08.bks.cpg/sg12_166_cif.got.tgz:331539.got - 2010.06.03 13:09:07.
