data_PCOD9169477
_publ_section_title
;
Structure prediction by ZEFSAII (Michael W. Deem and Ramdas Pophale) SiO2 
 PCOD9169477
Probable space group: C 2/M
;
_chemical_formula_sum "Si O2"
_cell_formula_units_Z 56
_cell_length_a 25.208357
_cell_length_b 23.720433
_cell_length_c 5.581197
_cell_angle_alpha 90.000000
_cell_angle_beta 102.500877
_cell_angle_gamma 90.000000
_cell_volume 3258.176033
_symmetry_space_group_name_H-M "C 2/M"
_symmetry_group_IT_number 12
_symmetry_cell_setting 'monoclinic'
loop_
_space_group_symop_operation_xyz
x,y,z
-x,y,-z
-x,-y,-z
x,-y,z
1/2+x,1/2+y,z
1/2-x,1/2+y,-z
1/2-x,1/2-y,-z
1/2+x,1/2-y,z
loop_
_atom_site_type_symbol
_atom_site_label
_atom_site_fract_x
_atom_site_fract_y
_atom_site_fract_z
Si Si1 0.845150 0.777585 0.045547
Si Si2 0.316414 0.137396 0.481697
Si Si3 0.061831 0.381602 0.901175
Si Si4 0.187713 0.233586 0.485565
Si Si5 0.925791 0.433711 0.583364
Si Si6 0.969959 0.253234 0.217105
Si Si7 0.690508 0.149352 0.025426
O O1 0.820393 0.798470 0.271613
O O2 0.909116 0.771066 0.152441
O O3 0.834906 0.799410 0.766898
O O4 0.815603 0.716555 0.990165
O O5 0.339496 0.202797 0.514050
O O6 0.365576 0.093622 0.519535
O O7 0.285314 0.130094 0.699867
O O8 0.284434 0.132080 0.202572
O O9 0.051901 0.421392 0.662022
O O10 0.037518 0.320758 0.814617
O O11 0.048943 0.403935 0.156113
O O12 0.127786 0.372052 0.969809
O O13 0.250000 0.250000 0.500000
O O14 0.924994 0.500000 0.625285
O O15 0.000000 0.241440 0.500000
O O16 0.000000 0.235158 0.000000
#
# Coordination Sequence:
#
# PCOD9169477 Si02
#       7
#     8   8   8   8   8   8   8
#     4   9  17  28  39  59  81  94 123 156 179 234
#     4   8  14  23  34  53  72  87 116 145 171 226
#     4   9  17  28  39  55  69  83 117 157 189 238
#     4  10  17  27  43  60  80 102 117 144 197 239
#     4  10  17  27  43  56  70  96 123 156 203 237
#     4  11  20  31  48  62  75 102 132 164 209 242
#     4   7  12  22  36  47  66  88 102 138 181 204
#
# _framework density 17.187532000000001
#
# number of rings (size 3 to 8) (size 9 to 14) (size 15 to 20)
#    0.000    2.857    0.000    4.286    0.000    2.286 
#    0.000    0.000    0.000    8.571    0.000    0.000 
#    0.000    0.000    0.000    0.000    0.000    0.000 
#
# Total GULP energy -155872.408382 kJ/mol
# GULP energy per Si atom -5566.871728 kJ/mol
# Density = 1.714841 g / cm^3
# Si number density = 17.187532 Si / 1000 Ang^3
#
#
#
# Elastic Constant Matrix: (Units=GPa)
#
#
# Indices 1 2 3 4 5 6 
#
# 1 71.6515 2.4940 41.5803 0.0000 -12.3993 0.0000
# 2 2.4940 7.7223 0.9774 0.0000 -0.3570 0.0000
# 3 41.5803 0.9774 183.0565 0.0000 -40.5077 0.0000
# 4 0.0000 0.0000 0.0000 7.2000 0.0000 -2.3175
# 5 -12.3993 -0.3570 -40.5077 0.0000 31.5607 0.0000
# 6 0.0000 0.0000 0.0000 -2.3175 0.0000 11.4032
#
#
#
# Elastic Compliance Matrix: (Units=1/GPa)
#
#
# Indices 1 2 3 4 5 6 
#
# 1 0.016367 -0.004777 -0.003186 0.000000 0.002287 0.000000
# 2 -0.004777 0.130992 0.000417 0.000000 0.000140 0.000000
# 3 -0.003186 0.000417 0.008252 0.000000 0.009344 0.000000
# 4 0.000000 0.000000 0.000000 0.148611 0.000000 0.030202
# 5 0.002287 0.000140 0.009344 0.000000 0.044578 0.000000
# 6 0.000000 0.000000 0.000000 0.030202 0.000000 0.093833
#
#
# Mechanical properties :
#
#
# Convention : Reuss Voigt Hill
#
# Bulk Modulus (GPa) = 7.11651 39.17041 23.14346
# Shear Modulus (GPa) = 9.90949 24.52468 17.21708
#
# Velocity S-wave (km/s) = 2.40375 3.78152 3.16843
# Velocity P-wave (km/s) = 3.44290 6.47348 5.18457
#
# Compressibility (1/GPa) = 0.14051832
#
# Stress axis : x y z
#
# Youngs Moduli (GPa) = 61.09683 7.63403 121.18170
#
# Poissons Ratio (x) = 0.03647 0.38611
# Poissons Ratio (y) = 0.29187 -0.05049
# Poissons Ratio (z) = 0.19467 -0.00318
#
# Static dielectric constant tensor:
#      x y z
#    x 1.671400 0.000000 -0.031660 
#    y 0.000000 1.551000 0.000000 
#    z -0.031660 0.000000 1.733990 
# 
# From -- ./inp_files/22188.got.cif
#   From: 2010.05.17/outbox.cif.g08.bks.cpg/sg12_12_cif.got.tgz:22188.got - 2010.06.03 13:09:07.
