data_PCOD9169925
_publ_section_title
;
Structure prediction by ZEFSAII (Michael W. Deem and Ramdas Pophale) SiO2 
 PCOD9169925
Probable space group: C 2/M
;
_chemical_formula_sum "Si O2"
_cell_formula_units_Z 40
_cell_length_a 14.121658
_cell_length_b 22.055892
_cell_length_c 7.772352
_cell_angle_alpha 90.000000
_cell_angle_beta 42.143274
_cell_angle_gamma 90.000000
_cell_volume 1624.339361
_symmetry_space_group_name_H-M "C 2/M"
_symmetry_group_IT_number 12
_symmetry_cell_setting 'monoclinic'
loop_
_space_group_symop_operation_xyz
x,y,z
-x,y,-z
-x,-y,-z
x,-y,z
1/2+x,1/2+y,z
1/2-x,1/2+y,-z
1/2-x,1/2-y,-z
1/2+x,1/2-y,z
loop_
_atom_site_type_symbol
_atom_site_label
_atom_site_fract_x
_atom_site_fract_y
_atom_site_fract_z
Si Si1 0.955607 0.071308 0.295392
Si Si2 0.241182 0.154581 0.632087
Si Si3 0.664923 0.779015 0.834256
Si Si4 0.723964 0.608405 0.126963
Si Si5 0.017864 0.567341 0.768362
O O1 0.101548 0.103184 0.152657
O O2 0.874162 0.103751 0.251127
O O3 0.850404 0.081167 0.601291
O O4 0.977281 0.000000 0.241762
O O5 0.251162 0.191831 0.438867
O O6 0.208669 0.209453 0.804026
O O7 0.386480 0.118024 0.448557
O O8 0.711086 0.825244 0.921064
O O9 0.500000 0.779623 0.000000
O O10 0.861774 0.569298 0.902012
O O11 0.080254 0.500000 0.669888
O O12 0.000000 0.579800 0.000000
#
# Coordination Sequence:
#
# PCOD9169925 Si02
#       5
#     8   8   8   8   8
#     4  10  18  29  47  75 104 128 159 204 260 303
#     4  10  19  30  50  71  98 134 167 206 243 294
#     4  10  18  33  49  66 102 136 170 200 235 305
#     4  10  17  29  47  73  99 130 155 203 263 295
#     4  11  17  27  48  74  97 124 165 212 254 290
#
# _framework density 24.625395999999999
#
# number of rings (size 3 to 8) (size 9 to 14) (size 15 to 20)
#    0.000    1.800    6.000    3.000    0.000    0.000 
#    0.000    1.000    8.800    2.400    0.000    0.000 
#    0.000    3.200    0.000    0.600    0.000    0.000 
#
# Total GULP energy -111862.966661 kJ/mol
# GULP energy per Si atom -5593.148333 kJ/mol
# Density = 2.456935 g / cm^3
# Si number density = 24.625396 Si / 1000 Ang^3
#
#
#
# Elastic Constant Matrix: (Units=GPa)
#
#
# Indices 1 2 3 4 5 6 
#
# 1 82.5134 44.2022 48.7385 0.0000 -10.3793 0.0000
# 2 44.2022 244.4954 63.6172 0.0000 -24.7301 0.0000
# 3 48.7385 63.6172 85.8801 0.0000 -44.4596 0.0000
# 4 0.0000 0.0000 0.0000 34.7024 0.0000 -30.6524
# 5 -10.3793 -24.7301 -44.4596 0.0000 47.1681 0.0000
# 6 0.0000 0.0000 0.0000 -30.6524 0.0000 -61.6394
#
#
#
# Elastic Compliance Matrix: (Units=1/GPa)
#
#
# Indices 1 2 3 4 5 6 
#
# 1 0.021895 -0.000344 -0.019082 0.000000 -0.013348 0.000000
# 2 -0.000344 0.005145 -0.004411 0.000000 -0.001536 0.000000
# 3 -0.019082 -0.004411 0.043689 0.000000 0.034668 0.000000
# 4 0.000000 0.000000 0.000000 0.020022 0.000000 -0.009957
# 5 -0.013348 -0.001536 0.034668 0.000000 0.050136 0.000000
# 6 0.000000 0.000000 0.000000 -0.009957 0.000000 -0.011272
#
#
# Mechanical properties :
#
#
# Convention : Reuss Voigt Hill
#
# Bulk Modulus (GPa) = 43.37381 80.66718 62.02050
# Shear Modulus (GPa) = 27.03105 21.13495 24.08300
#
# Velocity S-wave (km/s) = 3.31673 2.93278 3.13065
# Velocity P-wave (km/s) = 5.68501 6.65561 6.18936
#
# Compressibility (1/GPa) = 0.02305539
#
# Stress axis : x y z
#
# Youngs Moduli (GPa) = 45.67181 194.37909 22.88920
#
# Poissons Ratio (x) = 0.06678 0.43677
# Poissons Ratio (y) = 0.01569 0.10097
# Poissons Ratio (z) = 0.87150 0.85747
#
# Static dielectric constant tensor:
#      x y z
#    x 1.966740 0.000000 0.072890 
#    y 0.000000 1.946410 0.000000 
#    z 0.072890 0.000000 2.039360 
# 
# From -- ./inp_files/62910.got.cif
#   From: 2010.05.17/outbox.cif.g08.bks.cpg/sg12_32_cif.got.tgz:62910.got - 2010.06.03 13:09:07.
