data_PCOD9169888
_publ_section_title
;
Structure prediction by ZEFSAII (Michael W. Deem and Ramdas Pophale) SiO2 
 PCOD9169888
Probable space group: C 2/M
;
_chemical_formula_sum "Si O2"
_cell_formula_units_Z 48
_cell_length_a 25.189845
_cell_length_b 8.616254
_cell_length_c 22.427145
_cell_angle_alpha 90.000000
_cell_angle_beta 142.189974
_cell_angle_gamma 90.000000
_cell_volume 2984.080634
_symmetry_space_group_name_H-M "C 2/M"
_symmetry_group_IT_number 12
_symmetry_cell_setting 'monoclinic'
loop_
_space_group_symop_operation_xyz
x,y,z
-x,y,-z
-x,-y,-z
x,-y,z
1/2+x,1/2+y,z
1/2-x,1/2+y,-z
1/2-x,1/2-y,-z
1/2+x,1/2-y,z
loop_
_atom_site_type_symbol
_atom_site_label
_atom_site_fract_x
_atom_site_fract_y
_atom_site_fract_z
Si Si1 0.363027 0.315211 0.658298
Si Si2 0.880078 0.813378 0.224832
Si Si3 0.320554 0.687032 0.483215
Si Si4 0.985421 0.189247 0.554435
Si Si5 0.953271 0.315741 0.164662
Si Si6 0.212838 0.814898 0.029762
O O1 0.373519 0.500000 0.671561
O O2 0.353072 0.274139 0.579062
O O3 0.273214 0.262431 0.608132
O O4 0.448174 0.233229 0.758866
O O5 0.926248 0.753559 0.205362
O O6 0.782576 0.747796 0.138776
O O7 0.937862 0.765248 0.332423
O O8 0.877175 0.000000 0.219211
O O9 0.311834 0.500000 0.473033
O O10 0.393847 0.737178 0.501698
O O11 0.000000 0.242857 0.500000
O O12 0.984880 0.000000 0.553494
O O13 0.943873 0.500000 0.158633
O O14 0.884901 0.247499 0.056444
O O15 0.213435 0.000000 0.029214
O O16 0.250000 0.750000 0.000000
#
# Coordination Sequence:
#
# PCOD9169888 Si02
#       6
#     8   8   8   8   8   8
#     4  10  18  29  45  67  93 124 153 189 233 278
#     4  10  17  29  45  65  93 123 156 193 230 271
#     4   9  17  30  45  66  92 122 157 192 228 272
#     4   9  17  30  49  70  93 124 161 196 228 264
#     4  11  19  28  44  67  93 123 154 187 232 282
#     4  10  18  28  42  63  91 122 153 187 230 280
#
# _framework density 16.085355
#
# number of rings (size 3 to 8) (size 9 to 14) (size 15 to 20)
#    0.000    2.167    1.667    6.000    0.000    0.667 
#    0.000    0.000    0.000    4.500    0.000    1.167 
#    0.000    9.333    0.000    0.000    0.000    0.000 
#
# Total GULP energy -133813.359393 kJ/mol
# GULP energy per Si atom -5575.556641 kJ/mol
# Density = 1.604874 g / cm^3
# Si number density = 16.085355 Si / 1000 Ang^3
#
#
#
# Elastic Constant Matrix: (Units=GPa)
#
#
# Indices 1 2 3 4 5 6 
#
# 1 82.8072 23.4777 63.5247 0.0000 12.9326 0.0000
# 2 23.4777 78.5320 44.7461 0.0000 13.2639 0.0000
# 3 63.5247 44.7461 131.9167 0.0000 30.4404 0.0000
# 4 0.0000 0.0000 0.0000 23.9816 0.0000 9.0895
# 5 12.9326 13.2639 30.4404 0.0000 26.0683 0.0000
# 6 0.0000 0.0000 0.0000 9.0895 0.0000 15.8436
#
#
#
# Elastic Compliance Matrix: (Units=1/GPa)
#
#
# Indices 1 2 3 4 5 6 
#
# 1 0.019237 -0.000672 -0.009462 0.000000 0.001847 0.000000
# 2 -0.000672 0.015922 -0.004496 0.000000 -0.002518 0.000000
# 3 -0.009462 -0.004496 0.016496 0.000000 -0.012281 0.000000
# 4 0.000000 0.000000 0.000000 0.053285 0.000000 -0.030570
# 5 0.001847 -0.002518 -0.012281 0.000000 0.053066 0.000000
# 6 0.000000 0.000000 0.000000 -0.030570 0.000000 0.080655
#
#
# Mechanical properties :
#
#
# Convention : Reuss Voigt Hill
#
# Bulk Modulus (GPa) = 44.65359 61.86146 53.25752
# Shear Modulus (GPa) = 18.15642 23.94586 21.05114
#
# Velocity S-wave (km/s) = 3.36334 3.86252 3.62154
# Velocity P-wave (km/s) = 6.55007 7.64420 7.11819
#
# Compressibility (1/GPa) = 0.02239462
#
# Stress axis : x y z
#
# Youngs Moduli (GPa) = 51.98368 62.80805 60.62125
#
# Poissons Ratio (x) = 0.04219 0.57359
# Poissons Ratio (y) = 0.03492 0.27256
# Poissons Ratio (z) = 0.49186 0.28239
#
# Static dielectric constant tensor:
#      x y z
#    x 1.524360 0.000000 0.024410 
#    y 0.000000 1.587870 0.000000 
#    z 0.024410 0.000000 1.567520 
# 
# From -- ./inp_files/323863.got.cif
#   From: 2010.05.17/outbox.cif.g08.bks.cpg/sg12_162_cif.got.tgz:323863.got - 2010.06.03 13:09:07.
