data_PCOD9169790
_publ_section_title
;
Structure prediction by ZEFSAII (Michael W. Deem and Ramdas Pophale) SiO2 
 PCOD9169790
Probable space group: C 2/M
;
_chemical_formula_sum "Si O2"
_cell_formula_units_Z 48
_cell_length_a 25.091671
_cell_length_b 19.462747
_cell_length_c 13.105302
_cell_angle_alpha 90.000000
_cell_angle_beta 152.843296
_cell_angle_gamma 90.000000
_cell_volume 2921.129748
_symmetry_space_group_name_H-M "C 2/M"
_symmetry_group_IT_number 12
_symmetry_cell_setting 'monoclinic'
loop_
_space_group_symop_operation_xyz
x,y,z
-x,y,-z
-x,-y,-z
x,-y,z
1/2+x,1/2+y,z
1/2-x,1/2+y,-z
1/2-x,1/2-y,-z
1/2+x,1/2-y,z
loop_
_atom_site_type_symbol
_atom_site_label
_atom_site_fract_x
_atom_site_fract_y
_atom_site_fract_z
Si Si1 0.256779 0.814819 0.280587
Si Si2 0.777019 0.838154 0.369692
Si Si3 0.617117 0.177350 0.295591
Si Si4 0.509540 0.670404 0.133253
Si Si5 0.426027 0.079832 0.058770
Si Si6 0.934861 0.420182 0.495953
O O1 0.289024 0.733865 0.329302
O O2 0.293318 0.832848 0.458955
O O3 0.332406 0.865025 0.338808
O O4 0.118920 0.826046 0.037667
O O5 0.690173 0.823731 0.317054
O O6 0.896684 0.861828 0.628276
O O7 0.703952 0.891320 0.177869
O O8 0.557390 0.251609 0.203890
O O9 0.517101 0.121326 0.143215
O O10 0.500000 0.642796 0.000000
O O11 0.474510 0.089408 0.256034
O O12 0.429808 0.000000 0.039442
O O13 0.893534 0.500000 0.431167
O O14 0.000000 0.410645 0.500000
#
# Coordination Sequence:
#
# PCOD9169790 Si02
#       6
#     8   8   8   8   8   8
#     4  10  18  30  53  79 103 135 178 212 247 308
#     4  11  19  28  48  77 112 145 170 200 251 305
#     4  10  17  28  48  75 107 143 178 205 243 296
#     4  11  16  28  47  74 107 146 171 200 242 306
#     4  10  20  33  51  75 103 134 179 222 254 297
#     4   9  20  40  62  77  93 126 174 228 274 304
#
# _framework density 16.431999000000001
#
# number of rings (size 3 to 8) (size 9 to 14) (size 15 to 20)
#    0.000    1.833    5.000    1.500    0.000    1.333 
#    0.000    1.667    0.000    1.000    0.000    3.500 
#    0.000    0.000    0.000    0.000    0.000    0.000 
#
# Total GULP energy -133740.769114 kJ/mol
# GULP energy per Si atom -5572.532046 kJ/mol
# Density = 1.639460 g / cm^3
# Si number density = 16.431999 Si / 1000 Ang^3
#
#
#
# Elastic Constant Matrix: (Units=GPa)
#
#
# Indices 1 2 3 4 5 6 
#
# 1 59.5400 19.6876 17.7788 0.0000 -0.4700 0.0000
# 2 19.6876 40.6116 22.1577 0.0000 -0.0404 0.0000
# 3 17.7788 22.1577 118.7576 0.0000 20.0999 0.0000
# 4 0.0000 0.0000 0.0000 26.2942 0.0000 3.3820
# 5 -0.4700 -0.0404 20.0999 0.0000 15.1948 0.0000
# 6 0.0000 0.0000 0.0000 3.3820 0.0000 21.8520
#
#
#
# Elastic Compliance Matrix: (Units=1/GPa)
#
#
# Indices 1 2 3 4 5 6 
#
# 1 0.020303 -0.008782 -0.001937 0.000000 0.003167 0.000000
# 2 -0.008782 0.032161 -0.005997 0.000000 0.007747 0.000000
# 3 -0.001937 -0.005997 0.012681 0.000000 -0.016851 0.000000
# 4 0.000000 0.000000 0.000000 0.038804 0.000000 -0.006006
# 5 0.003167 0.007747 -0.016851 0.000000 0.088222 0.000000
# 6 0.000000 0.000000 0.000000 -0.006006 0.000000 0.046692
#
#
# Mechanical properties :
#
#
# Convention : Reuss Voigt Hill
#
# Bulk Modulus (GPa) = 31.53319 37.57305 34.55312
# Shear Modulus (GPa) = 17.67626 23.28720 20.48173
#
# Velocity S-wave (km/s) = 3.28338 3.76864 3.53435
# Velocity P-wave (km/s) = 5.79706 6.46933 6.14240
#
# Compressibility (1/GPa) = 0.03171262
#
# Stress axis : x y z
#
# Youngs Moduli (GPa) = 49.25432 31.09392 78.85547
#
# Poissons Ratio (x) = 0.27308 0.15273
# Poissons Ratio (y) = 0.43257 0.47289
# Poissons Ratio (z) = 0.09539 0.18647
#
# Static dielectric constant tensor:
#      x y z
#    x 1.525100 0.000000 -0.013100 
#    y 0.000000 1.562050 0.000000 
#    z -0.013100 0.000000 1.616850 
# 
# From -- ./inp_files/177407.got.cif
#   From: 2010.05.17/outbox.cif.g08.bks.cpg/sg12_89_cif.got.tgz:177407.got - 2010.06.03 13:09:07.
