data_PCOD9169108
_publ_section_title
;
Structure prediction by ZEFSAII (Michael W. Deem and Ramdas Pophale) SiO2 
 PCOD9169108
Probable space group: C 2/M
;
_chemical_formula_sum "Si O2"
_cell_formula_units_Z 28
_cell_length_a 8.701266
_cell_length_b 13.817941
_cell_length_c 21.946029
_cell_angle_alpha 90.000000
_cell_angle_beta 154.690307
_cell_angle_gamma 90.000000
_cell_volume 1128.051232
_symmetry_space_group_name_H-M "C 2/M"
_symmetry_group_IT_number 12
_symmetry_cell_setting 'monoclinic'
loop_
_space_group_symop_operation_xyz
x,y,z
-x,y,-z
-x,-y,-z
x,-y,z
1/2+x,1/2+y,z
1/2-x,1/2+y,-z
1/2-x,1/2-y,-z
1/2+x,1/2-y,z
loop_
_atom_site_type_symbol
_atom_site_label
_atom_site_fract_x
_atom_site_fract_y
_atom_site_fract_z
Si Si1 0.390040 0.296710 0.112208
Si Si2 0.651356 0.500000 0.486791
Si Si3 0.674721 0.166735 0.624775
Si Si4 0.675235 0.500000 0.934016
Si Si5 0.696445 0.500000 0.759504
O O1 0.653350 0.263539 0.261722
O O2 0.543623 0.402623 0.151372
O O3 0.250000 0.250000 0.000000
O O4 0.000000 0.310491 0.000000
O O5 0.500000 0.500000 0.500000
O O6 0.337745 0.500000 0.324452
O O7 0.885798 0.594614 0.551891
O O8 0.500000 0.209642 0.500000
O O9 0.991030 0.093692 0.714281
O O10 0.000000 0.500000 0.000000
O O11 0.893932 0.500000 0.074412
#
# Coordination Sequence:
#
# PCOD9169108 Si02
#       5
#     8   4   8   4   4
#     4  11  22  40  63  91 125 159 208 260 302 367
#     4   9  18  31  56  97 128 144 201 268 310 347
#     4   9  17  34  61  87 112 164 210 238 298 383
#     4  10  16  34  66  82 113 162 206 233 304 368
#     4   9  14  31  62  86 106 159 203 237 287 383
#
# _framework density 24.821567999999999
#
# number of rings (size 3 to 8) (size 9 to 14) (size 15 to 20)
#    0.000    2.286    5.714    2.571    0.000    0.000 
#    5.143    2.143    0.000    0.000    0.000    0.000 
#    0.000    0.000    0.000    0.000    0.000    0.000 
#
# Total GULP energy -78050.111979 kJ/mol
# GULP energy per Si atom -5575.007999 kJ/mol
# Density = 2.476507 g / cm^3
# Si number density = 24.821568 Si / 1000 Ang^3
#
#
#
# Elastic Constant Matrix: (Units=GPa)
#
#
# Indices 1 2 3 4 5 6 
#
# 1 123.4892 30.0153 52.0265 0.0007 -47.1677 -0.0006
# 2 30.0153 43.7002 18.6270 0.0062 -23.8288 0.0010
# 3 52.0265 18.6270 221.0979 0.0174 -79.4100 -0.0013
# 4 0.0007 0.0062 0.0174 29.2384 -0.0011 -11.3658
# 5 -47.1677 -23.8288 -79.4100 -0.0011 57.6692 -0.0025
# 6 -0.0006 0.0010 -0.0013 -11.3658 -0.0025 13.6110
#
#
#
# Elastic Compliance Matrix: (Units=1/GPa)
#
#
# Indices 1 2 3 4 5 6 
#
# 1 0.012353 -0.003424 0.000994 0.000002 0.010057 0.000004
# 2 -0.003424 0.032147 0.003685 -0.000012 0.015556 -0.000009
# 3 0.000994 0.003685 0.009531 -0.000007 0.015460 -0.000002
# 4 0.000002 -0.000012 -0.000007 0.050639 -0.000010 0.042286
# 5 0.010057 0.015556 0.015460 -0.000010 0.053281 0.000003
# 6 0.000004 -0.000009 -0.000002 0.042286 0.000003 0.108781
#
#
# Mechanical properties :
#
#
# Convention : Reuss Voigt Hill
#
# Bulk Modulus (GPa) = 17.68684 65.51387 41.60036
# Shear Modulus (GPa) = 17.66344 39.27827 28.47086
#
# Velocity S-wave (km/s) = 2.67051 3.98229 3.39044
# Velocity P-wave (km/s) = 4.08043 6.89899 5.66771
#
# Compressibility (1/GPa) = 0.05653922
#
# Stress axis : x y z
#
# Youngs Moduli (GPa) = 80.95330 31.10715 104.91974
#
# Poissons Ratio (x) = 0.10652 -0.10427
# Poissons Ratio (y) = 0.27720 -0.38658
# Poissons Ratio (z) = -0.08045 -0.11462
#
# Static dielectric constant tensor:
#      x y z
#    x 1.964160 -0.000020 -0.047130 
#    y -0.000020 0.739750 0.000080 
#    z -0.047130 0.000080 2.053940 
# 
# From -- ./inp_files/87586.got.cif
#   From: 2010.05.17/outbox.cif.g08.bks.cpg/sg12_44_cif.got.tgz:87586.got - 2010.06.03 13:09:07.
