data_PCOD9169655
_publ_section_title
;
Structure prediction by ZEFSAII (Michael W. Deem and Ramdas Pophale) SiO2 
 PCOD9169655
Probable space group: C 2/M
;
_chemical_formula_sum "Si O2"
_cell_formula_units_Z 56
_cell_length_a 15.143762
_cell_length_b 15.979069
_cell_length_c 24.578592
_cell_angle_alpha 90.000000
_cell_angle_beta 23.749961
_cell_angle_gamma 90.000000
_cell_volume 2395.375239
_symmetry_space_group_name_H-M "C 2/M"
_symmetry_group_IT_number 12
_symmetry_cell_setting 'monoclinic'
loop_
_space_group_symop_operation_xyz
x,y,z
-x,y,-z
-x,-y,-z
x,-y,z
1/2+x,1/2+y,z
1/2-x,1/2+y,-z
1/2-x,1/2-y,-z
1/2+x,1/2-y,z
loop_
_atom_site_type_symbol
_atom_site_label
_atom_site_fract_x
_atom_site_fract_y
_atom_site_fract_z
Si Si1 0.235512 0.911923 0.997297
Si Si2 0.260069 0.874723 0.703278
Si Si3 0.245766 0.906200 0.580753
Si Si4 0.513376 0.406758 0.558138
Si Si5 0.607066 0.195456 0.788040
Si Si6 0.241917 0.592384 0.142678
Si Si7 0.104632 0.277573 0.658287
O O1 0.368603 0.832247 0.944556
O O2 0.308434 0.914012 0.893267
O O3 0.300327 0.000000 0.987218
O O4 0.973187 0.909319 0.145220
O O5 0.255069 0.893707 0.641169
O O6 0.502918 0.903608 0.582025
O O7 0.228788 0.778606 0.738010
O O8 0.126420 0.819824 0.630216
O O9 0.155985 0.000000 0.620890
O O10 0.500000 0.408146 0.500000
O O11 0.577832 0.500000 0.539784
O O12 0.268475 0.380472 0.711549
O O13 0.686009 0.334569 0.475329
O O14 0.598417 0.216075 0.728052
O O15 0.192800 0.500000 0.194145
O O16 0.104945 0.669528 0.242387
O O17 0.500000 0.606792 0.000000
#
# Coordination Sequence:
#
# PCOD9169655 Si02
#       7
#     8   8   8   8   8   8   8
#     4  10  18  27  41  63  90 120 149 178 218 260
#     4  10  17  28  41  62  92 124 151 178 209 250
#     4  10  18  28  43  63  90 121 153 180 206 249
#     4   9  14  22  37  59  87 116 144 172 207 256
#     4   9  16  25  38  61  91 119 143 171 210 262
#     4   9  18  32  49  68  87 109 143 186 228 267
#     4   9  16  27  43  63  87 114 144 178 216 257
#
# _framework density 23.378382999999999
#
# number of rings (size 3 to 8) (size 9 to 14) (size 15 to 20)
#    0.000    2.571    1.429    3.000    0.000    3.429 
#    0.000    0.000    0.000    1.286    0.000    0.000 
#    0.000    0.000    0.000    0.000    0.000    0.000 
#
# Total GULP energy -156062.258153 kJ/mol
# GULP energy per Si atom -5573.652077 kJ/mol
# Density = 2.332517 g / cm^3
# Si number density = 23.378383 Si / 1000 Ang^3
#
#
#
# Elastic Constant Matrix: (Units=GPa)
#
#
# Indices 1 2 3 4 5 6 
#
# 1 48.8825 5.4027 4.4332 -0.0193 12.5596 0.0037
# 2 5.4027 223.8801 83.6075 -0.0456 -22.4978 0.0074
# 3 4.4332 83.6075 104.8008 -0.1093 -6.9415 0.0227
# 4 -0.0193 -0.0456 -0.1093 -98.2647 -0.0540 17.6615
# 5 12.5596 -22.4978 -6.9415 -0.0540 25.1459 0.0118
# 6 0.0037 0.0074 0.0227 17.6615 0.0118 -7.7450
#
#
#
# Elastic Compliance Matrix: (Units=1/GPa)
#
#
# Indices 1 2 3 4 5 6 
#
# 1 0.024262 -0.001783 -0.000522 0.000003 -0.013858 -0.000005
# 2 -0.001783 0.007003 -0.005131 -0.000001 0.005739 -0.000002
# 3 -0.000522 -0.005131 0.013619 -0.000011 -0.000570 0.000010
# 4 0.000003 -0.000001 -0.000011 -0.017244 -0.000024 -0.039324
# 5 -0.013858 0.005739 -0.000570 -0.000024 0.051667 0.000022
# 6 -0.000005 -0.000002 0.000010 -0.039324 0.000022 -0.218789
#
#
# Mechanical properties :
#
#
# Convention : Reuss Voigt Hill
#
# Bulk Modulus (GPa) = 33.31916 62.71670 48.01793
# Shear Modulus (GPa) = -43.62746 2.76859 -20.42944
#
# Velocity S-wave (km/s) = -4.32458 1.08941 -2.95932
# Velocity P-wave (km/s) = 3.26388 5.33549 2.98451
#
# Compressibility (1/GPa) = 0.03001276
#
# Stress axis : x y z
#
# Youngs Moduli (GPa) = 41.21655 142.80416 73.42420
#
# Poissons Ratio (x) = 0.25466 0.03829
# Poissons Ratio (y) = 0.07350 0.37673
# Poissons Ratio (z) = 0.02149 0.73272
#
# Static dielectric constant tensor:
#      x y z
#    x 1.921420 0.000000 0.013700 
#    y 0.000000 1.977200 0.000010 
#    z 0.013700 0.000010 1.863760 
# 
# From -- ./inp_files/379626.got.cif
#   From: 2010.05.17/outbox.cif.g08.bks.cpg/sg12_190_cif.got.tgz:379626.got - 2010.06.03 13:09:07.
