data_PCOD9169390
_publ_section_title
;
Structure prediction by ZEFSAII (Michael W. Deem and Ramdas Pophale) SiO2 
 PCOD9169390
Probable space group: C 2/M
;
_chemical_formula_sum "Si O2"
_cell_formula_units_Z 64
_cell_length_a 22.945675
_cell_length_b 12.838088
_cell_length_c 15.191929
_cell_angle_alpha 90.000000
_cell_angle_beta 74.847203
_cell_angle_gamma 90.000000
_cell_volume 4319.623515
_symmetry_space_group_name_H-M "C 2/M"
_symmetry_group_IT_number 12
_symmetry_cell_setting 'monoclinic'
loop_
_space_group_symop_operation_xyz
x,y,z
-x,y,-z
-x,-y,-z
x,-y,z
1/2+x,1/2+y,z
1/2-x,1/2+y,-z
1/2-x,1/2-y,-z
1/2+x,1/2-y,z
loop_
_atom_site_type_symbol
_atom_site_label
_atom_site_fract_x
_atom_site_fract_y
_atom_site_fract_z
Si Si1 0.933125 0.253020 0.499109
Si Si2 0.853498 0.874834 0.667092
Si Si3 0.819964 0.377074 0.485604
Si Si4 0.852220 0.878298 0.207489
Si Si5 0.417478 0.626033 0.817065
Si Si6 0.262862 0.246841 0.352318
Si Si7 0.430665 0.373144 0.009074
Si Si8 0.455163 0.378994 0.316014
O O1 0.904031 0.178674 0.585333
O O2 0.884723 0.342981 0.498409
O O3 0.939374 0.186433 0.407651
O O4 0.000000 0.288058 0.500000
O O5 0.868765 0.846390 0.762177
O O6 0.789584 0.828838 0.662115
O O7 0.855525 0.000000 0.656768
O O8 0.814750 0.500000 0.477626
O O9 0.769716 0.332711 0.572914
O O10 0.806984 0.318299 0.398799
O O11 0.798473 0.805092 0.261172
O O12 0.885383 0.843175 0.104973
O O13 0.902424 0.874907 0.264788
O O14 0.833695 0.000000 0.205472
O O15 0.418427 0.500000 0.820950
O O16 0.482928 0.657635 0.753904
O O17 0.410454 0.662508 0.920046
O O18 0.431581 0.500000 0.009665
O O19 0.500000 0.340598 0.000000
O O20 0.463619 0.500000 0.338423
#
# Coordination Sequence:
#
# PCOD9169390 Si02
#       8
#     8   8   8   8   8   8   8   8
#     4  11  20  30  47  72  96 122 154 187 228 284
#     4  10  20  31  46  67  96 129 156 190 228 266
#     4  10  21  35  48  64  92 125 157 194 227 265
#     4  10  18  29  48  71  95 121 152 190 230 275
#     4   9  16  27  43  67  98 124 146 183 236 278
#     4  10  20  34  48  66  88 125 165 191 219 269
#     4   9  15  25  43  69  97 121 144 179 235 287
#     4  10  17  26  44  71 100 123 147 185 232 278
#
# _framework density 14.816106
#
# number of rings (size 3 to 8) (size 9 to 14) (size 15 to 20)
#    0.000    2.125    3.750    1.125    0.000    0.750 
#    0.000    0.625    0.000    0.000    0.000    0.000 
#    0.000   10.000    0.000    0.000    0.000    0.000 
#
# Total GULP energy -178332.407192 kJ/mol
# GULP energy per Si atom -5572.887725 kJ/mol
# Density = 1.478238 g / cm^3
# Si number density = 14.816106 Si / 1000 Ang^3
#
#
#
# Elastic Constant Matrix: (Units=GPa)
#
#
# Indices 1 2 3 4 5 6 
#
# 1 80.5802 31.2665 32.4556 0.0000 -0.7028 0.0000
# 2 31.2665 61.2944 29.7584 0.0000 -4.6644 0.0000
# 3 32.4556 29.7584 116.4725 0.0000 1.9688 0.0000
# 4 0.0000 0.0000 0.0000 12.9647 0.0000 -2.9143
# 5 -0.7028 -4.6644 1.9688 0.0000 21.6996 0.0000
# 6 0.0000 0.0000 0.0000 -2.9143 0.0000 9.4030
#
#
#
# Elastic Compliance Matrix: (Units=1/GPa)
#
#
# Indices 1 2 3 4 5 6 
#
# 1 0.016217 -0.007010 -0.002716 0.000000 -0.000735 0.000000
# 2 -0.007010 0.022093 -0.003773 0.000000 0.004864 0.000000
# 3 -0.002716 -0.003773 0.010338 0.000000 -0.001837 0.000000
# 4 0.000000 0.000000 0.000000 0.082909 0.000000 0.025696
# 5 -0.000735 0.004864 -0.001837 0.000000 0.047272 0.000000
# 6 0.000000 0.000000 0.000000 0.025696 0.000000 0.114314
#
#
# Mechanical properties :
#
#
# Convention : Reuss Voigt Hill
#
# Bulk Modulus (GPa) = 46.19048 49.47868 47.83458
# Shear Modulus (GPa) = 15.27384 19.80457 17.53920
#
# Velocity S-wave (km/s) = 3.21424 3.66005 3.44436
# Velocity P-wave (km/s) = 6.70959 7.16442 6.94073
#
# Compressibility (1/GPa) = 0.02164948
#
# Stress axis : x y z
#
# Youngs Moduli (GPa) = 61.66228 45.26374 96.73444
#
# Poissons Ratio (x) = 0.31730 0.26269
# Poissons Ratio (y) = 0.43226 0.36502
# Poissons Ratio (z) = 0.16745 0.17080
#
# Static dielectric constant tensor:
#      x y z
#    x 1.502330 0.000000 0.006700 
#    y 0.000000 1.459860 0.000000 
#    z 0.006700 0.000000 1.491300 
# 
# From -- ./inp_files/232509.got.cif
#   From: 2010.05.17/outbox.cif.g08.bks.cpg/sg12_117_cif.got.tgz:232509.got - 2010.06.03 13:09:07.
