data_PCOD9169554
_publ_section_title
;
Structure prediction by ZEFSAII (Michael W. Deem and Ramdas Pophale) SiO2 
 PCOD9169554
Probable space group: C 2/M
;
_chemical_formula_sum "Si O2"
_cell_formula_units_Z 64
_cell_length_a 22.315125
_cell_length_b 18.397865
_cell_length_c 13.100081
_cell_angle_alpha 90.000000
_cell_angle_beta 47.173199
_cell_angle_gamma 90.000000
_cell_volume 3944.470600
_symmetry_space_group_name_H-M "C 2/M"
_symmetry_group_IT_number 12
_symmetry_cell_setting 'monoclinic'
loop_
_space_group_symop_operation_xyz
x,y,z
-x,y,-z
-x,-y,-z
x,-y,z
1/2+x,1/2+y,z
1/2-x,1/2+y,-z
1/2-x,1/2-y,-z
1/2+x,1/2-y,z
loop_
_atom_site_type_symbol
_atom_site_label
_atom_site_fract_x
_atom_site_fract_y
_atom_site_fract_z
Si Si1 0.775286 0.733614 0.111708
Si Si2 0.308952 0.309008 0.602958
Si Si3 0.122918 0.803835 0.159608
Si Si4 0.405411 0.584666 0.643228
Si Si5 0.527912 0.220303 0.586546
Si Si6 0.813494 0.583399 0.324807
Si Si7 0.141359 0.582582 0.966750
Si Si8 0.971422 0.583377 0.280523
O O1 0.755916 0.735246 0.253338
O O2 0.688559 0.739004 0.154802
O O3 0.809254 0.652178 0.048525
O O4 0.837653 0.792991 0.996512
O O5 0.349162 0.370120 0.631003
O O6 0.383969 0.256016 0.493603
O O7 0.257580 0.356450 0.582354
O O8 0.110988 0.881745 0.226176
O O9 0.037283 0.764462 0.271063
O O10 0.500000 0.595239 0.500000
O O11 0.386522 0.500000 0.660483
O O12 0.500000 0.227166 0.500000
O O13 0.524237 0.138550 0.630993
O O14 0.784137 0.500000 0.373367
O O15 0.847814 0.586983 0.168369
O O16 0.888873 0.596692 0.312526
O O17 0.168396 0.500000 0.964641
O O18 0.049210 0.591277 0.114605
O O19 0.971349 0.500000 0.315392
#
# Coordination Sequence:
#
# PCOD9169554 Si02
#       8
#     8   8   8   8   8   8   8   8
#     4   9  17  27  47  68  93 125 161 192 238 288
#     4  10  18  31  49  74  98 128 157 197 251 295
#     4  10  17  30  44  67  94 130 161 193 236 290
#     4  10  17  27  45  69  95 126 157 191 243 302
#     4  12  20  34  51  68 101 136 165 200 243 285
#     4   9  18  32  50  74 103 127 156 203 251 295
#     4   9  16  29  50  74  97 123 155 198 252 296
#     4  10  21  34  50  70  96 133 171 203 239 286
#
# _framework density 16.225244
#
# number of rings (size 3 to 8) (size 9 to 14) (size 15 to 20)
#    0.000    2.125    5.000    0.750    0.000    5.250 
#    0.000    0.000    0.000    0.750    0.000    0.000 
#    0.000    0.000    0.000    6.000    0.000    0.000 
#
# Total GULP energy -178149.436113 kJ/mol
# GULP energy per Si atom -5567.169879 kJ/mol
# Density = 1.618831 g / cm^3
# Si number density = 16.225244 Si / 1000 Ang^3
#
#
#
# Elastic Constant Matrix: (Units=GPa)
#
#
# Indices 1 2 3 4 5 6 
#
# 1 22.6633 4.6294 4.7059 0.0000 -11.3560 0.0000
# 2 4.6294 55.6494 18.4590 0.0000 -3.9542 0.0000
# 3 4.7059 18.4590 60.7871 0.0000 -16.1155 0.0000
# 4 0.0000 0.0000 0.0000 19.1343 0.0000 -3.0953
# 5 -11.3560 -3.9542 -16.1155 0.0000 17.4036 0.0000
# 6 0.0000 0.0000 0.0000 -3.0953 0.0000 22.7291
#
#
#
# Elastic Compliance Matrix: (Units=1/GPa)
#
#
# Indices 1 2 3 4 5 6 
#
# 1 0.070375 -0.005525 0.010697 0.000000 0.054570 0.000000
# 2 -0.005525 0.020443 -0.007296 0.000000 -0.005716 0.000000
# 3 0.010697 -0.007296 0.025512 0.000000 0.028946 0.000000
# 4 0.000000 0.000000 0.000000 0.053440 0.000000 0.007278
# 5 0.054570 -0.005716 0.028946 0.000000 0.118571 0.000000
# 6 0.000000 0.000000 0.000000 0.007278 0.000000 0.044987
#
#
# Mechanical properties :
#
#
# Convention : Reuss Voigt Hill
#
# Bulk Modulus (GPa) = 8.92196 21.63205 15.27700
# Shear Modulus (GPa) = 13.33556 19.27378 16.30467
#
# Velocity S-wave (km/s) = 2.86999 3.45031 3.17345
# Velocity P-wave (km/s) = 4.06119 5.40686 4.78160
#
# Compressibility (1/GPa) = 0.11208303
#
# Stress axis : x y z
#
# Youngs Moduli (GPa) = 14.20955 48.91638 39.19698
#
# Poissons Ratio (x) = 0.27027 -0.41929
# Poissons Ratio (y) = 0.07851 0.28596
# Poissons Ratio (z) = -0.15200 0.35687
#
# Static dielectric constant tensor:
#      x y z
#    x 1.545310 0.000000 -0.018320 
#    y 0.000000 1.560520 0.000000 
#    z -0.018320 0.000000 1.574980 
# 
# From -- ./inp_files/246352.got.cif
#   From: 2010.05.17/outbox.cif.g08.bks.cpg/sg12_124_cif.got.tgz:246352.got - 2010.06.03 13:09:07.
