data_PCOD9169526
_publ_section_title
;
Structure prediction by ZEFSAII (Michael W. Deem and Ramdas Pophale) SiO2 
 PCOD9169526
Probable space group: C 2/M
;
_chemical_formula_sum "Si O2"
_cell_formula_units_Z 56
_cell_length_a 14.292898
_cell_length_b 19.126790
_cell_length_c 11.937520
_cell_angle_alpha 90.000000
_cell_angle_beta 83.676338
_cell_angle_gamma 90.000000
_cell_volume 3243.590223
_symmetry_space_group_name_H-M "C 2/M"
_symmetry_group_IT_number 12
_symmetry_cell_setting 'monoclinic'
loop_
_space_group_symop_operation_xyz
x,y,z
-x,y,-z
-x,-y,-z
x,-y,z
1/2+x,1/2+y,z
1/2-x,1/2+y,-z
1/2-x,1/2-y,-z
1/2+x,1/2-y,z
loop_
_atom_site_type_symbol
_atom_site_label
_atom_site_fract_x
_atom_site_fract_y
_atom_site_fract_z
Si Si1 0.832481 0.845892 0.695534
Si Si2 0.890721 0.078599 0.475174
Si Si3 0.712198 0.918518 0.896019
Si Si4 0.182948 0.918898 0.888722
Si Si5 0.017854 0.917336 0.763918
Si Si6 0.231683 0.284143 0.180954
Si Si7 0.891386 0.286794 0.023362
O O1 0.839606 0.869199 0.565924
O O2 0.755519 0.890103 0.775134
O O3 0.806556 0.764859 0.716037
O O4 0.930675 0.868646 0.742873
O O5 0.902320 0.093701 0.342641
O O6 0.000000 0.077477 0.500000
O O7 0.853131 0.000000 0.495601
O O8 0.627447 0.868074 0.943792
O O9 0.689122 0.000000 0.893469
O O10 0.790805 0.908704 0.984153
O O11 0.074184 0.905694 0.871149
O O12 0.250696 0.866383 0.812126
O O13 0.200823 0.000000 0.859396
O O14 0.988599 0.000000 0.761393
O O15 0.332426 0.255290 0.124167
O O16 0.160137 0.272257 0.087311
O O17 0.000000 0.269891 0.000000
#
# Coordination Sequence:
#
# PCOD9169526 Si02
#       7
#     8   8   8   8   8   8   8
#     4  10  17  27  44  68  94 122 146 190 234 269
#     4   8  14  26  43  64  93 121 150 182 223 279
#     4   9  17  29  44  66  94 120 152 190 221 264
#     4   9  18  32  45  62  94 121 150 189 225 273
#     4   9  17  28  46  70  92 123 153 181 231 282
#     4   9  19  31  43  68  90 120 158 186 228 272
#     4   9  18  31  45  61  91 128 154 183 227 273
#
# _framework density 17.26482
#
# number of rings (size 3 to 8) (size 9 to 14) (size 15 to 20)
#    0.000    3.000    0.000    3.000    2.000    0.857 
#    0.000    2.857    0.000    0.000    0.000    0.000 
#    0.000    5.143    0.000   22.429    0.000    0.000 
#
# Total GULP energy -155902.574270 kJ/mol
# GULP energy per Si atom -5567.949081 kJ/mol
# Density = 1.722552 g / cm^3
# Si number density = 17.264820 Si / 1000 Ang^3
#
#
#
# Elastic Constant Matrix: (Units=GPa)
#
#
# Indices 1 2 3 4 5 6 
#
# 1 62.4585 6.8008 7.8294 0.0000 -8.7055 0.0000
# 2 6.8008 73.4473 14.0559 0.0000 -11.1803 0.0000
# 3 7.8294 14.0559 39.4892 0.0000 -14.6004 0.0000
# 4 0.0000 0.0000 0.0000 16.3716 0.0000 -0.2835
# 5 -8.7055 -11.1803 -14.6004 0.0000 16.6787 0.0000
# 6 0.0000 0.0000 0.0000 -0.2835 0.0000 11.0329
#
#
#
# Elastic Compliance Matrix: (Units=1/GPa)
#
#
# Indices 1 2 3 4 5 6 
#
# 1 0.017271 -0.000247 -0.000096 0.000000 0.008766 0.000000
# 2 -0.000247 0.015324 -0.002447 0.000000 0.008001 0.000000
# 3 -0.000096 -0.002447 0.037834 0.000000 0.031429 0.000000
# 4 0.000000 0.000000 0.000000 0.061109 0.000000 0.001570
# 5 0.008766 0.008001 0.031429 0.000000 0.097408 0.000000
# 6 0.000000 0.000000 0.000000 0.001570 0.000000 0.090678
#
#
# Mechanical properties :
#
#
# Convention : Reuss Voigt Hill
#
# Bulk Modulus (GPa) = 15.42013 25.86301 20.64157
# Shear Modulus (GPa) = 14.41671 18.59724 16.50697
#
# Velocity S-wave (km/s) = 2.89283 3.28560 3.09545
# Velocity P-wave (km/s) = 4.48429 5.42275 4.97570
#
# Compressibility (1/GPa) = 0.06485028
#
# Stress axis : x y z
#
# Youngs Moduli (GPa) = 57.89978 65.25552 26.43145
#
# Poissons Ratio (x) = 0.01609 0.00253
# Poissons Ratio (y) = 0.01428 0.06469
# Poissons Ratio (z) = 0.00553 0.15971
#
# Static dielectric constant tensor:
#      x y z
#    x 1.577140 0.000000 0.018800 
#    y 0.000000 1.631820 0.000000 
#    z 0.018800 0.000000 1.617300 
# 
# From -- ./inp_files/147048.got.cif
#   From: 2010.05.17/outbox.cif.g08.bks.cpg/sg12_74_cif.got.tgz:147048.got - 2010.06.03 13:09:07.
