data_PCOD9169865
_publ_section_title
;
Structure prediction by ZEFSAII (Michael W. Deem and Ramdas Pophale) SiO2 
 PCOD9169865
Probable space group: C 2/M
;
_chemical_formula_sum "Si O2"
_cell_formula_units_Z 40
_cell_length_a 9.340398
_cell_length_b 28.586292
_cell_length_c 7.937761
_cell_angle_alpha 90.000000
_cell_angle_beta 119.993761
_cell_angle_gamma 90.000000
_cell_volume 1835.604687
_symmetry_space_group_name_H-M "C 2/M"
_symmetry_group_IT_number 12
_symmetry_cell_setting 'monoclinic'
loop_
_space_group_symop_operation_xyz
x,y,z
-x,y,-z
-x,-y,-z
x,-y,z
1/2+x,1/2+y,z
1/2-x,1/2+y,-z
1/2-x,1/2-y,-z
1/2+x,1/2-y,z
loop_
_atom_site_type_symbol
_atom_site_label
_atom_site_fract_x
_atom_site_fract_y
_atom_site_fract_z
Si Si1 0.006739 0.054178 0.210905
Si Si2 0.689332 0.884761 0.654460
Si Si3 0.897018 0.205243 0.764447
Si Si4 0.680221 0.108730 0.049920
Si Si5 0.769809 0.785900 0.173080
O O1 0.846095 0.079990 0.194315
O O2 0.177690 0.080652 0.351805
O O3 0.008963 0.000000 0.260587
O O4 0.000000 0.055990 0.000000
O O5 0.500000 0.891901 0.500000
O O6 0.756927 0.832941 0.657061
O O7 0.691768 0.890856 0.855880
O O8 0.819831 0.256248 0.738053
O O9 0.036070 0.205594 0.705898
O O10 0.000000 0.192707 0.000000
O O11 0.692335 0.163021 0.110973
O O12 0.500000 0.090233 0.000000
O O13 0.750000 0.750000 0.000000
#
# Coordination Sequence:
#
# PCOD9169865 Si02
#       5
#     8   8   8   8   8
#     4   9  19  38  62  83 107 146 193 234 272 330
#     4  11  21  36  56  83 117 147 182 232 283 333
#     4  10  17  32  53  77 106 148 193 223 263 326
#     4  11  20  35  60  85 110 143 192 235 269 329
#     4  10  17  28  56  78 103 141 196 221 259 316
#
# _framework density 21.791183
#
# number of rings (size 3 to 8) (size 9 to 14) (size 15 to 20)
#    0.000    1.800    6.000    2.400    0.000    0.800 
#    0.000    2.000    0.000    1.200    0.000    0.000 
#    0.000    0.000    0.000    0.000    0.000    0.000 
#
# Total GULP energy -111668.895035 kJ/mol
# GULP energy per Si atom -5583.444752 kJ/mol
# Density = 2.174159 g / cm^3
# Si number density = 21.791183 Si / 1000 Ang^3
#
#
#
# Elastic Constant Matrix: (Units=GPa)
#
#
# Indices 1 2 3 4 5 6 
#
# 1 183.1857 75.6197 34.1125 0.0000 57.1843 0.0000
# 2 75.6197 157.8045 37.3306 0.0000 39.5891 0.0000
# 3 34.1125 37.3306 43.1080 0.0000 20.7245 0.0000
# 4 0.0000 0.0000 0.0000 4.5274 0.0000 7.6622
# 5 57.1843 39.5891 20.7245 0.0000 42.2922 0.0000
# 6 0.0000 0.0000 0.0000 7.6622 0.0000 33.8581
#
#
#
# Elastic Compliance Matrix: (Units=1/GPa)
#
#
# Indices 1 2 3 4 5 6 
#
# 1 0.009846 -0.001666 -0.000913 0.000000 -0.011306 0.000000
# 2 -0.001666 0.009292 -0.004748 0.000000 -0.004119 0.000000
# 3 -0.000913 -0.004748 0.033099 0.000000 -0.010540 0.000000
# 4 0.000000 0.000000 0.000000 0.357985 0.000000 -0.081013
# 5 -0.011306 -0.004119 -0.010540 0.000000 0.047953 0.000000
# 6 0.000000 0.000000 0.000000 -0.081013 0.000000 0.047868
#
#
# Mechanical properties :
#
#
# Convention : Reuss Voigt Hill
#
# Bulk Modulus (GPa) = 26.60807 75.35821 50.98314
# Shear Modulus (GPa) = 9.37690 31.93790 20.65740
#
# Velocity S-wave (km/s) = 2.07664 3.83251 3.08225
# Velocity P-wave (km/s) = 4.24109 7.36487 6.00950
#
# Compressibility (1/GPa) = 0.03758259
#
# Stress axis : x y z
#
# Youngs Moduli (GPa) = 101.56341 107.62302 30.21210
#
# Poissons Ratio (x) = 0.17927 0.02760
# Poissons Ratio (y) = 0.16917 0.14345
# Poissons Ratio (z) = 0.09277 0.51101
#
# Static dielectric constant tensor:
#      x y z
#    x 1.793850 0.000000 -0.015640 
#    y 0.000000 1.780680 0.000000 
#    z -0.015640 0.000000 1.924810 
# 
# From -- ./inp_files/40533.got.cif
#   From: 2010.05.17/outbox.cif.g08.bks.cpg/sg12_21_cif.got.tgz:40533.got - 2010.06.03 13:09:07.
