data_PCOD9169485
_publ_section_title
;
Structure prediction by ZEFSAII (Michael W. Deem and Ramdas Pophale) SiO2 
 PCOD9169485
Probable space group: C 2/M
;
_chemical_formula_sum "Si O2"
_cell_formula_units_Z 48
_cell_length_a 16.337075
_cell_length_b 21.540779
_cell_length_c 6.985878
_cell_angle_alpha 90.000000
_cell_angle_beta 73.002635
_cell_angle_gamma 90.000000
_cell_volume 2351.035172
_symmetry_space_group_name_H-M "C 2/M"
_symmetry_group_IT_number 12
_symmetry_cell_setting 'monoclinic'
loop_
_space_group_symop_operation_xyz
x,y,z
-x,y,-z
-x,-y,-z
x,-y,z
1/2+x,1/2+y,z
1/2-x,1/2+y,-z
1/2-x,1/2-y,-z
1/2+x,1/2-y,z
loop_
_atom_site_type_symbol
_atom_site_label
_atom_site_fract_x
_atom_site_fract_y
_atom_site_fract_z
Si Si1 0.856537 0.690476 0.813000
Si Si2 0.826389 0.833293 0.965117
Si Si3 0.036291 0.270996 0.781680
Si Si4 0.296190 0.816244 0.433378
Si Si5 0.877982 0.152818 0.382323
Si Si6 0.971262 0.070180 0.795361
O O1 0.841648 0.764694 0.864560
O O2 0.840784 0.670358 0.604769
O O3 0.958167 0.685077 0.776895
O O4 0.776203 0.657528 0.973211
O O5 0.892023 0.882636 0.832167
O O6 0.848793 0.836922 0.178686
O O7 0.124095 0.307864 0.762066
O O8 0.067359 0.216097 0.620253
O O9 0.000000 0.240035 0.000000
O O10 0.250000 0.750000 0.500000
O O11 0.212236 0.856254 0.448952
O O12 0.943894 0.097421 0.361222
O O13 0.950439 0.000000 0.754702
O O14 0.000000 0.069793 0.000000
#
# Coordination Sequence:
#
# PCOD9169485 Si02
#       6
#     8   8   8   8   8   8
#     4  10  17  27  43  62  94 126 148 180 234 270
#     4   9  16  25  42  65  90 124 153 185 222 268
#     4  11  17  28  44  64  92 118 148 184 225 278
#     4   9  20  28  40  63  91 120 153 183 221 278
#     4   9  15  29  40  62  95 122 146 191 222 260
#     4   9  15  25  44  68  94 124 155 185 224 266
#
# _framework density 20.416537000000002
#
# number of rings (size 3 to 8) (size 9 to 14) (size 15 to 20)
#    0.000    2.500    3.333    1.000    2.333    0.000 
#    0.000    0.000    0.000    0.000    0.000   10.500 
#    0.000    9.333    0.000    0.000    0.000    0.000 
#
# Total GULP energy -133731.511023 kJ/mol
# GULP energy per Si atom -5572.146293 kJ/mol
# Density = 2.037007 g / cm^3
# Si number density = 20.416537 Si / 1000 Ang^3
#
#
#
# Elastic Constant Matrix: (Units=GPa)
#
#
# Indices 1 2 3 4 5 6 
#
# 1 181.1305 43.9247 47.0119 0.0000 -43.4910 0.0000
# 2 43.9247 72.3904 15.4100 0.0000 -24.2453 0.0000
# 3 47.0119 15.4100 72.3086 0.0000 -33.3404 0.0000
# 4 0.0000 0.0000 0.0000 12.0031 0.0000 -1.3033
# 5 -43.4910 -24.2453 -33.3404 0.0000 58.0976 0.0000
# 6 0.0000 0.0000 0.0000 -1.3033 0.0000 19.2667
#
#
#
# Elastic Compliance Matrix: (Units=1/GPa)
#
#
# Indices 1 2 3 4 5 6 
#
# 1 0.007736 -0.003127 -0.003121 0.000000 0.002696 0.000000
# 2 -0.003127 0.017333 0.000809 0.000000 0.005357 0.000000
# 3 -0.003121 0.000809 0.020077 0.000000 0.009523 0.000000
# 4 0.000000 0.000000 0.000000 0.083928 0.000000 0.005677
# 5 0.002696 0.005357 0.009523 0.000000 0.026931 0.000000
# 6 0.000000 0.000000 0.000000 0.005677 0.000000 0.052287
#
#
# Mechanical properties :
#
#
# Convention : Reuss Voigt Hill
#
# Bulk Modulus (GPa) = 29.18025 59.83584 44.50805
# Shear Modulus (GPa) = 21.68322 32.50570 27.09446
#
# Velocity S-wave (km/s) = 3.26243 3.99447 3.64687
# Velocity P-wave (km/s) = 5.33992 7.11657 6.29128
#
# Compressibility (1/GPa) = 0.03426975
#
# Stress axis : x y z
#
# Youngs Moduli (GPa) = 129.25958 57.69206 49.80819
#
# Poissons Ratio (x) = 0.18041 0.15543
# Poissons Ratio (y) = 0.40421 -0.04030
# Poissons Ratio (z) = 0.40336 -0.04668
#
# Static dielectric constant tensor:
#      x y z
#    x 1.825820 0.000000 0.024230 
#    y 0.000000 1.685220 0.000000 
#    z 0.024230 0.000000 1.938490 
# 
# From -- ./inp_files/64717.got.cif
#   From: 2010.05.17/outbox.cif.g08.bks.cpg/sg12_33_cif.got.tgz:64717.got - 2010.06.03 13:09:07.
