data_PCOD9169854
_publ_section_title
;
Structure prediction by ZEFSAII (Michael W. Deem and Ramdas Pophale) SiO2 
 PCOD9169854
Probable space group: C 2/M
;
_chemical_formula_sum "Si O2"
_cell_formula_units_Z 56
_cell_length_a 17.179156
_cell_length_b 14.793213
_cell_length_c 12.338278
_cell_angle_alpha 90.000000
_cell_angle_beta 123.900385
_cell_angle_gamma 90.000000
_cell_volume 2602.564159
_symmetry_space_group_name_H-M "C 2/M"
_symmetry_group_IT_number 12
_symmetry_cell_setting 'monoclinic'
loop_
_space_group_symop_operation_xyz
x,y,z
-x,y,-z
-x,-y,-z
x,-y,z
1/2+x,1/2+y,z
1/2-x,1/2+y,-z
1/2-x,1/2-y,-z
1/2+x,1/2-y,z
loop_
_atom_site_type_symbol
_atom_site_label
_atom_site_fract_x
_atom_site_fract_y
_atom_site_fract_z
Si Si1 0.101747 0.391667 0.610298
Si Si2 0.659430 0.600617 0.572200
Si Si3 0.042925 0.796344 0.308156
Si Si4 0.653923 0.390260 0.818474
Si Si5 0.900880 0.106058 0.862524
Si Si6 0.733324 0.109854 0.892156
Si Si7 0.183528 0.338145 0.451140
O O1 0.093337 0.500000 0.613518
O O2 0.143124 0.356554 0.755877
O O3 0.171080 0.373393 0.563414
O O4 0.000000 0.354426 0.500000
O O5 0.618695 0.500000 0.537119
O O6 0.586755 0.664570 0.453609
O O7 0.674187 0.626193 0.708231
O O8 0.758336 0.600260 0.585443
O O9 0.095053 0.842694 0.247089
O O10 0.079737 0.693241 0.332989
O O11 0.937375 0.832408 0.220596
O O12 0.635694 0.500000 0.818385
O O13 0.739160 0.364567 0.964702
O O14 0.820350 0.135372 0.882551
O O15 0.886691 0.000000 0.828520
O O16 0.000000 0.116314 0.000000
O O17 0.728179 0.000000 0.888901
O O18 0.250000 0.250000 0.500000
#
# Coordination Sequence:
#
# PCOD9169854 Si02
#       7
#     8   8   8   8   8   8   8
#     4  10  21  39  65  87 106 143 200 253 284 319
#     4  10  20  34  54  79 113 154 195 229 267 334
#     4  11  20  32  52  81 119 150 182 228 286 347
#     4  10  19  32  55  87 117 145 178 225 289 350
#     4  10  17  28  52  83 117 151 183 228 281 339
#     4   9  17  31  54  85 114 140 180 238 292 331
#     4  10  22  36  55  78 111 152 189 231 282 334
#
# _framework density 21.517240000000001
#
# number of rings (size 3 to 8) (size 9 to 14) (size 15 to 20)
#    0.000    2.000    1.429    3.857    0.000    4.571 
#    0.000    0.000    3.143    5.143    0.000    5.000 
#    0.000    0.000    0.000    0.000    0.000    0.000 
#
# Total GULP energy -156317.014946 kJ/mol
# GULP energy per Si atom -5582.750534 kJ/mol
# Density = 2.146827 g / cm^3
# Si number density = 21.517240 Si / 1000 Ang^3
#
#
#
# Elastic Constant Matrix: (Units=GPa)
#
#
# Indices 1 2 3 4 5 6 
#
# 1 51.4702 -0.6775 24.6479 0.0000 -1.9103 0.0000
# 2 -0.6775 37.8520 13.1841 0.0000 1.3054 0.0000
# 3 24.6479 13.1841 142.0135 0.0000 -5.3763 0.0000
# 4 0.0000 0.0000 0.0000 9.6592 0.0000 8.7960
# 5 -1.9103 1.3054 -5.3763 0.0000 34.5055 0.0000
# 6 0.0000 0.0000 0.0000 8.7960 0.0000 19.8198
#
#
#
# Elastic Compliance Matrix: (Units=1/GPa)
#
#
# Indices 1 2 3 4 5 6 
#
# 1 0.021307 0.001700 -0.003836 0.000000 0.000518 0.000000
# 2 0.001700 0.027508 -0.002902 0.000000 -0.001399 0.000000
# 3 -0.003836 -0.002902 0.008020 0.000000 0.001147 0.000000
# 4 0.000000 0.000000 0.000000 0.173747 0.000000 -0.077109
# 5 0.000518 -0.001399 0.001147 0.000000 0.029241 0.000000
# 6 0.000000 0.000000 0.000000 -0.077109 0.000000 0.084676
#
#
# Mechanical properties :
#
#
# Convention : Reuss Voigt Hill
#
# Bulk Modulus (GPa) = 21.38621 33.96052 27.67337
# Shear Modulus (GPa) = 13.50760 25.74229 19.62494
#
# Velocity S-wave (km/s) = 2.50823 3.46259 3.02330
# Velocity P-wave (km/s) = 4.28357 5.63944 5.00760
#
# Compressibility (1/GPa) = 0.04675910
#
# Stress axis : x y z
#
# Youngs Moduli (GPa) = 46.93200 36.35298 124.68469
#
# Poissons Ratio (x) = -0.06179 0.47833
# Poissons Ratio (y) = -0.07977 0.36180
# Poissons Ratio (z) = 0.18005 0.10549
#
# Static dielectric constant tensor:
#      x y z
#    x 1.819380 0.000000 0.035920 
#    y 0.000000 1.829790 0.000000 
#    z 0.035920 0.000000 1.803360 
# 
# From -- ./inp_files/146228.got.cif
#   From: 2010.05.17/outbox.cif.g08.bks.cpg/sg12_74_cif.got.tgz:146228.got - 2010.06.03 13:09:07.
