data_PCOD9169626
_publ_section_title
;
Structure prediction by ZEFSAII (Michael W. Deem and Ramdas Pophale) SiO2 
 PCOD9169626
Probable space group: C 2/M
;
_chemical_formula_sum "Si O2"
_cell_formula_units_Z 48
_cell_length_a 11.641173
_cell_length_b 14.707685
_cell_length_c 13.391969
_cell_angle_alpha 90.000000
_cell_angle_beta 123.645869
_cell_angle_gamma 90.000000
_cell_volume 1908.790375
_symmetry_space_group_name_H-M "C 2/M"
_symmetry_group_IT_number 12
_symmetry_cell_setting 'monoclinic'
loop_
_space_group_symop_operation_xyz
x,y,z
-x,y,-z
-x,-y,-z
x,-y,z
1/2+x,1/2+y,z
1/2-x,1/2+y,-z
1/2-x,1/2-y,-z
1/2+x,1/2-y,z
loop_
_atom_site_type_symbol
_atom_site_label
_atom_site_fract_x
_atom_site_fract_y
_atom_site_fract_z
Si Si1 0.054597 0.396045 0.914229
Si Si2 0.993253 0.631427 0.381095
Si Si3 0.265913 0.358964 0.396798
Si Si4 0.401975 0.283828 0.775792
Si Si5 0.026921 0.150237 0.656154
Si Si6 0.723786 0.599504 0.122220
O O1 0.023263 0.500000 0.866042
O O2 0.980106 0.310816 0.828287
O O3 0.214084 0.381919 0.957871
O O4 0.000000 0.392647 0.000000
O O5 0.132987 0.604511 0.390386
O O6 0.977771 0.741056 0.366624
O O7 0.000000 0.605432 0.500000
O O8 0.859466 0.596193 0.258927
O O9 0.225556 0.251814 0.355728
O O10 0.328687 0.386453 0.318149
O O11 0.395527 0.381269 0.529395
O O12 0.490822 0.355361 0.755008
O O13 0.363168 0.323991 0.863983
O O14 0.658854 0.500000 0.092148
#
# Coordination Sequence:
#
# PCOD9169626 Si02
#       6
#     8   8   8   8   8   8
#     4  10  22  40  62  89 116 145 192 250 299 345
#     4  11  17  28  47  80 113 153 191 241 281 338
#     4  10  17  27  49  80 113 156 197 231 278 346
#     4  11  18  35  58  81 117 154 192 233 296 351
#     4  10  17  27  48  80 115 152 199 231 280 344
#     4  11  22  36  56  86 117 149 194 243 283 339
#
# _framework density 25.146816000000001
#
# number of rings (size 3 to 8) (size 9 to 14) (size 15 to 20)
#    0.000    1.500    6.667    3.000    0.000    1.000 
#    0.000    0.000    0.000    5.500    0.000    7.000 
#    0.000    0.000    0.000    0.000    0.000    0.000 
#
# Total GULP energy -133873.306494 kJ/mol
# GULP energy per Si atom -5578.054437 kJ/mol
# Density = 2.508958 g / cm^3
# Si number density = 25.146816 Si / 1000 Ang^3
#
#
#
# Elastic Constant Matrix: (Units=GPa)
#
#
# Indices 1 2 3 4 5 6 
#
# 1 204.4777 31.5621 38.8109 0.0000 -32.3341 0.0000
# 2 31.5621 83.0268 -2.4538 0.0000 -7.2750 0.0000
# 3 38.8109 -2.4538 49.4926 0.0000 -13.6446 0.0000
# 4 0.0000 0.0000 0.0000 -14.2496 0.0000 6.6566
# 5 -32.3341 -7.2750 -13.6446 0.0000 50.2461 0.0000
# 6 0.0000 0.0000 0.0000 6.6566 0.0000 -23.2393
#
#
#
# Elastic Compliance Matrix: (Units=1/GPa)
#
#
# Indices 1 2 3 4 5 6 
#
# 1 0.006532 -0.002386 -0.004515 0.000000 0.002632 0.000000
# 2 -0.002386 0.013135 0.002835 0.000000 0.001136 0.000000
# 3 -0.004515 0.002835 0.025076 0.000000 0.004315 0.000000
# 4 0.000000 0.000000 0.000000 -0.081018 0.000000 -0.023207
# 5 0.002632 0.001136 0.004315 0.000000 0.022932 0.000000
# 6 0.000000 0.000000 0.000000 -0.023207 0.000000 -0.049678
#
#
# Mechanical properties :
#
#
# Convention : Reuss Voigt Hill
#
# Bulk Modulus (GPa) = 27.31380 52.53726 39.92553
# Shear Modulus (GPa) = -117.13115 20.48994 -48.32060
#
# Velocity S-wave (km/s) = -6.83228 2.85759 -4.38829
# Velocity P-wave (km/s) = 7.16622 5.64139 3.12485
#
# Compressibility (1/GPa) = 0.03661153
#
# Stress axis : x y z
#
# Youngs Moduli (GPa) = 153.09462 76.13443 39.87946
#
# Poissons Ratio (x) = 0.18165 0.18005
# Poissons Ratio (y) = 0.36527 -0.11308
# Poissons Ratio (z) = 0.69120 -0.21588
#
# Static dielectric constant tensor:
#      x y z
#    x 2.092540 0.000000 0.009130 
#    y 0.000000 1.962070 0.000000 
#    z 0.009130 0.000000 2.088660 
# 
# From -- ./inp_files/205116.got.cif
#   From: 2010.05.17/outbox.cif.g08.bks.cpg/sg12_103_cif.got.tgz:205116.got - 2010.06.03 13:09:07.
