data_PCOD9169509
_publ_section_title
;
Structure prediction by ZEFSAII (Michael W. Deem and Ramdas Pophale) SiO2 
 PCOD9169509
Probable space group: C 2/M
;
_chemical_formula_sum "Si O2"
_cell_formula_units_Z 64
_cell_length_a 20.113417
_cell_length_b 7.934202
_cell_length_c 21.436835
_cell_angle_alpha 90.000000
_cell_angle_beta 95.977069
_cell_angle_gamma 90.000000
_cell_volume 3402.376409
_symmetry_space_group_name_H-M "C 2/M"
_symmetry_group_IT_number 12
_symmetry_cell_setting 'monoclinic'
loop_
_space_group_symop_operation_xyz
x,y,z
-x,y,-z
-x,-y,-z
x,-y,z
1/2+x,1/2+y,z
1/2-x,1/2+y,-z
1/2-x,1/2-y,-z
1/2+x,1/2-y,z
loop_
_atom_site_type_symbol
_atom_site_label
_atom_site_fract_x
_atom_site_fract_y
_atom_site_fract_z
Si Si1 0.135604 0.301526 0.663647
Si Si2 0.232853 0.205977 0.148518
Si Si3 0.013057 0.703283 0.570989
Si Si4 0.280202 0.707125 0.709954
Si Si5 0.545918 0.301612 0.766732
Si Si6 0.622271 0.198809 0.887741
Si Si7 0.921525 0.203129 0.675398
Si Si8 0.323601 0.700851 0.981810
O O1 0.141431 0.500000 0.650822
O O2 0.081458 0.230427 0.609630
O O3 0.210504 0.232403 0.673472
O O4 0.102120 0.283272 0.728636
O O5 0.218079 0.258555 0.217270
O O6 0.306849 0.263283 0.133895
O O7 0.179562 0.259353 0.090372
O O8 0.234041 0.000000 0.147763
O O9 0.018186 0.500000 0.568778
O O10 0.000000 0.766295 0.500000
O O11 0.953629 0.744638 0.613014
O O12 0.279013 0.500000 0.709416
O O13 0.346989 0.764165 0.681727
O O14 0.550036 0.500000 0.754406
O O15 0.563017 0.272383 0.840342
O O16 0.474295 0.241539 0.734053
O O17 0.621254 0.000000 0.878127
O O18 0.624847 0.232348 0.961857
O O19 0.919298 0.000000 0.676813
O O20 0.329290 0.500000 0.982625
O O21 0.250000 0.750000 0.000000
#
# Coordination Sequence:
#
# PCOD9169509 Si02
#       8
#     8   8   8   8   8   8   8   8
#     4   9  16  29  51  71  90 123 162 193 225 275
#     4   8  14  24  42  65  88 115 152 193 232 277
#     4   9  18  33  52  73  98 128 159 190 226 273
#     4   9  15  28  49  71  93 120 158 196 231 279
#     4  10  18  28  43  68  96 119 150 197 246 284
#     4  10  17  27  44  65  88 121 163 201 237 281
#     4   9  19  32  49  72  97 123 153 193 237 280
#     4   9  16  25  38  62  93 122 153 198 248 290
#
# _framework density 18.810379999999999
#
# number of rings (size 3 to 8) (size 9 to 14) (size 15 to 20)
#    0.000    2.875    1.250    1.875    0.000    0.750 
#    0.000    1.250    0.000    0.750    0.000    5.250 
#    0.000    0.000    0.000    0.000    0.000    0.000 
#
# Total GULP energy -178263.060697 kJ/mol
# GULP energy per Si atom -5570.720647 kJ/mol
# Density = 1.876757 g / cm^3
# Si number density = 18.810380 Si / 1000 Ang^3
#
#
#
# Elastic Constant Matrix: (Units=GPa)
#
#
# Indices 1 2 3 4 5 6 
#
# 1 125.0744 7.5819 68.6834 0.0000 8.0683 0.0000
# 2 7.5819 14.7542 1.7646 0.0000 0.3586 0.0000
# 3 68.6834 1.7646 135.2625 0.0000 21.3291 0.0000
# 4 0.0000 0.0000 0.0000 17.9583 0.0000 0.0605
# 5 8.0683 0.3586 21.3291 0.0000 18.3817 0.0000
# 6 0.0000 0.0000 0.0000 0.0605 0.0000 11.6287
#
#
#
# Elastic Compliance Matrix: (Units=1/GPa)
#
#
# Indices 1 2 3 4 5 6 
#
# 1 0.011542 -0.005250 -0.006131 0.000000 0.002151 0.000000
# 2 -0.005250 0.070273 0.001961 0.000000 -0.001341 0.000000
# 3 -0.006131 0.001961 0.012316 0.000000 -0.011638 0.000000
# 4 0.000000 0.000000 0.000000 0.055685 0.000000 -0.000290
# 5 0.002151 -0.001341 -0.011638 0.000000 0.066988 0.000000
# 6 0.000000 0.000000 0.000000 -0.000290 0.000000 0.085996
#
#
# Mechanical properties :
#
#
# Convention : Reuss Voigt Hill
#
# Bulk Modulus (GPa) = 13.28203 47.90564 30.59384
# Shear Modulus (GPa) = 14.42011 22.73116 18.57563
#
# Velocity S-wave (km/s) = 2.77176 3.48003 3.14589
# Velocity P-wave (km/s) = 4.16172 6.45526 5.43095
#
# Compressibility (1/GPa) = 0.07528968
#
# Stress axis : x y z
#
# Youngs Moduli (GPa) = 86.64244 14.23012 81.19565
#
# Poissons Ratio (x) = 0.07471 0.49783
# Poissons Ratio (y) = 0.45487 -0.15919
# Poissons Ratio (z) = 0.53123 -0.02790
#
# Static dielectric constant tensor:
#      x y z
#    x 1.655090 0.000000 0.039760 
#    y 0.000000 1.676560 0.000000 
#    z 0.039760 0.000000 1.663360 
# 
# From -- ./inp_files/319157.got.cif
#   From: 2010.05.17/outbox.cif.g08.bks.cpg/sg12_160_cif.got.tgz:319157.got - 2010.06.03 13:09:07.
