data_PCOD9169396
_publ_section_title
;
Structure prediction by ZEFSAII (Michael W. Deem and Ramdas Pophale) SiO2 
 PCOD9169396
Probable space group: C 2/M
;
_chemical_formula_sum "Si O2"
_cell_formula_units_Z 64
_cell_length_a 23.316858
_cell_length_b 8.817440
_cell_length_c 22.525938
_cell_angle_alpha 90.000000
_cell_angle_beta 54.012667
_cell_angle_gamma 90.000000
_cell_volume 3747.337526
_symmetry_space_group_name_H-M "C 2/M"
_symmetry_group_IT_number 12
_symmetry_cell_setting 'monoclinic'
loop_
_space_group_symop_operation_xyz
x,y,z
-x,y,-z
-x,-y,-z
x,-y,z
1/2+x,1/2+y,z
1/2-x,1/2+y,-z
1/2-x,1/2-y,-z
1/2+x,1/2-y,z
loop_
_atom_site_type_symbol
_atom_site_label
_atom_site_fract_x
_atom_site_fract_y
_atom_site_fract_z
Si Si1 0.542740 0.681384 0.413842
Si Si2 0.099102 0.181496 0.913195
Si Si3 0.188137 0.179910 0.384490
Si Si4 0.527343 0.181385 0.659779
Si Si5 0.544482 0.818862 0.056625
Si Si6 0.821890 0.680870 0.481310
Si Si7 0.168233 0.181039 0.751320
Si Si8 0.987473 0.181491 0.205103
O O1 0.500000 0.722956 0.500000
O O2 0.532957 0.500000 0.411496
O O3 0.625352 0.712212 0.376207
O O4 0.513874 0.766537 0.373969
O O5 0.158971 0.211452 0.827477
O O6 0.028927 0.254305 0.926355
O O7 0.089692 0.000000 0.923003
O O8 0.103645 0.252147 0.975943
O O9 0.168716 0.260863 0.457683
O O10 0.264597 0.234918 0.316298
O O11 0.189239 0.000000 0.394290
O O12 0.609636 0.224897 0.598790
O O13 0.501041 0.261578 0.735386
O O14 0.523246 0.000000 0.668785
O O15 0.541122 0.757486 0.125556
O O16 0.544944 0.000000 0.054643
O O17 0.816796 0.500000 0.484196
O O18 0.750000 0.750000 0.500000
O O19 0.093529 0.223125 0.765328
O O20 0.177006 0.000000 0.738137
O O21 0.992888 0.000000 0.197147
#
# Coordination Sequence:
#
# PCOD9169396 Si02
#       8
#     8   8   8   8   8   8   8   8
#     4  10  21  39  58  74  96 130 171 212 258 310
#     4   9  16  28  45  67  99 139 175 202 244 304
#     4  11  22  35  54  76  99 131 170 212 255 301
#     4  11  23  36  53  77 100 128 169 217 259 296
#     4  10  17  26  44  71 102 134 170 211 249 290
#     4  11  23  36  52  74 102 133 166 203 251 306
#     4   9  19  33  50  74 105 140 172 208 252 301
#     4  10  20  34  51  72 104 142 172 204 252 310
#
# _framework density 17.078793000000001
#
# number of rings (size 3 to 8) (size 9 to 14) (size 15 to 20)
#    0.000    1.875    1.250    5.250    0.000    7.750 
#    0.000    0.000    0.000    0.000    0.000    0.875 
#    0.000    0.000    0.000    0.000    0.000    0.000 
#
# Total GULP energy -178551.819724 kJ/mol
# GULP energy per Si atom -5579.744366 kJ/mol
# Density = 1.703992 g / cm^3
# Si number density = 17.078793 Si / 1000 Ang^3
#
#
#
# Elastic Constant Matrix: (Units=GPa)
#
#
# Indices 1 2 3 4 5 6 
#
# 1 42.6672 13.3124 7.4775 -0.0003 17.4738 0.0000
# 2 13.3124 55.8227 28.7525 -0.0008 14.0426 0.0004
# 3 7.4775 28.7525 85.5000 -0.0004 33.2412 0.0006
# 4 -0.0003 -0.0008 -0.0004 28.8896 0.0003 4.2682
# 5 17.4738 14.0426 33.2412 0.0003 21.3500 -0.0005
# 6 0.0000 0.0004 0.0006 4.2682 -0.0005 26.0465
#
#
#
# Elastic Compliance Matrix: (Units=1/GPa)
#
#
# Indices 1 2 3 4 5 6 
#
# 1 0.062209 -0.008051 0.038014 0.000002 -0.104806 -0.000003
# 2 -0.008051 0.023175 -0.009438 0.000000 0.006040 0.000000
# 3 0.038014 -0.009438 0.053786 0.000002 -0.108648 -0.000004
# 4 0.000002 0.000000 0.000002 0.035473 -0.000006 -0.005813
# 5 -0.104806 0.006040 -0.108648 -0.000006 0.297805 0.000009
# 6 -0.000003 0.000000 -0.000004 -0.005813 0.000009 0.039345
#
#
# Mechanical properties :
#
#
# Convention : Reuss Voigt Hill
#
# Bulk Modulus (GPa) = 5.54872 31.45274 18.50073
# Shear Modulus (GPa) = 9.41944 24.22038 16.81991
#
# Velocity S-wave (km/s) = 2.35101 3.76993 3.14162
# Velocity P-wave (km/s) = 3.25970 6.11605 4.90059
#
# Compressibility (1/GPa) = 0.18022163
#
# Stress axis : x y z
#
# Youngs Moduli (GPa) = 16.07482 43.14909 18.59221
#
# Poissons Ratio (x) = 0.34737 -0.70676
# Poissons Ratio (y) = 0.12941 0.17547
# Poissons Ratio (z) = -0.61107 0.40723
#
# Static dielectric constant tensor:
#      x y z
#    x 1.564790 0.000000 0.010860 
#    y 0.000000 1.565830 0.000000 
#    z 0.010860 0.000000 1.613930 
# 
# From -- ./inp_files/324161.got.cif
#   From: 2010.05.17/outbox.cif.g08.bks.cpg/sg12_163_cif.got.tgz:324161.got - 2010.06.03 13:09:07.
