data_PCOD9169598
_publ_section_title
;
Structure prediction by ZEFSAII (Michael W. Deem and Ramdas Pophale) SiO2 
 PCOD9169598
Probable space group: C 2/M
;
_chemical_formula_sum "Si O2"
_cell_formula_units_Z 40
_cell_length_a 14.603182
_cell_length_b 16.635489
_cell_length_c 14.693138
_cell_angle_alpha 90.000000
_cell_angle_beta 151.331819
_cell_angle_gamma 90.000000
_cell_volume 1712.380255
_symmetry_space_group_name_H-M "C 2/M"
_symmetry_group_IT_number 12
_symmetry_cell_setting 'monoclinic'
loop_
_space_group_symop_operation_xyz
x,y,z
-x,y,-z
-x,-y,-z
x,-y,z
1/2+x,1/2+y,z
1/2-x,1/2+y,-z
1/2-x,1/2-y,-z
1/2+x,1/2-y,z
loop_
_atom_site_type_symbol
_atom_site_label
_atom_site_fract_x
_atom_site_fract_y
_atom_site_fract_z
Si Si1 0.786120 0.357643 0.317917
Si Si2 0.116156 0.151595 0.968401
Si Si3 0.793184 0.202998 0.446180
Si Si4 0.594611 0.846079 0.937529
Si Si5 0.104142 0.090129 0.688746
O O1 0.599042 0.385349 0.213681
O O2 0.814640 0.267485 0.383856
O O3 0.000000 0.394264 0.500000
O O4 0.711564 0.359604 0.150125
O O5 0.097472 0.248676 0.942959
O O6 0.265759 0.124759 0.021878
O O7 0.750000 0.250000 0.500000
O O8 0.626609 0.139521 0.277711
O O9 0.986494 0.157776 0.637470
O O10 0.680277 0.883068 0.104262
O O11 0.000000 0.093240 0.500000
O O12 0.081484 0.000000 0.702507
#
# Coordination Sequence:
#
# PCOD9169598 Si02
#       5
#     8   8   8   8   8
#     4  10  17  27  46  75 110 138 169 226 293 347
#     4   9  18  29  48  77 104 136 180 231 291 351
#     4  11  21  34  58  87 115 151 200 255 305 358
#     4  10  19  34  52  74 108 147 190 241 294 346
#     4  11  24  39  55  81 121 165 205 244 296 368
#
# _framework density 23.359297999999999
#
# number of rings (size 3 to 8) (size 9 to 14) (size 15 to 20)
#    0.000    1.800    0.000    7.800    0.000    3.200 
#    0.000    2.000    0.000    0.000    0.000   11.200 
#    0.000   36.800    0.000    0.000    0.000    0.000 
#
# Total GULP energy -111570.899690 kJ/mol
# GULP energy per Si atom -5578.544985 kJ/mol
# Density = 2.330613 g / cm^3
# Si number density = 23.359298 Si / 1000 Ang^3
#
#
#
# Elastic Constant Matrix: (Units=GPa)
#
#
# Indices 1 2 3 4 5 6 
#
# 1 114.4774 0.1320 52.0353 -0.0020 17.9137 -0.0008
# 2 0.1320 34.5716 3.4768 -0.0040 -0.7607 -0.0020
# 3 52.0353 3.4768 158.8259 -0.0052 15.9851 -0.0023
# 4 -0.0020 -0.0040 -0.0052 5.2827 -0.0011 -7.7019
# 5 17.9137 -0.7607 15.9851 -0.0011 41.3218 0.0000
# 6 -0.0008 -0.0020 -0.0023 -7.7019 0.0000 -3.6089
#
#
#
# Elastic Compliance Matrix: (Units=1/GPa)
#
#
# Indices 1 2 3 4 5 6 
#
# 1 0.010710 0.000203 -0.003170 0.000000 -0.003413 0.000000
# 2 0.000203 0.029019 -0.000777 0.000000 0.000747 -0.000015
# 3 -0.003170 -0.000777 0.007507 0.000000 -0.001544 -0.000004
# 4 0.000000 0.000000 0.000000 0.046041 0.000001 -0.098259
# 5 -0.003413 0.000747 -0.001544 0.000001 0.026291 -0.000001
# 6 0.000000 -0.000015 -0.000004 -0.098259 -0.000001 -0.067396
#
#
# Mechanical properties :
#
#
# Convention : Reuss Voigt Hill
#
# Bulk Modulus (GPa) = 25.15805 46.57367 35.86586
# Shear Modulus (GPa) = 68.57766 25.41452 46.99609
#
# Velocity S-wave (km/s) = 5.42416 3.30204 4.49026
# Velocity P-wave (km/s) = 7.07263 5.87530 6.50159
#
# Compressibility (1/GPa) = 0.03974871
#
# Stress axis : x y z
#
# Youngs Moduli (GPa) = 93.37063 34.45985 133.20667
#
# Poissons Ratio (x) = -0.00699 0.42224
# Poissons Ratio (y) = -0.01893 0.10348
# Poissons Ratio (z) = 0.29597 0.02677
#
# Static dielectric constant tensor:
#      x y z
#    x 1.964350 0.000000 0.028060 
#    y 0.000000 1.846170 0.000000 
#    z 0.028060 0.000000 1.902910 
# 
# From -- ./inp_files/216926.got.cif
#   From: 2010.05.17/outbox.cif.g08.bks.cpg/sg12_109_cif.got.tgz:216926.got - 2010.06.03 13:09:07.
