data_PCOD9169372
_publ_section_title
;
Structure prediction by ZEFSAII (Michael W. Deem and Ramdas Pophale) SiO2 
 PCOD9169372
Probable space group: C 2/M
;
_chemical_formula_sum "Si O2"
_cell_formula_units_Z 48
_cell_length_a 24.921538
_cell_length_b 8.759308
_cell_length_c 32.828010
_cell_angle_alpha 90.000000
_cell_angle_beta 155.098571
_cell_angle_gamma 90.000000
_cell_volume 3017.390842
_symmetry_space_group_name_H-M "C 2/M"
_symmetry_group_IT_number 12
_symmetry_cell_setting 'monoclinic'
loop_
_space_group_symop_operation_xyz
x,y,z
-x,y,-z
-x,-y,-z
x,-y,z
1/2+x,1/2+y,z
1/2-x,1/2+y,-z
1/2-x,1/2-y,-z
1/2+x,1/2-y,z
loop_
_atom_site_type_symbol
_atom_site_label
_atom_site_fract_x
_atom_site_fract_y
_atom_site_fract_z
Si Si1 0.423653 0.683812 0.009509
Si Si2 0.044416 0.182876 0.670720
Si Si3 0.190911 0.183151 0.158328
Si Si4 0.230894 0.816632 0.531933
Si Si5 0.993079 0.683701 0.264196
Si Si6 0.735853 0.681705 0.945426
O O1 0.416319 0.500000 0.009374
O O2 0.571485 0.725865 0.104525
O O3 0.352051 0.720578 0.917636
O O4 0.352598 0.764292 0.997360
O O5 0.174886 0.239070 0.740617
O O6 0.035428 0.257974 0.709531
O O7 0.914194 0.226067 0.557021
O O8 0.047185 0.000000 0.677408
O O9 0.204765 0.000000 0.169663
O O10 0.250000 0.750000 0.500000
O O11 0.359675 0.772327 0.644271
O O12 0.233984 0.000000 0.531729
O O13 0.980604 0.500000 0.255122
O O14 0.891554 0.755495 0.163926
O O15 0.731661 0.500000 0.944297
O O16 0.750000 0.750000 0.000000
#
# Coordination Sequence:
#
# PCOD9169372 Si02
#       6
#     8   8   8   8   8   8
#     4   9  18  33  49  68  95 127 162 196 235 284
#     4  10  17  26  43  71 100 126 158 193 232 283
#     4   9  17  29  48  70  97 131 158 189 238 287
#     4   8  16  27  41  63  93 126 156 189 232 280
#     4  10  18  31  47  64  93 129 161 196 237 280
#     4  12  24  36  51  71  94 125 163 202 240 282
#
# _framework density 15.907783
#
# number of rings (size 3 to 8) (size 9 to 14) (size 15 to 20)
#    0.000    2.333    1.667    3.500    0.000    2.000 
#    0.000    1.667    0.000    0.000    0.000    1.167 
#    0.000    9.333    0.000    0.000    0.000    0.000 
#
# Total GULP energy -133711.348114 kJ/mol
# GULP energy per Si atom -5571.306171 kJ/mol
# Density = 1.587158 g / cm^3
# Si number density = 15.907783 Si / 1000 Ang^3
#
#
#
# Elastic Constant Matrix: (Units=GPa)
#
#
# Indices 1 2 3 4 5 6 
#
# 1 87.0920 44.1889 73.4764 0.0001 17.8301 -0.0001
# 2 44.1889 56.8748 46.6148 0.0003 11.2715 -0.0013
# 3 73.4764 46.6148 132.2916 0.0000 36.3444 0.0000
# 4 0.0001 0.0003 0.0000 23.5190 0.0001 4.2751
# 5 17.8301 11.2715 36.3444 0.0001 30.6713 0.0001
# 6 -0.0001 -0.0013 0.0000 4.2751 0.0001 22.9081
#
#
#
# Elastic Compliance Matrix: (Units=1/GPa)
#
#
# Indices 1 2 3 4 5 6 
#
# 1 0.026406 -0.011865 -0.011070 0.000000 0.002127 -0.000001
# 2 -0.011865 0.030123 -0.004267 -0.000001 0.000884 0.000002
# 3 -0.011070 -0.004267 0.019293 0.000000 -0.014858 0.000000
# 4 0.000000 -0.000001 0.000000 0.044012 0.000000 -0.008213
# 5 0.002127 0.000884 -0.014858 0.000000 0.048649 0.000000
# 6 -0.000001 0.000002 0.000000 -0.008213 0.000000 0.045186
#
#
# Mechanical properties :
#
#
# Convention : Reuss Voigt Hill
#
# Bulk Modulus (GPa) = 46.68913 67.20208 56.94561
# Shear Modulus (GPa) = 18.16789 22.88488 20.52638
#
# Velocity S-wave (km/s) = 3.38313 3.79700 3.59602
# Velocity P-wave (km/s) = 6.68388 7.84598 7.28813
#
# Compressibility (1/GPa) = 0.02141826
#
# Stress axis : x y z
#
# Youngs Moduli (GPa) = 37.87059 33.19711 51.83242
#
# Poissons Ratio (x) = 0.39387 0.57377
# Poissons Ratio (y) = 0.44932 0.22119
# Poissons Ratio (z) = 0.41922 0.14166
#
# Static dielectric constant tensor:
#      x y z
#    x 1.506780 0.000000 0.046860 
#    y 0.000000 1.539150 0.000000 
#    z 0.046860 0.000000 1.566390 
# 
# From -- ./inp_files/179174.got.cif
#   From: 2010.05.17/outbox.cif.g08.bks.cpg/sg12_90_cif.got.tgz:179174.got - 2010.06.03 13:09:07.
