data_PCOD9169988
_publ_section_title
;
Structure prediction by ZEFSAII (Michael W. Deem and Ramdas Pophale) SiO2 
 PCOD9169988
Probable space group: C 2/M
;
_chemical_formula_sum "Si O2"
_cell_formula_units_Z 64
_cell_length_a 9.448775
_cell_length_b 27.473743
_cell_length_c 14.361517
_cell_angle_alpha 90.000000
_cell_angle_beta 88.941730
_cell_angle_gamma 90.000000
_cell_volume 3727.516470
_symmetry_space_group_name_H-M "C 2/M"
_symmetry_group_IT_number 12
_symmetry_cell_setting 'monoclinic'
loop_
_space_group_symop_operation_xyz
x,y,z
-x,y,-z
-x,-y,-z
x,-y,z
1/2+x,1/2+y,z
1/2-x,1/2+y,-z
1/2-x,1/2-y,-z
1/2+x,1/2-y,z
loop_
_atom_site_type_symbol
_atom_site_label
_atom_site_fract_x
_atom_site_fract_y
_atom_site_fract_z
Si Si1 0.222841 0.225847 0.173280
Si Si2 0.075510 0.199468 0.591953
Si Si3 0.584138 0.944938 0.902902
Si Si4 0.624887 0.212576 0.347401
Si Si5 0.633105 0.397361 0.064067
Si Si6 0.520638 0.657641 0.790977
Si Si7 0.520660 0.847317 0.806006
Si Si8 0.740100 0.179296 0.076204
O O1 0.211474 0.257779 0.267098
O O2 0.064691 0.204513 0.167914
O O3 0.336467 0.184045 0.189227
O O4 0.264610 0.263402 0.092312
O O5 0.246887 0.201271 0.583107
O O6 0.000000 0.180875 0.500000
O O7 0.997700 0.251690 0.612859
O O8 0.039142 0.166238 0.682163
O O9 0.747117 0.937252 0.929439
O O10 0.547713 0.903800 0.827205
O O11 0.555599 0.000000 0.872648
O O12 0.500000 0.935857 0.000000
O O13 0.554159 0.168281 0.290270
O O14 0.574128 0.385554 0.167310
O O15 0.500000 0.408966 0.000000
O O16 0.706534 0.348916 0.015837
O O17 0.667991 0.654438 0.842544
O O18 0.420739 0.829773 0.892515
#
# Coordination Sequence:
#
# PCOD9169988 Si02
#       8
#     8   8   8   8   8   8   8   8
#     4  10  17  29  50  69 103 139 179 210 250 291
#     4  11  20  32  50  76 112 150 176 205 257 314
#     4  11  23  39  54  75 103 138 184 228 266 312
#     4  10  19  33  49  75 106 144 176 216 248 306
#     4  10  21  35  52  74 101 138 178 216 268 308
#     4  10  19  32  45  69 104 140 175 219 243 299
#     4  11  18  33  54  71 103 143 179 214 266 292
#     4  10  18  30  48  73 104 141 180 208 251 298
#
# _framework density 17.169609000000001
#
# number of rings (size 3 to 8) (size 9 to 14) (size 15 to 20)
#    0.000    1.625    6.250    1.875    0.000    0.750 
#    0.000    1.875    0.000    0.000    0.000    0.000 
#    0.000    5.500    0.000    0.000    0.000    0.000 
#
# Total GULP energy -178313.914893 kJ/mol
# GULP energy per Si atom -5572.309840 kJ/mol
# Density = 1.713053 g / cm^3
# Si number density = 17.169609 Si / 1000 Ang^3
#
#
#
# Elastic Constant Matrix: (Units=GPa)
#
#
# Indices 1 2 3 4 5 6 
#
# 1 80.9494 16.8895 8.2488 0.0000 12.7284 0.0000
# 2 16.8895 74.7937 15.5346 0.0000 5.8558 0.0000
# 3 8.2488 15.5346 64.2621 0.0000 12.2515 0.0000
# 4 0.0000 0.0000 0.0000 10.7566 0.0000 -2.9486
# 5 12.7284 5.8558 12.2515 0.0000 23.9050 0.0000
# 6 0.0000 0.0000 0.0000 -2.9486 0.0000 -6.1450
#
#
#
# Elastic Compliance Matrix: (Units=1/GPa)
#
#
# Indices 1 2 3 4 5 6 
#
# 1 0.013970 -0.002649 0.000157 0.000000 -0.006870 0.000000
# 2 -0.002649 0.014657 -0.003089 0.000000 -0.000596 0.000000
# 3 0.000157 -0.003089 0.017910 0.000000 -0.008506 0.000000
# 4 0.000000 0.000000 0.000000 0.082160 0.000000 -0.039423
# 5 -0.006870 -0.000596 -0.008506 0.000000 0.049996 0.000000
# 6 0.000000 0.000000 0.000000 -0.039423 0.000000 -0.143818
#
#
# Mechanical properties :
#
#
# Convention : Reuss Voigt Hill
#
# Bulk Modulus (GPa) = 28.27008 33.48346 30.87677
# Shear Modulus (GPa) = 86.46252 17.65881 52.06066
#
# Velocity S-wave (km/s) = 7.10403 3.21049 5.51246
# Velocity P-wave (km/s) = 9.15372 5.76948 7.65106
#
# Compressibility (1/GPa) = 0.03537309
#
# Stress axis : x y z
#
# Youngs Moduli (GPa) = 71.57979 68.22799 55.83626
#
# Poissons Ratio (x) = 0.18077 -0.00877
# Poissons Ratio (y) = 0.18965 0.17250
# Poissons Ratio (z) = -0.01124 0.21078
#
# Static dielectric constant tensor:
#      x y z
#    x 1.638060 0.000000 0.005170 
#    y 0.000000 1.595090 0.000000 
#    z 0.005170 0.000000 1.617540 
# 
# From -- ./inp_files/200596.got.cif
#   From: 2010.05.17/outbox.cif.g08.bks.cpg/sg12_101_cif.got.tgz:200596.got - 2010.06.03 13:09:07.
