data_PCOD9169239
_publ_section_title
;
Structure prediction by ZEFSAII (Michael W. Deem and Ramdas Pophale) SiO2 
 PCOD9169239
Probable space group: C 2/M
;
_chemical_formula_sum "Si O2"
_cell_formula_units_Z 56
_cell_length_a 24.407648
_cell_length_b 9.272805
_cell_length_c 25.854230
_cell_angle_alpha 90.000000
_cell_angle_beta 39.304285
_cell_angle_gamma 90.000000
_cell_volume 3706.579248
_symmetry_space_group_name_H-M "C 2/M"
_symmetry_group_IT_number 12
_symmetry_cell_setting 'monoclinic'
loop_
_space_group_symop_operation_xyz
x,y,z
-x,y,-z
-x,-y,-z
x,-y,z
1/2+x,1/2+y,z
1/2-x,1/2+y,-z
1/2-x,1/2-y,-z
1/2+x,1/2-y,z
loop_
_atom_site_type_symbol
_atom_site_label
_atom_site_fract_x
_atom_site_fract_y
_atom_site_fract_z
Si Si1 0.652129 0.329719 0.014894
Si Si2 0.594781 0.172279 0.953904
Si Si3 0.741119 0.670906 0.232626
Si Si4 0.640876 0.168059 0.389225
Si Si5 0.577341 0.671520 0.276535
Si Si6 0.140451 0.670468 0.130025
Si Si7 0.026368 0.669322 0.564489
O O1 0.633851 0.500000 0.031585
O O2 0.623666 0.247932 0.087719
O O3 0.610076 0.257961 0.995470
O O4 0.756447 0.312612 0.934779
O O5 0.668857 0.216445 0.858843
O O6 0.605908 0.000000 0.955398
O O7 0.500000 0.195589 0.000000
O O8 0.743836 0.500000 0.239570
O O9 0.714875 0.747417 0.304998
O O10 0.664726 0.697679 0.246569
O O11 0.607014 0.218330 0.470092
O O12 0.556932 0.176715 0.412871
O O13 0.663539 0.000000 0.377130
O O14 0.568815 0.500000 0.275774
O O15 0.589995 0.752956 0.213375
O O16 0.499188 0.736579 0.367546
O O17 0.121996 0.500000 0.141056
O O18 0.037413 0.500000 0.569648
#
# Coordination Sequence:
#
# PCOD9169239 Si02
#       7
#     8   8   8   8   8   8   8
#     4  10  20  32  47  66  87 113 148 190 228 263
#     4  10  20  34  49  64  88 121 154 188 226 267
#     4   9  17  27  40  59  83 112 148 185 219 259
#     4   8  14  24  38  54  77 111 145 177 213 258
#     4  10  17  25  40  62  88 115 146 182 217 258
#     4  10  19  30  46  65  88 118 148 181 223 272
#     4   8  14  24  36  54  81 112 144 174 211 260
#
# _framework density 15.108271
#
# number of rings (size 3 to 8) (size 9 to 14) (size 15 to 20)
#    0.000    2.714    1.429    2.143    0.000    3.143 
#    0.000    2.857    0.000    0.000    0.000    0.000 
#    0.000    1.143    0.000    3.429    0.000    5.286 
#
# Total GULP energy -155959.644032 kJ/mol
# GULP energy per Si atom -5569.987287 kJ/mol
# Density = 1.507388 g / cm^3
# Si number density = 15.108271 Si / 1000 Ang^3
#
#
#
# Elastic Constant Matrix: (Units=GPa)
#
#
# Indices 1 2 3 4 5 6 
#
# 1 46.7409 45.4550 51.3785 0.0001 11.6128 -0.0001
# 2 45.4550 76.5342 78.9234 0.0002 21.4589 0.0000
# 3 51.3785 78.9234 154.1790 0.0000 36.2175 -0.0001
# 4 0.0001 0.0002 0.0000 30.2617 0.0000 8.0054
# 5 11.6128 21.4589 36.2175 0.0000 19.7136 0.0001
# 6 -0.0001 0.0000 -0.0001 8.0054 0.0001 15.7595
#
#
#
# Elastic Compliance Matrix: (Units=1/GPa)
#
#
# Indices 1 2 3 4 5 6 
#
# 1 0.052357 -0.028527 -0.005091 0.000000 0.009564 0.000000
# 2 -0.028527 0.043814 -0.009967 0.000000 -0.012576 0.000000
# 3 -0.005091 -0.009967 0.017648 0.000000 -0.018573 0.000000
# 4 0.000000 0.000000 0.000000 0.038175 0.000000 -0.019392
# 5 0.009564 -0.012576 -0.018573 0.000000 0.092905 -0.000001
# 6 0.000000 0.000000 0.000000 -0.019392 -0.000001 0.073304
#
#
# Mechanical properties :
#
#
# Convention : Reuss Voigt Hill
#
# Bulk Modulus (GPa) = 37.52785 69.88531 53.70658
# Shear Modulus (GPa) = 12.06983 19.92677 15.99830
#
# Velocity S-wave (km/s) = 2.82953 3.63565 3.25762
# Velocity P-wave (km/s) = 5.96391 7.99879 7.05510
#
# Compressibility (1/GPa) = 0.02664688
#
# Stress axis : x y z
#
# Youngs Moduli (GPa) = 19.09959 22.82400 56.66481
#
# Poissons Ratio (x) = 0.65111 0.28848
# Poissons Ratio (y) = 0.54486 0.56479
# Poissons Ratio (z) = 0.09724 0.22749
#
# Static dielectric constant tensor:
#      x y z
#    x 1.466310 0.000000 0.005850 
#    y 0.000000 1.501010 0.000000 
#    z 0.005850 0.000000 1.513940 
# 
# From -- ./inp_files/237448.got.cif
#   From: 2010.05.17/outbox.cif.g08.bks.cpg/sg12_119_cif.got.tgz:237448.got - 2010.06.03 13:09:07.
