data_PCOD9169880
_publ_section_title
;
Structure prediction by ZEFSAII (Michael W. Deem and Ramdas Pophale) SiO2 
 PCOD9169880
Probable space group: C 2/M
;
_chemical_formula_sum "Si O2"
_cell_formula_units_Z 64
_cell_length_a 13.368418
_cell_length_b 24.076246
_cell_length_c 12.354996
_cell_angle_alpha 90.000000
_cell_angle_beta 104.895697
_cell_angle_gamma 90.000000
_cell_volume 3842.963382
_symmetry_space_group_name_H-M "C 2/M"
_symmetry_group_IT_number 12
_symmetry_cell_setting 'monoclinic'
loop_
_space_group_symop_operation_xyz
x,y,z
-x,y,-z
-x,-y,-z
x,-y,z
1/2+x,1/2+y,z
1/2-x,1/2+y,-z
1/2-x,1/2-y,-z
1/2+x,1/2-y,z
loop_
_atom_site_type_symbol
_atom_site_label
_atom_site_fract_x
_atom_site_fract_y
_atom_site_fract_z
Si Si1 0.306129 0.883764 0.814503
Si Si2 0.379467 0.787418 0.985909
Si Si3 0.219318 0.825232 0.106996
Si Si4 0.518724 0.855540 0.623053
Si Si5 0.472149 0.064686 0.179334
Si Si6 0.714213 0.174775 0.399529
Si Si7 0.248496 0.437117 0.992910
Si Si8 0.728521 0.199954 0.641122
O O1 0.319309 0.825099 0.881113
O O2 0.420848 0.909723 0.833961
O O3 0.258727 0.870633 0.683918
O O4 0.243407 0.923036 0.878035
O O5 0.354220 0.722810 0.960965
O O6 0.500000 0.797765 0.000000
O O7 0.331857 0.807043 0.087585
O O8 0.198969 0.887116 0.058511
O O9 0.217167 0.821758 0.235571
O O10 0.500000 0.882345 0.500000
O O11 0.553864 0.900415 0.720518
O O12 0.410886 0.828742 0.630072
O O13 0.607188 0.810275 0.629299
O O14 0.374362 0.067647 0.071686
O O15 0.489131 0.000000 0.208450
O O16 0.752800 0.169166 0.534034
O O17 0.747651 0.235539 0.369859
O O18 0.280562 0.500000 0.976759
#
# Coordination Sequence:
#
# PCOD9169880 Si02
#       8
#     8   8   8   8   8   8   8   8
#     4  10  17  29  44  65  92 122 153 186 233 278
#     4  10  20  30  47  71  97 121 148 193 238 283
#     4  10  19  31  48  70  93 125 157 187 234 282
#     4   9  18  30  44  63  92 128 158 190 230 270
#     4  10  18  27  42  64  89 123 162 191 223 268
#     4   9  19  29  45  67  91 126 157 189 236 274
#     4  10  19  30  45  64  91 123 158 196 229 269
#     4  10  17  31  46  64  94 125 158 192 226 285
#
# _framework density 16.653815000000002
#
# number of rings (size 3 to 8) (size 9 to 14) (size 15 to 20)
#    0.000    2.250    2.500    2.250    1.750    1.250 
#    0.000    0.000    0.000    1.125    0.000    0.000 
#    0.000    0.000    0.000    1.125    0.000   13.625 
#
# Total GULP energy -178229.387228 kJ/mol
# GULP energy per Si atom -5569.668351 kJ/mol
# Density = 1.661591 g / cm^3
# Si number density = 16.653815 Si / 1000 Ang^3
#
#
#
# Elastic Constant Matrix: (Units=GPa)
#
#
# Indices 1 2 3 4 5 6 
#
# 1 11.4130 13.4429 13.1308 0.0000 -10.5924 0.0000
# 2 13.4429 110.6898 41.3537 0.0000 -8.2450 0.0000
# 3 13.1308 41.3537 112.3546 0.0000 -18.6087 0.0000
# 4 0.0000 0.0000 0.0000 15.0382 0.0000 1.7156
# 5 -10.5924 -8.2450 -18.6087 0.0000 15.4677 0.0000
# 6 0.0000 0.0000 0.0000 1.7156 0.0000 19.7224
#
#
#
# Elastic Compliance Matrix: (Units=1/GPa)
#
#
# Indices 1 2 3 4 5 6 
#
# 1 0.282350 -0.022696 0.006714 0.000000 0.189336 0.000000
# 2 -0.022696 0.012316 -0.004206 0.000000 -0.014037 0.000000
# 3 0.006714 -0.004206 0.012556 0.000000 0.017462 0.000000
# 4 0.000000 0.000000 0.000000 0.067164 0.000000 -0.005842
# 5 0.189336 -0.014037 0.017462 0.000000 0.207836 0.000000
# 6 0.000000 0.000000 0.000000 -0.005842 0.000000 0.051212
#
#
# Mechanical properties :
#
#
# Convention : Reuss Voigt Hill
#
# Bulk Modulus (GPa) = 3.74745 41.14581 22.44663
# Shear Modulus (GPa) = 6.55516 21.14765 13.85141
#
# Velocity S-wave (km/s) = 1.98612 3.56735 2.88709
# Velocity P-wave (km/s) = 2.74129 6.45973 4.96199
#
# Compressibility (1/GPa) = 0.26684816
#
# Stress axis : x y z
#
# Youngs Moduli (GPa) = 3.54170 81.19378 79.64514
#
# Poissons Ratio (x) = 1.84276 -0.53476
# Poissons Ratio (y) = 0.08038 0.33495
# Poissons Ratio (z) = -0.02378 0.34147
#
# Static dielectric constant tensor:
#      x y z
#    x 1.552580 0.000000 -0.016400 
#    y 0.000000 1.560340 0.000000 
#    z -0.016400 0.000000 1.619180 
# 
# From -- ./inp_files/135418.got.cif
#   From: 2010.05.17/outbox.cif.g08.bks.cpg/sg12_68_cif.got.tgz:135418.got - 2010.06.03 13:09:07.
