data_PCOD9169245
_publ_section_title
;
Structure prediction by ZEFSAII (Michael W. Deem and Ramdas Pophale) SiO2 
 PCOD9169245
Probable space group: C 2/M
;
_chemical_formula_sum "Si O2"
_cell_formula_units_Z 56
_cell_length_a 13.241845
_cell_length_b 14.050883
_cell_length_c 15.323280
_cell_angle_alpha 90.000000
_cell_angle_beta 120.202938
_cell_angle_gamma 90.000000
_cell_volume 2464.011578
_symmetry_space_group_name_H-M "C 2/M"
_symmetry_group_IT_number 12
_symmetry_cell_setting 'monoclinic'
loop_
_space_group_symop_operation_xyz
x,y,z
-x,y,-z
-x,-y,-z
x,-y,z
1/2+x,1/2+y,z
1/2-x,1/2+y,-z
1/2-x,1/2-y,-z
1/2+x,1/2-y,z
loop_
_atom_site_type_symbol
_atom_site_label
_atom_site_fract_x
_atom_site_fract_y
_atom_site_fract_z
Si Si1 0.256615 0.389389 0.859455
Si Si2 0.940385 0.312635 0.105519
Si Si3 0.611812 0.883409 0.430402
Si Si4 0.051196 0.106014 0.917784
Si Si5 0.326226 0.890935 0.729262
Si Si6 0.152381 0.385497 0.638895
Si Si7 0.722315 0.109920 0.109251
O O1 0.217017 0.500000 0.854044
O O2 0.166860 0.323822 0.873346
O O3 0.247885 0.366692 0.753967
O O4 0.383009 0.386708 0.959469
O O5 0.998697 0.208954 0.127605
O O6 0.039935 0.384682 0.178997
O O7 0.877893 0.335009 0.986699
O O8 0.669850 0.848055 0.366044
O O9 0.668991 0.852620 0.546868
O O10 0.475060 0.855174 0.379914
O O11 0.612777 0.000000 0.426338
O O12 0.162945 0.106387 0.899862
O O13 0.997561 0.000000 0.883043
O O14 0.257278 0.852893 0.783763
O O15 0.287581 0.000000 0.701631
O O16 0.144956 0.500000 0.628734
O O17 0.682548 0.000000 0.099356
#
# Coordination Sequence:
#
# PCOD9169245 Si02
#       7
#     8   8   8   8   8   8   8
#     4   9  14  22  37  57  81 105 129 161 199 239
#     4  11  17  25  40  59  81 110 141 166 195 237
#     4   8  13  20  31  53  85 113 128 146 189 246
#     4   9  19  31  41  56  79 110 147 175 195 226
#     4  10  17  25  40  65  93 111 126 156 205 255
#     4   8  12  19  32  51  82 113 129 149 188 241
#     4   9  17  27  40  60  86 110 131 161 202 250
#
# _framework density 22.727166
#
# number of rings (size 3 to 8) (size 9 to 14) (size 15 to 20)
#    0.000    2.857    1.429    5.143    0.000    1.143 
#    0.000    0.000    0.000    1.714    0.000    4.000 
#    0.000    2.286    0.000    0.000    0.000    0.000 
#
# Total GULP energy -156219.674766 kJ/mol
# GULP energy per Si atom -5579.274099 kJ/mol
# Density = 2.267544 g / cm^3
# Si number density = 22.727166 Si / 1000 Ang^3
#
#
#
# Elastic Constant Matrix: (Units=GPa)
#
#
# Indices 1 2 3 4 5 6 
#
# 1 35.5081 10.8398 26.9489 0.0000 -1.0553 0.0000
# 2 10.8398 102.4078 9.2772 0.0000 2.2805 0.0000
# 3 26.9489 9.2772 173.9909 0.0000 -35.7318 0.0000
# 4 0.0000 0.0000 0.0000 5.5023 0.0000 -0.9834
# 5 -1.0553 2.2805 -35.7318 0.0000 18.8878 0.0000
# 6 0.0000 0.0000 0.0000 -0.9834 0.0000 24.7854
#
#
#
# Elastic Compliance Matrix: (Units=1/GPa)
#
#
# Indices 1 2 3 4 5 6 
#
# 1 0.034490 -0.002673 -0.007747 0.000000 -0.012407 0.000000
# 2 -0.002673 0.010168 -0.000672 0.000000 -0.002648 0.000000
# 3 -0.007747 -0.000672 0.011302 0.000000 0.021029 0.000000
# 4 0.000000 0.000000 0.000000 0.183041 0.000000 0.007262
# 5 -0.012407 -0.002648 0.021029 0.000000 0.092353 0.000000
# 6 0.000000 0.000000 0.000000 0.007262 0.000000 0.040634
#
#
# Mechanical properties :
#
#
# Convention : Reuss Voigt Hill
#
# Bulk Modulus (GPa) = 29.60769 45.11538 37.36154
# Shear Modulus (GPa) = 12.33258 27.49117 19.91187
#
# Velocity S-wave (km/s) = 2.33198 3.48173 2.96315
# Velocity P-wave (km/s) = 4.50628 6.00476 5.30866
#
# Compressibility (1/GPa) = 0.03377501
#
# Stress axis : x y z
#
# Youngs Moduli (GPa) = 28.99418 98.35137 88.48080
#
# Poissons Ratio (x) = 0.26285 0.68550
# Poissons Ratio (y) = 0.07749 0.05947
# Poissons Ratio (z) = 0.22463 0.06610
#
# Static dielectric constant tensor:
#      x y z
#    x 1.896230 0.000000 -0.078640 
#    y 0.000000 1.881240 0.000000 
#    z -0.078640 0.000000 1.874950 
# 
# From -- ./inp_files/232954.got.cif
#   From: 2010.05.17/outbox.cif.g08.bks.cpg/sg12_117_cif.got.tgz:232954.got - 2010.06.03 13:09:07.
