data_PCOD9169149
_publ_section_title
;
Structure prediction by ZEFSAII (Michael W. Deem and Ramdas Pophale) SiO2 
 PCOD9169149
Probable space group: C 2/M
;
_chemical_formula_sum "Si O2"
_cell_formula_units_Z 56
_cell_length_a 27.792576
_cell_length_b 7.331419
_cell_length_c 28.539520
_cell_angle_alpha 90.000000
_cell_angle_beta 31.451324
_cell_angle_gamma 90.000000
_cell_volume 3034.212199
_symmetry_space_group_name_H-M "C 2/M"
_symmetry_group_IT_number 12
_symmetry_cell_setting 'monoclinic'
loop_
_space_group_symop_operation_xyz
x,y,z
-x,y,-z
-x,-y,-z
x,-y,z
1/2+x,1/2+y,z
1/2-x,1/2+y,-z
1/2-x,1/2-y,-z
1/2+x,1/2-y,z
loop_
_atom_site_type_symbol
_atom_site_label
_atom_site_fract_x
_atom_site_fract_y
_atom_site_fract_z
Si Si1 0.392288 0.278152 0.397730
Si Si2 0.102507 0.280017 0.112720
Si Si3 0.480802 0.222412 0.963339
Si Si4 0.583978 0.221921 0.787063
Si Si5 0.703905 0.777106 0.936653
Si Si6 0.775313 0.287363 0.402327
Si Si7 0.902145 0.792872 0.775362
O O1 0.393241 0.500000 0.396816
O O2 0.319566 0.213114 0.497308
O O3 0.349408 0.224348 0.383205
O O4 0.496757 0.212131 0.317376
O O5 0.105744 0.500000 0.113738
O O6 0.109653 0.203460 0.158515
O O7 0.004028 0.230041 0.171907
O O8 0.177323 0.222095 0.011859
O O9 0.557503 0.279450 0.861469
O O10 0.480835 0.000000 0.963424
O O11 0.500000 0.283297 0.000000
O O12 0.380885 0.277275 0.026059
O O13 0.675484 0.288442 0.684797
O O14 0.587455 0.000000 0.784522
O O15 0.805464 0.712135 0.838257
O O16 0.705585 0.000000 0.935447
O O17 0.757498 0.500000 0.407992
O O18 0.906263 0.000000 0.753953
#
# Coordination Sequence:
#
# PCOD9169149 Si02
#       7
#     8   8   8   8   8   8   8
#     4   9  17  24  33  50  72  99 128 149 169 206
#     4   9  15  24  36  50  70  98 126 145 168 207
#     4   8  13  22  36  54  72  89 116 154 188 217
#     4   8  13  21  35  52  69  91 119 151 183 208
#     4   8  15  24  34  49  71  96 119 147 180 213
#     4   9  15  25  37  49  69  98 126 151 177 204
#     4  10  17  24  33  50  76 100 120 144 176 210
#
# _framework density 18.456189999999999
#
# number of rings (size 3 to 8) (size 9 to 14) (size 15 to 20)
#    0.000    3.286    1.429    2.143    0.000    0.000 
#    0.000    0.000    0.000    0.000    0.000    1.000 
#    0.000   28.571    0.000    0.000    0.000   14.286 
#
# Total GULP energy -156046.747711 kJ/mol
# GULP energy per Si atom -5573.098133 kJ/mol
# Density = 1.841418 g / cm^3
# Si number density = 18.456190 Si / 1000 Ang^3
#
#
#
# Elastic Constant Matrix: (Units=GPa)
#
#
# Indices 1 2 3 4 5 6 
#
# 1 71.7938 -2.3194 67.5768 0.0173 8.3073 -0.0041
# 2 -2.3194 70.6073 0.0486 0.0423 -1.4963 -0.0256
# 3 67.5768 0.0486 188.4112 0.0196 -11.4856 -0.0156
# 4 0.0173 0.0423 0.0196 -0.6544 0.0067 2.8393
# 5 8.3073 -1.4963 -11.4856 0.0067 23.7880 -0.0019
# 6 -0.0041 -0.0256 -0.0156 2.8393 -0.0019 4.0641
#
#
#
# Elastic Compliance Matrix: (Units=1/GPa)
#
#
# Indices 1 2 3 4 5 6 
#
# 1 0.024489 0.000532 -0.009585 0.000048 -0.013147 -0.000049
# 2 0.000532 0.014194 -0.000156 0.000328 0.000631 -0.000140
# 3 -0.009585 -0.000156 0.009220 0.000053 0.007789 -0.000009
# 4 0.000048 0.000328 0.000053 -0.379062 0.000158 0.264826
# 5 -0.013147 0.000631 0.007789 0.000158 0.050430 -0.000065
# 6 -0.000049 -0.000140 -0.000009 0.264826 -0.000065 0.061044
#
#
# Mechanical properties :
#
#
# Convention : Reuss Voigt Hill
#
# Bulk Modulus (GPa) = 33.91504 51.26937 42.59221
# Shear Modulus (GPa) = -26.11791 23.13994 -1.48898
#
# Velocity S-wave (km/s) = -3.76590 3.54471 -0.89918
# Velocity P-wave (km/s) = 0.70249 6.67777 4.69569
#
# Compressibility (1/GPa) = 0.02948544
#
# Stress axis : x y z
#
# Youngs Moduli (GPa) = 40.83423 70.45439 108.45685
#
# Poissons Ratio (x) = -0.03751 1.03957
# Poissons Ratio (y) = -0.02174 0.01694
# Poissons Ratio (z) = 0.39140 0.01100
#
# Static dielectric constant tensor:
#      x y z
#    x 1.590730 0.000030 -0.017580 
#    y 0.000030 1.901700 -0.000040 
#    z -0.017580 -0.000040 1.687830 
# 
# From -- ./inp_files/181564.got.cif
#   From: 2010.05.17/outbox.cif.g08.bks.cpg/sg12_91_cif.got.tgz:181564.got - 2010.06.03 13:09:07.
