data_PCOD9169119
_publ_section_title
;
Structure prediction by ZEFSAII (Michael W. Deem and Ramdas Pophale) SiO2 
 PCOD9169119
Probable space group: C 2/M
;
_chemical_formula_sum "Si O2"
_cell_formula_units_Z 46
_cell_length_a 13.569647
_cell_length_b 14.782947
_cell_length_c 11.048627
_cell_angle_alpha 90.000000
_cell_angle_beta 77.744195
_cell_angle_gamma 90.000000
_cell_volume 2165.836203
_symmetry_space_group_name_H-M "C 2/M"
_symmetry_group_IT_number 12
_symmetry_cell_setting 'monoclinic'
loop_
_space_group_symop_operation_xyz
x,y,z
-x,y,-z
-x,-y,-z
x,-y,z
1/2+x,1/2+y,z
1/2-x,1/2+y,-z
1/2-x,1/2-y,-z
1/2+x,1/2-y,z
loop_
_atom_site_type_symbol
_atom_site_label
_atom_site_fract_x
_atom_site_fract_y
_atom_site_fract_z
Si Si1 0.500000 0.000000 0.000000
Si Si2 0.627032 0.159204 0.839653
Si Si3 0.775213 0.395460 0.423526
Si Si4 0.847247 0.894268 0.859562
Si Si5 0.913240 0.204469 0.621691
Si Si6 0.093391 0.597448 0.381950
Si Si7 0.500000 0.690850 0.000000
O O1 0.431081 0.078043 0.082650
O O2 0.639803 0.137145 0.693863
O O3 0.741704 0.158999 0.863893
O O4 0.561670 0.246960 0.888549
O O5 0.748792 0.500000 0.397617
O O6 0.685799 0.325669 0.425881
O O7 0.812634 0.397820 0.550706
O O8 0.917214 0.868331 0.726867
O O9 0.823311 0.000000 0.868868
O O10 0.912800 0.865762 0.957043
O O11 0.907467 0.305349 0.680878
O O12 0.000000 0.203475 0.500000
O O13 0.093894 0.500000 0.314429
O O14 0.000000 0.594402 0.500000
#
# Coordination Sequence:
#
# PCOD9169119 Si02
#       7
#     2   8   8   8   8   8   4
#     4  10  16  36  62  98 110 156 210 264 276 370
#     4  10  20  37  64  93 122 158 213 256 306 368
#     4  10  19  35  60  86 123 162 196 251 304 357
#     4  11  23  44  65  89 128 166 205 259 315 371
#     4  10  21  36  63  87 117 162 211 245 294 371
#     4   9  19  34  54  84 121 158 194 246 308 355
#     4  11  25  37  67  92 124 164 206 256 324 368
#
# _framework density 21.238909
#
# number of rings (size 3 to 8) (size 9 to 14) (size 15 to 20)
#    0.000    1.913    1.739    2.870    4.870    1.391 
#    0.000    0.000    0.000    4.174    0.000    0.000 
#    0.000    0.000    0.000    0.000    0.000    0.000 
#
# Total GULP energy -128080.290555 kJ/mol
# GULP energy per Si atom -5568.708285 kJ/mol
# Density = 2.119057 g / cm^3
# Si number density = 21.238909 Si / 1000 Ang^3
#
#
#
# Elastic Constant Matrix: (Units=GPa)
#
#
# Indices 1 2 3 4 5 6 
#
# 1 55.8792 20.3503 12.9309 0.0000 -1.4532 0.0000
# 2 20.3503 84.8410 -2.2320 0.0000 -13.3485 0.0000
# 3 12.9309 -2.2320 41.0635 0.0000 -17.9078 0.0000
# 4 0.0000 0.0000 0.0000 7.1581 0.0000 6.9113
# 5 -1.4532 -13.3485 -17.9078 0.0000 32.9093 0.0000
# 6 0.0000 0.0000 0.0000 6.9113 0.0000 18.6793
#
#
#
# Elastic Compliance Matrix: (Units=1/GPa)
#
#
# Indices 1 2 3 4 5 6 
#
# 1 0.022763 -0.006971 -0.010937 0.000000 -0.007774 0.000000
# 2 -0.006971 0.015199 0.007310 0.000000 0.009835 0.000000
# 3 -0.010937 0.007310 0.038386 0.000000 0.023370 0.000000
# 4 0.000000 0.000000 0.000000 0.217349 0.000000 -0.080418
# 5 -0.007774 0.009835 0.023370 0.000000 0.046749 0.000000
# 6 0.000000 0.000000 0.000000 -0.080418 0.000000 0.083290
#
#
# Mechanical properties :
#
#
# Convention : Reuss Voigt Hill
#
# Bulk Modulus (GPa) = 18.13188 27.09800 22.61494
# Shear Modulus (GPa) = 10.79179 21.79830 16.29504
#
# Velocity S-wave (km/s) = 2.25658 3.20713 2.77289
# Velocity P-wave (km/s) = 3.91729 5.14787 4.57415
#
# Compressibility (1/GPa) = 0.05515149
#
# Stress axis : x y z
#
# Youngs Moduli (GPa) = 43.93038 65.79592 26.05136
#
# Poissons Ratio (x) = 0.45866 0.28493
# Poissons Ratio (y) = 0.30624 -0.19044
# Poissons Ratio (z) = 0.48048 -0.48098
#
# Static dielectric constant tensor:
#      x y z
#    x 1.823750 0.000000 0.035100 
#    y 0.000000 1.786010 0.000000 
#    z 0.035100 0.000000 1.774520 
# 
# From -- ./inp_files/142800.got.cif
#   From: 2010.05.17/outbox.cif.g08.bks.cpg/sg12_72_cif.got.tgz:142800.got - 2010.06.03 13:09:07.
