data_PCOD9169412
_publ_section_title
;
Structure prediction by ZEFSAII (Michael W. Deem and Ramdas Pophale) SiO2 
 PCOD9169412
Probable space group: C 2/M
;
_chemical_formula_sum "Si O2"
_cell_formula_units_Z 40
_cell_length_a 33.797301
_cell_length_b 7.885193
_cell_length_c 7.280101
_cell_angle_alpha 90.000000
_cell_angle_beta 65.519964
_cell_angle_gamma 90.000000
_cell_volume 1765.727135
_symmetry_space_group_name_H-M "C 2/M"
_symmetry_group_IT_number 12
_symmetry_cell_setting 'monoclinic'
loop_
_space_group_symop_operation_xyz
x,y,z
-x,y,-z
-x,-y,-z
x,-y,z
1/2+x,1/2+y,z
1/2-x,1/2+y,-z
1/2-x,1/2-y,-z
1/2+x,1/2-y,z
loop_
_atom_site_type_symbol
_atom_site_label
_atom_site_fract_x
_atom_site_fract_y
_atom_site_fract_z
Si Si1 0.297218 0.204140 0.981103
Si Si2 0.555020 0.301998 0.039832
Si Si3 0.852569 0.297515 0.191669
Si Si4 0.966421 0.695378 0.330892
Si Si5 0.372990 0.208796 0.562812
O O1 0.335433 0.263514 0.772117
O O2 0.299250 0.000000 0.979990
O O3 0.250000 0.250000 0.000000
O O4 0.311513 0.266543 0.155425
O O5 0.556891 0.500000 0.993166
O O6 0.514319 0.273545 0.252835
O O7 0.602657 0.239873 0.003747
O O8 0.544786 0.207520 0.866695
O O9 0.848821 0.500000 0.214337
O O10 0.859208 0.233042 0.384883
O O11 0.970340 0.500000 0.375585
O O12 0.922434 0.768109 0.504842
O O13 0.374734 0.000000 0.560181
#
# Coordination Sequence:
#
# PCOD9169412 Si02
#       5
#     8   8   8   8   8
#     4  10  21  37  55  75  99 127 164 211 257 300
#     4  10  17  26  45  75 107 134 165 207 248 287
#     4   9  18  34  54  73  98 135 171 201 242 298
#     4   9  15  27  48  72 102 139 172 200 238 293
#     4   8  16  32  53  75  99 130 169 206 239 289
#
# _framework density 22.653558
#
# number of rings (size 3 to 8) (size 9 to 14) (size 15 to 20)
#    0.000    2.800    0.000    4.800    0.000    1.600 
#    0.000    6.000    0.000    6.000    0.000    0.000 
#    0.000    0.000    0.000    0.000    0.000    0.000 
#
# Total GULP energy -111616.235321 kJ/mol
# GULP energy per Si atom -5580.811766 kJ/mol
# Density = 2.260200 g / cm^3
# Si number density = 22.653558 Si / 1000 Ang^3
#
#
#
# Elastic Constant Matrix: (Units=GPa)
#
#
# Indices 1 2 3 4 5 6 
#
# 1 130.4822 -7.4351 12.1283 0.0000 4.3958 0.0000
# 2 -7.4351 25.0250 -8.7385 0.0000 8.2145 0.0000
# 3 12.1283 -8.7385 60.1504 0.0000 -2.6486 0.0000
# 4 0.0000 0.0000 0.0000 -2.1155 0.0000 -11.8551
# 5 4.3958 8.2145 -2.6486 0.0000 22.6397 0.0000
# 6 0.0000 0.0000 0.0000 -11.8551 0.0000 19.0456
#
#
#
# Elastic Compliance Matrix: (Units=1/GPa)
#
#
# Indices 1 2 3 4 5 6 
#
# 1 0.008041 0.002824 -0.001332 0.000000 -0.002742 0.000000
# 2 0.002824 0.048535 0.005711 0.000000 -0.017490 0.000000
# 3 -0.001332 0.005711 0.017735 0.000000 0.000261 0.000000
# 4 0.000000 0.000000 0.000000 -0.105321 0.000000 -0.065558
# 5 -0.002742 -0.017490 0.000261 0.000000 0.051079 0.000000
# 6 0.000000 0.000000 0.000000 -0.065558 0.000000 0.011699
#
#
# Mechanical properties :
#
#
# Convention : Reuss Voigt Hill
#
# Bulk Modulus (GPa) = 11.27174 23.06299 17.16737
# Shear Modulus (GPa) = 106.53618 22.56083 64.54850
#
# Velocity S-wave (km/s) = 6.86517 3.15922 5.34375
# Velocity P-wave (km/s) = 8.23573 4.84875 6.75787
#
# Compressibility (1/GPa) = 0.08871742
#
# Stress axis : x y z
#
# Youngs Moduli (GPa) = 124.36346 20.60389 56.38645
#
# Poissons Ratio (x) = -0.05818 0.07509
# Poissons Ratio (y) = -0.35120 -0.32205
# Poissons Ratio (z) = 0.16563 -0.11768
#
# Static dielectric constant tensor:
#      x y z
#    x 1.877680 0.000000 0.023310 
#    y 0.000000 1.811150 0.000000 
#    z 0.023310 0.000000 1.878560 
# 
# From -- ./inp_files/107511.got.cif
#   From: 2010.05.17/outbox.cif.g08.bks.cpg/sg12_54_cif.got.tgz:107511.got - 2010.06.03 13:09:07.
