data_PCOD9169345
_publ_section_title
;
Structure prediction by ZEFSAII (Michael W. Deem and Ramdas Pophale) SiO2 
 PCOD9169345
Probable space group: C 2/M
;
_chemical_formula_sum "Si O2"
_cell_formula_units_Z 48
_cell_length_a 24.781406
_cell_length_b 9.204398
_cell_length_c 14.642827
_cell_angle_alpha 90.000000
_cell_angle_beta 110.226081
_cell_angle_gamma 90.000000
_cell_volume 3134.039926
_symmetry_space_group_name_H-M "C 2/M"
_symmetry_group_IT_number 12
_symmetry_cell_setting 'monoclinic'
loop_
_space_group_symop_operation_xyz
x,y,z
-x,y,-z
-x,-y,-z
x,-y,z
1/2+x,1/2+y,z
1/2-x,1/2+y,-z
1/2-x,1/2-y,-z
1/2+x,1/2-y,z
loop_
_atom_site_type_symbol
_atom_site_label
_atom_site_fract_x
_atom_site_fract_y
_atom_site_fract_z
Si Si1 0.223950 0.827347 0.350254
Si Si2 0.559465 0.832467 0.976039
Si Si3 0.479697 0.174654 0.774158
Si Si4 0.832855 0.827469 0.485397
Si Si5 0.545230 0.174256 0.448530
Si Si6 0.880475 0.826379 0.833971
O O1 0.187744 0.798820 0.422114
O O2 0.282721 0.739252 0.393297
O O3 0.182523 0.790063 0.241702
O O4 0.236173 0.000000 0.355507
O O5 0.537936 0.786633 0.863148
O O6 0.578724 0.000000 0.985682
O O7 0.500000 0.827787 0.000000
O O8 0.604262 0.735315 0.057417
O O9 0.479125 0.206904 0.666822
O O10 0.426880 0.255375 0.792240
O O11 0.472126 0.000000 0.781913
O O12 0.893868 0.752740 0.505152
O O13 0.836782 0.000000 0.476060
O O14 0.500000 0.216100 0.500000
O O15 0.554007 0.000000 0.458795
O O16 0.886963 0.000000 0.835774
#
# Coordination Sequence:
#
# PCOD9169345 Si02
#       6
#     8   8   8   8   8   8
#     4   9  18  30  44  65  93 121 148 181 224 274
#     4   8  15  26  39  59  87 118 148 177 217 268
#     4   9  17  29  43  60  88 121 151 184 219 263
#     4  10  19  31  46  66  90 119 153 187 226 268
#     4  10  20  33  49  67  89 122 159 190 224 265
#     4  10  17  26  42  66  92 117 146 180 222 268
#
# _framework density 15.315694000000001
#
# number of rings (size 3 to 8) (size 9 to 14) (size 15 to 20)
#    0.000    2.667    1.667    2.000    0.000    5.333 
#    0.000    0.000    0.000    0.000    0.000    1.167 
#    0.000    0.000    0.000    0.000    0.000    0.000 
#
# Total GULP energy -133696.354216 kJ/mol
# GULP energy per Si atom -5570.681426 kJ/mol
# Density = 1.528083 g / cm^3
# Si number density = 15.315694 Si / 1000 Ang^3
#
#
#
# Elastic Constant Matrix: (Units=GPa)
#
#
# Indices 1 2 3 4 5 6 
#
# 1 80.2393 43.4485 68.0991 0.0000 13.5425 0.0000
# 2 43.4485 43.2800 57.0982 0.0000 14.6901 0.0000
# 3 68.0991 57.0982 140.2134 0.0000 31.5596 0.0000
# 4 0.0000 0.0000 0.0000 22.5059 0.0000 8.1963
# 5 13.5425 14.6901 31.5596 0.0000 23.0735 0.0000
# 6 0.0000 0.0000 0.0000 8.1963 0.0000 20.8871
#
#
#
# Elastic Compliance Matrix: (Units=1/GPa)
#
#
# Indices 1 2 3 4 5 6 
#
# 1 0.029264 -0.023513 -0.005983 0.000000 0.005978 0.000000
# 2 -0.023513 0.069355 -0.014434 0.000000 -0.010612 0.000000
# 3 -0.005983 -0.014434 0.018865 0.000000 -0.013101 0.000000
# 4 0.000000 0.000000 0.000000 0.051842 0.000000 -0.020343
# 5 0.005978 -0.010612 -0.013101 0.000000 0.064508 0.000000
# 6 0.000000 0.000000 0.000000 -0.020343 0.000000 0.055859
#
#
# Mechanical properties :
#
#
# Convention : Reuss Voigt Hill
#
# Bulk Modulus (GPa) = 33.75882 66.78049 50.26965
# Shear Modulus (GPa) = 12.90558 19.63241 16.26900
#
# Velocity S-wave (km/s) = 2.90597 3.58418 3.26274
# Velocity P-wave (km/s) = 5.77489 7.79909 6.86204
#
# Compressibility (1/GPa) = 0.02962189
#
# Stress axis : x y z
#
# Youngs Moduli (GPa) = 34.17163 14.41849 53.00821
#
# Poissons Ratio (x) = 0.33903 0.31717
# Poissons Ratio (y) = 0.80349 0.76514
# Poissons Ratio (z) = 0.20446 0.20812
#
# Static dielectric constant tensor:
#      x y z
#    x 1.467800 0.000000 0.011570 
#    y 0.000000 1.508290 0.000000 
#    z 0.011570 0.000000 1.543810 
# 
# From -- ./inp_files/179334.got.cif
#   From: 2010.05.17/outbox.cif.g08.bks.cpg/sg12_90_cif.got.tgz:179334.got - 2010.06.03 13:09:07.
