data_PCOD9169407
_publ_section_title
;
Structure prediction by ZEFSAII (Michael W. Deem and Ramdas Pophale) SiO2 
 PCOD9169407
Probable space group: C 2/M
;
_chemical_formula_sum "Si O2"
_cell_formula_units_Z 52
_cell_length_a 5.579178
_cell_length_b 31.556572
_cell_length_c 14.083235
_cell_angle_alpha 90.000000
_cell_angle_beta 86.003776
_cell_angle_gamma 90.000000
_cell_volume 2473.462062
_symmetry_space_group_name_H-M "C 2/M"
_symmetry_group_IT_number 12
_symmetry_cell_setting 'monoclinic'
loop_
_space_group_symop_operation_xyz
x,y,z
-x,y,-z
-x,-y,-z
x,-y,z
1/2+x,1/2+y,z
1/2-x,1/2+y,-z
1/2-x,1/2-y,-z
1/2+x,1/2-y,z
loop_
_atom_site_type_symbol
_atom_site_label
_atom_site_fract_x
_atom_site_fract_y
_atom_site_fract_z
Si Si1 0.167005 0.366198 0.880825
Si Si2 0.283679 0.096760 0.330363
Si Si3 0.221968 0.500000 0.745963
Si Si4 0.833445 0.907535 0.110427
Si Si5 0.250899 0.266579 0.891386
Si Si6 0.239977 0.000000 0.557400
Si Si7 0.295795 0.500000 0.135174
Si Si8 0.217091 0.910737 0.656085
O O1 0.187524 0.379206 0.769809
O O2 0.398109 0.390951 0.916041
O O3 0.210430 0.316676 0.893151
O O4 0.893941 0.379189 0.914121
O O5 0.525090 0.107134 0.379190
O O6 0.026106 0.108304 0.378758
O O7 0.275820 0.045452 0.309165
O O8 0.457355 0.500000 0.808131
O O9 0.964119 0.500000 0.805606
O O10 0.798209 0.955851 0.079592
O O11 0.809639 0.909483 0.228069
O O12 0.518155 0.254613 0.848071
O O13 0.250000 0.250000 0.000000
O O14 0.500000 0.000000 0.500000
O O15 0.226856 0.958741 0.621576
O O16 0.000000 0.000000 0.500000
#
# Coordination Sequence:
#
# PCOD9169407 Si02
#       8
#     8   8   4   8   8   4   4   8
#     4  10  18  30  47  72  97 118 162 203 240 301
#     4  10  17  26  45  66  87 120 153 207 264 295
#     4  12  14  23  36  62  95 115 149 176 244 294
#     4  10  18  28  46  71  95 125 157 207 263 292
#     4  10  21  37  55  74 101 133 163 193 233 294
#     4  12  23  31  38  56  86 138 195 221 232 268
#     4  12  15  24  36  64  99 119 144 177 240 294
#     4  10  17  29  39  54  82 119 165 214 251 271
#
# _framework density 21.023163
#
# number of rings (size 3 to 8) (size 9 to 14) (size 15 to 20)
#    0.000    1.538    6.154    3.231    0.000    0.000 
#    0.000    0.000    0.000    0.000    0.000    0.000 
#    0.000   83.692    0.000    0.000    0.000  861.538 
#
# Total GULP energy -145189.610149 kJ/mol
# GULP energy per Si atom -5584.215775 kJ/mol
# Density = 2.097531 g / cm^3
# Si number density = 21.023163 Si / 1000 Ang^3
#
#
#
# Elastic Constant Matrix: (Units=GPa)
#
#
# Indices 1 2 3 4 5 6 
#
# 1 275.4691 57.3610 29.9897 0.0000 -2.0168 0.0000
# 2 57.3610 130.7019 5.5538 0.0000 1.8979 0.0000
# 3 29.9897 5.5538 45.1251 0.0000 -2.3959 0.0000
# 4 0.0000 0.0000 0.0000 2.5126 0.0000 0.1446
# 5 -2.0168 1.8979 -2.3959 0.0000 28.1212 0.0000
# 6 0.0000 0.0000 0.0000 0.1446 0.0000 28.2747
#
#
#
# Elastic Compliance Matrix: (Units=1/GPa)
#
#
# Indices 1 2 3 4 5 6 
#
# 1 0.004286 -0.001773 -0.002619 0.000000 0.000204 0.000000
# 2 -0.001773 0.008435 0.000103 0.000000 -0.000688 0.000000
# 3 -0.002619 0.000103 0.023987 0.000000 0.001849 0.000000
# 4 0.000000 0.000000 0.000000 0.398106 0.000000 -0.002036
# 5 0.000204 -0.000688 0.001849 0.000000 0.035779 0.000000
# 6 0.000000 0.000000 0.000000 -0.002036 0.000000 0.035378
#
#
# Mechanical properties :
#
#
# Convention : Reuss Voigt Hill
#
# Bulk Modulus (GPa) = 35.54896 70.78947 53.16922
# Shear Modulus (GPa) = 9.54338 35.67448 22.60893
#
# Velocity S-wave (km/s) = 2.13291 4.12383 3.28293
# Velocity P-wave (km/s) = 4.79707 7.51132 6.30205
#
# Compressibility (1/GPa) = 0.02813022
#
# Stress axis : x y z
#
# Youngs Moduli (GPa) = 233.32072 118.56021 41.68950
#
# Poissons Ratio (x) = 0.21016 0.10920
# Poissons Ratio (y) = 0.41359 -0.00431
# Poissons Ratio (z) = 0.61116 -0.01227
#
# Static dielectric constant tensor:
#      x y z
#    x 1.886380 0.000000 -0.000510 
#    y 0.000000 1.704400 0.000000 
#    z -0.000510 0.000000 1.826120 
# 
# From -- ./inp_files/253806.got.cif
#   From: 2010.05.17/outbox.cif.g08.bks.cpg/sg12_127_cif.got.tgz:253806.got - 2010.06.03 13:09:07.
