data_PCOD9169381
_publ_section_title
;
Structure prediction by ZEFSAII (Michael W. Deem and Ramdas Pophale) SiO2 
 PCOD9169381
Probable space group: C 2/M
;
_chemical_formula_sum "Si O2"
_cell_formula_units_Z 64
_cell_length_a 14.577985
_cell_length_b 13.836138
_cell_length_c 14.706987
_cell_angle_alpha 90.000000
_cell_angle_beta 107.448316
_cell_angle_gamma 90.000000
_cell_volume 2829.951031
_symmetry_space_group_name_H-M "C 2/M"
_symmetry_group_IT_number 12
_symmetry_cell_setting 'monoclinic'
loop_
_space_group_symop_operation_xyz
x,y,z
-x,y,-z
-x,-y,-z
x,-y,z
1/2+x,1/2+y,z
1/2-x,1/2+y,-z
1/2-x,1/2-y,-z
1/2+x,1/2-y,z
loop_
_atom_site_type_symbol
_atom_site_label
_atom_site_fract_x
_atom_site_fract_y
_atom_site_fract_z
Si Si1 0.215301 0.115739 0.023616
Si Si2 0.360456 0.787520 0.625355
Si Si3 0.429182 0.615909 0.188234
Si Si4 0.226030 0.891377 0.728953
Si Si5 0.733999 0.884735 0.581371
Si Si6 0.870109 0.391569 0.938511
Si Si7 0.541230 0.112095 0.616143
Si Si8 0.432447 0.301634 0.899649
O O1 0.142820 0.136222 0.918147
O O2 0.320033 0.144766 0.016839
O O3 0.216089 0.000000 0.037482
O O4 0.173913 0.166303 0.101145
O O5 0.293672 0.829112 0.685417
O O6 0.316100 0.840382 0.523134
O O7 0.333124 0.674586 0.615601
O O8 0.471327 0.821225 0.655805
O O9 0.440577 0.500000 0.196193
O O10 0.377143 0.645930 0.266306
O O11 0.527902 0.662994 0.183766
O O12 0.285521 0.900740 0.839684
O O13 0.214375 0.000000 0.686614
O O14 0.654908 0.866173 0.637971
O O15 0.745799 0.000000 0.578185
O O16 0.904312 0.500000 0.963700
O O17 0.937889 0.313334 0.912139
O O18 0.500000 0.116579 0.500000
O O19 0.531050 0.000000 0.643082
O O20 0.500000 0.345055 0.000000
#
# Coordination Sequence:
#
# PCOD9169381 Si02
#       8
#     8   8   8   8   8   8   8   8
#     4   8  14  26  45  65  82 106 146 187 225 264
#     4  10  17  29  54  75  95 132 168 197 242 296
#     4   8  15  27  43  64  89 109 139 189 231 265
#     4   9  17  31  48  65  87 119 156 193 230 275
#     4   9  18  31  50  79 105 123 159 212 251 284
#     4   9  18  30  42  62  90 118 151 191 224 267
#     4   8  14  27  47  72  98 121 157 204 237 275
#     4  10  17  26  44  66  88 117 147 184 233 280
#
# _framework density 22.615231999999999
#
# number of rings (size 3 to 8) (size 9 to 14) (size 15 to 20)
#    0.000    3.125    0.000    4.125    0.000    1.750 
#    2.250    0.000    0.000   12.375    0.000    1.750 
#    0.000    0.000    0.000    0.000    0.000    0.000 
#
# Total GULP energy -178293.777394 kJ/mol
# GULP energy per Si atom -5571.680544 kJ/mol
# Density = 2.256376 g / cm^3
# Si number density = 22.615232 Si / 1000 Ang^3
#
#
#
# Elastic Constant Matrix: (Units=GPa)
#
#
# Indices 1 2 3 4 5 6 
#
# 1 113.8221 64.0324 37.5422 0.0000 -41.1576 0.0000
# 2 64.0324 125.6557 19.7753 0.0000 -29.1282 0.0000
# 3 37.5422 19.7753 30.7303 0.0000 -20.3110 0.0000
# 4 0.0000 0.0000 0.0000 16.3838 0.0000 -8.9729
# 5 -41.1576 -29.1282 -20.3110 0.0000 34.9230 0.0000
# 6 0.0000 0.0000 0.0000 -8.9729 0.0000 37.3219
#
#
#
# Elastic Compliance Matrix: (Units=1/GPa)
#
#
# Indices 1 2 3 4 5 6 
#
# 1 0.020855 -0.005716 -0.014142 0.000000 0.011586 0.000000
# 2 -0.005716 0.011474 0.002392 0.000000 0.004224 0.000000
# 3 -0.014142 0.002392 0.062674 0.000000 0.021778 0.000000
# 4 0.000000 0.000000 0.000000 0.070291 0.000000 0.016899
# 5 0.011586 0.004224 0.021778 0.000000 0.058478 0.000000
# 6 0.000000 0.000000 0.000000 0.016899 0.000000 0.030857
#
#
# Mechanical properties :
#
#
# Convention : Reuss Voigt Hill
#
# Bulk Modulus (GPa) = 16.64739 56.98976 36.81857
# Shear Modulus (GPa) = 16.15061 27.64961 21.90011
#
# Velocity S-wave (km/s) = 2.67525 3.50038 3.11525
# Velocity P-wave (km/s) = 4.11336 6.44913 5.40884
#
# Compressibility (1/GPa) = 0.06006948
#
# Stress axis : x y z
#
# Youngs Moduli (GPa) = 47.94934 87.15341 15.95568
#
# Poissons Ratio (x) = 0.49819 0.22565
# Poissons Ratio (y) = 0.27409 -0.03816
# Poissons Ratio (z) = 0.67811 -0.20845
#
# Static dielectric constant tensor:
#      x y z
#    x 1.972410 0.000000 0.002890 
#    y 0.000000 1.845520 0.000000 
#    z 0.002890 0.000000 1.853030 
# 
# From -- ./inp_files/269865.got.cif
#   From: 2010.05.17/outbox.cif.g08.bks.cpg/sg12_135_cif.got.tgz:269865.got - 2010.06.03 13:09:07.
