data_PCOD9169862
_publ_section_title
;
Structure prediction by ZEFSAII (Michael W. Deem and Ramdas Pophale) SiO2 
 PCOD9169862
Probable space group: C 2/M
;
_chemical_formula_sum "Si O2"
_cell_formula_units_Z 52
_cell_length_a 14.961464
_cell_length_b 19.104361
_cell_length_c 12.129954
_cell_angle_alpha 90.000000
_cell_angle_beta 38.035512
_cell_angle_gamma 90.000000
_cell_volume 2136.249876
_symmetry_space_group_name_H-M "C 2/M"
_symmetry_group_IT_number 12
_symmetry_cell_setting 'monoclinic'
loop_
_space_group_symop_operation_xyz
x,y,z
-x,y,-z
-x,-y,-z
x,-y,z
1/2+x,1/2+y,z
1/2-x,1/2+y,-z
1/2-x,1/2-y,-z
1/2+x,1/2-y,z
loop_
_atom_site_type_symbol
_atom_site_label
_atom_site_fract_x
_atom_site_fract_y
_atom_site_fract_z
Si Si1 0.963138 0.347429 0.363590
Si Si2 0.783904 0.653657 0.319333
Si Si3 0.420230 0.000000 0.415109
Si Si4 0.084698 0.000000 0.801590
Si Si5 0.568199 0.360897 0.098943
Si Si6 0.143990 0.500000 0.784800
Si Si7 0.192460 0.801112 0.774818
Si Si8 0.975728 0.802253 0.651026
O O1 0.912840 0.345945 0.284563
O O2 0.002271 0.427012 0.356483
O O3 0.824494 0.328186 0.573512
O O4 0.058114 0.279445 0.298897
O O5 0.777034 0.575402 0.275882
O O6 0.796668 0.717145 0.218653
O O7 0.640071 0.675662 0.527537
O O8 0.388731 0.000000 0.314337
O O9 0.259530 0.000000 0.627654
O O10 0.019558 0.067749 0.807212
O O11 0.000000 0.000000 0.000000
O O12 0.450516 0.307498 0.161876
O O13 0.624208 0.341907 0.164990
O O14 0.679874 0.353720 0.890211
O O15 0.000000 0.500000 0.000000
O O16 0.000000 0.819934 0.500000
#
# Coordination Sequence:
#
# PCOD9169862 Si02
#       8
#     8   8   4   4   8   4   8   8
#     4  10  17  34  53  79 108 141 182 231 281 328
#     4  10  19  36  54  79 112 143 185 236 276 328
#     4  10  18  30  51  80 111 140 174 237 286 317
#     4  12  18  30  54  92 118 133 171 234 290 338
#     4  11  19  30  51  83 110 135 179 225 279 327
#     4  10  22  32  52  84 112 141 189 236 275 320
#     4  10  17  28  55  79 107 136 172 228 281 313
#     4  11  22  37  55  78 110 153 188 219 274 352
#
# _framework density 24.341721
#
# number of rings (size 3 to 8) (size 9 to 14) (size 15 to 20)
#    0.000    1.538    6.154    1.846    2.154    0.000 
#    0.000    5.000    0.000    0.000    0.000    6.462 
#    0.000    0.000    0.000    0.000    0.000    0.000 
#
# Total GULP energy -144963.680872 kJ/mol
# GULP energy per Si atom -5575.526187 kJ/mol
# Density = 2.428632 g / cm^3
# Si number density = 24.341721 Si / 1000 Ang^3
#
#
#
# Elastic Constant Matrix: (Units=GPa)
#
#
# Indices 1 2 3 4 5 6 
#
# 1 45.8478 4.9951 12.6819 0.0002 24.0520 -0.0007
# 2 4.9951 194.9287 12.1766 0.0001 11.2292 -0.0005
# 3 12.6819 12.1766 57.9162 -0.0004 23.4988 -0.0001
# 4 0.0002 0.0001 -0.0004 32.1782 0.0001 4.6308
# 5 24.0520 11.2292 23.4988 0.0001 39.9347 0.0003
# 6 -0.0007 -0.0005 -0.0001 4.6308 0.0003 17.0831
#
#
#
# Elastic Compliance Matrix: (Units=1/GPa)
#
#
# Indices 1 2 3 4 5 6 
#
# 1 0.031949 0.000265 0.001033 0.000000 -0.019925 0.000002
# 2 0.000265 0.005236 -0.000653 0.000000 -0.001248 0.000000
# 3 0.001033 -0.000653 0.022798 0.000000 -0.013854 0.000000
# 4 0.000000 0.000000 0.000000 0.032338 0.000000 -0.008766
# 5 -0.019925 -0.001248 -0.013854 0.000000 0.045544 -0.000002
# 6 0.000002 0.000000 0.000000 -0.008766 -0.000002 0.060914
#
#
# Mechanical properties :
#
#
# Convention : Reuss Voigt Hill
#
# Bulk Modulus (GPa) = 16.32041 39.82222 28.07131
# Shear Modulus (GPa) = 22.94475 35.76181 29.35328
#
# Velocity S-wave (km/s) = 3.07353 3.83712 3.47635
# Velocity P-wave (km/s) = 4.39485 6.00220 5.26028
#
# Compressibility (1/GPa) = 0.06127297
#
# Stress axis : x y z
#
# Youngs Moduli (GPa) = 31.29949 190.98776 43.86267
#
# Poissons Ratio (x) = -0.05053 -0.04529
# Poissons Ratio (y) = -0.00828 0.02862
# Poissons Ratio (z) = -0.03232 0.12463
#
# Static dielectric constant tensor:
#      x y z
#    x 2.102420 0.000000 -0.016730 
#    y 0.000000 1.995750 0.000000 
#    z -0.016730 0.000000 1.946970 
# 
# From -- ./inp_files/159502.got.cif
#   From: 2010.05.17/outbox.cif.g08.bks.cpg/sg12_80_cif.got.tgz:159502.got - 2010.06.03 13:09:07.
