data_PCOD9169560
_publ_section_title
;
Structure prediction by ZEFSAII (Michael W. Deem and Ramdas Pophale) SiO2 
 PCOD9169560
Probable space group: C 2/M
;
_chemical_formula_sum "Si O2"
_cell_formula_units_Z 36
_cell_length_a 25.980111
_cell_length_b 7.688614
_cell_length_c 7.668100
_cell_angle_alpha 90.000000
_cell_angle_beta 68.050096
_cell_angle_gamma 90.000000
_cell_volume 1420.678843
_symmetry_space_group_name_H-M "C 2/M"
_symmetry_group_IT_number 12
_symmetry_cell_setting 'monoclinic'
loop_
_space_group_symop_operation_xyz
x,y,z
-x,y,-z
-x,-y,-z
x,-y,z
1/2+x,1/2+y,z
1/2-x,1/2+y,-z
1/2-x,1/2-y,-z
1/2+x,1/2-y,z
loop_
_atom_site_type_symbol
_atom_site_label
_atom_site_fract_x
_atom_site_fract_y
_atom_site_fract_z
Si Si1 0.341543 0.707112 0.701176
Si Si2 0.000000 0.741995 0.000000
Si Si3 0.953876 0.801767 0.682468
Si Si4 0.271106 0.208042 0.277021
Si Si5 0.886257 0.200623 0.250157
O O1 0.334815 0.500000 0.742865
O O2 0.392328 0.777193 0.751685
O O3 0.278801 0.778479 0.781162
O O4 0.364428 0.729335 0.474038
O O5 0.061135 0.681097 0.858688
O O6 0.978519 0.813867 0.842575
O O7 0.000000 0.716872 0.500000
O O8 0.946376 0.000000 0.624153
O O9 0.250000 0.250000 0.500000
O O10 0.333108 0.281235 0.191519
O O11 0.274996 0.000000 0.255747
O O12 0.906042 0.000000 0.214391
#
# Coordination Sequence:
#
# PCOD9169560 Si02
#       5
#     8   4   8   8   8
#     4   8  15  28  46  69  99 132 168 213 265 310
#     4  12  21  30  49  78 109 140 179 222 263 314
#     4  10  17  27  45  71 104 137 172 219 267 310
#     4   9  17  31  52  77 104 139 178 217 265 317
#     4  10  18  30  49  77 108 138 175 219 265 313
#
# _framework density 25.339998999999999
#
# number of rings (size 3 to 8) (size 9 to 14) (size 15 to 20)
#    0.000    2.444    2.222    4.000    0.000    0.000 
#    0.000    1.667    0.000    0.000    0.000   20.222 
#    0.000    0.000    0.000    0.000    0.000    0.000 
#
# Total GULP energy -100250.676360 kJ/mol
# GULP energy per Si atom -5569.482020 kJ/mol
# Density = 2.528232 g / cm^3
# Si number density = 25.339999 Si / 1000 Ang^3
#
#
#
# Elastic Constant Matrix: (Units=GPa)
#
#
# Indices 1 2 3 4 5 6 
#
# 1 302.0291 21.2505 44.0333 0.0000 -6.4219 0.0000
# 2 21.2505 77.4692 7.6802 0.0000 -6.7934 0.0000
# 3 44.0333 7.6802 100.3306 0.0000 -3.9685 0.0000
# 4 0.0000 0.0000 0.0000 -79.2813 0.0000 8.5121
# 5 -6.4219 -6.7934 -3.9685 0.0000 33.3300 0.0000
# 6 0.0000 0.0000 0.0000 8.5121 0.0000 -10.5072
#
#
#
# Elastic Compliance Matrix: (Units=1/GPa)
#
#
# Indices 1 2 3 4 5 6 
#
# 1 0.003594 -0.000806 -0.001502 0.000000 0.000349 0.000000
# 2 -0.000806 0.013406 -0.000573 0.000000 0.002509 0.000000
# 3 -0.001502 -0.000573 0.010704 0.000000 0.000868 0.000000
# 4 0.000000 0.000000 0.000000 -0.013815 0.000000 -0.011192
# 5 0.000349 0.002509 0.000868 0.000000 0.030685 0.000000
# 6 0.000000 0.000000 0.000000 -0.011192 0.000000 -0.104239
#
#
# Mechanical properties :
#
#
# Convention : Reuss Voigt Hill
#
# Bulk Modulus (GPa) = 45.57421 69.52853 57.55137
# Shear Modulus (GPa) = -107.32477 15.83262 -45.74607
#
# Velocity S-wave (km/s) = -6.51505 2.50233 -4.25348
# Velocity P-wave (km/s) = 6.21050 5.98721 1.16697
#
# Compressibility (1/GPa) = 0.02194223
#
# Stress axis : x y z
#
# Youngs Moduli (GPa) = 278.23728 74.59143 93.41960
#
# Poissons Ratio (x) = 0.06015 0.14030
# Poissons Ratio (y) = 0.22436 0.05354
# Poissons Ratio (z) = 0.41786 0.04275
#
# Static dielectric constant tensor:
#      x y z
#    x 2.034910 0.000000 -0.036150 
#    y 0.000000 2.115100 0.000000 
#    z -0.036150 0.000000 1.960580 
# 
# From -- ./inp_files/92661.got.cif
#   From: 2010.05.17/outbox.cif.g08.bks.cpg/sg12_47_cif.got.tgz:92661.got - 2010.06.03 13:09:07.
