data_PCOD9169154
_publ_section_title
;
Structure prediction by ZEFSAII (Michael W. Deem and Ramdas Pophale) SiO2 
 PCOD9169154
Probable space group: C 2/M
;
_chemical_formula_sum "Si O2"
_cell_formula_units_Z 48
_cell_length_a 17.645878
_cell_length_b 19.532952
_cell_length_c 8.417971
_cell_angle_alpha 90.000000
_cell_angle_beta 50.854047
_cell_angle_gamma 90.000000
_cell_volume 2250.209588
_symmetry_space_group_name_H-M "C 2/M"
_symmetry_group_IT_number 12
_symmetry_cell_setting 'monoclinic'
loop_
_space_group_symop_operation_xyz
x,y,z
-x,y,-z
-x,-y,-z
x,-y,z
1/2+x,1/2+y,z
1/2-x,1/2+y,-z
1/2-x,1/2-y,-z
1/2+x,1/2-y,z
loop_
_atom_site_type_symbol
_atom_site_label
_atom_site_fract_x
_atom_site_fract_y
_atom_site_fract_z
Si Si1 0.805397 0.708425 0.256617
Si Si2 0.610891 0.209362 0.179929
Si Si3 0.121916 0.295146 0.513325
Si Si4 0.382453 0.634618 0.159605
Si Si5 0.402598 0.579562 0.461280
Si Si6 0.121998 0.130857 0.176906
O O1 0.841387 0.672136 0.370211
O O2 0.690664 0.727288 0.415153
O O3 0.854538 0.785007 0.197907
O O4 0.843123 0.678837 0.040515
O O5 0.493703 0.214318 0.318033
O O6 0.635060 0.175004 0.317843
O O7 0.644949 0.288427 0.147567
O O8 0.351905 0.597152 0.361433
O O9 0.500000 0.630053 0.000000
O O10 0.345875 0.604742 0.039425
O O11 0.429764 0.500000 0.424273
O O12 0.503877 0.621913 0.331380
O O13 0.347662 0.594937 0.699531
#
# Coordination Sequence:
#
# PCOD9169154 Si02
#       6
#     8   8   8   8   8   8
#     4  10  18  28  41  59  78 104 142 170 196 234
#     4  10  18  30  42  57  82 108 138 169 198 231
#     4  10  18  26  42  59  76 104 138 174 200 227
#     4   9  17  27  38  51  73 103 128 159 196 227
#     4  10  17  24  36  54  72  94 130 164 189 225
#     4   9  16  25  38  50  71 103 128 157 190 224
#
# _framework density 21.331347999999998
#
# number of rings (size 3 to 8) (size 9 to 14) (size 15 to 20)
#    0.000    2.333    0.000    8.000    0.000    3.667 
#    0.000    0.000    0.000    0.000    0.000    0.000 
#    0.000    0.000    0.000    3.000    0.000  152.000 
#
# Total GULP energy -133730.486193 kJ/mol
# GULP energy per Si atom -5572.103591 kJ/mol
# Density = 2.128280 g / cm^3
# Si number density = 21.331348 Si / 1000 Ang^3
#
#
#
# Elastic Constant Matrix: (Units=GPa)
#
#
# Indices 1 2 3 4 5 6 
#
# 1 117.8461 3.2616 92.2837 0.0000 29.1507 0.0000
# 2 3.2616 29.6570 5.5556 0.0000 9.1771 0.0000
# 3 92.2837 5.5556 152.3806 0.0000 49.3858 0.0000
# 4 0.0000 0.0000 0.0000 5.5552 0.0000 6.7027
# 5 29.1507 9.1771 49.3858 0.0000 66.1634 0.0000
# 6 0.0000 0.0000 0.0000 6.7027 0.0000 -1.8876
#
#
#
# Elastic Compliance Matrix: (Units=1/GPa)
#
#
# Indices 1 2 3 4 5 6 
#
# 1 0.016143 -0.000005 -0.009856 0.000000 0.000245 0.000000
# 2 -0.000005 0.035249 0.000398 0.000000 -0.005184 0.000000
# 3 -0.009856 0.000398 0.014678 0.000000 -0.006669 0.000000
# 4 0.000000 0.000000 0.000000 0.034065 0.000000 0.120960
# 5 0.000245 -0.005184 -0.006669 0.000000 0.020703 0.000000
# 6 0.000000 0.000000 0.000000 0.120960 0.000000 -0.100251
#
#
# Mechanical properties :
#
#
# Convention : Reuss Voigt Hill
#
# Bulk Modulus (GPa) = 21.21106 55.78726 38.49916
# Shear Modulus (GPa) = 90.53518 27.21837 58.87678
#
# Velocity S-wave (km/s) = 6.52184 3.57596 5.25937
# Velocity P-wave (km/s) = 8.16565 6.57719 7.41408
#
# Compressibility (1/GPa) = 0.04714521
#
# Stress axis : x y z
#
# Youngs Moduli (GPa) = 61.94642 28.36955 68.12906
#
# Poissons Ratio (x) = 0.00014 0.67145
# Poissons Ratio (y) = 0.00030 -0.02711
# Poissons Ratio (z) = 0.61051 -0.01129
#
# Static dielectric constant tensor:
#      x y z
#    x 1.887820 0.000000 0.069740 
#    y 0.000000 1.721150 0.000000 
#    z 0.069740 0.000000 1.888440 
# 
# From -- ./inp_files/64701.got.cif
#   From: 2010.05.17/outbox.cif.g08.bks.cpg/sg12_33_cif.got.tgz:64701.got - 2010.06.03 13:09:07.
