data_PCOD9169359
_publ_section_title
;
Structure prediction by ZEFSAII (Michael W. Deem and Ramdas Pophale) SiO2 
 PCOD9169359
Probable space group: C 2/M
;
_chemical_formula_sum "Si O2"
_cell_formula_units_Z 56
_cell_length_a 33.717122
_cell_length_b 19.577864
_cell_length_c 8.843844
_cell_angle_alpha 90.000000
_cell_angle_beta 23.040230
_cell_angle_gamma 90.000000
_cell_volume 2284.823086
_symmetry_space_group_name_H-M "C 2/M"
_symmetry_group_IT_number 12
_symmetry_cell_setting 'monoclinic'
loop_
_space_group_symop_operation_xyz
x,y,z
-x,y,-z
-x,-y,-z
x,-y,z
1/2+x,1/2+y,z
1/2-x,1/2+y,-z
1/2-x,1/2-y,-z
1/2+x,1/2-y,z
loop_
_atom_site_type_symbol
_atom_site_label
_atom_site_fract_x
_atom_site_fract_y
_atom_site_fract_z
Si Si1 0.380443 0.075255 0.395202
Si Si2 0.719801 0.080926 0.570829
Si Si3 0.905829 0.076606 0.690030
Si Si4 0.379933 0.424471 0.442298
Si Si5 0.210147 0.809535 0.443526
Si Si6 0.505676 0.719565 0.316321
Si Si7 0.884019 0.719609 0.477722
O O1 0.357774 0.090122 0.297824
O O2 0.352928 0.140658 0.591968
O O3 0.336962 0.000000 0.581902
O O4 0.500000 0.069992 0.000000
O O5 0.717284 0.146594 0.693801
O O6 0.708683 0.000000 0.663341
O O7 0.827171 0.083331 0.102828
O O8 0.852962 0.082202 0.712192
O O9 0.982405 0.138897 0.412872
O O10 0.950657 0.000000 0.532164
O O11 0.357654 0.500000 0.468594
O O12 0.328226 0.373410 0.514936
O O13 0.500000 0.412871 0.000000
O O14 0.200258 0.755145 0.335022
O O15 0.120732 0.776889 0.857878
O O16 0.500000 0.752314 0.500000
O O17 0.416098 0.748639 0.525742
O O18 0.000000 0.724180 0.000000
#
# Coordination Sequence:
#
# PCOD9169359 Si02
#       7
#     8   8   8   8   8   8   8
#     4   9  19  40  65  80  95 127 178 236 291 338
#     4  10  21  33  51  81 110 142 183 226 266 306
#     4  10  19  30  45  71 112 155 192 211 238 295
#     4  10  17  26  43  67 104 158 197 208 232 288
#     4  11  18  29  49  77 116 144 179 215 249 310
#     4  11  19  31  49  74 116 156 183 206 248 307
#     4   9  19  34  55  81 106 141 178 217 268 319
#
# _framework density 24.509556
#
# number of rings (size 3 to 8) (size 9 to 14) (size 15 to 20)
#    0.000    2.000    4.286    0.857    0.000    1.429 
#    0.000    0.714    0.000    0.429    0.000    6.000 
#    0.000    0.000    0.000    0.000    0.000    0.000 
#
# Total GULP energy -156013.675077 kJ/mol
# GULP energy per Si atom -5571.916967 kJ/mol
# Density = 2.445377 g / cm^3
# Si number density = 24.509556 Si / 1000 Ang^3
#
#
#
# Elastic Constant Matrix: (Units=GPa)
#
#
# Indices 1 2 3 4 5 6 
#
# 1 152.4371 68.4416 38.4490 0.0000 -17.0927 0.0000
# 2 68.4416 154.0890 4.7504 0.0000 -12.8236 0.0000
# 3 38.4490 4.7504 49.0181 0.0000 -20.2583 0.0000
# 4 0.0000 0.0000 0.0000 9.0231 0.0000 -26.7317
# 5 -17.0927 -12.8236 -20.2583 0.0000 35.0715 0.0000
# 6 0.0000 0.0000 0.0000 -26.7317 0.0000 10.9329
#
#
#
# Elastic Compliance Matrix: (Units=1/GPa)
#
#
# Indices 1 2 3 4 5 6 
#
# 1 0.010573 -0.004551 -0.008421 0.000000 -0.001375 0.000000
# 2 -0.004551 0.008661 0.004102 0.000000 0.003318 0.000000
# 3 -0.008421 0.004102 0.033538 0.000000 0.016768 0.000000
# 4 0.000000 0.000000 0.000000 -0.017750 0.000000 -0.043400
# 5 -0.001375 0.003318 0.016768 0.000000 0.038742 0.000000
# 6 0.000000 0.000000 0.000000 -0.043400 0.000000 -0.014650
#
#
# Mechanical properties :
#
#
# Convention : Reuss Voigt Hill
#
# Bulk Modulus (GPa) = 28.54513 64.31402 46.42958
# Shear Modulus (GPa) = 56.47661 27.26574 41.87118
#
# Velocity S-wave (km/s) = 4.80549 3.33896 4.13772
# Velocity P-wave (km/s) = 6.51630 6.41578 6.46623
#
# Compressibility (1/GPa) = 0.03503225
#
# Stress axis : x y z
#
# Youngs Moduli (GPa) = 94.57876 115.46146 29.81671
#
# Poissons Ratio (x) = 0.52548 0.25108
# Poissons Ratio (y) = 0.43044 -0.12230
# Poissons Ratio (z) = 0.79642 -0.47359
#
# Static dielectric constant tensor:
#      x y z
#    x 2.075280 0.000000 0.023340 
#    y 0.000000 1.983290 0.000000 
#    z 0.023340 0.000000 2.048060 
# 
# From -- ./inp_files/113356.got.cif
#   From: 2010.05.17/outbox.cif.g08.bks.cpg/sg12_57_cif.got.tgz:113356.got - 2010.06.03 13:09:07.
