data_PCOD9169471
_publ_section_title
;
Structure prediction by ZEFSAII (Michael W. Deem and Ramdas Pophale) SiO2 
 PCOD9169471
Probable space group: C 2/M
;
_chemical_formula_sum "Si O2"
_cell_formula_units_Z 56
_cell_length_a 19.978593
_cell_length_b 7.330422
_cell_length_c 22.544924
_cell_angle_alpha 90.000000
_cell_angle_beta 123.825343
_cell_angle_gamma 90.000000
_cell_volume 2742.880584
_symmetry_space_group_name_H-M "C 2/M"
_symmetry_group_IT_number 12
_symmetry_cell_setting 'monoclinic'
loop_
_space_group_symop_operation_xyz
x,y,z
-x,y,-z
-x,-y,-z
x,-y,z
1/2+x,1/2+y,z
1/2-x,1/2+y,-z
1/2-x,1/2-y,-z
1/2+x,1/2-y,z
loop_
_atom_site_type_symbol
_atom_site_label
_atom_site_fract_x
_atom_site_fract_y
_atom_site_fract_z
Si Si1 0.790663 0.221552 0.685622
Si Si2 0.491264 0.221887 0.401355
Si Si3 0.129838 0.721744 0.551684
Si Si4 0.941304 0.777223 0.918934
Si Si5 0.089686 0.283389 0.757921
Si Si6 0.965946 0.217714 0.797201
Si Si7 0.736700 0.278484 0.190833
O O1 0.721158 0.284679 0.606657
O O2 0.882998 0.284134 0.725322
O O3 0.764773 0.269906 0.740139
O O4 0.790840 0.000000 0.682747
O O5 0.577682 0.282251 0.469404
O O6 0.423589 0.270862 0.416834
O O7 0.463888 0.286883 0.323498
O O8 0.493274 0.000000 0.401443
O O9 0.131380 0.500000 0.551042
O O10 0.968373 0.718167 0.866382
O O11 0.848010 0.720245 0.879166
O O12 0.942455 0.000000 0.920135
O O13 0.000000 0.715653 0.000000
O O14 0.095682 0.500000 0.751694
O O15 0.180934 0.213581 0.798252
O O16 0.043409 0.255813 0.796155
O O17 0.957991 0.000000 0.796879
O O18 0.735901 0.500000 0.188784
#
# Coordination Sequence:
#
# PCOD9169471 Si02
#       7
#     8   8   8   8   8   8   8
#     4   8  12  22  39  58  79 105 141 180 206 232
#     4   8  13  19  33  59  85 105 130 174 217 239
#     4   8  11  18  34  58  82 101 134 182 216 229
#     4   8  14  27  47  67  83 103 138 179 206 231
#     4  10  17  27  42  63  90 113 134 166 209 252
#     4   9  18  29  43  63  86 111 137 167 207 250
#     4   8  13  22  40  63  82 105 139 173 204 238
#
# _framework density 20.41649
#
# number of rings (size 3 to 8) (size 9 to 14) (size 15 to 20)
#    0.000    3.571    1.429    2.571    0.000    0.000 
#    0.000    1.429    0.000    3.857    0.000    2.000 
#    0.000    0.000    0.000    0.000    0.000    0.000 
#
# Total GULP energy -156076.553810 kJ/mol
# GULP energy per Si atom -5574.162636 kJ/mol
# Density = 2.037002 g / cm^3
# Si number density = 20.416490 Si / 1000 Ang^3
#
#
#
# Elastic Constant Matrix: (Units=GPa)
#
#
# Indices 1 2 3 4 5 6 
#
# 1 140.6604 -0.4900 77.2816 0.0000 18.0321 0.0000
# 2 -0.4900 77.0317 6.7724 0.0000 2.6465 0.0000
# 3 77.2816 6.7724 158.8048 0.0000 28.9979 0.0000
# 4 0.0000 0.0000 0.0000 -14.9923 0.0000 -5.4327
# 5 18.0321 2.6465 28.9979 0.0000 23.8465 0.0000
# 6 0.0000 0.0000 0.0000 -5.4327 0.0000 4.0904
#
#
#
# Elastic Compliance Matrix: (Units=1/GPa)
#
#
# Indices 1 2 3 4 5 6 
#
# 1 0.009803 0.000522 -0.004408 0.000000 -0.002111 0.000000
# 2 0.000522 0.013077 -0.000610 0.000000 -0.001104 0.000000
# 3 -0.004408 -0.000610 0.010087 0.000000 -0.008865 0.000000
# 4 0.000000 0.000000 0.000000 -0.045030 0.000000 -0.059806
# 5 -0.002111 -0.001104 -0.008865 0.000000 0.054434 0.000000
# 6 0.000000 0.000000 0.000000 -0.059806 0.000000 0.165044
#
#
# Mechanical properties :
#
#
# Convention : Reuss Voigt Hill
#
# Bulk Modulus (GPa) = 41.70846 60.40279 51.05563
# Shear Modulus (GPa) = 22.28183 22.11777 22.19980
#
# Velocity S-wave (km/s) = 3.30716 3.29497 3.30107
# Velocity P-wave (km/s) = 5.92083 6.64268 6.29212
#
# Compressibility (1/GPa) = 0.02397595
#
# Stress axis : x y z
#
# Youngs Moduli (GPa) = 102.00556 76.47263 99.13999
#
# Poissons Ratio (x) = -0.03995 0.43696
# Poissons Ratio (y) = -0.05329 0.06050
# Poissons Ratio (z) = 0.44959 0.04667
#
# Static dielectric constant tensor:
#      x y z
#    x 1.715830 0.000000 0.030540 
#    y 0.000000 1.802450 0.000000 
#    z 0.030540 0.000000 1.716530 
# 
# From -- ./inp_files/315069.got.cif
#   From: 2010.05.17/outbox.cif.g08.bks.cpg/sg12_158_cif.got.tgz:315069.got - 2010.06.03 13:09:07.
