data_PCOD9169733
_publ_section_title
;
Structure prediction by ZEFSAII (Michael W. Deem and Ramdas Pophale) SiO2 
 PCOD9169733
Probable space group: C 2/M
;
_chemical_formula_sum "Si O2"
_cell_formula_units_Z 48
_cell_length_a 30.499209
_cell_length_b 10.621983
_cell_length_c 27.512190
_cell_angle_alpha 90.000000
_cell_angle_beta 19.676488
_cell_angle_gamma 90.000000
_cell_volume 3001.054750
_symmetry_space_group_name_H-M "C 2/M"
_symmetry_group_IT_number 12
_symmetry_cell_setting 'monoclinic'
loop_
_space_group_symop_operation_xyz
x,y,z
-x,y,-z
-x,-y,-z
x,-y,z
1/2+x,1/2+y,z
1/2-x,1/2+y,-z
1/2-x,1/2-y,-z
1/2+x,1/2-y,z
loop_
_atom_site_type_symbol
_atom_site_label
_atom_site_fract_x
_atom_site_fract_y
_atom_site_fract_z
Si Si1 0.874877 0.500000 0.931913
Si Si2 0.471025 0.257438 0.670742
Si Si3 0.868475 0.350066 0.107731
Si Si4 0.368838 0.500000 0.948224
Si Si5 0.440592 0.000000 0.754244
Si Si6 0.598913 0.650569 0.440876
Si Si7 0.065896 0.000000 0.228948
Si Si8 0.162354 0.742675 0.967528
O O1 0.951302 0.500000 0.801345
O O2 0.721078 0.500000 0.078603
O O3 0.895639 0.625170 0.941828
O O4 0.556533 0.278171 0.533590
O O5 0.488777 0.374819 0.688685
O O6 0.318914 0.259730 0.812880
O O7 0.494736 0.126481 0.673395
O O8 0.860352 0.500000 0.104777
O O9 0.743093 0.320407 0.271485
O O10 0.863405 0.277234 0.062302
O O11 0.000000 0.327157 0.000000
O O12 0.445129 0.500000 0.817624
O O13 0.214860 0.500000 0.094969
O O14 0.390319 0.373448 0.956291
O O15 0.500000 0.678516 0.500000
O O16 0.589120 0.500000 0.460699
#
# Coordination Sequence:
#
# PCOD9169733 Si02
#       8
#     4   8   8   4   4   8   4   8
#     4   9  16  26  46  67  96 135 163 193 238 289
#     4  10  17  28  46  72 100 130 157 197 243 288
#     4  10  20  33  50  74  98 125 166 206 236 283
#     4   9  18  28  42  69 104 131 155 199 244 291
#     4   9  18  28  40  70 108 128 155 197 244 290
#     4  10  18  29  50  73  95 127 163 197 244 286
#     4   9  16  26  44  70  98 128 167 195 234 286
#     4  10  17  29  47  70  98 130 162 196 245 284
#
# _framework density 15.994377
#
# number of rings (size 3 to 8) (size 9 to 14) (size 15 to 20)
#    0.000    2.333    3.333    1.000    0.000    4.000 
#    0.000    1.667    0.000    0.000    0.000    7.000 
#    0.000    0.000    0.000    0.000    0.000    0.000 
#
# Total GULP energy -133796.841644 kJ/mol
# GULP energy per Si atom -5574.868402 kJ/mol
# Density = 1.595797 g / cm^3
# Si number density = 15.994377 Si / 1000 Ang^3
#
#
#
# Elastic Constant Matrix: (Units=GPa)
#
#
# Indices 1 2 3 4 5 6 
#
# 1 72.2800 61.8126 62.9363 -0.0002 36.3575 0.0002
# 2 61.8126 139.2923 60.6713 -0.0004 36.3553 0.0004
# 3 62.9363 60.6713 98.6388 0.0000 33.4966 0.0004
# 4 -0.0002 -0.0004 0.0000 6.5508 0.0006 0.1175
# 5 36.3575 36.3553 33.4966 0.0006 38.5145 -0.0005
# 6 0.0002 0.0004 0.0004 0.1175 -0.0005 8.8462
#
#
#
# Elastic Compliance Matrix: (Units=1/GPa)
#
#
# Indices 1 2 3 4 5 6 
#
# 1 0.046265 -0.007179 -0.017844 0.000003 -0.021379 -0.000001
# 2 -0.007179 0.011886 -0.001734 0.000001 -0.002935 0.000000
# 3 -0.017844 -0.001734 0.023151 0.000000 -0.001654 -0.000001
# 4 0.000003 0.000001 0.000000 0.152690 -0.000006 -0.002027
# 5 -0.021379 -0.002935 -0.001654 -0.000006 0.050355 0.000003
# 6 -0.000001 0.000000 -0.000001 -0.002027 0.000003 0.113070
#
#
# Mechanical properties :
#
#
# Convention : Reuss Voigt Hill
#
# Bulk Modulus (GPa) = 35.98467 75.67241 55.82854
# Shear Modulus (GPa) = 10.86502 19.10168 14.98335
#
# Velocity S-wave (km/s) = 2.60917 3.45958 3.06402
# Velocity P-wave (km/s) = 5.62354 7.96071 6.89192
#
# Compressibility (1/GPa) = 0.02778961
#
# Stress axis : x y z
#
# Youngs Moduli (GPa) = 21.61468 84.13243 43.19396
#
# Poissons Ratio (x) = 0.60395 0.77075
# Poissons Ratio (y) = 0.15516 0.07489
# Poissons Ratio (z) = 0.38569 0.14588
#
# Static dielectric constant tensor:
#      x y z
#    x 1.511290 0.000000 0.005660 
#    y 0.000000 1.530980 0.000000 
#    z 0.005660 0.000000 1.516890 
# 
# From -- ./inp_files/173453.got.cif
#   From: 2010.05.17/outbox.cif.g08.bks.cpg/sg12_87_cif.got.tgz:173453.got - 2010.06.03 13:09:07.
