data_PCOD9169978
_publ_section_title
;
Structure prediction by ZEFSAII (Michael W. Deem and Ramdas Pophale) SiO2 
 PCOD9169978
Probable space group: C 2/M
;
_chemical_formula_sum "Si O2"
_cell_formula_units_Z 48
_cell_length_a 22.504061
_cell_length_b 20.312321
_cell_length_c 8.072576
_cell_angle_alpha 90.000000
_cell_angle_beta 143.901549
_cell_angle_gamma 90.000000
_cell_volume 2174.085109
_symmetry_space_group_name_H-M "C 2/M"
_symmetry_group_IT_number 12
_symmetry_cell_setting 'monoclinic'
loop_
_space_group_symop_operation_xyz
x,y,z
-x,y,-z
-x,-y,-z
x,-y,z
1/2+x,1/2+y,z
1/2-x,1/2+y,-z
1/2-x,1/2-y,-z
1/2+x,1/2-y,z
loop_
_atom_site_type_symbol
_atom_site_label
_atom_site_fract_x
_atom_site_fract_y
_atom_site_fract_z
Si Si1 0.622008 0.217035 0.289508
Si Si2 0.250027 0.073110 0.775673
Si Si3 0.384014 0.926902 0.796935
Si Si4 0.901364 0.074412 0.874805
Si Si5 0.107877 0.195224 0.942973
Si Si6 0.864001 0.199286 0.359264
O O1 0.656765 0.141612 0.366192
O O2 0.655856 0.252425 0.532669
O O3 0.500000 0.214648 0.000000
O O4 0.645715 0.259654 0.179670
O O5 0.361265 0.080325 0.943812
O O6 0.181983 0.072829 0.455667
O O7 0.202654 0.133133 0.769543
O O8 0.242027 0.000000 0.834726
O O9 0.343897 0.000000 0.658905
O O10 0.500000 0.928496 0.000000
O O11 0.925507 0.000000 0.982227
O O12 0.869964 0.120311 0.954487
O O13 0.000000 0.101855 0.000000
O O14 0.148190 0.220524 0.858360
O O15 0.985623 0.191541 0.652751
#
# Coordination Sequence:
#
# PCOD9169978 Si02
#       6
#     8   8   8   8   8   8
#     4   9  17  34  55  77 107 137 173 224 267 309
#     4  10  19  32  52  79 109 142 181 221 259 306
#     4   9  19  36  60  81  97 133 184 228 277 321
#     4  10  17  29  49  74 111 151 181 211 250 304
#     4  10  18  31  50  78 114 150 177 200 253 320
#     4  10  19  30  51  81 112 145 176 209 254 316
#
# _framework density 22.078251999999999
#
# number of rings (size 3 to 8) (size 9 to 14) (size 15 to 20)
#    0.000    2.333    3.333    0.500    0.000    1.333 
#    0.000    2.500    0.000    1.000    0.000    7.000 
#    0.000    0.000    0.000    0.000    0.000    0.000 
#
# Total GULP energy -133782.496317 kJ/mol
# GULP energy per Si atom -5574.270680 kJ/mol
# Density = 2.202800 g / cm^3
# Si number density = 22.078252 Si / 1000 Ang^3
#
#
#
# Elastic Constant Matrix: (Units=GPa)
#
#
# Indices 1 2 3 4 5 6 
#
# 1 132.4118 72.8839 39.0086 0.0000 -8.3850 0.0000
# 2 72.8839 173.4339 18.6018 0.0000 -29.5747 0.0000
# 3 39.0086 18.6018 68.8001 0.0000 -4.4664 0.0000
# 4 0.0000 0.0000 0.0000 7.9736 0.0000 1.8313
# 5 -8.3850 -29.5747 -4.4664 0.0000 47.0333 0.0000
# 6 0.0000 0.0000 0.0000 1.8313 0.0000 27.3624
#
#
#
# Elastic Compliance Matrix: (Units=1/GPa)
#
#
# Indices 1 2 3 4 5 6 
#
# 1 0.011533 -0.004484 -0.005410 0.000000 -0.001277 0.000000
# 2 -0.004484 0.008358 0.000576 0.000000 0.004511 0.000000
# 3 -0.005410 0.000576 0.017515 0.000000 0.001061 0.000000
# 4 0.000000 0.000000 0.000000 0.127372 0.000000 -0.008525
# 5 -0.001277 0.004511 0.001061 0.000000 0.023971 0.000000
# 6 0.000000 0.000000 0.000000 -0.008525 0.000000 0.037117
#
#
# Mechanical properties :
#
#
# Convention : Reuss Voigt Hill
#
# Bulk Modulus (GPa) = 53.27751 70.62604 61.95177
# Shear Modulus (GPa) = 19.93937 32.75061 26.34499
#
# Velocity S-wave (km/s) = 3.00846 3.85566 3.45810
# Velocity P-wave (km/s) = 6.02091 7.20277 6.63819
#
# Compressibility (1/GPa) = 0.01876965
#
# Stress axis : x y z
#
# Youngs Moduli (GPa) = 86.70488 119.64824 57.09287
#
# Poissons Ratio (x) = 0.53655 0.30886
# Poissons Ratio (y) = 0.38882 -0.03287
# Poissons Ratio (z) = 0.46905 -0.06888
#
# Static dielectric constant tensor:
#      x y z
#    x 1.899730 0.000000 0.092700 
#    y 0.000000 1.825040 0.000000 
#    z 0.092700 0.000000 1.829310 
# 
# From -- ./inp_files/98944.got.cif
#   From: 2010.05.17/outbox.cif.g08.bks.cpg/sg12_50_cif.got.tgz:98944.got - 2010.06.03 13:09:07.
