data_PCOD9169751
_publ_section_title
;
Structure prediction by ZEFSAII (Michael W. Deem and Ramdas Pophale) SiO2 
 PCOD9169751
Probable space group: C 2/M
;
_chemical_formula_sum "Si O2"
_cell_formula_units_Z 56
_cell_length_a 18.140104
_cell_length_b 17.945095
_cell_length_c 12.413061
_cell_angle_alpha 90.000000
_cell_angle_beta 61.517254
_cell_angle_gamma 90.000000
_cell_volume 3551.680681
_symmetry_space_group_name_H-M "C 2/M"
_symmetry_group_IT_number 12
_symmetry_cell_setting 'monoclinic'
loop_
_space_group_symop_operation_xyz
x,y,z
-x,y,-z
-x,-y,-z
x,-y,z
1/2+x,1/2+y,z
1/2-x,1/2+y,-z
1/2-x,1/2-y,-z
1/2+x,1/2-y,z
loop_
_atom_site_type_symbol
_atom_site_label
_atom_site_fract_x
_atom_site_fract_y
_atom_site_fract_z
Si Si1 0.532470 0.828771 0.594669
Si Si2 0.138217 0.589210 0.884743
Si Si3 0.979913 0.588658 0.840066
Si Si4 0.350090 0.587944 0.424911
Si Si5 0.194254 0.164996 0.312845
Si Si6 0.985643 0.845262 0.633246
Si Si7 0.220505 0.306933 0.428295
O O1 0.500000 0.851405 0.500000
O O2 0.486194 0.869811 0.723299
O O3 0.516613 0.740194 0.617405
O O4 0.632190 0.841511 0.526313
O O5 0.154044 0.500000 0.872950
O O6 0.065114 0.603743 0.848070
O O7 0.221066 0.633506 0.796435
O O8 0.097336 0.609372 0.028372
O O9 0.975939 0.500000 0.826215
O O10 0.336841 0.500000 0.432790
O O11 0.323564 0.621255 0.561438
O O12 0.448686 0.607859 0.342749
O O13 0.292443 0.630768 0.378007
O O14 0.114752 0.153180 0.289166
O O15 0.203205 0.252462 0.338970
O O16 0.000000 0.870856 0.500000
O O17 0.250000 0.250000 0.500000
#
# Coordination Sequence:
#
# PCOD9169751 Si02
#       7
#     8   8   8   8   8   8   8
#     4  11  18  32  50  70 102 133 161 204 248 295
#     4   9  18  32  50  74 100 127 162 209 250 291
#     4   9  19  33  49  72 101 130 165 204 247 297
#     4  10  19  28  43  72 102 128 162 205 253 300
#     4  10  17  29  48  70  94 130 164 199 252 299
#     4   9  17  30  44  67  97 129 158 204 253 290
#     4  10  17  28  47  69  96 131 164 203 243 294
#
# _framework density 15.767182999999999
#
# number of rings (size 3 to 8) (size 9 to 14) (size 15 to 20)
#    0.000    2.286    5.714    3.000    0.000    5.143 
#    0.000    0.714    0.000    0.000    0.000    0.000 
#    0.000    1.143    0.000    0.000    0.000    0.000 
#
# Total GULP energy -155875.286152 kJ/mol
# GULP energy per Si atom -5566.974505 kJ/mol
# Density = 1.573130 g / cm^3
# Si number density = 15.767183 Si / 1000 Ang^3
#
#
#
# Elastic Constant Matrix: (Units=GPa)
#
#
# Indices 1 2 3 4 5 6 
#
# 1 73.6571 34.5112 28.5902 0.0000 -22.2521 0.0000
# 2 34.5112 64.2428 25.9210 0.0000 -4.1886 0.0000
# 3 28.5902 25.9210 71.9625 0.0000 -8.4060 0.0000
# 4 0.0000 0.0000 0.0000 15.8879 0.0000 -2.8155
# 5 -22.2521 -4.1886 -8.4060 0.0000 26.2576 0.0000
# 6 0.0000 0.0000 0.0000 -2.8155 0.0000 10.1792
#
#
#
# Elastic Compliance Matrix: (Units=1/GPa)
#
#
# Indices 1 2 3 4 5 6 
#
# 1 0.026170 -0.011137 -0.004158 0.000000 0.019070 0.000000
# 2 -0.011137 0.022971 -0.004699 0.000000 -0.007279 0.000000
# 3 -0.004158 -0.004699 0.017392 0.000000 0.001295 0.000000
# 4 0.000000 0.000000 0.000000 0.066185 0.000000 0.018306
# 5 0.019070 -0.007279 0.001295 0.000000 0.053499 0.000000
# 6 0.000000 0.000000 0.000000 0.018306 0.000000 0.103303
#
#
# Mechanical properties :
#
#
# Convention : Reuss Voigt Hill
#
# Bulk Modulus (GPa) = 37.67473 43.10079 40.38776
# Shear Modulus (GPa) = 14.77737 18.52094 16.64915
#
# Velocity S-wave (km/s) = 3.06473 3.43104 3.25304
# Velocity P-wave (km/s) = 6.03902 6.56438 6.30717
#
# Compressibility (1/GPa) = 0.02654299
#
# Stress axis : x y z
#
# Youngs Moduli (GPa) = 38.21219 43.53399 57.49789
#
# Poissons Ratio (x) = 0.48486 0.23906
# Poissons Ratio (y) = 0.42558 0.27021
# Poissons Ratio (z) = 0.15888 0.20459
#
# Static dielectric constant tensor:
#      x y z
#    x 1.567270 0.000000 -0.007450 
#    y 0.000000 1.527770 0.000000 
#    z -0.007450 0.000000 1.502140 
# 
# From -- ./inp_files/157724.got.cif
#   From: 2010.05.17/outbox.cif.g08.bks.cpg/sg12_79_cif.got.tgz:157724.got - 2010.06.03 13:09:07.
