data_PCOD9169276
_publ_section_title
;
Structure prediction by ZEFSAII (Michael W. Deem and Ramdas Pophale) SiO2 
 PCOD9169276
Probable space group: C 2/M
;
_chemical_formula_sum "Si O2"
_cell_formula_units_Z 64
_cell_length_a 19.722312
_cell_length_b 7.379458
_cell_length_c 21.609191
_cell_angle_alpha 90.000000
_cell_angle_beta 92.182332
_cell_angle_gamma 90.000000
_cell_volume 3142.720027
_symmetry_space_group_name_H-M "C 2/M"
_symmetry_group_IT_number 12
_symmetry_cell_setting 'monoclinic'
loop_
_space_group_symop_operation_xyz
x,y,z
-x,y,-z
-x,-y,-z
x,-y,z
1/2+x,1/2+y,z
1/2-x,1/2+y,-z
1/2-x,1/2-y,-z
1/2+x,1/2-y,z
loop_
_atom_site_type_symbol
_atom_site_label
_atom_site_fract_x
_atom_site_fract_y
_atom_site_fract_z
Si Si1 0.793844 0.715979 0.563527
Si Si2 0.385411 0.711840 0.902174
Si Si3 0.127677 0.778854 0.759167
Si Si4 0.473331 0.720399 0.142103
Si Si5 0.259693 0.717994 0.138864
Si Si6 0.423561 0.213080 0.501618
Si Si7 0.336394 0.719508 0.375810
Si Si8 0.358688 0.279761 0.038703
O O1 0.800772 0.500000 0.572235
O O2 0.750000 0.750000 0.500000
O O3 0.869200 0.787505 0.550282
O O4 0.741283 0.782102 0.613960
O O5 0.400284 0.500000 0.913220
O O6 0.451873 0.786907 0.871321
O O7 0.317711 0.726120 0.859866
O O8 0.368699 0.788441 0.969663
O O9 0.061418 0.719952 0.795184
O O10 0.191723 0.723527 0.803703
O O11 0.135767 0.718187 0.689218
O O12 0.127338 0.000000 0.758201
O O13 0.474107 0.500000 0.144934
O O14 0.422720 0.767379 0.084131
O O15 0.261716 0.500000 0.138282
O O16 0.292932 0.781797 0.075082
O O17 0.500000 0.288720 0.500000
O O18 0.385183 0.228166 0.434358
O O19 0.430865 0.000000 0.516270
O O20 0.334788 0.500000 0.375634
O O21 0.355225 0.500000 0.036496
#
# Coordination Sequence:
#
# PCOD9169276 Si02
#       8
#     8   8   8   8   8   8   8   8
#     4   8  14  25  42  63  84 107 136 167 197 232
#     4  10  17  25  42  66  85 102 134 181 221 249
#     4   8  15  29  46  61  79 110 148 176 201 241
#     4   8  14  25  42  62  83 108 140 177 212 247
#     4   9  17  29  43  59  84 114 139 168 210 256
#     4   9  17  29  44  65  94 118 132 158 208 257
#     4   9  16  28  48  67  81 106 147 182 200 229
#     4   8  14  25  42  62  81 107 143 175 206 251
#
# _framework density 20.364523999999999
#
# number of rings (size 3 to 8) (size 9 to 14) (size 15 to 20)
#    0.000    3.375    0.000    2.250    0.000    1.750 
#    0.000    1.875    0.000    6.750    0.000    0.000 
#    0.000    0.000    0.000    0.000    0.000    0.000 
#
# Total GULP energy -178317.395510 kJ/mol
# GULP energy per Si atom -5572.418610 kJ/mol
# Density = 2.031817 g / cm^3
# Si number density = 20.364524 Si / 1000 Ang^3
#
#
#
# Elastic Constant Matrix: (Units=GPa)
#
#
# Indices 1 2 3 4 5 6 
#
# 1 178.6654 -1.7460 48.0499 0.0000 -23.0211 0.0000
# 2 -1.7460 70.2370 -4.5302 0.0000 -3.3954 0.0000
# 3 48.0499 -4.5302 82.2852 0.0000 -17.4038 0.0000
# 4 0.0000 0.0000 0.0000 -12.7024 0.0000 -3.8056
# 5 -23.0211 -3.3954 -17.4038 0.0000 13.0682 0.0000
# 6 0.0000 0.0000 0.0000 -3.8056 0.0000 -0.1119
#
#
#
# Elastic Compliance Matrix: (Units=1/GPa)
#
#
# Indices 1 2 3 4 5 6 
#
# 1 0.007541 0.000562 -0.002133 0.000000 0.010589 0.000000
# 2 0.000562 0.014755 0.002094 0.000000 0.007612 0.000000
# 3 -0.002133 0.002094 0.017867 0.000000 0.020582 0.000000
# 4 0.000000 0.000000 0.000000 0.008567 0.000000 -0.291369
# 5 0.010589 0.007612 0.020582 0.000000 0.124564 0.000000
# 6 0.000000 0.000000 0.000000 -0.291369 0.000000 0.972548
#
#
# Mechanical properties :
#
#
# Convention : Reuss Voigt Hill
#
# Bulk Modulus (GPa) = 24.26668 46.08166 35.17417
# Shear Modulus (GPa) = 4.31581 19.34503 11.83042
#
# Velocity S-wave (km/s) = 1.45735 3.08545 2.41287
# Velocity P-wave (km/s) = 3.84368 5.94734 5.00723
#
# Compressibility (1/GPa) = 0.04120877
#
# Stress axis : x y z
#
# Youngs Moduli (GPa) = 132.61665 67.77566 55.97036
#
# Poissons Ratio (x) = -0.03808 0.11936
# Poissons Ratio (y) = -0.07450 -0.11722
# Poissons Ratio (z) = 0.28282 -0.14194
#
# Static dielectric constant tensor:
#      x y z
#    x 1.738480 0.000000 -0.047780 
#    y 0.000000 1.780880 0.000000 
#    z -0.047780 0.000000 1.697850 
# 
# From -- ./inp_files/319111.got.cif
#   From: 2010.05.17/outbox.cif.g08.bks.cpg/sg12_160_cif.got.tgz:319111.got - 2010.06.03 13:09:07.
