data_PCOD9169240
_publ_section_title
;
Structure prediction by ZEFSAII (Michael W. Deem and Ramdas Pophale) SiO2 
 PCOD9169240
Probable space group: C 2/M
;
_chemical_formula_sum "Si O2"
_cell_formula_units_Z 64
_cell_length_a 19.497375
_cell_length_b 7.402064
_cell_length_c 21.250751
_cell_angle_alpha 90.000000
_cell_angle_beta 112.240913
_cell_angle_gamma 90.000000
_cell_volume 2838.748155
_symmetry_space_group_name_H-M "C 2/M"
_symmetry_group_IT_number 12
_symmetry_cell_setting 'monoclinic'
loop_
_space_group_symop_operation_xyz
x,y,z
-x,y,-z
-x,-y,-z
x,-y,z
1/2+x,1/2+y,z
1/2-x,1/2+y,-z
1/2-x,1/2-y,-z
1/2+x,1/2-y,z
loop_
_atom_site_type_symbol
_atom_site_label
_atom_site_fract_x
_atom_site_fract_y
_atom_site_fract_z
Si Si1 0.844473 0.220352 0.418167
Si Si2 0.944191 0.792977 0.559785
Si Si3 0.881009 0.293915 0.766308
Si Si4 0.404675 0.779373 0.908178
Si Si5 0.182398 0.280148 0.387023
Si Si6 0.911512 0.779833 0.316645
Si Si7 0.422249 0.216672 0.048700
Si Si8 0.551542 0.288808 0.806734
O O1 0.914579 0.283834 0.483601
O O2 0.767404 0.276801 0.421976
O O3 0.851112 0.274342 0.347559
O O4 0.845590 0.000000 0.420519
O O5 0.872057 0.790324 0.578904
O O6 0.011048 0.718020 0.624707
O O7 0.966295 0.000000 0.555265
O O8 0.853543 0.500000 0.759179
O O9 0.866453 0.214746 0.830692
O O10 0.846393 0.216033 0.691261
O O11 0.970300 0.297126 0.787957
O O12 0.491416 0.729520 0.930124
O O13 0.401934 0.000000 0.906025
O O14 0.381822 0.721307 0.970574
O O15 0.178290 0.500000 0.387766
O O16 0.910104 0.720430 0.243749
O O17 0.909658 0.000000 0.314150
O O18 0.402453 0.271283 0.112627
O O19 0.420208 0.000000 0.047294
O O20 0.535608 0.500000 0.792352
#
# Coordination Sequence:
#
# PCOD9169240 Si02
#       8
#     8   8   8   8   8   8   8   8
#     4   9  18  31  47  67  89 115 151 187 218 258
#     4  10  18  31  51  68  86 116 150 183 221 267
#     4   9  16  27  42  60  85 115 143 174 215 260
#     4   7  11  21  37  55  78 111 144 170 203 253
#     4  10  19  30  47  70  92 114 143 186 229 261
#     4   9  17  29  45  66  89 117 152 184 213 257
#     4   8  13  23  38  56  81 112 142 173 212 254
#     4  10  17  25  40  63  87 111 143 180 216 253
#
# _framework density 22.545148999999999
#
# number of rings (size 3 to 8) (size 9 to 14) (size 15 to 20)
#    0.000    3.000    1.250    2.625    0.000    1.500 
#    0.000    5.000    0.000    5.250    0.000    0.875 
#    0.000    0.000    0.000    0.000    0.000    0.000 
#
# Total GULP energy -178366.791755 kJ/mol
# GULP energy per Si atom -5573.962242 kJ/mol
# Density = 2.249384 g / cm^3
# Si number density = 22.545149 Si / 1000 Ang^3
#
#
#
# Elastic Constant Matrix: (Units=GPa)
#
#
# Indices 1 2 3 4 5 6 
#
# 1 46.4499 -5.8217 2.5276 0.0000 -20.4675 0.0000
# 2 -5.8217 77.0006 -0.2097 0.0000 0.3750 0.0000
# 3 2.5276 -0.2097 157.0897 0.0000 -33.0177 0.0000
# 4 0.0000 0.0000 0.0000 9.9911 0.0000 -5.3752
# 5 -20.4675 0.3750 -33.0177 0.0000 26.2730 0.0000
# 6 0.0000 0.0000 0.0000 -5.3752 0.0000 7.5784
#
#
#
# Elastic Compliance Matrix: (Units=1/GPa)
#
#
# Indices 1 2 3 4 5 6 
#
# 1 0.039275 0.002794 0.007874 0.000000 0.040452 0.000000
# 2 0.002794 0.013187 0.000531 0.000000 0.002655 0.000000
# 3 0.007874 0.000531 0.010230 0.000000 0.018982 0.000000
# 4 0.000000 0.000000 0.000000 0.161848 0.000000 0.114794
# 5 0.040452 0.002655 0.018982 0.000000 0.093393 0.000000
# 6 0.000000 0.000000 0.000000 0.114794 0.000000 0.213375
#
#
# Mechanical properties :
#
#
# Convention : Reuss Voigt Hill
#
# Bulk Modulus (GPa) = 11.75244 30.39252 21.07248
# Shear Modulus (GPa) = 9.30627 27.70476 18.50552
#
# Velocity S-wave (km/s) = 2.03391 3.50931 2.86810
# Velocity P-wave (km/s) = 3.27718 5.47086 4.50945
#
# Compressibility (1/GPa) = 0.08508874
#
# Stress axis : x y z
#
# Youngs Moduli (GPa) = 25.46152 75.83427 97.75565
#
# Poissons Ratio (x) = -0.21187 -0.76975
# Poissons Ratio (y) = -0.07114 -0.05188
# Poissons Ratio (z) = -0.20049 -0.04025
#
# Static dielectric constant tensor:
#      x y z
#    x 1.785110 0.000000 -0.023390 
#    y 0.000000 1.884720 0.000000 
#    z -0.023390 0.000000 1.899550 
# 
# From -- ./inp_files/319210.got.cif
#   From: 2010.05.17/outbox.cif.g08.bks.cpg/sg12_160_cif.got.tgz:319210.got - 2010.06.03 13:09:07.
