data_PCOD9169290
_publ_section_title
;
Structure prediction by ZEFSAII (Michael W. Deem and Ramdas Pophale) SiO2 
 PCOD9169290
Probable space group: C 2/M
;
_chemical_formula_sum "Si O2"
_cell_formula_units_Z 48
_cell_length_a 29.367318
_cell_length_b 7.647160
_cell_length_c 20.677812
_cell_angle_alpha 90.000000
_cell_angle_beta 33.675726
_cell_angle_gamma 90.000000
_cell_volume 2574.923082
_symmetry_space_group_name_H-M "C 2/M"
_symmetry_group_IT_number 12
_symmetry_cell_setting 'monoclinic'
loop_
_space_group_symop_operation_xyz
x,y,z
-x,y,-z
-x,-y,-z
x,-y,z
1/2+x,1/2+y,z
1/2-x,1/2+y,-z
1/2-x,1/2-y,-z
1/2+x,1/2-y,z
loop_
_atom_site_type_symbol
_atom_site_label
_atom_site_fract_x
_atom_site_fract_y
_atom_site_fract_z
Si Si1 0.555185 0.789138 0.873650
Si Si2 0.302133 0.293354 0.209213
Si Si3 0.585050 0.205891 0.046203
Si Si4 0.155293 0.710676 0.097957
Si Si5 0.119856 0.713341 0.402588
Si Si6 0.446581 0.786616 0.658444
O O1 0.646712 0.737813 0.785550
O O2 0.503741 0.724087 0.872689
O O3 0.553710 0.000000 0.874146
O O4 0.500000 0.730600 0.000000
O O5 0.298735 0.500000 0.202526
O O6 0.209132 0.225518 0.319454
O O7 0.353115 0.220721 0.087763
O O8 0.624402 0.279517 0.065002
O O9 0.572801 0.000000 0.072183
O O10 0.148717 0.500000 0.104746
O O11 0.098695 0.775059 0.223783
O O12 0.250000 0.750000 0.000000
O O13 0.119796 0.500000 0.404261
O O14 0.101788 0.764382 0.349658
O O15 0.040999 0.769513 0.537492
O O16 0.446490 0.000000 0.659514
#
# Coordination Sequence:
#
# PCOD9169290 Si02
#       6
#     8   8   8   8   8   8
#     4   8  15  28  42  57  83 116 144 171 206 251
#     4  10  17  25  43  69  88 105 138 182 220 247
#     4   9  18  30  42  60  88 118 143 168 205 257
#     4  10  19  30  46  66  87 113 143 173 208 251
#     4   8  14  24  40  63  87 107 134 175 213 245
#     4   8  14  26  42  60  84 113 140 167 205 251
#
# _framework density 18.641334000000001
#
# number of rings (size 3 to 8) (size 9 to 14) (size 15 to 20)
#    0.000    3.167    0.000    3.500    0.000    5.000 
#    0.000    0.000    0.000    3.000    0.000    8.167 
#    0.000    0.000    0.000    0.000    0.000    1.667 
#
# Total GULP energy -133672.492299 kJ/mol
# GULP energy per Si atom -5569.687179 kJ/mol
# Density = 1.859891 g / cm^3
# Si number density = 18.641334 Si / 1000 Ang^3
#
#
#
# Elastic Constant Matrix: (Units=GPa)
#
#
# Indices 1 2 3 4 5 6 
#
# 1 181.5098 6.4459 98.7529 -0.0011 -29.2133 0.0006
# 2 6.4459 31.1459 -1.4470 0.0167 0.9564 -0.0107
# 3 98.7529 -1.4470 114.1386 0.0087 -21.2908 -0.0056
# 4 -0.0011 0.0167 0.0087 0.3797 0.0005 3.2460
# 5 -29.2133 0.9564 -21.2908 0.0005 36.6543 -0.0006
# 6 0.0006 -0.0107 -0.0056 3.2460 -0.0006 3.5225
#
#
#
# Elastic Compliance Matrix: (Units=1/GPa)
#
#
# Indices 1 2 3 4 5 6 
#
# 1 0.011051 -0.002815 -0.008906 -0.000081 0.003708 0.000051
# 2 -0.002815 0.032857 0.002550 0.000349 -0.001620 -0.000218
# 3 -0.008906 0.002550 0.017005 0.000123 0.002713 -0.000077
# 4 -0.000081 0.000349 0.000123 -0.382908 0.000009 0.352859
# 5 0.003708 -0.001620 0.002713 0.000009 0.031856 -0.000004
# 6 0.000051 -0.000218 -0.000077 0.352859 -0.000004 -0.041278
#
#
# Mechanical properties :
#
#
# Convention : Reuss Voigt Hill
#
# Bulk Modulus (GPa) = 23.48944 59.36645 41.42794
# Shear Modulus (GPa) = -16.72883 22.98081 3.12599
#
# Velocity S-wave (km/s) = -2.99892 3.51492 1.29636
# Velocity P-wave (km/s) = 0.79794 6.95620 4.95103
#
# Compressibility (1/GPa) = 0.04257232
#
# Stress axis : x y z
#
# Youngs Moduli (GPa) = 90.48647 30.43456 58.80697
#
# Poissons Ratio (x) = 0.08566 0.52371
# Poissons Ratio (y) = 0.25469 -0.14994
# Poissons Ratio (z) = 0.80583 -0.07760
#
# Static dielectric constant tensor:
#      x y z
#    x 1.679520 0.000000 -0.025380 
#    y 0.000000 1.704240 0.000000 
#    z -0.025380 0.000000 1.627590 
# 
# From -- ./inp_files/329005.got.cif
#   From: 2010.05.17/outbox.cif.g08.bks.cpg/sg12_165_cif.got.tgz:329005.got - 2010.06.03 13:09:07.
