data_PCOD9169235
_publ_section_title
;
Structure prediction by ZEFSAII (Michael W. Deem and Ramdas Pophale) SiO2 
 PCOD9169235
Probable space group: C 2/M
;
_chemical_formula_sum "Si O2"
_cell_formula_units_Z 64
_cell_length_a 22.522712
_cell_length_b 25.239736
_cell_length_c 9.432081
_cell_angle_alpha 90.000000
_cell_angle_beta 121.695947
_cell_angle_gamma 90.000000
_cell_volume 4562.103539
_symmetry_space_group_name_H-M "C 2/M"
_symmetry_group_IT_number 12
_symmetry_cell_setting 'monoclinic'
loop_
_space_group_symop_operation_xyz
x,y,z
-x,y,-z
-x,-y,-z
x,-y,z
1/2+x,1/2+y,z
1/2-x,1/2+y,-z
1/2-x,1/2-y,-z
1/2+x,1/2-y,z
loop_
_atom_site_type_symbol
_atom_site_label
_atom_site_fract_x
_atom_site_fract_y
_atom_site_fract_z
Si Si1 0.614550 0.561256 0.857920
Si Si2 0.649867 0.389642 0.167030
Si Si3 0.565851 0.710240 0.983812
Si Si4 0.454154 0.562014 0.737206
Si Si5 0.029723 0.234405 0.396334
Si Si6 0.139017 0.269367 0.311095
Si Si7 0.728413 0.663813 0.500750
Si Si8 0.119365 0.129216 0.586662
O O1 0.617920 0.500000 0.812296
O O2 0.536354 0.570801 0.821107
O O3 0.627410 0.604530 0.752045
O O4 0.662916 0.570179 0.055855
O O5 0.586093 0.408548 0.187461
O O6 0.712521 0.376855 0.353234
O O7 0.622748 0.335877 0.059134
O O8 0.533273 0.719542 0.789178
O O9 0.500000 0.694426 0.000000
O O10 0.600371 0.759291 0.112743
O O11 0.443240 0.500000 0.744532
O O12 0.419119 0.583534 0.550887
O O13 0.082242 0.268538 0.365621
O O14 0.071005 0.181557 0.502923
O O15 0.000000 0.260979 0.500000
O O16 0.192542 0.317760 0.380545
O O17 0.184278 0.216173 0.399606
O O18 0.691625 0.642563 0.597159
#
# Coordination Sequence:
#
# PCOD9169235 Si02
#       8
#     8   8   8   8   8   8   8   8
#     4  11  20  27  36  54  79 104 135 175 208 224
#     4  10  17  26  39  53  73 102 138 168 195 230
#     4   9  15  24  40  57  74  99 128 160 195 230
#     4  10  18  26  36  51  73 102 136 172 205 229
#     4  10  17  25  40  60  79  98 124 159 199 235
#     4   8  15  28  42  56  74  95 129 166 196 232
#     4   8  16  29  42  53  69 101 135 166 194 227
#     4  10  18  27  39  52  75 105 137 167 196 229
#
# _framework density 14.028616
#
# number of rings (size 3 to 8) (size 9 to 14) (size 15 to 20)
#    0.000    2.500    0.000    6.750    0.000    2.000 
#    0.000    1.250    0.000    6.000    0.000    0.000 
#    0.000    0.000    0.000    0.000    0.000  282.500 
#
# Total GULP energy -178164.050536 kJ/mol
# GULP energy per Si atom -5567.626579 kJ/mol
# Density = 1.399669 g / cm^3
# Si number density = 14.028616 Si / 1000 Ang^3
#
#
#
# Elastic Constant Matrix: (Units=GPa)
#
#
# Indices 1 2 3 4 5 6 
#
# 1 42.3875 25.1015 35.5528 0.0000 -2.8500 0.0000
# 2 25.1015 41.5900 27.7274 0.0000 2.2755 0.0000
# 3 35.5528 27.7274 55.1220 0.0000 -11.1705 0.0000
# 4 0.0000 0.0000 0.0000 15.8708 0.0000 3.7215
# 5 -2.8500 2.2755 -11.1705 0.0000 18.7031 0.0000
# 6 0.0000 0.0000 0.0000 3.7215 0.0000 15.8649
#
#
#
# Elastic Compliance Matrix: (Units=1/GPa)
#
#
# Indices 1 2 3 4 5 6 
#
# 1 0.058136 -0.012496 -0.033116 0.000000 -0.009400 0.000000
# 2 -0.012496 0.044612 -0.018052 0.000000 -0.018113 0.000000
# 3 -0.033116 -0.018052 0.054614 0.000000 0.029768 0.000000
# 4 0.000000 0.000000 0.000000 0.066676 0.000000 -0.015641
# 5 -0.009400 -0.018113 0.029768 0.000000 0.072017 0.000000
# 6 0.000000 0.000000 0.000000 -0.015641 0.000000 0.066701
#
#
# Mechanical properties :
#
#
# Convention : Reuss Voigt Hill
#
# Bulk Modulus (GPa) = 33.29476 35.09589 34.19533
# Shear Modulus (GPa) = 9.99809 13.46895 11.73352
#
# Velocity S-wave (km/s) = 2.67253 3.10192 2.89519
# Velocity P-wave (km/s) = 5.77132 6.15637 5.96695
#
# Compressibility (1/GPa) = 0.03003476
#
# Stress axis : x y z
#
# Youngs Moduli (GPa) = 17.20100 22.41560 18.31033
#
# Poissons Ratio (x) = 0.28009 0.60637
# Poissons Ratio (y) = 0.21494 0.33053
# Poissons Ratio (z) = 0.56963 0.40464
#
# Static dielectric constant tensor:
#      x y z
#    x 1.464250 0.000000 -0.010470 
#    y 0.000000 1.470100 0.000000 
#    z -0.010470 0.000000 1.495240 
# 
# From -- ./inp_files/90964.got.cif
#   From: 2010.05.17/outbox.cif.g08.bks.cpg/sg12_46_cif.got.tgz:90964.got - 2010.06.03 13:09:07.
