data_PCOD9169911
_publ_section_title
;
Structure prediction by ZEFSAII (Michael W. Deem and Ramdas Pophale) SiO2 
 PCOD9169911
Probable space group: C 2/M
;
_chemical_formula_sum "Si O2"
_cell_formula_units_Z 56
_cell_length_a 29.331168
_cell_length_b 14.016498
_cell_length_c 7.437935
_cell_angle_alpha 90.000000
_cell_angle_beta 85.098246
_cell_angle_gamma 90.000000
_cell_volume 3046.702089
_symmetry_space_group_name_H-M "C 2/M"
_symmetry_group_IT_number 12
_symmetry_cell_setting 'monoclinic'
loop_
_space_group_symop_operation_xyz
x,y,z
-x,y,-z
-x,-y,-z
x,-y,z
1/2+x,1/2+y,z
1/2-x,1/2+y,-z
1/2-x,1/2-y,-z
1/2+x,1/2-y,z
loop_
_atom_site_type_symbol
_atom_site_label
_atom_site_fract_x
_atom_site_fract_y
_atom_site_fract_z
Si Si1 0.313525 0.388344 0.192783
Si Si2 0.731247 0.887710 0.937268
Si Si3 0.949936 0.390931 0.485229
Si Si4 0.852484 0.384384 0.482494
Si Si5 0.747514 0.884515 0.521138
Si Si6 0.949259 0.391044 0.054737
Si Si7 0.859037 0.294765 0.082405
O O1 0.326214 0.500000 0.198825
O O2 0.290817 0.354726 0.388499
O O3 0.353371 0.316965 0.121752
O O4 0.272607 0.378980 0.061803
O O5 0.746809 0.856613 0.730986
O O6 0.685722 0.831040 0.007253
O O7 0.718941 0.000000 0.931159
O O8 0.952849 0.500000 0.556111
O O9 0.900001 0.350306 0.557969
O O10 0.945971 0.395516 0.271196
O O11 0.000000 0.345471 0.500000
O O12 0.854785 0.500000 0.485074
O O13 0.800868 0.357712 0.555967
O O14 0.853851 0.349197 0.275691
O O15 0.748782 0.000000 0.517931
O O16 0.945580 0.500000 0.988121
O O17 0.907858 0.328306 0.994700
O O18 0.000000 0.354503 0.000000
#
# Coordination Sequence:
#
# PCOD9169911 Si02
#       7
#     8   8   8   8   8   8   8
#     4  10  20  31  45  68  93 121 159 194 225 266
#     4   9  17  30  47  67  94 125 153 187 230 272
#     4   8  13  23  39  59  87 117 143 174 216 264
#     4   8  14  25  42  62  86 120 152 179 223 277
#     4   8  15  29  45  62  89 122 153 186 223 266
#     4   9  17  30  48  69  91 118 149 181 227 280
#     4  10  17  29  47  64  91 123 151 187 228 272
#
# _framework density 18.38053
#
# number of rings (size 3 to 8) (size 9 to 14) (size 15 to 20)
#    0.000    3.143    0.000    3.429    0.000    2.286 
#    2.571    0.000    3.143    0.429    0.000    0.000 
#    0.000    9.143    0.000    0.000    0.000    0.000 
#
# Total GULP energy -155900.348493 kJ/mol
# GULP energy per Si atom -5567.869589 kJ/mol
# Density = 1.833869 g / cm^3
# Si number density = 18.380530 Si / 1000 Ang^3
#
#
#
# Elastic Constant Matrix: (Units=GPa)
#
#
# Indices 1 2 3 4 5 6 
#
# 1 48.4767 24.9642 3.6725 0.0000 -13.3908 0.0000
# 2 24.9642 54.4639 4.3499 0.0000 -9.5518 0.0000
# 3 3.6725 4.3499 49.3251 0.0000 2.5935 0.0000
# 4 0.0000 0.0000 0.0000 4.1948 0.0000 -1.0791
# 5 -13.3908 -9.5518 2.5935 0.0000 19.2422 0.0000
# 6 0.0000 0.0000 0.0000 -1.0791 0.0000 14.9054
#
#
#
# Elastic Compliance Matrix: (Units=1/GPa)
#
#
# Indices 1 2 3 4 5 6 
#
# 1 0.031084 -0.011203 -0.002187 0.000000 0.016365 0.000000
# 2 -0.011203 0.024415 -0.001557 0.000000 0.004533 0.000000
# 3 -0.002187 -0.001557 0.020842 0.000000 -0.005104 0.000000
# 4 0.000000 0.000000 0.000000 0.242915 0.000000 0.017586
# 5 0.016365 0.004533 -0.005104 0.000000 0.066296 0.000000
# 6 0.000000 0.000000 0.000000 0.017586 0.000000 0.068363
#
#
# Mechanical properties :
#
#
# Convention : Reuss Voigt Hill
#
# Bulk Modulus (GPa) = 21.52995 24.24878 22.88936
# Shear Modulus (GPa) = 10.01418 15.62042 12.81730
#
# Velocity S-wave (km/s) = 2.33668 2.91836 2.64357
# Velocity P-wave (km/s) = 4.36108 4.95752 4.66883
#
# Compressibility (1/GPa) = 0.04644693
#
# Stress axis : x y z
#
# Youngs Moduli (GPa) = 32.17106 40.95812 47.97963
#
# Poissons Ratio (x) = 0.45885 0.10493
# Poissons Ratio (y) = 0.36041 0.07472
# Poissons Ratio (z) = 0.07035 0.06379
#
# Static dielectric constant tensor:
#      x y z
#    x 1.698050 0.000000 -0.012430 
#    y 0.000000 1.639940 0.000000 
#    z -0.012430 0.000000 1.680330 
# 
# From -- ./inp_files/110832.got.cif
#   From: 2010.05.17/outbox.cif.g08.bks.cpg/sg12_56_cif.got.tgz:110832.got - 2010.06.03 13:09:07.
