data_PCOD9169588
_publ_section_title
;
Structure prediction by ZEFSAII (Michael W. Deem and Ramdas Pophale) SiO2 
 PCOD9169588
Probable space group: C 2/M
;
_chemical_formula_sum "Si O2"
_cell_formula_units_Z 64
_cell_length_a 20.158491
_cell_length_b 8.146248
_cell_length_c 20.200378
_cell_angle_alpha 90.000000
_cell_angle_beta 94.041929
_cell_angle_gamma 90.000000
_cell_volume 3308.975807
_symmetry_space_group_name_H-M "C 2/M"
_symmetry_group_IT_number 12
_symmetry_cell_setting 'monoclinic'
loop_
_space_group_symop_operation_xyz
x,y,z
-x,y,-z
-x,-y,-z
x,-y,z
1/2+x,1/2+y,z
1/2-x,1/2+y,-z
1/2-x,1/2-y,-z
1/2+x,1/2-y,z
loop_
_atom_site_type_symbol
_atom_site_label
_atom_site_fract_x
_atom_site_fract_y
_atom_site_fract_z
Si Si1 0.697515 0.697260 0.940292
Si Si2 0.611169 0.700845 0.167254
Si Si3 0.938670 0.810808 0.581913
Si Si4 0.259257 0.194299 0.201647
Si Si5 0.129861 0.805740 0.689561
Si Si6 0.918031 0.311933 0.443897
Si Si7 0.925006 0.799533 0.982882
Si Si8 0.516596 0.299288 0.276517
O O1 0.698496 0.500000 0.934365
O O2 0.715193 0.771638 0.870831
O O3 0.750000 0.750000 0.000000
O O4 0.625721 0.749767 0.963208
O O5 0.611576 0.500000 0.166628
O O6 0.683089 0.754900 0.198642
O O7 0.600636 0.754205 0.090933
O O8 0.551664 0.752872 0.211412
O O9 0.901168 0.722839 0.519072
O O10 0.939105 0.746165 0.656992
O O11 0.017346 0.797091 0.569288
O O12 0.918357 0.000000 0.580687
O O13 0.309139 0.270292 0.258155
O O14 0.258535 0.000000 0.212975
O O15 0.134466 0.725820 0.617142
O O16 0.059798 0.746729 0.717538
O O17 0.124009 0.000000 0.679747
O O18 0.939370 0.500000 0.439677
O O19 0.925122 0.000000 0.982327
O O20 0.000000 0.744394 0.000000
O O21 0.516186 0.500000 0.277337
#
# Coordination Sequence:
#
# PCOD9169588 Si02
#       8
#     8   8   8   8   8   8   8   8
#     4  11  21  36  57  80 103 135 174 216 258 306
#     4   9  17  32  51  74 104 136 174 214 255 306
#     4   9  15  26  45  73 105 137 174 217 261 305
#     4  11  22  36  54  77 106 140 173 212 258 311
#     4  10  20  34  53  79 105 134 173 219 263 305
#     4  10  17  27  46  73 105 139 172 211 260 312
#     4   9  18  31  52  80 104 131 173 219 257 299
#     4   8  16  29  50  77 103 133 173 219 259 300
#
# _framework density 19.341332999999999
#
# number of rings (size 3 to 8) (size 9 to 14) (size 15 to 20)
#    0.000    2.375    1.250    4.125    1.750    0.000 
#    0.000    0.000    0.000   12.750    0.000    0.000 
#    0.000    0.000    0.000    0.000    0.000    0.000 
#
# Total GULP energy -178441.431165 kJ/mol
# GULP energy per Si atom -5576.294724 kJ/mol
# Density = 1.929731 g / cm^3
# Si number density = 19.341333 Si / 1000 Ang^3
#
#
#
# Elastic Constant Matrix: (Units=GPa)
#
#
# Indices 1 2 3 4 5 6 
#
# 1 69.4662 3.8037 7.1336 0.0000 19.3394 0.0000
# 2 3.8037 25.6422 0.4761 0.0000 3.4340 0.0000
# 3 7.1336 0.4761 62.1050 0.0000 28.1902 0.0000
# 4 0.0000 0.0000 0.0000 23.0910 0.0000 9.7787
# 5 19.3394 3.4340 28.1902 0.0000 27.9601 0.0000
# 6 0.0000 0.0000 0.0000 9.7787 0.0000 7.8421
#
#
#
# Elastic Compliance Matrix: (Units=1/GPa)
#
#
# Indices 1 2 3 4 5 6 
#
# 1 0.019400 -0.000258 0.007099 0.000000 -0.020544 0.000000
# 2 -0.000258 0.040074 0.003458 0.000000 -0.008230 0.000000
# 3 0.007099 0.003458 0.032601 0.000000 -0.038204 0.000000
# 4 0.000000 0.000000 0.000000 0.091764 0.000000 -0.114425
# 5 -0.020544 -0.008230 -0.038204 0.000000 0.089505 0.000000
# 6 0.000000 0.000000 0.000000 -0.114425 0.000000 0.270199
#
#
# Mechanical properties :
#
#
# Convention : Reuss Voigt Hill
#
# Bulk Modulus (GPa) = 8.87521 20.00446 14.43983
# Shear Modulus (GPa) = 8.92055 21.49865 15.20960
#
# Velocity S-wave (km/s) = 2.14993 3.33759 2.80729
# Velocity P-wave (km/s) = 3.28049 5.02175 4.24144
#
# Compressibility (1/GPa) = 0.11267339
#
# Stress axis : x y z
#
# Youngs Moduli (GPa) = 51.54596 24.95354 30.67365
#
# Poissons Ratio (x) = 0.00644 -0.21775
# Poissons Ratio (y) = 0.01331 -0.10607
# Poissons Ratio (z) = -0.36592 -0.08629
#
# Static dielectric constant tensor:
#      x y z
#    x 1.669620 0.000000 0.009780 
#    y 0.000000 1.691110 0.000000 
#    z 0.009780 0.000000 1.700260 
# 
# From -- ./inp_files/341997.got.cif
#   From: 2010.05.17/outbox.cif.g08.bks.cpg/sg12_171_cif.got.tgz:341997.got - 2010.06.03 13:09:07.
