data_PCOD9169847
_publ_section_title
;
Structure prediction by ZEFSAII (Michael W. Deem and Ramdas Pophale) SiO2 
 PCOD9169847
Probable space group: C 2/M
;
_chemical_formula_sum "Si O2"
_cell_formula_units_Z 48
_cell_length_a 15.187312
_cell_length_b 12.289624
_cell_length_c 26.395160
_cell_angle_alpha 90.000000
_cell_angle_beta 153.216336
_cell_angle_gamma 90.000000
_cell_volume 2220.021570
_symmetry_space_group_name_H-M "C 2/M"
_symmetry_group_IT_number 12
_symmetry_cell_setting 'monoclinic'
loop_
_space_group_symop_operation_xyz
x,y,z
-x,y,-z
-x,-y,-z
x,-y,z
1/2+x,1/2+y,z
1/2-x,1/2+y,-z
1/2-x,1/2-y,-z
1/2+x,1/2-y,z
loop_
_atom_site_type_symbol
_atom_site_label
_atom_site_fract_x
_atom_site_fract_y
_atom_site_fract_z
Si Si1 0.289310 0.626206 0.956152
Si Si2 0.912759 0.268848 0.752100
Si Si3 0.962331 0.763110 0.366584
Si Si4 0.768513 0.876232 0.823601
Si Si5 0.541497 0.500000 0.430583
Si Si6 0.787997 0.500000 0.649749
Si Si7 0.694857 0.125190 0.564476
O O1 0.245517 0.500000 0.949741
O O2 0.287288 0.627083 0.893645
O O3 0.126195 0.715685 0.886260
O O4 0.513946 0.649560 0.085658
O O5 0.734505 0.259499 0.699910
O O6 0.889083 0.386518 0.713227
O O7 0.867789 0.176292 0.687400
O O8 0.896452 0.701823 0.282642
O O9 0.012659 0.889223 0.385912
O O10 0.130407 0.702033 0.484817
O O11 0.723605 0.000000 0.785004
O O12 0.735596 0.500000 0.563782
O O13 0.385738 0.500000 0.397497
O O14 0.500000 0.126335 0.500000
O O15 0.729473 0.000000 0.567912
#
# Coordination Sequence:
#
# PCOD9169847 Si02
#       7
#     8   8   8   8   4   4   8
#     4   9  18  34  55  73  93 128 171 210 246 287
#     4  10  17  28  52  76  98 126 162 208 244 282
#     4  10  18  29  50  75 101 128 161 205 243 287
#     4   9  19  35  53  72  96 130 168 206 249 293
#     4   9  16  26  46  73 100 128 159 193 244 296
#     4   9  14  26  46  75  98 122 161 201 242 286
#     4   9  17  28  45  72 104 134 157 188 245 303
#
# _framework density 21.621410999999998
#
# number of rings (size 3 to 8) (size 9 to 14) (size 15 to 20)
#    0.000    2.667    2.500    1.500    0.000    1.333 
#    0.000    0.833    3.667    1.000    0.000    0.000 
#    0.000    0.000    0.000    0.000    0.000    0.000 
#
# Total GULP energy -133974.611652 kJ/mol
# GULP energy per Si atom -5582.275486 kJ/mol
# Density = 2.157220 g / cm^3
# Si number density = 21.621411 Si / 1000 Ang^3
#
#
#
# Elastic Constant Matrix: (Units=GPa)
#
#
# Indices 1 2 3 4 5 6 
#
# 1 51.9308 26.3032 19.2328 0.0000 14.1774 0.0000
# 2 26.3032 133.4159 42.7898 0.0001 -14.3532 0.0000
# 3 19.2328 42.7898 80.5560 0.0000 -0.0396 0.0001
# 4 0.0000 0.0001 0.0000 32.3499 0.0001 -0.0676
# 5 14.1774 -14.3532 -0.0396 0.0001 34.8264 0.0000
# 6 0.0000 0.0000 0.0001 -0.0676 0.0000 25.8870
#
#
#
# Elastic Compliance Matrix: (Units=1/GPa)
#
#
# Indices 1 2 3 4 5 6 
#
# 1 0.027047 -0.005659 -0.003458 0.000000 -0.013347 0.000000
# 2 -0.005659 0.010727 -0.004344 0.000000 0.006720 0.000000
# 3 -0.003458 -0.004344 0.015546 0.000000 -0.000365 0.000000
# 4 0.000000 0.000000 0.000000 0.030912 0.000000 0.000081
# 5 -0.013347 0.006720 -0.000365 0.000000 0.036916 0.000000
# 6 0.000000 0.000000 0.000000 0.000081 0.000000 0.038630
#
#
# Mechanical properties :
#
#
# Convention : Reuss Voigt Hill
#
# Bulk Modulus (GPa) = 37.88008 49.17269 43.52639
# Shear Modulus (GPa) = 25.57537 30.45111 28.01324
#
# Velocity S-wave (km/s) = 3.44302 3.75691 3.60338
# Velocity P-wave (km/s) = 5.77612 6.45067 6.12269
#
# Compressibility (1/GPa) = 0.02639910
#
# Stress axis : x y z
#
# Youngs Moduli (GPa) = 36.97219 93.22160 64.32366
#
# Poissons Ratio (x) = 0.52756 0.22243
# Poissons Ratio (y) = 0.20924 0.27940
# Poissons Ratio (z) = 0.12785 0.40492
#
# Static dielectric constant tensor:
#      x y z
#    x 1.857200 0.000000 0.059390 
#    y 0.000000 1.755690 0.000000 
#    z 0.059390 0.000000 1.836150 
# 
# From -- ./inp_files/288795.got.cif
#   From: 2010.05.17/outbox.cif.g08.bks.cpg/sg12_145_cif.got.tgz:288795.got - 2010.06.03 13:09:07.
