data_PCOD9169032
_publ_section_title
;
Structure prediction by ZEFSAII (Michael W. Deem and Ramdas Pophale) SiO2 
 PCOD9169032
Probable space group: C 2/M
;
_chemical_formula_sum "Si O2"
_cell_formula_units_Z 56
_cell_length_a 10.361254
_cell_length_b 28.230639
_cell_length_c 10.912601
_cell_angle_alpha 90.000000
_cell_angle_beta 100.872332
_cell_angle_gamma 90.000000
_cell_volume 3134.691932
_symmetry_space_group_name_H-M "C 2/M"
_symmetry_group_IT_number 12
_symmetry_cell_setting 'monoclinic'
loop_
_space_group_symop_operation_xyz
x,y,z
-x,y,-z
-x,-y,-z
x,-y,z
1/2+x,1/2+y,z
1/2-x,1/2+y,-z
1/2-x,1/2-y,-z
1/2+x,1/2-y,z
loop_
_atom_site_type_symbol
_atom_site_label
_atom_site_fract_x
_atom_site_fract_y
_atom_site_fract_z
Si Si1 0.835296 0.852080 0.069812
Si Si2 0.264741 0.444120 0.398860
Si Si3 0.058479 0.054889 0.807327
Si Si4 0.890198 0.185082 0.807338
Si Si5 0.206907 0.098990 0.330378
Si Si6 0.522661 0.054352 0.651484
Si Si7 0.148423 0.275786 0.076427
O O1 0.866500 0.907198 0.094470
O O2 0.703488 0.828688 0.099202
O O3 0.953961 0.824414 0.160243
O O4 0.844453 0.838829 0.928250
O O5 0.255740 0.500000 0.430550
O O6 0.372495 0.439617 0.313219
O O7 0.296336 0.416647 0.528647
O O8 0.119533 0.430568 0.323576
O O9 0.908100 0.070925 0.761729
O O10 0.068291 0.000000 0.846621
O O11 0.824194 0.154194 0.691029
O O12 0.855498 0.240186 0.809083
O O13 0.349607 0.085625 0.302868
O O14 0.500000 0.054672 0.500000
O O15 0.549732 0.000000 0.692819
O O16 0.250000 0.250000 0.000000
O O17 0.000000 0.275648 0.000000
#
# Coordination Sequence:
#
# PCOD9169032 Si02
#       7
#     8   8   8   8   8   8   8
#     4   9  18  33  49  73 100 127 159 195 249 286
#     4   9  17  30  46  67  96 129 168 205 234 276
#     4  10  19  31  48  70 101 133 164 199 232 283
#     4   9  17  31  49  75 102 117 156 212 237 285
#     4  10  17  27  48  72  94 123 161 201 240 280
#     4   8  14  26  42  61  89 123 161 200 232 269
#     4  10  16  32  56  73  93 122 159 204 242 285
#
# _framework density 17.864595000000001
#
# number of rings (size 3 to 8) (size 9 to 14) (size 15 to 20)
#    0.000    2.714    2.857    2.571    0.000    1.143 
#    5.143    7.143    0.000    1.286    0.000    4.000 
#    0.000    0.000    0.000    0.000    0.000    0.000 
#
# Total GULP energy -155903.206524 kJ/mol
# GULP energy per Si atom -5567.971662 kJ/mol
# Density = 1.782393 g / cm^3
# Si number density = 17.864595 Si / 1000 Ang^3
#
#
#
# Elastic Constant Matrix: (Units=GPa)
#
#
# Indices 1 2 3 4 5 6 
#
# 1 99.7555 40.0491 13.8625 0.0000 15.5139 0.0000
# 2 40.0491 82.7339 16.7681 0.0000 11.3774 0.0000
# 3 13.8625 16.7681 26.1885 0.0000 6.5805 0.0000
# 4 0.0000 0.0000 0.0000 24.3162 0.0000 5.4523
# 5 15.5139 11.3774 6.5805 0.0000 10.2540 0.0000
# 6 0.0000 0.0000 0.0000 5.4523 0.0000 26.3728
#
#
#
# Elastic Compliance Matrix: (Units=1/GPa)
#
#
# Indices 1 2 3 4 5 6 
#
# 1 0.014532 -0.004655 -0.000578 0.000000 -0.016450 0.000000
# 2 -0.004655 0.016636 -0.006342 0.000000 -0.007345 0.000000
# 3 -0.000578 -0.006342 0.048362 0.000000 -0.023125 0.000000
# 4 0.000000 0.000000 0.000000 0.043124 0.000000 -0.008915
# 5 -0.016450 -0.007345 -0.023125 0.000000 0.145402 0.000000
# 6 0.000000 0.000000 0.000000 -0.008915 0.000000 0.039761
#
#
# Mechanical properties :
#
#
# Convention : Reuss Voigt Hill
#
# Bulk Modulus (GPa) = 17.73695 38.89304 28.31499
# Shear Modulus (GPa) = 14.29551 21.38847 17.84199
#
# Velocity S-wave (km/s) = 2.83188 3.46389 3.16371
# Velocity P-wave (km/s) = 4.54343 6.14950 5.40644
#
# Compressibility (1/GPa) = 0.05637949
#
# Stress axis : x y z
#
# Youngs Moduli (GPa) = 68.81305 60.11111 20.67742
#
# Poissons Ratio (x) = 0.27983 0.01196
# Poissons Ratio (y) = 0.32034 0.13113
# Poissons Ratio (z) = 0.03979 0.38121
#
# Static dielectric constant tensor:
#      x y z
#    x 1.664200 0.000000 -0.011030 
#    y 0.000000 1.650200 0.000000 
#    z -0.011030 0.000000 1.606070 
# 
# From -- ./inp_files/136345.got.cif
#   From: 2010.05.17/outbox.cif.g08.bks.cpg/sg12_69_cif.got.tgz:136345.got - 2010.06.03 13:09:07.
