data_PCOD9169869
_publ_section_title
;
Structure prediction by ZEFSAII (Michael W. Deem and Ramdas Pophale) SiO2 
 PCOD9169869
Probable space group: C 2/M
;
_chemical_formula_sum "Si O2"
_cell_formula_units_Z 48
_cell_length_a 23.639715
_cell_length_b 30.680737
_cell_length_c 5.522208
_cell_angle_alpha 90.000000
_cell_angle_beta 127.025140
_cell_angle_gamma 90.000000
_cell_volume 3197.611817
_symmetry_space_group_name_H-M "C 2/M"
_symmetry_group_IT_number 12
_symmetry_cell_setting 'monoclinic'
loop_
_space_group_symop_operation_xyz
x,y,z
-x,y,-z
-x,-y,-z
x,-y,z
1/2+x,1/2+y,z
1/2-x,1/2+y,-z
1/2-x,1/2-y,-z
1/2+x,1/2-y,z
loop_
_atom_site_type_symbol
_atom_site_label
_atom_site_fract_x
_atom_site_fract_y
_atom_site_fract_z
Si Si1 0.189001 0.160346 0.074937
Si Si2 0.881617 0.254960 0.054209
Si Si3 0.088223 0.237192 0.373551
Si Si4 0.045379 0.000000 0.867644
Si Si5 0.572908 0.404475 0.843707
Si Si6 0.000000 0.159691 0.000000
Si Si7 0.761225 0.190186 0.293430
O O1 0.226035 0.160543 0.435016
O O2 0.139527 0.203713 0.970249
O O3 0.139994 0.118551 0.896748
O O4 0.238571 0.167301 0.968967
O O5 0.918314 0.265245 0.403283
O O6 0.926254 0.258651 0.924404
O O7 0.809503 0.282159 0.851749
O O8 0.170964 0.222702 0.554770
O O9 0.042977 0.192791 0.280929
O O10 0.085662 0.046083 0.959910
O O11 0.000000 0.000000 0.500000
O O12 0.000000 0.000000 0.000000
O O13 0.500000 0.403819 0.500000
O O14 0.555605 0.372076 0.019227
#
# Coordination Sequence:
#
# PCOD9169869 Si02
#       7
#     8   8   8   4   8   4   8
#     4  10  18  27  41  60  73  95 124 155 207 237
#     4  10  17  29  41  56  79  96 126 153 203 239
#     4  10  19  26  38  59  73 106 120 158 200 237
#     4  10  22  34  46  58  72 104 136 168 214 249
#     4  11  21  32  45  57  80 102 135 174 210 260
#     4  12  20  29  44  56  86 100 140 170 208 259
#     4  10  17  29  42  59  75  97 123 157 201 245
#
# _framework density 15.011203
#
# number of rings (size 3 to 8) (size 9 to 14) (size 15 to 20)
#    0.000    1.667    4.167    7.000    0.000    0.000 
#    0.000    0.000    0.000    0.000    0.000    0.000 
#    0.000    0.000    0.000    0.000    0.000    0.000 
#
# Total GULP energy -133693.315245 kJ/mol
# GULP energy per Si atom -5570.554802 kJ/mol
# Density = 1.497704 g / cm^3
# Si number density = 15.011203 Si / 1000 Ang^3
#
#
#
# Elastic Constant Matrix: (Units=GPa)
#
#
# Indices 1 2 3 4 5 6 
#
# 1 64.0757 34.5918 24.3807 0.0000 -16.7024 0.0000
# 2 34.5918 71.6787 20.9189 0.0000 6.8575 0.0000
# 3 24.3807 20.9189 78.5820 0.0000 -21.9680 0.0000
# 4 0.0000 0.0000 0.0000 6.8191 0.0000 0.9155
# 5 -16.7024 6.8575 -21.9680 0.0000 30.6963 0.0000
# 6 0.0000 0.0000 0.0000 0.9155 0.0000 19.5766
#
#
#
# Elastic Compliance Matrix: (Units=1/GPa)
#
#
# Indices 1 2 3 4 5 6 
#
# 1 0.029414 -0.016411 0.000927 0.000000 0.020334 0.000000
# 2 -0.016411 0.025953 -0.007418 0.000000 -0.020036 0.000000
# 3 0.000927 -0.007418 0.018773 0.000000 0.015597 0.000000
# 4 0.000000 0.000000 0.000000 0.147574 0.000000 -0.006901
# 5 0.020334 -0.020036 0.015597 0.000000 0.059280 0.000000
# 6 0.000000 0.000000 0.000000 -0.006901 0.000000 0.051404
#
#
# Mechanical properties :
#
#
# Convention : Reuss Voigt Hill
#
# Bulk Modulus (GPa) = 35.29139 41.56881 38.43010
# Shear Modulus (GPa) = 12.89834 20.38139 16.63987
#
# Velocity S-wave (km/s) = 2.93447 3.68876 3.33302
# Velocity P-wave (km/s) = 5.91968 6.77455 6.36149
#
# Compressibility (1/GPa) = 0.02833552
#
# Stress axis : x y z
#
# Youngs Moduli (GPa) = 33.99764 38.53131 53.26852
#
# Poissons Ratio (x) = 0.63234 -0.04940
# Poissons Ratio (y) = 0.55794 0.39517
# Poissons Ratio (z) = -0.03153 0.28584
#
# Static dielectric constant tensor:
#      x y z
#    x 1.552330 0.000000 -0.049140 
#    y 0.000000 1.468020 0.000000 
#    z -0.049140 0.000000 1.865240 
# 
# From -- ./inp_files/18024.got.cif
#   From: 2010.05.17/outbox.cif.g08.bks.cpg/sg12_10_cif.got.tgz:18024.got - 2010.06.03 13:09:07.
