data_PCOD9169687
_publ_section_title
;
Structure prediction by ZEFSAII (Michael W. Deem and Ramdas Pophale) SiO2 
 PCOD9169687
Probable space group: C 2/M
;
_chemical_formula_sum "Si O2"
_cell_formula_units_Z 56
_cell_length_a 24.259383
_cell_length_b 13.200087
_cell_length_c 23.349508
_cell_angle_alpha 90.000000
_cell_angle_beta 156.214015
_cell_angle_gamma 90.000000
_cell_volume 3015.682588
_symmetry_space_group_name_H-M "C 2/M"
_symmetry_group_IT_number 12
_symmetry_cell_setting 'monoclinic'
loop_
_space_group_symop_operation_xyz
x,y,z
-x,y,-z
-x,-y,-z
x,-y,z
1/2+x,1/2+y,z
1/2-x,1/2+y,-z
1/2-x,1/2-y,-z
1/2+x,1/2-y,z
loop_
_atom_site_type_symbol
_atom_site_label
_atom_site_fract_x
_atom_site_fract_y
_atom_site_fract_z
Si Si1 0.771771 0.387874 0.279920
Si Si2 0.459344 0.886210 0.056429
Si Si3 0.675514 0.884936 0.476877
Si Si4 0.838996 0.309789 0.665644
Si Si5 0.304467 0.168940 0.804146
Si Si6 0.004426 0.666474 0.594087
Si Si7 0.405827 0.385028 0.485880
O O1 0.711658 0.500000 0.227206
O O2 0.678654 0.288667 0.192546
O O3 0.881628 0.371567 0.435503
O O4 0.859578 0.376656 0.305020
O O5 0.520446 0.819214 0.165641
O O6 0.581987 0.885757 0.126392
O O7 0.437622 0.000000 0.056914
O O8 0.331951 0.851362 0.896754
O O9 0.784244 0.804136 0.604883
O O10 0.651327 0.858942 0.387634
O O11 0.538700 0.868834 0.384270
O O12 0.721969 0.000000 0.527414
O O13 0.720861 0.366922 0.590085
O O14 0.162139 0.132373 0.641433
O O15 0.002076 0.788735 0.589166
O O16 0.456204 0.500000 0.539301
#
# Coordination Sequence:
#
# PCOD9169687 Si02
#       7
#     8   8   8   8   8   8   8
#     4  10  18  31  44  60  86 115 141 180 215 244
#     4  10  17  30  46  64  89 114 135 172 213 252
#     4  10  17  28  44  66  89 114 142 176 209 250
#     4   9  18  27  43  67  90 113 143 170 210 260
#     4   9  17  27  44  64  82 110 148 168 204 260
#     4   9  18  28  44  64  85 113 149 173 208 260
#     4   9  15  27  42  64  92 114 134 174 217 252
#
# _framework density 18.569593999999999
#
# number of rings (size 3 to 8) (size 9 to 14) (size 15 to 20)
#    0.000    2.571    0.000    6.429    0.000    0.000 
#    0.000    9.286    0.000    0.857    0.000    0.000 
#    0.000    0.000    0.000    0.000    0.000    0.000 
#
# Total GULP energy -156086.053993 kJ/mol
# GULP energy per Si atom -5574.501928 kJ/mol
# Density = 1.852733 g / cm^3
# Si number density = 18.569594 Si / 1000 Ang^3
#
#
#
# Elastic Constant Matrix: (Units=GPa)
#
#
# Indices 1 2 3 4 5 6 
#
# 1 82.5914 11.7724 10.1856 -0.0005 -19.0978 -0.0004
# 2 11.7724 157.3508 17.1033 -0.0010 -12.2344 -0.0009
# 3 10.1856 17.1033 52.3026 -0.0005 -21.7308 -0.0008
# 4 -0.0005 -0.0010 -0.0005 11.0152 -0.0003 -0.8233
# 5 -19.0978 -12.2344 -21.7308 -0.0003 23.2984 -0.0003
# 6 -0.0004 -0.0009 -0.0008 -0.8233 -0.0003 18.5984
#
#
#
# Elastic Compliance Matrix: (Units=1/GPa)
#
#
# Indices 1 2 3 4 5 6 
#
# 1 0.015371 -0.000318 0.003716 0.000001 0.015899 0.000001
# 2 -0.000318 0.006677 -0.001262 0.000001 0.002069 0.000000
# 3 0.003716 -0.001262 0.032326 0.000003 0.032534 0.000002
# 4 0.000001 0.000001 0.000003 0.091085 0.000005 0.004032
# 5 0.015899 0.002069 0.032534 0.000005 0.087385 0.000003
# 6 0.000001 0.000000 0.000002 0.004032 0.000003 0.053947
#
#
# Mechanical properties :
#
#
# Convention : Reuss Voigt Hill
#
# Bulk Modulus (GPa) = 17.05121 41.15194 29.10157
# Shear Modulus (GPa) = 16.55260 27.46129 22.00695
#
# Velocity S-wave (km/s) = 2.98884 3.84973 3.44627
# Velocity P-wave (km/s) = 4.59491 6.47839 5.61617
#
# Compressibility (1/GPa) = 0.05864688
#
# Stress axis : x y z
#
# Youngs Moduli (GPa) = 65.05689 149.76734 30.93497
#
# Poissons Ratio (x) = 0.04759 -0.11496
# Poissons Ratio (y) = 0.02067 0.03904
# Poissons Ratio (z) = -0.24177 0.18902
#
# Static dielectric constant tensor:
#      x y z
#    x 1.670080 0.000000 0.014330 
#    y 0.000000 1.675540 0.000000 
#    z 0.014330 0.000000 1.673140 
# 
# From -- ./inp_files/351631.got.cif
#   From: 2010.05.17/outbox.cif.g08.bks.cpg/sg12_176_cif.got.tgz:351631.got - 2010.06.03 13:09:07.
