data_PCOD9169569
_publ_section_title
;
Structure prediction by ZEFSAII (Michael W. Deem and Ramdas Pophale) SiO2 
 PCOD9169569
Probable space group: C 2/M
;
_chemical_formula_sum "Si O2"
_cell_formula_units_Z 56
_cell_length_a 23.402338
_cell_length_b 18.054387
_cell_length_c 9.025146
_cell_angle_alpha 90.000000
_cell_angle_beta 120.219109
_cell_angle_gamma 90.000000
_cell_volume 3295.063202
_symmetry_space_group_name_H-M "C 2/M"
_symmetry_group_IT_number 12
_symmetry_cell_setting 'monoclinic'
loop_
_space_group_symop_operation_xyz
x,y,z
-x,y,-z
-x,-y,-z
x,-y,z
1/2+x,1/2+y,z
1/2-x,1/2+y,-z
1/2-x,1/2-y,-z
1/2+x,1/2-y,z
loop_
_atom_site_type_symbol
_atom_site_label
_atom_site_fract_x
_atom_site_fract_y
_atom_site_fract_z
Si Si1 0.259542 0.417397 0.633808
Si Si2 0.804551 0.693490 0.266537
Si Si3 0.342279 0.676552 0.534167
Si Si4 0.185225 0.702080 0.050192
Si Si5 0.381232 0.417770 0.021113
Si Si6 0.195797 0.914485 0.770830
Si Si7 0.574066 0.276796 0.078944
O O1 0.246480 0.500000 0.557504
O O2 0.203061 0.385986 0.667868
O O3 0.277439 0.353961 0.537748
O O4 0.324772 0.422096 0.821130
O O5 0.832020 0.750545 0.422505
O O6 0.730883 0.724899 0.133143
O O7 0.838475 0.696180 0.150821
O O8 0.351127 0.612161 0.424399
O O9 0.396967 0.693205 0.727846
O O10 0.237820 0.635762 0.143984
O O11 0.124581 0.715386 0.080930
O O12 0.413289 0.500000 0.068601
O O13 0.343784 0.404996 0.127556
O O14 0.424830 0.347514 0.031567
O O15 0.213436 0.000000 0.778958
O O16 0.500000 0.249192 0.000000
#
# Coordination Sequence:
#
# PCOD9169569 Si02
#       7
#     8   8   8   8   8   8   8
#     4  10  17  27  45  74 106 129 151 192 255 313
#     4  10  17  30  52  74 100 127 159 216 267 304
#     4  10  20  31  47  76 104 131 168 209 259 300
#     4  10  18  32  51  74 100 132 170 203 259 312
#     4   9  17  32  50  72 101 132 165 201 248 306
#     4  10  19  32  55  82 106 126 159 214 273 316
#     4  11  22  36  50  68 100 145 181 208 240 295
#
# _framework density 16.995123
#
# number of rings (size 3 to 8) (size 9 to 14) (size 15 to 20)
#    0.000    2.000    4.286    2.571    2.000    0.857 
#    0.000    2.857    0.000    2.143    0.000    0.000 
#    0.000    2.286    0.000    0.000    0.000    0.000 
#
# Total GULP energy -155891.668116 kJ/mol
# GULP energy per Si atom -5567.559576 kJ/mol
# Density = 1.695644 g / cm^3
# Si number density = 16.995123 Si / 1000 Ang^3
#
#
#
# Elastic Constant Matrix: (Units=GPa)
#
#
# Indices 1 2 3 4 5 6 
#
# 1 53.5492 7.4574 31.6253 0.0000 -3.1189 0.0000
# 2 7.4574 51.9632 16.9083 0.0000 1.2179 0.0000
# 3 31.6253 16.9083 77.0326 0.0000 -20.6221 0.0000
# 4 0.0000 0.0000 0.0000 3.5555 0.0000 -2.6320
# 5 -3.1189 1.2179 -20.6221 0.0000 17.1047 0.0000
# 6 0.0000 0.0000 0.0000 -2.6320 0.0000 18.3956
#
#
#
# Elastic Compliance Matrix: (Units=1/GPa)
#
#
# Indices 1 2 3 4 5 6 
#
# 1 0.026318 0.001238 -0.014493 0.000000 -0.012763 0.000000
# 2 0.001238 0.022083 -0.008440 0.000000 -0.011522 0.000000
# 3 -0.014493 -0.008440 0.029882 0.000000 0.033985 0.000000
# 4 0.000000 0.000000 0.000000 0.314575 0.000000 0.045009
# 5 -0.012763 -0.011522 0.033985 0.000000 0.097931 0.000000
# 6 0.000000 0.000000 0.000000 0.045009 0.000000 0.060801
#
#
# Mechanical properties :
#
#
# Convention : Reuss Voigt Hill
#
# Bulk Modulus (GPa) = 28.65883 32.72522 30.69203
# Shear Modulus (GPa) = 8.24252 16.24808 12.24530
#
# Velocity S-wave (km/s) = 2.20465 3.09535 2.68716
# Velocity P-wave (km/s) = 4.83531 5.66325 5.26558
#
# Compressibility (1/GPa) = 0.03489326
#
# Stress axis : x y z
#
# Youngs Moduli (GPa) = 37.99671 45.28361 33.46469
#
# Poissons Ratio (x) = -0.05606 0.48501
# Poissons Ratio (y) = -0.04704 0.28244
# Poissons Ratio (z) = 0.55069 0.38219
#
# Static dielectric constant tensor:
#      x y z
#    x 1.586480 0.000000 -0.048010 
#    y 0.000000 1.622500 0.000000 
#    z -0.048010 0.000000 1.608430 
# 
# From -- ./inp_files/88075.got.cif
#   From: 2010.05.17/outbox.cif.g08.bks.cpg/sg12_45_cif.got.tgz:88075.got - 2010.06.03 13:09:07.
