data_PCOD9169260
_publ_section_title
;
Structure prediction by ZEFSAII (Michael W. Deem and Ramdas Pophale) SiO2 
 PCOD9169260
Probable space group: C 2/M
;
_chemical_formula_sum "Si O2"
_cell_formula_units_Z 56
_cell_length_a 15.646958
_cell_length_b 7.851765
_cell_length_c 17.838332
_cell_angle_alpha 90.000000
_cell_angle_beta 69.611220
_cell_angle_gamma 90.000000
_cell_volume 2054.250224
_symmetry_space_group_name_H-M "C 2/M"
_symmetry_group_IT_number 12
_symmetry_cell_setting 'monoclinic'
loop_
_space_group_symop_operation_xyz
x,y,z
-x,y,-z
-x,-y,-z
x,-y,z
1/2+x,1/2+y,z
1/2-x,1/2+y,-z
1/2-x,1/2-y,-z
1/2+x,1/2-y,z
loop_
_atom_site_type_symbol
_atom_site_label
_atom_site_fract_x
_atom_site_fract_y
_atom_site_fract_z
Si Si1 0.675081 0.708927 0.237140
Si Si2 0.699060 0.794371 0.661648
Si Si3 0.658347 0.302508 0.083920
Si Si4 0.493746 0.694490 0.623831
Si Si5 0.368095 0.192470 0.530823
Si Si6 0.105600 0.796938 0.942512
Si Si7 0.459729 0.198466 0.191796
O O1 0.673250 0.500000 0.235229
O O2 0.740458 0.758491 0.284376
O O3 0.701349 0.774095 0.146618
O O4 0.573781 0.767799 0.292468
O O5 0.761532 0.726592 0.575423
O O6 0.598453 0.739206 0.718720
O O7 0.983509 0.000000 0.367361
O O8 0.682144 0.500000 0.070057
O O9 0.660556 0.228662 0.999017
O O10 0.550828 0.297092 0.141502
O O11 0.197748 0.500000 0.657466
O O12 0.583911 0.784771 0.564424
O O13 0.424021 0.694545 0.573024
O O14 0.386375 0.000000 0.548503
O O15 0.119870 0.000000 0.930553
O O16 0.106727 0.710533 0.861101
O O17 0.000000 0.773750 0.000000
O O18 0.482263 0.000000 0.193927
#
# Coordination Sequence:
#
# PCOD9169260 Si02
#       7
#     8   8   8   8   8   8   8
#     4   8  15  29  49  68  87 118 155 185 216 263
#     4   9  18  32  47  65  91 122 153 183 223 272
#     4   9  17  31  50  69  89 116 152 188 222 264
#     4   9  15  26  44  64  89 121 153 183 219 266
#     4  10  17  25  41  66  92 117 149 189 226 259
#     4   8  15  28  46  66  88 117 151 185 219 261
#     4  10  19  30  47  69  92 118 149 187 226 267
#
# _framework density 27.260553999999999
#
# number of rings (size 3 to 8) (size 9 to 14) (size 15 to 20)
#    0.000    3.000    0.000    4.714    0.000    3.714 
#    0.000    4.286    0.000    0.857    0.000    0.000 
#    0.000    0.000    0.000    0.000    0.000    0.000 
#
# Total GULP energy -156605.790573 kJ/mol
# GULP energy per Si atom -5593.063949 kJ/mol
# Density = 2.719851 g / cm^3
# Si number density = 27.260554 Si / 1000 Ang^3
#
#
#
# Elastic Constant Matrix: (Units=GPa)
#
#
# Indices 1 2 3 4 5 6 
#
# 1 81.0293 15.4464 3.5633 0.0000 -6.5696 0.0000
# 2 15.4464 93.7666 18.7468 0.0000 -3.1240 0.0000
# 3 3.5633 18.7468 213.2256 0.0000 -11.7440 0.0000
# 4 0.0000 0.0000 0.0000 30.1832 0.0000 -4.0350
# 5 -6.5696 -3.1240 -11.7440 0.0000 61.6305 0.0000
# 6 0.0000 0.0000 0.0000 -4.0350 0.0000 25.6325
#
#
#
# Elastic Compliance Matrix: (Units=1/GPa)
#
#
# Indices 1 2 3 4 5 6 
#
# 1 0.012839 -0.002080 0.000038 0.000000 0.001270 0.000000
# 2 -0.002080 0.011201 -0.000941 0.000000 0.000167 0.000000
# 3 0.000038 -0.000941 0.004820 0.000000 0.000875 0.000000
# 4 0.000000 0.000000 0.000000 0.033843 0.000000 0.005328
# 5 0.001270 0.000167 0.000875 0.000000 0.016536 0.000000
# 6 0.000000 0.000000 0.000000 0.005328 0.000000 0.039852
#
#
# Mechanical properties :
#
#
# Convention : Reuss Voigt Hill
#
# Bulk Modulus (GPa) = 43.67839 51.50381 47.59110
# Shear Modulus (GPa) = 37.68212 46.84023 42.26117
#
# Velocity S-wave (km/s) = 3.72196 4.14967 3.94162
# Velocity P-wave (km/s) = 5.87605 6.47254 6.18150
#
# Compressibility (1/GPa) = 0.02289462
#
# Stress axis : x y z
#
# Youngs Moduli (GPa) = 77.88704 89.27660 207.46305
#
# Poissons Ratio (x) = 0.18573 -0.00795
# Poissons Ratio (y) = 0.16203 0.19519
# Poissons Ratio (z) = -0.00298 0.08400
#
# Static dielectric constant tensor:
#      x y z
#    x 2.338460 0.000000 0.029640 
#    y 0.000000 1.909230 0.000000 
#    z 0.029640 0.000000 2.173890 
# 
# From -- ./inp_files/319022.got.cif
#   From: 2010.05.17/outbox.cif.g08.bks.cpg/sg12_160_cif.got.tgz:319022.got - 2010.06.03 13:09:07.
