data_PCOD9169551
_publ_section_title
;
Structure prediction by ZEFSAII (Michael W. Deem and Ramdas Pophale) SiO2 
 PCOD9169551
Probable space group: C 2/M
;
_chemical_formula_sum "Si O2"
_cell_formula_units_Z 64
_cell_length_a 32.203603
_cell_length_b 7.574667
_cell_length_c 15.229494
_cell_angle_alpha 90.000000
_cell_angle_beta 117.009693
_cell_angle_gamma 90.000000
_cell_volume 3309.763207
_symmetry_space_group_name_H-M "C 2/M"
_symmetry_group_IT_number 12
_symmetry_cell_setting 'monoclinic'
loop_
_space_group_symop_operation_xyz
x,y,z
-x,y,-z
-x,-y,-z
x,-y,z
1/2+x,1/2+y,z
1/2-x,1/2+y,-z
1/2-x,1/2-y,-z
1/2+x,1/2-y,z
loop_
_atom_site_type_symbol
_atom_site_label
_atom_site_fract_x
_atom_site_fract_y
_atom_site_fract_z
Si Si1 0.283992 0.786872 0.682176
Si Si2 0.552586 0.287978 0.952505
Si Si3 0.823155 0.783805 0.424892
Si Si4 0.945825 0.216287 0.848809
Si Si5 0.137846 0.292754 0.911616
Si Si6 0.821748 0.207990 0.227761
Si Si7 0.282627 0.784466 0.882584
Si Si8 0.630734 0.295164 0.358644
O O1 0.230834 0.734039 0.610155
O O2 0.293919 0.735120 0.792797
O O3 0.322091 0.712696 0.653161
O O4 0.286172 0.000000 0.679737
O O5 0.551319 0.500000 0.954498
O O6 0.499416 0.229990 0.884990
O O7 0.589445 0.237681 0.914400
O O8 0.567157 0.227157 0.064420
O O9 0.834728 0.724056 0.336957
O O10 0.856560 0.718197 0.534185
O O11 0.824364 0.000000 0.428889
O O12 0.910215 0.281829 0.741037
O O13 0.944378 0.000000 0.847294
O O14 0.145605 0.500000 0.914346
O O15 0.142368 0.229384 0.816463
O O16 0.179522 0.216795 0.012150
O O17 0.770396 0.276195 0.150677
O O18 0.814826 0.000000 0.234218
O O19 0.283547 0.000000 0.886264
O O20 0.618193 0.500000 0.360886
#
# Coordination Sequence:
#
# PCOD9169551 Si02
#       8
#     8   8   8   8   8   8   8   8
#     4   9  16  28  43  63  92 124 147 169 208 265
#     4   9  17  32  49  66  89 119 145 171 215 271
#     4   8  16  29  45  63  88 119 151 181 213 251
#     4   8  16  30  49  69  90 113 144 181 215 253
#     4  11  20  29  44  69  92 112 143 187 223 252
#     4   9  17  32  48  61  83 122 156 177 209 259
#     4   8  16  29  44  62  90 121 148 175 211 257
#     4  10  17  27  45  69  90 112 145 187 220 248
#
# _framework density 19.336731
#
# number of rings (size 3 to 8) (size 9 to 14) (size 15 to 20)
#    0.000    3.000    0.000    4.125    0.000    0.000 
#    0.000    6.250    0.000    0.750    0.000    5.250 
#    0.000    0.000    0.000    0.000    0.000    0.000 
#
# Total GULP energy -178483.793222 kJ/mol
# GULP energy per Si atom -5577.618538 kJ/mol
# Density = 1.929272 g / cm^3
# Si number density = 19.336731 Si / 1000 Ang^3
#
#
#
# Elastic Constant Matrix: (Units=GPa)
#
#
# Indices 1 2 3 4 5 6 
#
# 1 88.7766 -11.0105 71.2495 0.0000 -18.4371 0.0000
# 2 -11.0105 39.4025 3.2766 0.0000 2.6768 0.0000
# 3 71.2495 3.2766 166.3247 0.0000 1.2516 0.0000
# 4 0.0000 0.0000 0.0000 0.1926 0.0000 0.1742
# 5 -18.4371 2.6768 1.2516 0.0000 17.0797 0.0000
# 6 0.0000 0.0000 0.0000 0.1742 0.0000 16.6265
#
#
#
# Elastic Compliance Matrix: (Units=1/GPa)
#
#
# Indices 1 2 3 4 5 6 
#
# 1 0.028682 0.006975 -0.012656 0.000000 0.030796 0.000000
# 2 0.006975 0.027386 -0.003554 0.000000 0.003498 0.000000
# 3 -0.012656 -0.003554 0.011609 0.000000 -0.013956 0.000000
# 4 0.000000 0.000000 0.000000 5.242921 0.000000 -0.054940
# 5 0.030796 0.003498 -0.013956 0.000000 0.092267 0.000000
# 6 0.000000 0.000000 0.000000 -0.054940 0.000000 0.060721
#
#
# Mechanical properties :
#
#
# Convention : Reuss Voigt Hill
#
# Bulk Modulus (GPa) = 20.32184 46.83722 33.57953
# Shear Modulus (GPa) = 0.90935 22.17896 11.54415
#
# Velocity S-wave (km/s) = 0.68651 3.39039 2.44602
# Velocity P-wave (km/s) = 3.34076 6.29292 5.03793
#
# Compressibility (1/GPa) = 0.04920814
#
# Stress axis : x y z
#
# Youngs Moduli (GPa) = 34.86448 36.51486 86.14070
#
# Poissons Ratio (x) = -0.25470 1.09020
# Poissons Ratio (y) = -0.24319 0.30613
# Poissons Ratio (z) = 0.44125 0.12977
#
# Static dielectric constant tensor:
#      x y z
#    x 1.658320 0.000000 -0.013980 
#    y 0.000000 1.723010 0.000000 
#    z -0.013980 0.000000 1.710220 
# 
# From -- ./inp_files/249147.got.cif
#   From: 2010.05.17/outbox.cif.g08.bks.cpg/sg12_125_cif.got.tgz:249147.got - 2010.06.03 13:09:07.
