data_PCOD9169229
_publ_section_title
;
Structure prediction by ZEFSAII (Michael W. Deem and Ramdas Pophale) SiO2 
 PCOD9169229
Probable space group: C 2/M
;
_chemical_formula_sum "Si O2"
_cell_formula_units_Z 48
_cell_length_a 21.130038
_cell_length_b 8.209943
_cell_length_c 20.899549
_cell_angle_alpha 90.000000
_cell_angle_beta 48.501354
_cell_angle_gamma 90.000000
_cell_volume 2715.454666
_symmetry_space_group_name_H-M "C 2/M"
_symmetry_group_IT_number 12
_symmetry_cell_setting 'monoclinic'
loop_
_space_group_symop_operation_xyz
x,y,z
-x,y,-z
-x,-y,-z
x,-y,z
1/2+x,1/2+y,z
1/2-x,1/2+y,-z
1/2-x,1/2-y,-z
1/2+x,1/2-y,z
loop_
_atom_site_type_symbol
_atom_site_label
_atom_site_fract_x
_atom_site_fract_y
_atom_site_fract_z
Si Si1 0.256766 0.805406 0.275042
Si Si2 0.589934 0.801141 0.733961
Si Si3 0.093081 0.697023 0.457493
Si Si4 0.877894 0.811630 0.095947
Si Si5 0.346648 0.803105 0.443786
Si Si6 0.970707 0.689186 0.919995
O O1 0.326633 0.751695 0.281479
O O2 0.165600 0.751468 0.360086
O O3 0.288247 0.732687 0.186592
O O4 0.260196 0.000000 0.268927
O O5 0.601280 0.747576 0.653502
O O6 0.506551 0.746588 0.828451
O O7 0.588332 0.000000 0.736232
O O8 0.092690 0.500000 0.458731
O O9 0.117969 0.755012 0.511994
O O10 0.000000 0.753012 0.500000
O O11 0.945923 0.706663 0.090701
O O12 0.896662 0.000000 0.096110
O O13 0.896965 0.776489 0.009003
O O14 0.250000 0.750000 0.500000
O O15 0.348739 0.000000 0.442649
O O16 0.948708 0.500000 0.928622
#
# Coordination Sequence:
#
# PCOD9169229 Si02
#       6
#     8   8   8   8   8   8
#     4  10  18  30  47  66  90 123 163 200 237 283
#     4   8  15  26  43  66  91 119 155 195 233 275
#     4  10  21  34  48  70 100 130 160 199 245 289
#     4  10  17  25  39  62  92 123 154 189 238 290
#     4  10  18  31  49  70  95 126 163 199 237 283
#     4   9  15  25  39  60  91 123 155 192 234 281
#
# _framework density 17.676597999999998
#
# number of rings (size 3 to 8) (size 9 to 14) (size 15 to 20)
#    0.000    2.500    1.667    4.500    0.000    0.333 
#    0.000    0.833    0.000    0.000    0.000    1.167 
#    0.000    0.000    0.000    0.000    0.000    0.000 
#
# Total GULP energy -133706.775557 kJ/mol
# GULP energy per Si atom -5571.115648 kJ/mol
# Density = 1.763636 g / cm^3
# Si number density = 17.676598 Si / 1000 Ang^3
#
#
#
# Elastic Constant Matrix: (Units=GPa)
#
#
# Indices 1 2 3 4 5 6 
#
# 1 65.2010 10.1890 57.4207 0.0000 -3.2303 -0.0002
# 2 10.1890 22.5191 16.6557 0.0000 -0.9547 -0.0004
# 3 57.4207 16.6557 212.6590 0.0000 3.8427 -0.0001
# 4 0.0000 0.0000 0.0000 26.0223 0.0000 -5.2246
# 5 -3.2303 -0.9547 3.8427 0.0000 14.7635 0.0001
# 6 -0.0002 -0.0004 -0.0001 -5.2246 0.0001 10.6942
#
#
#
# Elastic Compliance Matrix: (Units=1/GPa)
#
#
# Indices 1 2 3 4 5 6 
#
# 1 0.021226 -0.005357 -0.005415 0.000000 0.005707 0.000000
# 2 -0.005357 0.048729 -0.002417 0.000000 0.002608 0.000002
# 3 -0.005415 -0.002417 0.006408 0.000000 -0.003009 0.000000
# 4 0.000000 0.000000 0.000000 0.042608 0.000000 0.020816
# 5 0.005707 0.002608 -0.003009 0.000000 0.069935 -0.000001
# 6 0.000000 0.000002 0.000000 0.020816 -0.000001 0.103678
#
#
# Mechanical properties :
#
#
# Convention : Reuss Voigt Hill
#
# Bulk Modulus (GPa) = 20.00604 52.10111 36.05358
# Shear Modulus (GPa) = 14.89765 24.70358 19.80062
#
# Velocity S-wave (km/s) = 2.90623 3.74241 3.35051
# Velocity P-wave (km/s) = 4.75436 6.94354 5.95049
#
# Compressibility (1/GPa) = 0.04998490
#
# Stress axis : x y z
#
# Youngs Moduli (GPa) = 47.11255 20.52173 156.05190
#
# Poissons Ratio (x) = 0.10993 0.84499
# Poissons Ratio (y) = 0.25238 0.37721
# Poissons Ratio (z) = 0.25511 0.04960
#
# Static dielectric constant tensor:
#      x y z
#    x 1.568270 0.000000 0.021320 
#    y 0.000000 1.610630 0.000000 
#    z 0.021320 0.000000 1.667510 
# 
# From -- ./inp_files/236872.got.cif
#   From: 2010.05.17/outbox.cif.g08.bks.cpg/sg12_119_cif.got.tgz:236872.got - 2010.06.03 13:09:07.
