data_PCOD9169713
_publ_section_title
;
Structure prediction by ZEFSAII (Michael W. Deem and Ramdas Pophale) SiO2 
 PCOD9169713
Probable space group: C 2/M
;
_chemical_formula_sum "Si O2"
_cell_formula_units_Z 52
_cell_length_a 14.282227
_cell_length_b 21.784219
_cell_length_c 9.672412
_cell_angle_alpha 90.000000
_cell_angle_beta 132.640071
_cell_angle_gamma 90.000000
_cell_volume 2213.748701
_symmetry_space_group_name_H-M "C 2/M"
_symmetry_group_IT_number 12
_symmetry_cell_setting 'monoclinic'
loop_
_space_group_symop_operation_xyz
x,y,z
-x,y,-z
-x,-y,-z
x,-y,z
1/2+x,1/2+y,z
1/2-x,1/2+y,-z
1/2-x,1/2-y,-z
1/2+x,1/2-y,z
loop_
_atom_site_type_symbol
_atom_site_label
_atom_site_fract_x
_atom_site_fract_y
_atom_site_fract_z
Si Si1 0.585964 0.430010 0.261546
Si Si2 0.246400 0.292985 0.308663
Si Si3 0.012998 0.574283 0.718173
Si Si4 0.500000 0.135163 0.000000
Si Si5 0.789121 0.659977 0.409110
Si Si6 0.705833 0.430565 0.982072
Si Si7 0.859471 0.087437 0.381541
O O1 0.584730 0.500000 0.210932
O O2 0.666058 0.382014 0.253516
O O3 0.440000 0.408234 0.140819
O O4 0.665379 0.430922 0.485948
O O5 0.223454 0.311205 0.447212
O O6 0.282029 0.222968 0.316586
O O7 0.356065 0.339224 0.372315
O O8 0.120520 0.319223 0.109191
O O9 0.001056 0.500000 0.685630
O O10 0.910215 0.615203 0.533925
O O11 0.987592 0.592653 0.852761
O O12 0.159097 0.595237 0.833140
O O13 0.703474 0.500000 0.032379
O O14 0.720842 0.433417 0.829288
O O15 0.000000 0.063684 0.500000
#
# Coordination Sequence:
#
# PCOD9169713 Si02
#       7
#     8   8   8   4   8   8   8
#     4   9  16  26  41  62  88 118 146 177 218 268
#     4   9  17  29  43  59  85 122 154 184 210 255
#     4  10  18  27  43  69  94 115 143 182 228 270
#     4  10  17  28  46  64  89 120 148 184 220 260
#     4   9  18  29  42  59  90 123 154 175 214 265
#     4   9  16  25  40  65  94 116 140 177 223 268
#     4   9  15  25  42  61  88 117 148 178 217 265
#
# _framework density 23.489566
#
# number of rings (size 3 to 8) (size 9 to 14) (size 15 to 20)
#    0.000    2.769    1.538    1.154    0.000    1.846 
#    0.000    0.000    3.385    4.615    0.000    2.154 
#    0.000    2.462    0.000    0.000    0.000    0.000 
#
# Total GULP energy -144912.802845 kJ/mol
# GULP energy per Si atom -5573.569340 kJ/mol
# Density = 2.343610 g / cm^3
# Si number density = 23.489566 Si / 1000 Ang^3
#
#
#
# Elastic Constant Matrix: (Units=GPa)
#
#
# Indices 1 2 3 4 5 6 
#
# 1 63.3534 38.4229 47.4167 0.0000 13.1787 0.0000
# 2 38.4229 200.0406 59.9362 0.0000 31.4120 0.0000
# 3 47.4167 59.9362 140.4054 0.0000 20.7022 0.0000
# 4 0.0000 0.0000 0.0000 24.2911 0.0000 2.1386
# 5 13.1787 31.4120 20.7022 0.0000 50.6216 0.0000
# 6 0.0000 0.0000 0.0000 2.1386 0.0000 2.7644
#
#
#
# Elastic Compliance Matrix: (Units=1/GPa)
#
#
# Indices 1 2 3 4 5 6 
#
# 1 0.022165 -0.002064 -0.006324 0.000000 -0.001904 0.000000
# 2 -0.002064 0.006299 -0.001591 0.000000 -0.002721 0.000000
# 3 -0.006324 -0.001591 0.010161 0.000000 -0.001522 0.000000
# 4 0.000000 0.000000 0.000000 0.044176 0.000000 -0.034175
# 5 -0.001904 -0.002721 -0.001522 0.000000 0.022561 0.000000
# 6 0.000000 0.000000 0.000000 -0.034175 0.000000 0.388175
#
#
# Mechanical properties :
#
#
# Convention : Reuss Voigt Hill
#
# Bulk Modulus (GPa) = 53.56477 77.26124 65.41301
# Shear Modulus (GPa) = 9.62061 32.73700 21.17881
#
# Velocity S-wave (km/s) = 2.02598 3.73726 3.00597
# Velocity P-wave (km/s) = 5.32221 7.18233 6.32107
#
# Compressibility (1/GPa) = 0.01866899
#
# Stress axis : x y z
#
# Youngs Moduli (GPa) = 45.11596 158.74736 98.41150
#
# Poissons Ratio (x) = 0.32761 0.62233
# Poissons Ratio (y) = 0.09311 0.15656
# Poissons Ratio (z) = 0.28530 0.25255
#
# Static dielectric constant tensor:
#      x y z
#    x 1.976080 0.000000 -0.038770 
#    y 0.000000 1.857410 0.000000 
#    z -0.038770 0.000000 1.941210 
# 
# From -- ./inp_files/235076.got.cif
#   From: 2010.05.17/outbox.cif.g08.bks.cpg/sg12_118_cif.got.tgz:235076.got - 2010.06.03 13:09:07.
