data_PCOD9169607
_publ_section_title
;
Structure prediction by ZEFSAII (Michael W. Deem and Ramdas Pophale) SiO2 
 PCOD9169607
Probable space group: C 2/M
;
_chemical_formula_sum "Si O2"
_cell_formula_units_Z 58
_cell_length_a 16.317370
_cell_length_b 13.469195
_cell_length_c 11.683539
_cell_angle_alpha 90.000000
_cell_angle_beta 116.506394
_cell_angle_gamma 90.000000
_cell_volume 2297.911139
_symmetry_space_group_name_H-M "C 2/M"
_symmetry_group_IT_number 12
_symmetry_cell_setting 'monoclinic'
loop_
_space_group_symop_operation_xyz
x,y,z
-x,y,-z
-x,-y,-z
x,-y,z
1/2+x,1/2+y,z
1/2-x,1/2+y,-z
1/2-x,1/2-y,-z
1/2+x,1/2-y,z
loop_
_atom_site_type_symbol
_atom_site_label
_atom_site_fract_x
_atom_site_fract_y
_atom_site_fract_z
Si Si1 0.208216 0.886661 0.013818
Si Si2 0.500000 0.500000 0.500000
Si Si3 0.410480 0.618527 0.864271
Si Si4 0.541822 0.303943 0.788211
Si Si5 0.803739 0.380310 0.850709
Si Si6 0.091731 0.392343 0.478870
Si Si7 0.131122 0.814918 0.601629
Si Si8 0.517266 0.890036 0.174014
O O1 0.273901 0.843444 0.957902
O O2 0.112154 0.884138 0.883082
O O3 0.237492 0.000000 0.053614
O O4 0.178379 0.845889 0.119933
O O5 0.578081 0.412002 0.522691
O O6 0.403321 0.500000 0.849790
O O7 0.439968 0.662789 0.761030
O O8 0.500000 0.639517 0.000000
O O9 0.568779 0.290413 0.674893
O O10 0.553197 0.198130 0.854966
O O11 0.793581 0.500000 0.847793
O O12 0.730220 0.343894 0.712134
O O13 0.906379 0.362794 0.871604
O O14 0.139203 0.500000 0.532389
O O15 0.138105 0.287137 0.535457
O O16 0.065225 0.393287 0.328695
O O17 0.000000 0.393950 0.500000
O O18 0.479629 0.000000 0.127684
#
# Coordination Sequence:
#
# PCOD9169607 Si02
#       8
#     8   2   8   8   8   8   8   8
#     4   8  15  29  50  74  97 123 151 190 244 297
#     4  12  20  28  46  76 102 116 158 198 262 290
#     4   8  14  25  45  72  97 121 150 191 239 292
#     4  10  17  27  47  71  94 121 160 196 232 277
#     4   9  18  32  49  70 100 126 152 193 248 298
#     4  10  19  34  49  64  89 125 170 202 227 277
#     4  11  20  31  49  74  97 127 154 206 252 285
#     4  10  20  33  48  67  91 129 167 199 230 279
#
# _framework density 25.240314000000001
#
# number of rings (size 3 to 8) (size 9 to 14) (size 15 to 20)
#    0.000    2.483    2.759    1.241    1.931    0.552 
#    0.000    0.690    0.000    5.379    0.000    0.000 
#    0.000    0.000    0.000    0.000    0.000    0.000 
#
# Total GULP energy -161700.128367 kJ/mol
# GULP energy per Si atom -5575.866495 kJ/mol
# Density = 2.518287 g / cm^3
# Si number density = 25.240314 Si / 1000 Ang^3
#
#
#
# Elastic Constant Matrix: (Units=GPa)
#
#
# Indices 1 2 3 4 5 6 
#
# 1 62.9455 37.0386 24.3118 0.0000 -3.2351 0.0000
# 2 37.0386 159.8318 35.8672 0.0000 12.4528 0.0000
# 3 24.3118 35.8672 74.4808 0.0000 -17.3469 0.0000
# 4 0.0000 0.0000 0.0000 22.9878 0.0000 -7.2353
# 5 -3.2351 12.4528 -17.3469 0.0000 41.6043 0.0000
# 6 0.0000 0.0000 0.0000 -7.2353 0.0000 23.1857
#
#
#
# Elastic Compliance Matrix: (Units=1/GPa)
#
#
# Indices 1 2 3 4 5 6 
#
# 1 0.019817 -0.003628 -0.004552 0.000000 0.000729 0.000000
# 2 -0.003628 0.008296 -0.003826 0.000000 -0.004360 0.000000
# 3 -0.004552 -0.003826 0.018761 0.000000 0.008614 0.000000
# 4 0.000000 0.000000 0.000000 0.048239 0.000000 0.015053
# 5 0.000729 -0.004360 0.008614 0.000000 0.028989 0.000000
# 6 0.000000 0.000000 0.000000 0.015053 0.000000 0.047828
#
#
# Mechanical properties :
#
#
# Convention : Reuss Voigt Hill
#
# Bulk Modulus (GPa) = 43.74122 54.63260 49.18691
# Shear Modulus (GPa) = 24.56257 30.89160 27.72708
#
# Velocity S-wave (km/s) = 3.12292 3.50222 3.31799
# Velocity P-wave (km/s) = 5.51099 6.16815 5.84881
#
# Compressibility (1/GPa) = 0.02286173
#
# Stress axis : x y z
#
# Youngs Moduli (GPa) = 50.46206 120.54601 53.30234
#
# Poissons Ratio (x) = 0.43729 0.24263
# Poissons Ratio (y) = 0.18305 0.20395
# Poissons Ratio (z) = 0.22970 0.46125
#
# Static dielectric constant tensor:
#      x y z
#    x 2.012420 0.000000 -0.010930 
#    y 0.000000 1.963790 0.000000 
#    z -0.010930 0.000000 2.031690 
# 
# From -- ./inp_files/223268.got.cif
#   From: 2010.05.17/outbox.cif.g08.bks.cpg/sg12_112_cif.got.tgz:223268.got - 2010.06.03 13:09:07.
