data_PCOD9169534
_publ_section_title
;
Structure prediction by ZEFSAII (Michael W. Deem and Ramdas Pophale) SiO2 
 PCOD9169534
Probable space group: C 2/M
;
_chemical_formula_sum "Si O2"
_cell_formula_units_Z 64
_cell_length_a 25.349284
_cell_length_b 13.303521
_cell_length_c 11.944984
_cell_angle_alpha 90.000000
_cell_angle_beta 79.514575
_cell_angle_gamma 90.000000
_cell_volume 3960.996446
_symmetry_space_group_name_H-M "C 2/M"
_symmetry_group_IT_number 12
_symmetry_cell_setting 'monoclinic'
loop_
_space_group_symop_operation_xyz
x,y,z
-x,y,-z
-x,-y,-z
x,-y,z
1/2+x,1/2+y,z
1/2-x,1/2+y,-z
1/2-x,1/2-y,-z
1/2+x,1/2-y,z
loop_
_atom_site_type_symbol
_atom_site_label
_atom_site_fract_x
_atom_site_fract_y
_atom_site_fract_z
Si Si1 0.757843 0.615139 0.608200
Si Si2 0.943109 0.708069 0.486808
Si Si3 0.209683 0.312346 0.168035
Si Si4 0.664499 0.255365 0.564463
Si Si5 0.633152 0.119920 0.787344
Si Si6 0.978396 0.381714 0.239278
Si Si7 0.730208 0.115822 0.911468
Si Si8 0.908524 0.620380 0.735837
O O1 0.769763 0.500000 0.576755
O O2 0.761800 0.633566 0.738952
O O3 0.700298 0.649821 0.583997
O O4 0.801381 0.688753 0.535601
O O5 0.893745 0.776397 0.465644
O O6 0.956950 0.639612 0.373555
O O7 0.922704 0.644285 0.600887
O O8 0.000000 0.756460 0.500000
O O9 0.229186 0.196998 0.156013
O O10 0.146234 0.325923 0.209523
O O11 0.226120 0.362739 0.044716
O O12 0.656701 0.185577 0.676915
O O13 0.570479 0.151214 0.821767
O O14 0.671683 0.133514 0.878364
O O15 0.633958 0.000000 0.759693
O O16 0.984065 0.500000 0.220714
O O17 0.039369 0.342853 0.213885
O O18 0.744897 0.000000 0.884157
O O19 0.901472 0.500000 0.751454
#
# Coordination Sequence:
#
# PCOD9169534 Si02
#       8
#     8   8   8   8   8   8   8   8
#     4  11  21  32  48  71  99 127 159 204 245 286
#     4   9  16  26  44  67  97 131 159 194 234 290
#     4  11  21  34  51  72  99 129 168 200 241 287
#     4  10  19  31  46  71  98 126 161 193 240 296
#     4   9  16  30  48  68  97 130 158 191 236 292
#     4   8  15  25  42  69  98 129 159 188 237 296
#     4  10  21  36  52  70  97 130 166 205 242 284
#     4  10  17  27  44  70 101 129 160 198 237 286
#
# _framework density 16.157550000000001
#
# number of rings (size 3 to 8) (size 9 to 14) (size 15 to 20)
#    0.000    2.250    2.500    1.875    0.000    2.500 
#    0.000    0.625    0.000    3.375    0.000    7.000 
#    0.000    2.250    0.000    0.000    0.000    0.000 
#
# Total GULP energy -178178.148845 kJ/mol
# GULP energy per Si atom -5568.067151 kJ/mol
# Density = 1.612077 g / cm^3
# Si number density = 16.157550 Si / 1000 Ang^3
#
#
#
# Elastic Constant Matrix: (Units=GPa)
#
#
# Indices 1 2 3 4 5 6 
#
# 1 127.1669 30.8141 24.5458 0.0000 3.3662 0.0000
# 2 30.8141 34.7715 13.0294 0.0000 -2.7338 0.0000
# 3 24.5458 13.0294 29.3633 0.0000 12.5449 0.0000
# 4 0.0000 0.0000 0.0000 10.7784 0.0000 2.2057
# 5 3.3662 -2.7338 12.5449 0.0000 20.6589 0.0000
# 6 0.0000 0.0000 0.0000 2.2057 0.0000 18.6765
#
#
#
# Elastic Compliance Matrix: (Units=1/GPa)
#
#
# Indices 1 2 3 4 5 6 
#
# 1 0.010776 -0.007067 -0.006376 0.000000 0.001181 0.000000
# 2 -0.007067 0.045473 -0.023405 0.000000 0.021382 0.000000
# 3 -0.006376 -0.023405 0.068395 0.000000 -0.043591 0.000000
# 4 0.000000 0.000000 0.000000 0.095076 0.000000 -0.011229
# 5 0.001181 0.021382 -0.043591 0.000000 0.077512 0.000000
# 6 0.000000 0.000000 0.000000 -0.011229 0.000000 0.054869
#
#
# Mechanical properties :
#
#
# Convention : Reuss Voigt Hill
#
# Bulk Modulus (GPa) = 19.62826 36.45335 28.04080
# Shear Modulus (GPa) = 11.29225 18.21693 14.75459
#
# Velocity S-wave (km/s) = 2.64651 3.36140 3.02515
# Velocity P-wave (km/s) = 4.63822 6.13804 5.44007
#
# Compressibility (1/GPa) = 0.05094696
#
# Stress axis : x y z
#
# Youngs Moduli (GPa) = 92.80197 21.99094 14.62088
#
# Poissons Ratio (x) = 0.15541 0.09323
# Poissons Ratio (y) = 0.65584 0.34220
# Poissons Ratio (z) = 0.59174 0.51470
#
# Static dielectric constant tensor:
#      x y z
#    x 1.596320 0.000000 0.020430 
#    y 0.000000 1.506170 0.000000 
#    z 0.020430 0.000000 1.546830 
# 
# From -- ./inp_files/182031.got.cif
#   From: 2010.05.17/outbox.cif.g08.bks.cpg/sg12_92_cif.got.tgz:182031.got - 2010.06.03 13:09:07.
