data_PCOD9169646
_publ_section_title
;
Structure prediction by ZEFSAII (Michael W. Deem and Ramdas Pophale) SiO2 
 PCOD9169646
Probable space group: C 2/M
;
_chemical_formula_sum "Si O2"
_cell_formula_units_Z 52
_cell_length_a 22.001219
_cell_length_b 7.794186
_cell_length_c 26.499401
_cell_angle_alpha 90.000000
_cell_angle_beta 37.589071
_cell_angle_gamma 90.000000
_cell_volume 2771.910148
_symmetry_space_group_name_H-M "C 2/M"
_symmetry_group_IT_number 12
_symmetry_cell_setting 'monoclinic'
loop_
_space_group_symop_operation_xyz
x,y,z
-x,y,-z
-x,-y,-z
x,-y,z
1/2+x,1/2+y,z
1/2-x,1/2+y,-z
1/2-x,1/2-y,-z
1/2+x,1/2-y,z
loop_
_atom_site_type_symbol
_atom_site_label
_atom_site_fract_x
_atom_site_fract_y
_atom_site_fract_z
Si Si1 0.126280 0.500000 0.534280
Si Si2 0.640286 0.309858 0.252533
Si Si3 0.272645 0.000000 0.638948
Si Si4 0.597717 0.793417 0.092459
Si Si5 0.604442 0.000000 0.346326
Si Si6 0.622077 0.797349 0.727830
Si Si7 0.587719 0.700209 0.633851
Si Si8 0.240661 0.701197 0.089022
O O1 0.195657 0.500000 0.440211
O O2 0.137176 0.331051 0.561732
O O3 0.013267 0.500000 0.587165
O O4 0.643860 0.500000 0.272095
O O5 0.531405 0.286749 0.298090
O O6 0.720194 0.290058 0.155400
O O7 0.648822 0.165571 0.288950
O O8 0.206899 0.169752 0.691058
O O9 0.365649 0.000000 0.615299
O O10 0.482951 0.751336 0.176700
O O11 0.662749 0.732266 0.097848
O O12 0.606078 0.000000 0.085985
O O13 0.651722 0.724823 0.007094
O O14 0.608327 0.761019 0.677091
O O15 0.641786 0.000000 0.722121
O O16 0.615474 0.500000 0.608872
O O17 0.220126 0.500000 0.110178
#
# Coordination Sequence:
#
# PCOD9169646 Si02
#       8
#     4   8   4   8   4   8   8   8
#     4  10  23  42  66  86 116 143 194 263 295 350
#     4  10  19  33  61  88 116 152 195 251 289 336
#     4  12  27  42  61  86 113 162 198 240 303 351
#     4   9  19  30  48  81 127 161 184 229 289 347
#     4  10  23  44  63  84 111 153 208 248 290 346
#     4  11  22  38  58  84 125 164 189 233 285 370
#     4  10  19  35  60  90 119 152 190 229 305 358
#     4  10  17  27  51  87 122 154 191 236 286 339
#
# _framework density 18.759626999999998
#
# number of rings (size 3 to 8) (size 9 to 14) (size 15 to 20)
#    0.000    1.846    3.846    0.692    1.077    2.462 
#    0.000    0.000    0.000    6.462    0.000    3.231 
#    0.000    0.000    0.000    0.000    0.000    0.000 
#
# Total GULP energy -145213.433212 kJ/mol
# GULP energy per Si atom -5585.132047 kJ/mol
# Density = 1.871693 g / cm^3
# Si number density = 18.759627 Si / 1000 Ang^3
#
#
#
# Elastic Constant Matrix: (Units=GPa)
#
#
# Indices 1 2 3 4 5 6 
#
# 1 42.7539 19.5072 11.1214 0.0037 -1.8606 -0.0221
# 2 19.5072 99.8135 31.6928 0.0065 -6.3796 0.0048
# 3 11.1214 31.6928 82.7176 -0.0004 -3.4741 0.0070
# 4 0.0037 0.0065 -0.0004 28.1862 0.0006 -2.6559
# 5 -1.8606 -6.3796 -3.4741 0.0006 14.5975 0.0077
# 6 -0.0221 0.0048 0.0070 -2.6559 0.0077 13.8323
#
#
#
# Elastic Compliance Matrix: (Units=1/GPa)
#
#
# Indices 1 2 3 4 5 6 
#
# 1 0.025914 -0.004452 -0.001739 0.000002 0.000943 0.000044
# 2 -0.004452 0.012405 -0.003990 -0.000004 0.003904 -0.000012
# 3 -0.001739 -0.003990 0.013908 0.000000 0.001345 -0.000009
# 4 0.000002 -0.000004 0.000000 0.036132 -0.000006 0.006938
# 5 0.000943 0.003904 0.001345 -0.000006 0.070651 -0.000041
# 6 0.000044 -0.000012 -0.000009 0.006938 -0.000041 0.073627
#
#
# Mechanical properties :
#
#
# Convention : Reuss Voigt Hill
#
# Bulk Modulus (GPa) = 31.38196 38.88088 35.13142
# Shear Modulus (GPa) = 18.96645 22.18744 20.57694
#
# Velocity S-wave (km/s) = 3.18311 3.44280 3.31550
# Velocity P-wave (km/s) = 5.50222 6.04770 5.78140
#
# Compressibility (1/GPa) = 0.03186544
#
# Stress axis : x y z
#
# Youngs Moduli (GPa) = 38.58851 80.60989 71.89849
#
# Poissons Ratio (x) = 0.35890 0.12501
# Poissons Ratio (y) = 0.17181 0.28691
# Poissons Ratio (z) = 0.06710 0.32167
#
# Static dielectric constant tensor:
#      x y z
#    x 1.610510 0.000000 -0.019020 
#    y 0.000000 1.654450 0.000000 
#    z -0.019020 0.000000 1.649810 
# 
# From -- ./inp_files/345901.got.cif
#   From: 2010.05.17/outbox.cif.g08.bks.cpg/sg12_173_cif.got.tgz:345901.got - 2010.06.03 13:09:07.
