data_PCOD9169950
_publ_section_title
;
Structure prediction by ZEFSAII (Michael W. Deem and Ramdas Pophale) SiO2 
 PCOD9169950
Probable space group: C 2/M
;
_chemical_formula_sum "Si O2"
_cell_formula_units_Z 32
_cell_length_a 11.287743
_cell_length_b 21.349203
_cell_length_c 9.469257
_cell_angle_alpha 90.000000
_cell_angle_beta 140.153757
_cell_angle_gamma 90.000000
_cell_volume 1462.107984
_symmetry_space_group_name_H-M "C 2/M"
_symmetry_group_IT_number 12
_symmetry_cell_setting 'monoclinic'
loop_
_space_group_symop_operation_xyz
x,y,z
-x,y,-z
-x,-y,-z
x,-y,z
1/2+x,1/2+y,z
1/2-x,1/2+y,-z
1/2-x,1/2-y,-z
1/2+x,1/2-y,z
loop_
_atom_site_type_symbol
_atom_site_label
_atom_site_fract_x
_atom_site_fract_y
_atom_site_fract_z
Si Si1 0.439755 0.567726 0.674196
Si Si2 0.288455 0.090933 0.820766
Si Si3 0.317951 0.731547 0.229888
Si Si4 0.108467 0.208757 0.274533
O O1 0.398526 0.500000 0.704940
O O2 0.654882 0.567604 0.823579
O O3 0.318423 0.572902 0.420040
O O4 0.398123 0.633910 0.709374
O O5 0.284160 0.165479 0.841148
O O6 0.500000 0.070683 0.000000
O O7 0.500000 0.726209 0.500000
O O8 0.189385 0.781444 0.192171
O O9 0.417040 0.735159 0.167160
O O10 0.250000 0.250000 0.500000
#
# Coordination Sequence:
#
# PCOD9169950 Si02
#       4
#     8   8   8   8
#     4  10  19  31  46  70 100 129 160 201 248 289
#     4  10  17  29  48  74  98 126 160 203 246 291
#     4   9  15  29  51  71  97 130 161 198 247 282
#     4   9  15  30  53  69  93 136 159 198 250 283
#
# _framework density 21.886208
#
# number of rings (size 3 to 8) (size 9 to 14) (size 15 to 20)
#    0.000    2.500    7.500    1.500    0.000    2.000 
#    0.000    5.000    0.000    6.750    0.000    0.000 
#    0.000    3.000    0.000    1.000    0.000    0.000 
#
# Total GULP energy -89126.263480 kJ/mol
# GULP energy per Si atom -5570.391467 kJ/mol
# Density = 2.183639 g / cm^3
# Si number density = 21.886208 Si / 1000 Ang^3
#
#
#
# Elastic Constant Matrix: (Units=GPa)
#
#
# Indices 1 2 3 4 5 6 
#
# 1 172.4559 77.5102 70.8961 0.0000 1.6387 0.0000
# 2 77.5102 209.9627 13.7457 0.0000 19.5920 0.0000
# 3 70.8961 13.7457 67.8255 0.0000 37.8738 0.0000
# 4 0.0000 0.0000 0.0000 32.7045 0.0000 -58.1277
# 5 1.6387 19.5920 37.8738 0.0000 48.3949 0.0000
# 6 0.0000 0.0000 0.0000 -58.1277 0.0000 98.8890
#
#
#
# Elastic Compliance Matrix: (Units=1/GPa)
#
#
# Indices 1 2 3 4 5 6 
#
# 1 0.071383 -0.028184 -0.131306 0.000000 0.111753 0.000000
# 2 -0.028184 0.016079 0.052048 0.000000 -0.046288 0.000000
# 3 -0.131306 0.052048 0.267727 0.000000 -0.226148 0.000000
# 4 0.000000 0.000000 0.000000 -0.683322 0.000000 -0.401662
# 5 0.111753 -0.046288 -0.226148 0.000000 0.212602 0.000000
# 6 0.000000 0.000000 0.000000 -0.401662 0.000000 -0.225987
#
#
# Mechanical properties :
#
#
# Convention : Reuss Voigt Hill
#
# Bulk Modulus (GPa) = 7.12725 86.06090 46.59407
# Shear Modulus (GPa) = -62.60474 55.20382 -3.70046
#
# Velocity S-wave (km/s) = -5.35413 5.02771 -1.30171
# Velocity P-wave (km/s) = 5.91259 8.55051 4.36763
#
# Compressibility (1/GPa) = 0.14030653
#
# Stress axis : x y z
#
# Youngs Moduli (GPa) = 14.00887 62.19356 3.73514
#
# Poissons Ratio (x) = 1.75284 0.49045
# Poissons Ratio (y) = 0.39482 -0.19441
# Poissons Ratio (z) = 1.83945 -3.23706
#
# Static dielectric constant tensor:
#      x y z
#    x 1.809290 0.000000 -0.042470 
#    y 0.000000 1.818560 0.000000 
#    z -0.042470 0.000000 1.992740 
# 
# From -- ./inp_files/132825.got.cif
#   From: 2010.05.17/outbox.cif.g08.bks.cpg/sg12_67_cif.got.tgz:132825.got - 2010.06.03 13:09:07.
