data_PCOD9169218
_publ_section_title
;
Structure prediction by ZEFSAII (Michael W. Deem and Ramdas Pophale) SiO2 
 PCOD9169218
Probable space group: C 2/M
;
_chemical_formula_sum "Si O2"
_cell_formula_units_Z 64
_cell_length_a 27.666592
_cell_length_b 7.829036
_cell_length_c 18.053365
_cell_angle_alpha 90.000000
_cell_angle_beta 101.933046
_cell_angle_gamma 90.000000
_cell_volume 3825.904062
_symmetry_space_group_name_H-M "C 2/M"
_symmetry_group_IT_number 12
_symmetry_cell_setting 'monoclinic'
loop_
_space_group_symop_operation_xyz
x,y,z
-x,y,-z
-x,-y,-z
x,-y,z
1/2+x,1/2+y,z
1/2-x,1/2+y,-z
1/2-x,1/2-y,-z
1/2+x,1/2-y,z
loop_
_atom_site_type_symbol
_atom_site_label
_atom_site_fract_x
_atom_site_fract_y
_atom_site_fract_z
Si Si1 0.711615 0.207664 0.161435
Si Si2 0.826362 0.703624 0.168721
Si Si3 0.367184 0.695467 0.331772
Si Si4 0.692757 0.205276 0.996168
Si Si5 0.717751 0.804501 0.590819
Si Si6 0.141695 0.290384 0.445701
Si Si7 0.444314 0.793627 0.470986
Si Si8 0.681573 0.803264 0.310016
O O1 0.769409 0.256953 0.173269
O O2 0.688187 0.273528 0.230447
O O3 0.711009 0.000000 0.163130
O O4 0.684060 0.265667 0.077428
O O5 0.831875 0.500000 0.170453
O O6 0.861716 0.776798 0.242871
O O7 0.834098 0.768418 0.086830
O O8 0.355365 0.500000 0.345179
O O9 0.325163 0.802976 0.360509
O O10 0.419090 0.739846 0.385919
O O11 0.687668 0.000000 0.995284
O O12 0.750000 0.250000 0.000000
O O13 0.689833 0.738423 0.508837
O O14 0.764061 0.701806 0.635760
O O15 0.733555 0.000000 0.584127
O O16 0.142439 0.500000 0.445828
O O17 0.093435 0.236829 0.476158
O O18 0.146558 0.229271 0.363000
O O19 0.500000 0.732021 0.500000
O O20 0.444899 0.000000 0.472804
O O21 0.666424 0.000000 0.294670
#
# Coordination Sequence:
#
# PCOD9169218 Si02
#       8
#     8   8   8   8   8   8   8   8
#     4   9  16  25  37  55  81 112 143 171 204 241
#     4  10  17  26  40  56  79 109 143 177 204 238
#     4  11  20  29  43  63  85 108 138 174 213 251
#     4   8  15  25  36  52  75 107 142 173 203 236
#     4  10  18  28  40  55  81 112 145 175 199 234
#     4   8  16  28  41  60  81 105 136 168 203 245
#     4   9  18  34  52  65  81 106 136 171 210 252
#     4  10  17  25  39  58  84 112 138 168 202 240
#
# _framework density 16.728072999999998
#
# number of rings (size 3 to 8) (size 9 to 14) (size 15 to 20)
#    0.000    2.625    1.250    3.000    0.000    0.750 
#    0.000    2.500    0.000    0.000    0.000    0.000 
#    0.000    1.000    0.000   12.750    0.000    1.250 
#
# Total GULP energy -178249.326175 kJ/mol
# GULP energy per Si atom -5570.291443 kJ/mol
# Density = 1.669000 g / cm^3
# Si number density = 16.728073 Si / 1000 Ang^3
#
#
#
# Elastic Constant Matrix: (Units=GPa)
#
#
# Indices 1 2 3 4 5 6 
#
# 1 50.2946 2.6292 53.6703 0.0000 0.9131 0.0000
# 2 2.6292 33.2695 4.4387 0.0000 -0.6209 0.0000
# 3 53.6703 4.4387 169.5617 0.0000 -17.8759 0.0000
# 4 0.0000 0.0000 0.0000 12.5161 0.0000 2.9175
# 5 0.9131 -0.6209 -17.8759 0.0000 20.3776 0.0000
# 6 0.0000 0.0000 0.0000 2.9175 0.0000 7.6859
#
#
#
# Elastic Compliance Matrix: (Units=1/GPa)
#
#
# Indices 1 2 3 4 5 6 
#
# 1 0.032339 -0.001247 -0.011416 0.000000 -0.011502 0.000000
# 2 -0.001247 0.030212 -0.000323 0.000000 0.000693 0.000000
# 3 -0.011416 -0.000323 0.010548 0.000000 0.009755 0.000000
# 4 0.000000 0.000000 0.000000 0.087652 0.000000 -0.033272
# 5 -0.011502 0.000693 0.009755 0.000000 0.058167 0.000000
# 6 0.000000 0.000000 0.000000 -0.033272 0.000000 0.142738
#
#
# Mechanical properties :
#
#
# Convention : Reuss Voigt Hill
#
# Bulk Modulus (GPa) = 21.21945 41.62246 31.42096
# Shear Modulus (GPa) = 12.39656 20.94177 16.66916
#
# Velocity S-wave (km/s) = 2.72520 3.54205 3.16013
# Velocity P-wave (km/s) = 4.75550 6.45476 5.66916
#
# Compressibility (1/GPa) = 0.04712657
#
# Stress axis : x y z
#
# Youngs Moduli (GPa) = 30.92232 33.09927 94.80623
#
# Poissons Ratio (x) = 0.04128 1.08231
# Poissons Ratio (y) = 0.03857 0.03063
# Poissons Ratio (z) = 0.35301 0.01069
#
# Static dielectric constant tensor:
#      x y z
#    x 1.533980 0.000000 -0.035420 
#    y 0.000000 1.605570 0.000000 
#    z -0.035420 0.000000 1.635390 
# 
# From -- ./inp_files/294597.got.cif
#   From: 2010.05.17/outbox.cif.g08.bks.cpg/sg12_148_cif.got.tgz:294597.got - 2010.06.03 13:09:07.
