data_PCOD9169902
_publ_section_title
;
Structure prediction by ZEFSAII (Michael W. Deem and Ramdas Pophale) SiO2 
 PCOD9169902
Probable space group: C 2/M
;
_chemical_formula_sum "Si O2"
_cell_formula_units_Z 56
_cell_length_a 17.491035
_cell_length_b 22.154181
_cell_length_c 8.586421
_cell_angle_alpha 90.000000
_cell_angle_beta 82.912766
_cell_angle_gamma 90.000000
_cell_volume 3301.812428
_symmetry_space_group_name_H-M "C 2/M"
_symmetry_group_IT_number 12
_symmetry_cell_setting 'monoclinic'
loop_
_space_group_symop_operation_xyz
x,y,z
-x,y,-z
-x,-y,-z
x,-y,z
1/2+x,1/2+y,z
1/2-x,1/2+y,-z
1/2-x,1/2-y,-z
1/2+x,1/2-y,z
loop_
_atom_site_type_symbol
_atom_site_label
_atom_site_fract_x
_atom_site_fract_y
_atom_site_fract_z
Si Si1 0.540386 0.295805 0.654119
Si Si2 0.097457 0.657291 0.606694
Si Si3 0.982933 0.569106 0.821522
Si Si4 0.147617 0.649419 0.238358
Si Si5 0.881446 0.212894 0.837737
Si Si6 0.747002 0.792356 0.655783
Si Si7 0.181028 0.179292 0.820501
O O1 0.500000 0.312734 0.500000
O O2 0.565790 0.225439 0.636886
O O3 0.470933 0.299612 0.793279
O O4 0.615023 0.329758 0.706160
O O5 0.109593 0.651192 0.419343
O O6 0.185218 0.655512 0.648044
O O7 0.041431 0.610853 0.706838
O O8 0.988298 0.500000 0.766622
O O9 0.897105 0.595419 0.829734
O O10 0.000000 0.572173 0.000000
O O11 0.129448 0.713964 0.160608
O O12 0.239869 0.642827 0.222962
O O13 0.830937 0.192795 0.699448
O O14 0.851147 0.178928 0.997435
O O15 0.750000 0.750000 0.500000
O O16 0.709825 0.748325 0.792629
#
# Coordination Sequence:
#
# PCOD9169902 Si02
#       7
#     8   8   8   8   8   8   8
#     4  11  19  31  48  73 109 142 172 207 252 317
#     4  11  20  33  54  71 100 143 180 218 259 308
#     4  11  26  40  54  76 101 136 185 232 270 305
#     4  11  20  35  51  73 101 135 182 216 265 307
#     4  11  19  30  47  75 104 141 173 211 259 313
#     4  10  17  29  46  71 103 131 172 211 253 315
#     4  10  22  29  46  76 104 137 174 213 254 321
#
# _framework density 16.960383
#
# number of rings (size 3 to 8) (size 9 to 14) (size 15 to 20)
#    0.000    1.286    5.714    3.429    6.000    1.143 
#    0.000    0.000    0.000    0.000    0.000    0.000 
#    0.000    4.000    0.000    0.000    0.000    0.143 
#
# Total GULP energy -156013.577352 kJ/mol
# GULP energy per Si atom -5571.913477 kJ/mol
# Density = 1.692178 g / cm^3
# Si number density = 16.960383 Si / 1000 Ang^3
#
#
#
# Elastic Constant Matrix: (Units=GPa)
#
#
# Indices 1 2 3 4 5 6 
#
# 1 150.0487 38.9854 41.9638 0.0000 1.0768 0.0000
# 2 38.9854 37.6797 28.6067 0.0000 5.2544 0.0000
# 3 41.9638 28.6067 81.0857 0.0000 -8.1275 0.0000
# 4 0.0000 0.0000 0.0000 12.7234 0.0000 -1.8400
# 5 1.0768 5.2544 -8.1275 0.0000 28.3209 0.0000
# 6 0.0000 0.0000 0.0000 -1.8400 0.0000 8.4129
#
#
#
# Elastic Compliance Matrix: (Units=1/GPa)
#
#
# Indices 1 2 3 4 5 6 
#
# 1 0.009346 -0.008393 -0.001807 0.000000 0.000683 0.000000
# 2 -0.008393 0.047236 -0.013558 0.000000 -0.012336 0.000000
# 3 -0.001807 -0.013558 0.018852 0.000000 0.007994 0.000000
# 4 0.000000 0.000000 0.000000 0.081163 0.000000 0.017752
# 5 0.000683 -0.012336 0.007994 0.000000 0.039866 0.000000
# 6 0.000000 0.000000 0.000000 0.017752 0.000000 0.122747
#
#
# Mechanical properties :
#
#
# Convention : Reuss Voigt Hill
#
# Bulk Modulus (GPa) = 35.81803 54.21399 45.01601
# Shear Modulus (GPa) = 13.29673 20.50866 16.90269
#
# Velocity S-wave (km/s) = 2.80302 3.48114 3.16032
# Velocity P-wave (km/s) = 5.62498 6.94207 6.31794
#
# Compressibility (1/GPa) = 0.02791890
#
# Stress axis : x y z
#
# Youngs Moduli (GPa) = 107.00261 21.17016 53.04384
#
# Poissons Ratio (x) = 0.17767 0.09586
# Poissons Ratio (y) = 0.89803 0.71916
# Poissons Ratio (z) = 0.19337 0.28702
#
# Static dielectric constant tensor:
#      x y z
#    x 1.647100 0.000000 0.023820 
#    y 0.000000 1.544860 0.000000 
#    z 0.023820 0.000000 1.641990 
# 
# From -- ./inp_files/76839.got.cif
#   From: 2010.05.17/outbox.cif.g08.bks.cpg/sg12_39_cif.got.tgz:76839.got - 2010.06.03 13:09:07.
