data_PCOD9169664
_publ_section_title
;
Structure prediction by ZEFSAII (Michael W. Deem and Ramdas Pophale) SiO2 
 PCOD9169664
Probable space group: C 2/M
;
_chemical_formula_sum "Si O2"
_cell_formula_units_Z 56
_cell_length_a 26.908033
_cell_length_b 29.363335
_cell_length_c 5.351808
_cell_angle_alpha 90.000000
_cell_angle_beta 106.006266
_cell_angle_gamma 90.000000
_cell_volume 4064.581827
_symmetry_space_group_name_H-M "C 2/M"
_symmetry_group_IT_number 12
_symmetry_cell_setting 'monoclinic'
loop_
_space_group_symop_operation_xyz
x,y,z
-x,y,-z
-x,-y,-z
x,-y,z
1/2+x,1/2+y,z
1/2-x,1/2+y,-z
1/2-x,1/2-y,-z
1/2+x,1/2-y,z
loop_
_atom_site_type_symbol
_atom_site_label
_atom_site_fract_x
_atom_site_fract_y
_atom_site_fract_z
Si Si1 0.627621 0.740178 0.536176
Si Si2 0.409171 0.104678 0.801665
Si Si3 0.158223 0.228797 0.080733
Si Si4 0.060801 0.553632 0.646526
Si Si5 0.184804 0.333955 0.158331
Si Si6 0.968389 0.694632 0.714310
Si Si7 0.273122 0.806923 0.285232
O O1 0.634524 0.710146 0.301871
O O2 0.579821 0.773580 0.427196
O O3 0.681768 0.768654 0.634352
O O4 0.626037 0.714971 0.795729
O O5 0.408362 0.074682 0.547570
O O6 0.355611 0.128240 0.811313
O O7 0.446308 0.146531 0.778895
O O8 0.428559 0.077824 0.073440
O O9 0.156035 0.284401 0.099189
O O10 0.218129 0.215146 0.150426
O O11 0.071935 0.500000 0.684196
O O12 0.000000 0.558957 0.500000
O O13 0.225875 0.328837 0.439108
O O14 0.209740 0.339155 0.919856
O O15 0.000000 0.688613 0.500000
O O16 0.000000 0.713034 0.000000
#
# Coordination Sequence:
#
# PCOD9169664 Si02
#       7
#     8   8   8   8   8   8   8
#     4  10  18  29  38  56  79  98 130 155 174 231
#     4  12  21  35  49  63  78  98 122 165 209 254
#     4  10  17  28  44  59  81 107 123 148 183 224
#     4  11  24  39  50  61  73  94 131 171 214 268
#     4  10  18  27  42  62  83  95 122 148 183 237
#     4  12  23  31  43  59  80 103 127 159 205 246
#     4  10  17  28  43  60  83 106 122 147 182 227
#
# _framework density 13.777555
#
# number of rings (size 3 to 8) (size 9 to 14) (size 15 to 20)
#    0.000    1.286    2.857    9.000    4.000    1.143 
#    0.000    0.000    0.000    0.000    0.000    0.000 
#    0.000    0.000    0.000    0.000    0.000    0.000 
#
# Total GULP energy -156037.767236 kJ/mol
# GULP energy per Si atom -5572.777401 kJ/mol
# Density = 1.374620 g / cm^3
# Si number density = 13.777555 Si / 1000 Ang^3
#
#
#
# Elastic Constant Matrix: (Units=GPa)
#
#
# Indices 1 2 3 4 5 6 
#
# 1 53.4031 25.2420 31.9535 0.0000 -10.9947 0.0000
# 2 25.2420 21.5527 13.8567 0.0000 1.0428 0.0000
# 3 31.9535 13.8567 125.2298 0.0000 -19.7974 0.0000
# 4 0.0000 0.0000 0.0000 13.0365 0.0000 -0.5068
# 5 -10.9947 1.0428 -19.7974 0.0000 29.2288 0.0000
# 6 0.0000 0.0000 0.0000 -0.5068 0.0000 11.2533
#
#
#
# Elastic Compliance Matrix: (Units=1/GPa)
#
#
# Indices 1 2 3 4 5 6 
#
# 1 0.054874 -0.062772 -0.003851 0.000000 0.020273 0.000000
# 2 -0.062772 0.122778 -0.002233 0.000000 -0.029505 0.000000
# 3 -0.003851 -0.002233 0.010078 0.000000 0.005457 0.000000
# 4 0.000000 0.000000 0.000000 0.076842 0.000000 0.003461
# 5 0.020273 -0.029505 0.005457 0.000000 0.046588 0.000000
# 6 0.000000 0.000000 0.000000 0.003461 0.000000 0.089019
#
#
# Mechanical properties :
#
#
# Convention : Reuss Voigt Hill
#
# Bulk Modulus (GPa) = 19.99291 38.03224 29.01258
# Shear Modulus (GPa) = 9.01612 19.31260 14.16436
#
# Velocity S-wave (km/s) = 2.56091 3.74805 3.20984
# Velocity P-wave (km/s) = 4.82567 6.81138 5.90263
#
# Compressibility (1/GPa) = 0.05001773
#
# Stress axis : x y z
#
# Youngs Moduli (GPa) = 18.22363 8.14478 99.22892
#
# Poissons Ratio (x) = 0.51126 0.38212
# Poissons Ratio (y) = 1.14393 0.22159
# Poissons Ratio (z) = 0.07018 0.01819
#
# Static dielectric constant tensor:
#      x y z
#    x 1.478250 0.000000 -0.038990 
#    y 0.000000 1.425440 0.000000 
#    z -0.038990 0.000000 1.556950 
# 
# From -- ./inp_files/26610.got.cif
#   From: 2010.05.17/outbox.cif.g08.bks.cpg/sg12_14_cif.got.tgz:26610.got - 2010.06.03 13:09:07.
