data_PCOD9169676
_publ_section_title
;
Structure prediction by ZEFSAII (Michael W. Deem and Ramdas Pophale) SiO2 
 PCOD9169676
Probable space group: C 2/M
;
_chemical_formula_sum "Si O2"
_cell_formula_units_Z 64
_cell_length_a 25.533653
_cell_length_b 7.598267
_cell_length_c 19.230009
_cell_angle_alpha 90.000000
_cell_angle_beta 58.151441
_cell_angle_gamma 90.000000
_cell_volume 3169.148981
_symmetry_space_group_name_H-M "C 2/M"
_symmetry_group_IT_number 12
_symmetry_cell_setting 'monoclinic'
loop_
_space_group_symop_operation_xyz
x,y,z
-x,y,-z
-x,-y,-z
x,-y,z
1/2+x,1/2+y,z
1/2-x,1/2+y,-z
1/2-x,1/2-y,-z
1/2+x,1/2-y,z
loop_
_atom_site_type_symbol
_atom_site_label
_atom_site_fract_x
_atom_site_fract_y
_atom_site_fract_z
Si Si1 0.407248 0.215564 0.229180
Si Si2 0.367520 0.288786 0.861368
Si Si3 0.338925 0.302871 0.028196
Si Si4 0.524357 0.201447 0.060625
Si Si5 0.970175 0.290497 0.591318
Si Si6 0.834801 0.213194 0.730433
Si Si7 0.296734 0.206107 0.210950
Si Si8 0.505330 0.212098 0.717914
O O1 0.466636 0.270719 0.143268
O O2 0.346709 0.279578 0.230688
O O3 0.431285 0.268554 0.288776
O O4 0.404956 0.000000 0.229085
O O5 0.360578 0.500000 0.869189
O O6 0.340497 0.225239 0.806747
O O7 0.441425 0.254792 0.803852
O O8 0.333059 0.220406 0.954896
O O9 0.313111 0.500000 0.046494
O O10 0.317749 0.216621 0.115195
O O11 0.413153 0.307389 0.980730
O O12 0.538408 0.000000 0.073640
O O13 0.500000 0.191964 0.000000
O O14 0.981824 0.500000 0.583983
O O15 0.896934 0.263249 0.647318
O O16 0.000000 0.218558 0.500000
O O17 0.996853 0.219036 0.645570
O O18 0.772198 0.280344 0.739659
O O19 0.832393 0.000000 0.734928
O O20 0.292306 0.000000 0.231002
O O21 0.506804 0.000000 0.714622
#
# Coordination Sequence:
#
# PCOD9169676 Si02
#       8
#     8   8   8   8   8   8   8   8
#     4   9  16  27  46  68  89 118 161 202 230 263
#     4   9  18  31  44  64  94 123 155 201 243 271
#     4  11  21  29  41  64  95 127 162 202 243 278
#     4  10  17  28  44  61  86 121 164 208 239 265
#     4   9  18  33  55  81 102 117 139 180 235 289
#     4   9  19  35  53  70  92 124 159 192 230 275
#     4  10  20  34  48  64  90 128 168 201 229 266
#     4   9  16  28  49  73  93 118 153 190 231 277
#
# _framework density 20.194696
#
# number of rings (size 3 to 8) (size 9 to 14) (size 15 to 20)
#    0.000    2.500    2.500    0.375    0.000    2.000 
#    0.000    0.625    0.000    0.750    0.000    0.000 
#    0.000    0.000    0.000    0.000    0.000    0.000 
#
# Total GULP energy -178316.106687 kJ/mol
# GULP energy per Si atom -5572.378334 kJ/mol
# Density = 2.014873 g / cm^3
# Si number density = 20.194696 Si / 1000 Ang^3
#
#
#
# Elastic Constant Matrix: (Units=GPa)
#
#
# Indices 1 2 3 4 5 6 
#
# 1 138.7736 -2.5496 69.0807 -0.0006 0.0472 -0.0001
# 2 -2.5496 43.0873 -3.7211 0.0000 1.9443 -0.0016
# 3 69.0807 -3.7211 96.6301 0.0000 11.3104 -0.0002
# 4 -0.0006 0.0000 0.0000 8.5713 0.0001 -1.5781
# 5 0.0472 1.9443 11.3104 0.0001 15.1161 -0.0003
# 6 -0.0001 -0.0016 -0.0002 -1.5781 -0.0003 14.6948
#
#
#
# Elastic Compliance Matrix: (Units=1/GPa)
#
#
# Indices 1 2 3 4 5 6 
#
# 1 0.011813 -0.000416 -0.009276 0.000001 0.006957 0.000000
# 2 -0.000416 0.023526 0.001707 0.000000 -0.004302 0.000003
# 3 -0.009276 0.001707 0.018706 0.000000 -0.014187 0.000000
# 4 0.000001 0.000000 0.000000 0.119022 0.000000 0.012782
# 5 0.006957 -0.004302 -0.014187 0.000000 0.077302 0.000001
# 6 0.000000 0.000003 0.000000 0.012782 0.000001 0.069424
#
#
# Mechanical properties :
#
#
# Convention : Reuss Voigt Hill
#
# Bulk Modulus (GPa) = 26.26358 44.90124 35.58241
# Shear Modulus (GPa) = 14.34907 22.05516 18.20211
#
# Velocity S-wave (km/s) = 2.66848 3.30832 3.00548
# Velocity P-wave (km/s) = 4.74635 6.07254 5.44993
#
# Compressibility (1/GPa) = 0.03807555
#
# Stress axis : x y z
#
# Youngs Moduli (GPa) = 84.65001 42.50691 53.45813
#
# Poissons Ratio (x) = 0.01768 0.49586
# Poissons Ratio (y) = 0.03521 -0.09124
# Poissons Ratio (z) = 0.78519 -0.07255
#
# Static dielectric constant tensor:
#      x y z
#    x 1.778170 0.000000 0.050570 
#    y 0.000000 1.808070 0.000000 
#    z 0.050570 0.000000 1.711560 
# 
# From -- ./inp_files/323684.got.cif
#   From: 2010.05.17/outbox.cif.g08.bks.cpg/sg12_162_cif.got.tgz:323684.got - 2010.06.03 13:09:07.
