data_PCOD9169796
_publ_section_title
;
Structure prediction by ZEFSAII (Michael W. Deem and Ramdas Pophale) SiO2 
 PCOD9169796
Probable space group: C 2/M
;
_chemical_formula_sum "Si O2"
_cell_formula_units_Z 32
_cell_length_a 16.753736
_cell_length_b 10.894827
_cell_length_c 7.431786
_cell_angle_alpha 90.000000
_cell_angle_beta 109.419533
_cell_angle_gamma 90.000000
_cell_volume 1279.343771
_symmetry_space_group_name_H-M "C 2/M"
_symmetry_group_IT_number 12
_symmetry_cell_setting 'monoclinic'
loop_
_space_group_symop_operation_xyz
x,y,z
-x,y,-z
-x,-y,-z
x,-y,z
1/2+x,1/2+y,z
1/2-x,1/2+y,-z
1/2-x,1/2-y,-z
1/2+x,1/2-y,z
loop_
_atom_site_type_symbol
_atom_site_label
_atom_site_fract_x
_atom_site_fract_y
_atom_site_fract_z
Si Si1 0.991556 0.500000 0.213645
Si Si2 0.978182 0.000000 0.692541
Si Si3 0.835915 0.000000 0.184674
Si Si4 0.695299 0.000000 0.765316
Si Si5 0.257394 0.262080 0.221429
Si Si6 0.569056 0.239938 0.212683
O O1 0.895595 0.500000 0.206840
O O2 0.036310 0.625749 0.306692
O O3 0.000000 0.500000 0.000000
O O4 0.073575 0.000000 0.844662
O O5 0.000000 0.000000 0.500000
O O6 0.932498 0.124784 0.708104
O O7 0.819354 0.122271 0.288477
O O8 0.766249 0.000000 0.975292
O O9 0.709826 0.131202 0.680099
O O10 0.163294 0.288981 0.218015
O O11 0.250000 0.250000 0.000000
O O12 0.500000 0.247176 0.000000
#
# Coordination Sequence:
#
# PCOD9169796 Si02
#       6
#     4   4   4   4   8   8
#     4  10  18  31  56  91 116 136 176 236 294 347
#     4  12  26  41  55  80 118 162 204 238 275 336
#     4  10  18  34  53  73 109 149 180 229 281 327
#     4  10  17  28  48  82 112 135 169 223 282 336
#     4  10  18  30  53  85 112 138 176 227 285 342
#     4  11  20  36  61  89 115 147 186 238 295 347
#
# _framework density 25.012823999999998
#
# number of rings (size 3 to 8) (size 9 to 14) (size 15 to 20)
#    0.000    1.500    0.000   12.375    0.000    0.000 
#    0.000    1.875    0.000    0.000    0.000    0.000 
#    0.000    0.000    0.000    0.000    0.000    0.000 
#
# Total GULP energy -89555.145668 kJ/mol
# GULP energy per Si atom -5597.196604 kJ/mol
# Density = 2.495589 g / cm^3
# Si number density = 25.012824 Si / 1000 Ang^3
#
#
#
# Elastic Constant Matrix: (Units=GPa)
#
#
# Indices 1 2 3 4 5 6 
#
# 1 129.8596 -14.7309 3.7994 0.0000 1.9202 0.0000
# 2 -14.7309 191.5553 -0.4756 0.0000 8.2767 0.0000
# 3 3.7994 -0.4756 57.7082 0.0000 13.4928 0.0000
# 4 0.0000 0.0000 0.0000 -65.6379 0.0000 -4.7245
# 5 1.9202 8.2767 13.4928 0.0000 22.8186 0.0000
# 6 0.0000 0.0000 0.0000 -4.7245 0.0000 43.0686
#
#
#
# Elastic Compliance Matrix: (Units=1/GPa)
#
#
# Indices 1 2 3 4 5 6 
#
# 1 0.007792 0.000628 -0.000350 0.000000 -0.000677 0.000000
# 2 0.000628 0.005370 0.000546 0.000000 -0.002324 0.000000
# 3 -0.000350 0.000546 0.020186 0.000000 -0.012105 0.000000
# 4 0.000000 0.000000 0.000000 -0.015116 0.000000 -0.001658
# 5 -0.000677 -0.002324 -0.012105 0.000000 0.051881 0.000000
# 6 0.000000 0.000000 0.000000 -0.001658 0.000000 0.023037
#
#
# Mechanical properties :
#
#
# Convention : Reuss Voigt Hill
#
# Bulk Modulus (GPa) = 28.57365 39.58986 34.08176
# Shear Modulus (GPa) = 48.46429 26.08521 37.27475
#
# Velocity S-wave (km/s) = 4.40657 3.23286 3.86453
# Velocity P-wave (km/s) = 6.11055 5.45870 5.79380
#
# Compressibility (1/GPa) = 0.03499728
#
# Stress axis : x y z
#
# Youngs Moduli (GPa) = 128.33592 186.20421 49.53839
#
# Poissons Ratio (x) = -0.11686 0.01732
# Poissons Ratio (y) = -0.08054 -0.02706
# Poissons Ratio (z) = 0.04487 -0.10172
#
# Static dielectric constant tensor:
#      x y z
#    x 1.976940 0.000000 0.127380 
#    y 0.000000 2.025680 0.000000 
#    z 0.127380 0.000000 2.113980 
# 
# From -- ./inp_files/56952.got.cif
#   From: 2010.05.17/outbox.cif.g08.bks.cpg/sg12_29_cif.got.tgz:56952.got - 2010.06.03 13:09:07.
