data_PCOD9169940
_publ_section_title
;
Structure prediction by ZEFSAII (Michael W. Deem and Ramdas Pophale) SiO2 
 PCOD9169940
Probable space group: C 2/M
;
_chemical_formula_sum "Si O2"
_cell_formula_units_Z 64
_cell_length_a 23.046321
_cell_length_b 26.867443
_cell_length_c 16.650871
_cell_angle_alpha 90.000000
_cell_angle_beta 159.595088
_cell_angle_gamma 90.000000
_cell_volume 3594.657838
_symmetry_space_group_name_H-M "C 2/M"
_symmetry_group_IT_number 12
_symmetry_cell_setting 'monoclinic'
loop_
_space_group_symop_operation_xyz
x,y,z
-x,y,-z
-x,-y,-z
x,-y,z
1/2+x,1/2+y,z
1/2-x,1/2+y,-z
1/2-x,1/2-y,-z
1/2+x,1/2-y,z
loop_
_atom_site_type_symbol
_atom_site_label
_atom_site_fract_x
_atom_site_fract_y
_atom_site_fract_z
Si Si1 0.603390 0.301799 0.215368
Si Si2 0.328415 0.901065 0.726469
Si Si3 0.007476 0.442707 0.808943
Si Si4 0.952926 0.341163 0.662920
Si Si5 0.652201 0.441860 0.648225
Si Si6 0.910172 0.742219 0.264593
Si Si7 0.767134 0.204786 0.363521
Si Si8 0.638832 0.767201 0.027061
O O1 0.754150 0.339779 0.420377
O O2 0.706720 0.251055 0.336570
O O3 0.470204 0.283476 0.108203
O O4 0.500000 0.312968 0.000000
O O5 0.368877 0.930329 0.697606
O O6 0.192424 0.921520 0.612459
O O7 0.272033 0.844812 0.639959
O O8 0.500000 0.901543 0.000000
O O9 0.990417 0.500000 0.759348
O O10 0.004274 0.398576 0.739503
O O11 0.182928 0.438065 0.083586
O O12 0.003705 0.310586 0.647585
O O13 0.049242 0.307919 0.854982
O O14 0.500000 0.418045 0.500000
O O15 0.615319 0.500000 0.588967
O O16 0.043975 0.784486 0.416368
O O17 0.750000 0.750000 0.000000
O O18 0.821975 0.750715 0.235341
O O19 0.661444 0.208205 0.143899
#
# Coordination Sequence:
#
# PCOD9169940 Si02
#       8
#     8   8   8   8   8   8   8   8
#     4   9  18  31  48  68  92 120 150 185 230 287
#     4  10  18  29  46  69  94 126 161 192 228 276
#     4  10  20  33  49  67  90 125 168 207 237 271
#     4  10  19  32  47  67  95 122 155 195 240 283
#     4   9  18  31  45  64  92 124 158 195 233 273
#     4   9  20  31  42  65  97 128 159 191 228 278
#     4  10  18  29  45  68  97 125 154 185 226 279
#     4  10  17  29  48  71  97 124 153 187 229 287
#
# _framework density 17.804198
#
# number of rings (size 3 to 8) (size 9 to 14) (size 15 to 20)
#    0.000    2.375    0.000    4.500    0.000    6.500 
#    0.000    0.000    0.000    0.375    0.000    0.000 
#    0.000   13.000    0.000    0.000    0.000    0.000 
#
# Total GULP energy -178296.651348 kJ/mol
# GULP energy per Si atom -5571.770355 kJ/mol
# Density = 1.776367 g / cm^3
# Si number density = 17.804198 Si / 1000 Ang^3
#
#
#
# Elastic Constant Matrix: (Units=GPa)
#
#
# Indices 1 2 3 4 5 6 
#
# 1 60.4349 16.7700 12.3849 0.0000 25.8570 0.0000
# 2 16.7700 79.9005 12.7568 0.0000 -0.8704 0.0000
# 3 12.3849 12.7568 63.4553 0.0000 19.7290 0.0000
# 4 0.0000 0.0000 0.0000 19.0702 0.0000 0.8469
# 5 25.8570 -0.8704 19.7290 0.0000 30.5775 0.0000
# 6 0.0000 0.0000 0.0000 0.8469 0.0000 20.7444
#
#
#
# Elastic Compliance Matrix: (Units=1/GPa)
#
#
# Indices 1 2 3 4 5 6 
#
# 1 0.029710 -0.007248 0.004421 0.000000 -0.028182 0.000000
# 2 -0.007248 0.014861 -0.004516 0.000000 0.009466 0.000000
# 3 0.004421 -0.004516 0.021274 0.000000 -0.017593 0.000000
# 4 0.000000 0.000000 0.000000 0.052533 0.000000 -0.002145
# 5 -0.028182 0.009466 -0.017593 0.000000 0.068156 0.000000
# 6 0.000000 0.000000 0.000000 -0.002145 0.000000 0.048293
#
#
# Mechanical properties :
#
#
# Convention : Reuss Voigt Hill
#
# Bulk Modulus (GPa) = 19.54759 31.95712 25.75235
# Shear Modulus (GPa) = 18.75699 24.87035 21.81367
#
# Velocity S-wave (km/s) = 3.24931 3.74154 3.50408
# Velocity P-wave (km/s) = 5.00803 6.05423 5.55581
#
# Compressibility (1/GPa) = 0.05115721
#
# Stress axis : x y z
#
# Youngs Moduli (GPa) = 33.65902 67.28991 47.00545
#
# Poissons Ratio (x) = 0.48775 -0.20780
# Poissons Ratio (y) = 0.24398 0.21228
# Poissons Ratio (z) = -0.14880 0.30389
#
# Static dielectric constant tensor:
#      x y z
#    x 1.727300 0.000000 0.020610 
#    y 0.000000 1.618360 0.000000 
#    z 0.020610 0.000000 1.655470 
# 
# From -- ./inp_files/78801.got.cif
#   From: 2010.05.17/outbox.cif.g08.bks.cpg/sg12_40_cif.got.tgz:78801.got - 2010.06.03 13:09:07.
