data_PCOD9169606
_publ_section_title
;
Structure prediction by ZEFSAII (Michael W. Deem and Ramdas Pophale) SiO2 
 PCOD9169606
Probable space group: C 2/M
;
_chemical_formula_sum "Si O2"
_cell_formula_units_Z 64
_cell_length_a 20.598621
_cell_length_b 7.436857
_cell_length_c 24.823215
_cell_angle_alpha 90.000000
_cell_angle_beta 128.988740
_cell_angle_gamma 90.000000
_cell_volume 2955.679243
_symmetry_space_group_name_H-M "C 2/M"
_symmetry_group_IT_number 12
_symmetry_cell_setting 'monoclinic'
loop_
_space_group_symop_operation_xyz
x,y,z
-x,y,-z
-x,-y,-z
x,-y,z
1/2+x,1/2+y,z
1/2-x,1/2+y,-z
1/2-x,1/2-y,-z
1/2+x,1/2-y,z
loop_
_atom_site_type_symbol
_atom_site_label
_atom_site_fract_x
_atom_site_fract_y
_atom_site_fract_z
Si Si1 0.245402 0.786150 0.320678
Si Si2 0.086824 0.285767 0.879907
Si Si3 0.005788 0.784825 0.942272
Si Si4 0.799338 0.282171 0.151945
Si Si5 0.824793 0.220130 0.827697
Si Si6 0.453859 0.781962 0.311209
Si Si7 0.434349 0.215653 0.725442
Si Si8 0.570136 0.779785 0.578435
O O1 0.227671 0.717968 0.250963
O O2 0.161062 0.757383 0.310361
O O3 0.335588 0.721390 0.387455
O O4 0.254170 0.000000 0.320347
O O5 0.086303 0.500000 0.873043
O O6 0.080121 0.252698 0.939814
O O7 0.166724 0.217925 0.887951
O O8 0.002836 0.217365 0.805170
O O9 0.919641 0.720969 0.870443
O O10 0.003121 0.000000 0.944687
O O11 0.000000 0.715379 0.000000
O O12 0.793716 0.500000 0.146272
O O13 0.714427 0.221339 0.135986
O O14 0.872107 0.237342 0.233147
O O15 0.823934 0.000000 0.826952
O O16 0.532218 0.723272 0.315541
O O17 0.448506 0.721211 0.369885
O O18 0.455203 0.000000 0.314068
O O19 0.440445 0.000000 0.729180
O O20 0.500000 0.719456 0.500000
O O21 0.568198 0.000000 0.577200
#
# Coordination Sequence:
#
# PCOD9169606 Si02
#       8
#     8   8   8   8   8   8   8   8
#     4  10  17  27  47  71  91 116 152 191 226 260
#     4   9  17  29  47  69  89 113 148 191 231 262
#     4  10  20  32  46  66  94 125 150 177 223 278
#     4   8  13  24  44  67  86 109 150 193 223 259
#     4   9  15  26  45  67  88 114 151 188 217 257
#     4   8  13  24  41  63  89 117 148 183 227 269
#     4   9  17  28  45  68  92 117 147 186 228 271
#     4   9  16  26  43  69  96 118 149 195 232 257
#
# _framework density 21.653227999999999
#
# number of rings (size 3 to 8) (size 9 to 14) (size 15 to 20)
#    0.000    3.000    2.500    1.500    0.000    0.250 
#    0.000    1.250    0.000    2.625    0.000    0.000 
#    0.000    0.000    0.000    0.000    0.000    0.000 
#
# Total GULP energy -178399.360417 kJ/mol
# GULP energy per Si atom -5574.980013 kJ/mol
# Density = 2.160394 g / cm^3
# Si number density = 21.653228 Si / 1000 Ang^3
#
#
#
# Elastic Constant Matrix: (Units=GPa)
#
#
# Indices 1 2 3 4 5 6 
#
# 1 110.4132 -8.9440 -30.1692 0.0000 -27.5645 0.0000
# 2 -8.9440 63.4919 -2.2927 -0.0001 0.7614 0.0000
# 3 -30.1692 -2.2927 -22.1171 0.0000 -19.8250 0.0000
# 4 0.0000 -0.0001 0.0000 -13.5146 0.0000 14.1010
# 5 -27.5645 0.7614 -19.8250 0.0000 26.7203 0.0000
# 6 0.0000 0.0000 0.0000 14.1010 0.0000 -1.7817
#
#
#
# Elastic Compliance Matrix: (Units=1/GPa)
#
#
# Indices 1 2 3 4 5 6 
#
# 1 0.006621 0.000603 -0.009129 0.000000 0.000040 0.000000
# 2 0.000603 0.015790 -0.001569 0.000000 -0.000993 0.000000
# 3 -0.009129 -0.001569 -0.014532 0.000000 -0.020155 0.000000
# 4 0.000000 0.000000 0.000000 0.010195 0.000000 0.080688
# 5 0.000040 -0.000993 -0.020155 0.000000 0.022540 0.000000
# 6 0.000000 0.000000 0.000000 0.080688 0.000000 0.077333
#
#
# Mechanical properties :
#
#
# Convention : Reuss Voigt Hill
#
# Bulk Modulus (GPa) = -81.21806 7.66404 -36.77701
# Shear Modulus (GPa) = 37.30366 15.16439 26.23403
#
# Velocity S-wave (km/s) = 4.15514 2.64924 3.48451
# Velocity P-wave (km/s) = 3.81703 3.59237 0.91231
#
# Compressibility (1/GPa) = -0.01231253
#
# Stress axis : x y z
#
# Youngs Moduli (GPa) = 151.03337 63.33058 -68.81432
#
# Poissons Ratio (x) = -0.03816 -0.62824
# Poissons Ratio (y) = -0.09101 -0.10797
# Poissons Ratio (z) = 1.37885 0.09937
#
# Static dielectric constant tensor:
#      x y z
#    x 1.819800 0.000000 -0.012730 
#    y 0.000000 1.849220 0.000000 
#    z -0.012730 0.000000 1.772740 
# 
# From -- ./inp_files/315363.got.cif
#   From: 2010.05.17/outbox.cif.g08.bks.cpg/sg12_158_cif.got.tgz:315363.got - 2010.06.03 13:09:07.
