data_PCOD9169704
_publ_section_title
;
Structure prediction by ZEFSAII (Michael W. Deem and Ramdas Pophale) SiO2 
 PCOD9169704
Probable space group: C 2/M
;
_chemical_formula_sum "Si O2"
_cell_formula_units_Z 64
_cell_length_a 20.641665
_cell_length_b 7.515851
_cell_length_c 21.832302
_cell_angle_alpha 90.000000
_cell_angle_beta 128.861358
_cell_angle_gamma 90.000000
_cell_volume 2637.387247
_symmetry_space_group_name_H-M "C 2/M"
_symmetry_group_IT_number 12
_symmetry_cell_setting 'monoclinic'
loop_
_space_group_symop_operation_xyz
x,y,z
-x,y,-z
-x,-y,-z
x,-y,z
1/2+x,1/2+y,z
1/2-x,1/2+y,-z
1/2-x,1/2-y,-z
1/2+x,1/2-y,z
loop_
_atom_site_type_symbol
_atom_site_label
_atom_site_fract_x
_atom_site_fract_y
_atom_site_fract_z
Si Si1 0.854889 0.281229 0.960310
Si Si2 0.978841 0.748900 0.131187
Si Si3 0.588902 0.212371 0.574476
Si Si4 0.327961 0.705681 0.115243
Si Si5 0.158910 0.301582 0.184980
Si Si6 0.433517 0.217119 0.695260
Si Si7 0.735851 0.213079 0.354705
Si Si8 0.586186 0.785809 0.708716
O O1 0.868158 0.500000 0.967961
O O2 0.767913 0.242058 0.942273
O O3 0.844195 0.219670 0.883960
O O4 0.931590 0.193958 0.041165
O O5 0.893764 0.683330 0.114626
O O6 0.064074 0.679476 0.151952
O O7 0.021890 0.811069 0.220484
O O8 0.500000 0.282697 0.500000
O O9 0.668293 0.242897 0.578555
O O10 0.606695 0.281209 0.653481
O O11 0.580158 0.000000 0.574851
O O12 0.337306 0.500000 0.100768
O O13 0.356566 0.715042 0.203002
O O14 0.194190 0.500000 0.197101
O O15 0.208142 0.215720 0.270918
O O16 0.336485 0.266560 0.640597
O O17 0.490310 0.254876 0.670402
O O18 0.440114 0.000000 0.709926
O O19 0.730123 0.000000 0.347790
O O20 0.595216 0.000000 0.715408
#
# Coordination Sequence:
#
# PCOD9169704 Si02
#       8
#     8   8   8   8   8   8   8   8
#     4  10  18  28  45  71 101 133 173 218 258 294
#     4  10  17  28  45  68  98 131 167 207 254 299
#     4  10  21  36  54  79 109 134 156 191 243 300
#     4  10  21  34  49  72 102 133 166 212 261 297
#     4   9  17  29  49  75  99 129 172 219 255 286
#     4   8  15  29  50  73  94 125 171 213 241 275
#     4   9  17  32  53  75 100 130 167 208 247 290
#     4   9  18  35  57  75  95 131 173 203 236 295
#
# _framework density 24.266441
#
# number of rings (size 3 to 8) (size 9 to 14) (size 15 to 20)
#    0.000    2.625    0.000    3.375    0.000    3.750 
#    0.000    6.875    0.000    3.000    0.000    0.000 
#    0.000    0.000    0.000    0.000    0.000    0.000 
#
# Total GULP energy -178142.312920 kJ/mol
# GULP energy per Si atom -5566.947279 kJ/mol
# Density = 2.421121 g / cm^3
# Si number density = 24.266441 Si / 1000 Ang^3
#
#
#
# Elastic Constant Matrix: (Units=GPa)
#
#
# Indices 1 2 3 4 5 6 
#
# 1 125.5917 7.8922 20.4266 0.0000 36.1637 0.0000
# 2 7.8922 80.5148 -1.7380 0.0000 1.4548 -0.0001
# 3 20.4266 -1.7380 39.2242 0.0000 41.0061 0.0000
# 4 0.0000 0.0000 0.0000 17.5503 0.0000 24.9311
# 5 36.1637 1.4548 41.0061 0.0000 46.0174 0.0000
# 6 0.0000 -0.0001 0.0000 24.9311 0.0000 49.7858
#
#
#
# Elastic Compliance Matrix: (Units=1/GPa)
#
#
# Indices 1 2 3 4 5 6 
#
# 1 0.022355 0.001913 0.100446 0.000000 -0.107136 0.000000
# 2 0.001913 0.013144 0.023272 0.000000 -0.022656 0.000000
# 3 0.100446 0.023272 0.840558 0.000000 -0.828694 0.000000
# 4 0.000000 0.000000 0.000000 0.197411 0.000000 -0.098857
# 5 -0.107136 -0.022656 -0.828694 0.000000 0.845090 0.000000
# 6 0.000000 0.000000 0.000000 -0.098857 0.000000 0.069590
#
#
# Mechanical properties :
#
#
# Convention : Reuss Voigt Hill
#
# Bulk Modulus (GPa) = 0.88706 33.16583 17.02645
# Shear Modulus (GPa) = 2.36668 37.25403 19.81036
#
# Velocity S-wave (km/s) = 0.98864 3.92242 2.86032
# Velocity P-wave (km/s) = 1.29211 5.84901 4.23559
#
# Compressibility (1/GPa) = 1.12731800
#
# Stress axis : x y z
#
# Youngs Moduli (GPa) = 44.73362 76.07866 1.18969
#
# Poissons Ratio (x) = -0.14552 -0.11950
# Poissons Ratio (y) = -0.08557 -0.02769
# Poissons Ratio (z) = -4.49331 -1.77049
#
# Static dielectric constant tensor:
#      x y z
#    x 1.918090 0.000000 -0.000340 
#    y 0.000000 2.046210 0.000000 
#    z -0.000340 0.000000 1.920750 
# 
# From -- ./inp_files/346166.got.cif
#   From: 2010.05.17/outbox.cif.g08.bks.cpg/sg12_174_cif.got.tgz:346166.got - 2010.06.03 13:09:07.
