data_PCOD9169085
_publ_section_title
;
Structure prediction by ZEFSAII (Michael W. Deem and Ramdas Pophale) SiO2 
 PCOD9169085
Probable space group: C 2/M
;
_chemical_formula_sum "Si O2"
_cell_formula_units_Z 36
_cell_length_a 13.159862
_cell_length_b 9.645280
_cell_length_c 11.547804
_cell_angle_alpha 90.000000
_cell_angle_beta 82.631813
_cell_angle_gamma 90.000000
_cell_volume 1453.665600
_symmetry_space_group_name_H-M "C 2/M"
_symmetry_group_IT_number 12
_symmetry_cell_setting 'monoclinic'
loop_
_space_group_symop_operation_xyz
x,y,z
-x,y,-z
-x,-y,-z
x,-y,z
1/2+x,1/2+y,z
1/2-x,1/2+y,-z
1/2-x,1/2-y,-z
1/2+x,1/2-y,z
loop_
_atom_site_type_symbol
_atom_site_label
_atom_site_fract_x
_atom_site_fract_y
_atom_site_fract_z
Si Si1 0.395509 0.839863 0.413816
Si Si2 0.500000 0.000000 0.000000
Si Si3 0.000000 0.000000 0.000000
Si Si4 0.157112 0.840327 0.366514
Si Si5 0.463674 0.230683 0.162765
Si Si6 0.259288 0.655554 0.888036
O O1 0.275647 0.841673 0.393104
O O2 0.395785 0.764795 0.537594
O O3 0.456055 0.762508 0.302188
O O4 0.428204 0.000000 0.411825
O O5 0.463286 0.878303 0.912048
O O6 0.972325 0.122656 0.099818
O O7 0.167696 0.802329 0.228866
O O8 0.119654 0.000000 0.380164
O O9 0.355023 0.154389 0.146560
O O10 0.292252 0.500000 0.919364
O O11 0.250000 0.750000 0.000000
#
# Coordination Sequence:
#
# PCOD9169085 Si02
#       6
#     8   2   2   8   8   8
#     4   9  15  27  47  69  97 127 158 201 250 302
#     4  10  16  34  54  64 102 134 166 206 258 286
#     4  10  24  30  50  76 102 130 178 210 246 290
#     4   8  16  28  43  69 100 128 156 194 251 298
#     4  10  19  34  49  77 101 132 166 212 251 294
#     4  10  20  34  52  75 106 137 163 200 250 305
#
# _framework density 24.764979
#
# number of rings (size 3 to 8) (size 9 to 14) (size 15 to 20)
#    0.000    2.667    2.222    1.333    3.111    0.889 
#    4.000    0.000    0.000    0.000    0.000    9.333 
#    0.000    0.000    0.000    0.000    0.000    0.000 
#
# Total GULP energy -100203.393626 kJ/mol
# GULP energy per Si atom -5566.855201 kJ/mol
# Density = 2.470861 g / cm^3
# Si number density = 24.764979 Si / 1000 Ang^3
#
#
#
# Elastic Constant Matrix: (Units=GPa)
#
#
# Indices 1 2 3 4 5 6 
#
# 1 53.4030 -2.6392 13.6396 0.0000 -15.7071 0.0000
# 2 -2.6392 240.6431 143.3831 0.0000 -23.6331 0.0000
# 3 13.6396 143.3831 285.7734 0.0000 -14.3690 0.0000
# 4 0.0000 0.0000 0.0000 43.4979 0.0000 3.7297
# 5 -15.7071 -23.6331 -14.3690 0.0000 46.6631 0.0000
# 6 0.0000 0.0000 0.0000 3.7297 0.0000 -1.1087
#
#
#
# Elastic Compliance Matrix: (Units=1/GPa)
#
#
# Indices 1 2 3 4 5 6 
#
# 1 0.021512 0.001962 -0.001622 0.000000 0.007735 0.000000
# 2 0.001962 0.006320 -0.003119 0.000000 0.002901 0.000000
# 3 -0.001622 -0.003119 0.005114 0.000000 -0.000551 0.000000
# 4 0.000000 0.000000 0.000000 0.017843 0.000000 0.060024
# 5 0.007735 0.002901 -0.000551 0.000000 0.025334 0.000000
# 6 0.000000 0.000000 0.000000 0.060024 0.000000 -0.700036
#
#
# Mechanical properties :
#
#
# Convention : Reuss Voigt Hill
#
# Bulk Modulus (GPa) = 36.51209 98.73181 67.62195
# Shear Modulus (GPa) = -8.20714 46.17285 18.98286
#
# Velocity S-wave (km/s) = -1.82242 4.32260 2.77161
# Velocity P-wave (km/s) = 3.21670 8.05402 6.13247
#
# Compressibility (1/GPa) = 0.02738819
#
# Stress axis : x y z
#
# Youngs Moduli (GPa) = 46.48565 158.21985 195.54612
#
# Poissons Ratio (x) = -0.31046 0.31724
# Poissons Ratio (y) = -0.09122 0.60989
# Poissons Ratio (z) = 0.07541 0.49348
#
# Static dielectric constant tensor:
#      x y z
#    x 2.238840 0.000000 -0.000180 
#    y 0.000000 1.874820 0.000000 
#    z -0.000180 0.000000 2.037860 
# 
# From -- ./inp_files/151587.got.cif
#   From: 2010.05.17/outbox.cif.g08.bks.cpg/sg12_76_cif.got.tgz:151587.got - 2010.06.03 13:09:07.
