data_PCOD9169759
_publ_section_title
;
Structure prediction by ZEFSAII (Michael W. Deem and Ramdas Pophale) SiO2 
 PCOD9169759
Probable space group: C 2/M
;
_chemical_formula_sum "Si O2"
_cell_formula_units_Z 64
_cell_length_a 15.432958
_cell_length_b 26.134099
_cell_length_c 11.986132
_cell_angle_alpha 90.000000
_cell_angle_beta 49.925278
_cell_angle_gamma 90.000000
_cell_volume 3699.251405
_symmetry_space_group_name_H-M "C 2/M"
_symmetry_group_IT_number 12
_symmetry_cell_setting 'monoclinic'
loop_
_space_group_symop_operation_xyz
x,y,z
-x,y,-z
-x,-y,-z
x,-y,z
1/2+x,1/2+y,z
1/2-x,1/2+y,-z
1/2-x,1/2-y,-z
1/2+x,1/2-y,z
loop_
_atom_site_type_symbol
_atom_site_label
_atom_site_fract_x
_atom_site_fract_y
_atom_site_fract_z
Si Si1 0.016826 0.196690 0.749762
Si Si2 0.079179 0.884370 0.341641
Si Si3 0.259820 0.189951 0.668803
Si Si4 0.428622 0.810049 0.331197
Si Si5 0.418112 0.865137 0.964687
Si Si6 0.117201 0.865137 0.964687
Si Si7 0.276715 0.559368 0.946570
Si Si8 0.233412 0.696689 0.749762
O O1 0.144613 0.192588 0.690121
O O2 0.012075 0.254417 0.709182
O O3 0.991364 0.153564 0.680122
O O4 0.926630 0.182643 0.922174
O O5 0.137503 0.929028 0.224990
O O6 0.171485 0.846436 0.319876
O O7 0.000000 0.906745 0.500000
O O8 0.363886 0.177513 0.500000
O O9 0.218230 0.151911 0.799521
O O10 0.278745 0.245583 0.709180
O O11 0.517751 0.848089 0.200478
O O12 0.334733 0.807412 0.309880
O O13 0.500000 0.880276 0.000000
O O14 0.335028 0.910389 0.999183
O O15 0.348805 0.817357 0.077826
O O16 0.165790 0.910389 0.999181
O O17 0.000000 0.880275 0.000000
O O18 0.258635 0.500000 0.982730
#
# Coordination Sequence:
#
# PCOD9169759 Si02
#       8
#     8   8   8   8   8   8   8   8
#     4   9  17  29  46  72 104 135 158 184 230 290
#     4  10  18  30  49  74 100 121 152 201 251 291
#     4  10  17  28  47  72 103 135 165 191 223 275
#     4  10  17  28  47  72 103 135 165 191 223 275
#     4   9  19  34  52  72  98 131 163 198 241 289
#     4   9  19  34  52  72  98 131 163 198 241 289
#     4  10  22  38  54  71  91 122 167 211 251 295
#     4   9  17  29  46  72 104 135 158 184 230 290
#
# _framework density 17.300796999999999
#
# number of rings (size 3 to 8) (size 9 to 14) (size 15 to 20)
#    0.000    2.500    0.000    3.750    0.000    4.750 
#    0.000    5.625    0.000    1.500    0.000    0.000 
#    0.000    0.000    0.000    0.000    0.000    0.000 
#
# Total GULP energy -178257.646192 kJ/mol
# GULP energy per Si atom -5570.551443 kJ/mol
# Density = 1.726142 g / cm^3
# Si number density = 17.300797 Si / 1000 Ang^3
#
#
#
# Elastic Constant Matrix: (Units=GPa)
#
#
# Indices 1 2 3 4 5 6 
#
# 1 29.3841 25.7088 31.0332 0.0000 -0.7126 0.0000
# 2 25.7088 77.5818 59.6293 0.0000 -2.2029 0.0000
# 3 31.0332 59.6293 170.9738 0.0000 -8.4813 0.0000
# 4 0.0000 0.0000 0.0000 4.9744 0.0000 0.2030
# 5 -0.7126 -2.2029 -8.4813 0.0000 5.1756 0.0000
# 6 0.0000 0.0000 0.0000 0.2030 0.0000 8.1040
#
#
#
# Elastic Compliance Matrix: (Units=1/GPa)
#
#
# Indices 1 2 3 4 5 6 
#
# 1 0.050592 -0.013173 -0.004921 0.000000 -0.006705 0.000000
# 2 -0.013173 0.021077 -0.005012 0.000000 -0.001056 0.000000
# 3 -0.004921 -0.005012 0.009090 0.000000 0.012084 0.000000
# 4 0.000000 0.000000 0.000000 0.201237 0.000000 -0.005040
# 5 -0.006705 -0.001056 0.012084 0.000000 0.211646 0.000000
# 6 0.000000 0.000000 0.000000 -0.005040 0.000000 0.123521
#
#
# Mechanical properties :
#
#
# Convention : Reuss Voigt Hill
#
# Bulk Modulus (GPa) = 28.94698 56.74248 42.84473
# Shear Modulus (GPa) = 7.40859 14.42201 10.91530
#
# Velocity S-wave (km/s) = 2.07160 2.89035 2.51452
# Velocity P-wave (km/s) = 4.74236 6.63383 5.76618
#
# Compressibility (1/GPa) = 0.03454592
#
# Stress axis : x y z
#
# Youngs Moduli (GPa) = 19.76591 47.44431 110.01461
#
# Poissons Ratio (x) = 0.62498 0.54142
# Poissons Ratio (y) = 0.26038 0.55144
# Poissons Ratio (z) = 0.09727 0.23781
#
# Static dielectric constant tensor:
#      x y z
#    x 1.618470 0.000000 -0.000620 
#    y 0.000000 1.530150 0.000000 
#    z -0.000620 0.000000 1.627970 
# 
# From -- ./inp_files/160284.got.cif
#   From: 2010.05.17/outbox.cif.g08.bks.cpg/sg12_81_cif.got.tgz:160284.got - 2010.06.03 13:09:07.
