data_PCOD9169974
_publ_section_title
;
Structure prediction by ZEFSAII (Michael W. Deem and Ramdas Pophale) SiO2 
 PCOD9169974
Probable space group: C 2/M
;
_chemical_formula_sum "Si O2"
_cell_formula_units_Z 56
_cell_length_a 17.281089
_cell_length_b 17.188234
_cell_length_c 8.052849
_cell_angle_alpha 90.000000
_cell_angle_beta 67.729597
_cell_angle_gamma 90.000000
_cell_volume 2213.523043
_symmetry_space_group_name_H-M "C 2/M"
_symmetry_group_IT_number 12
_symmetry_cell_setting 'monoclinic'
loop_
_space_group_symop_operation_xyz
x,y,z
-x,y,-z
-x,-y,-z
x,-y,z
1/2+x,1/2+y,z
1/2-x,1/2+y,-z
1/2-x,1/2-y,-z
1/2+x,1/2-y,z
loop_
_atom_site_type_symbol
_atom_site_label
_atom_site_fract_x
_atom_site_fract_y
_atom_site_fract_z
Si Si1 0.117235 0.909815 0.802616
Si Si2 0.461684 0.084657 0.344495
Si Si3 0.268570 0.908894 0.217840
Si Si4 0.630362 0.316991 0.488560
Si Si5 0.689830 0.142144 0.367859
Si Si6 0.397507 0.171243 0.911503
Si Si7 0.382592 0.651194 0.862395
O O1 0.085038 0.849168 0.688662
O O2 0.214889 0.882858 0.736867
O O3 0.111370 0.000000 0.754688
O O4 0.081376 0.899889 0.018029
O O5 0.500000 0.090050 0.500000
O O6 0.363783 0.089710 0.462391
O O7 0.506107 0.151576 0.202253
O O8 0.484257 0.000000 0.256177
O O9 0.215740 0.867517 0.404167
O O10 0.206548 0.886381 0.114691
O O11 0.271953 0.000000 0.233916
O O12 0.356874 0.872775 0.098632
O O13 0.664263 0.229232 0.451424
O O14 0.583334 0.335303 0.352843
O O15 0.647967 0.140410 0.218558
O O16 0.377369 0.262059 0.940100
#
# Coordination Sequence:
#
# PCOD9169974 Si02
#       7
#     8   8   8   8   8   8   8
#     4  12  21  31  54  81 107 136 171 216 267 310
#     4   9  18  29  49  80 109 140 179 213 250 305
#     4  10  17  29  49  73 104 135 166 212 261 298
#     4   9  21  34  50  75 108 139 172 213 261 313
#     4  10  18  32  48  74 110 142 172 213 255 312
#     4  10  17  31  50  74 108 143 173 211 256 310
#     4   9  20  33  51  76 105 140 173 211 260 314
#
# _framework density 25.299033999999999
#
# number of rings (size 3 to 8) (size 9 to 14) (size 15 to 20)
#    0.857    1.286    1.429    3.429    0.000    1.143 
#    0.000    0.000    0.000    3.429    0.000   12.000 
#    0.000    0.000    0.000    0.000    0.000    0.000 
#
# Total GULP energy -156368.955305 kJ/mol
# GULP energy per Si atom -5584.605547 kJ/mol
# Density = 2.524145 g / cm^3
# Si number density = 25.299034 Si / 1000 Ang^3
#
#
#
# Elastic Constant Matrix: (Units=GPa)
#
#
# Indices 1 2 3 4 5 6 
#
# 1 81.4964 0.3720 -1.3368 0.0000 1.3748 0.0000
# 2 0.3720 106.2230 30.9952 0.0000 -6.8241 0.0000
# 3 -1.3368 30.9952 98.6813 0.0000 6.3904 0.0000
# 4 0.0000 0.0000 0.0000 38.9410 0.0000 -14.9256
# 5 1.3748 -6.8241 6.3904 0.0000 26.3135 0.0000
# 6 0.0000 0.0000 0.0000 -14.9256 0.0000 19.8393
#
#
#
# Elastic Compliance Matrix: (Units=1/GPa)
#
#
# Indices 1 2 3 4 5 6 
#
# 1 0.012288 -0.000170 0.000268 0.000000 -0.000751 0.000000
# 2 -0.000170 0.010700 -0.003600 0.000000 0.003658 0.000000
# 3 0.000268 -0.003600 0.011510 0.000000 -0.003743 0.000000
# 4 0.000000 0.000000 0.000000 0.036085 0.000000 0.027148
# 5 -0.000751 0.003658 -0.003743 0.000000 0.039900 0.000000
# 6 0.000000 0.000000 0.000000 0.027148 0.000000 0.070829
#
#
# Mechanical properties :
#
#
# Convention : Reuss Voigt Hill
#
# Bulk Modulus (GPa) = 36.36838 38.49570 37.43204
# Shear Modulus (GPa) = 25.31882 34.11013 29.71447
#
# Velocity S-wave (km/s) = 3.16695 3.67587 3.43086
# Velocity P-wave (km/s) = 5.27061 5.76761 5.52470
#
# Compressibility (1/GPa) = 0.02749641
#
# Stress axis : x y z
#
# Youngs Moduli (GPa) = 81.37805 93.45584 86.87788
#
# Poissons Ratio (x) = 0.01585 -0.02332
# Poissons Ratio (y) = 0.01380 0.31277
# Poissons Ratio (z) = -0.02184 0.33645
#
# Static dielectric constant tensor:
#      x y z
#    x 2.074630 0.000000 0.034550 
#    y 0.000000 1.886780 0.000000 
#    z 0.034550 0.000000 2.036600 
# 
# From -- ./inp_files/97623.got.cif
#   From: 2010.05.17/outbox.cif.g08.bks.cpg/sg12_49_cif.got.tgz:97623.got - 2010.06.03 13:09:07.
