data_PCOD9169558
_publ_section_title
;
Structure prediction by ZEFSAII (Michael W. Deem and Ramdas Pophale) SiO2 
 PCOD9169558
Probable space group: C 2/M
;
_chemical_formula_sum "Si O2"
_cell_formula_units_Z 56
_cell_length_a 23.649673
_cell_length_b 20.555364
_cell_length_c 12.847273
_cell_angle_alpha 90.000000
_cell_angle_beta 150.957358
_cell_angle_gamma 90.000000
_cell_volume 3031.901503
_symmetry_space_group_name_H-M "C 2/M"
_symmetry_group_IT_number 12
_symmetry_cell_setting 'monoclinic'
loop_
_space_group_symop_operation_xyz
x,y,z
-x,y,-z
-x,-y,-z
x,-y,z
1/2+x,1/2+y,z
1/2-x,1/2+y,-z
1/2-x,1/2-y,-z
1/2+x,1/2-y,z
loop_
_atom_site_type_symbol
_atom_site_label
_atom_site_fract_x
_atom_site_fract_y
_atom_site_fract_z
Si Si1 0.900845 0.811440 0.424675
Si Si2 0.639196 0.175824 0.339609
Si Si3 0.128621 0.784494 0.175102
Si Si4 0.554181 0.076539 0.347673
Si Si5 0.174862 0.649003 0.954567
Si Si6 0.540490 0.731362 0.823526
Si Si7 0.371014 0.841666 0.341604
O O1 0.785606 0.849568 0.207845
O O2 0.869585 0.734351 0.368551
O O3 0.000000 0.824330 0.500000
O O4 0.963955 0.819594 0.636848
O O5 0.768239 0.183398 0.594281
O O6 0.637659 0.207439 0.222097
O O7 0.590496 0.106059 0.293991
O O8 0.553041 0.224445 0.264470
O O9 0.129555 0.794160 0.053343
O O10 0.000000 0.807781 0.000000
O O11 0.631777 0.113551 0.560759
O O12 0.568038 0.000000 0.375903
O O13 0.422064 0.098141 0.162818
O O14 0.110937 0.719715 0.862007
O O15 0.208209 0.642476 0.886412
O O16 0.500000 0.853658 0.500000
#
# Coordination Sequence:
#
# PCOD9169558 Si02
#       7
#     8   8   8   8   8   8   8
#     4  11  18  27  43  73 106 133 161 207 265 304
#     4   9  17  32  47  72 101 127 165 205 257 301
#     4   9  18  29  49  74 103 129 153 206 262 313
#     4  10  20  34  53  74  99 136 177 212 244 295
#     4  10  19  29  46  69 105 135 164 210 257 301
#     4  10  17  27  45  71 100 132 160 200 255 311
#     4   9  16  29  44  71 100 131 161 205 253 296
#
# _framework density 18.470257
#
# number of rings (size 3 to 8) (size 9 to 14) (size 15 to 20)
#    0.000    2.286    5.714    1.286    0.000    2.571 
#    0.000    0.000    0.000   11.571    0.000    1.000 
#    0.000    0.000    0.000    0.000    0.000    0.571 
#
# Total GULP energy -156014.199458 kJ/mol
# GULP energy per Si atom -5571.935695 kJ/mol
# Density = 1.842822 g / cm^3
# Si number density = 18.470257 Si / 1000 Ang^3
#
#
#
# Elastic Constant Matrix: (Units=GPa)
#
#
# Indices 1 2 3 4 5 6 
#
# 1 37.1025 11.4213 25.8211 0.0000 -7.1583 0.0000
# 2 11.4213 55.4786 10.2873 0.0000 -3.2605 0.0000
# 3 25.8211 10.2873 127.1190 0.0000 -7.6822 0.0000
# 4 0.0000 0.0000 0.0000 12.1624 0.0000 -0.9581
# 5 -7.1583 -3.2605 -7.6822 0.0000 36.2474 0.0000
# 6 0.0000 0.0000 0.0000 -0.9581 0.0000 10.9568
#
#
#
# Elastic Compliance Matrix: (Units=1/GPa)
#
#
# Indices 1 2 3 4 5 6 
#
# 1 0.033874 -0.005548 -0.006136 0.000000 0.004890 0.000000
# 2 -0.005548 0.019274 -0.000399 0.000000 0.000553 0.000000
# 3 -0.006136 -0.000399 0.009188 0.000000 0.000699 0.000000
# 4 0.000000 0.000000 0.000000 0.082791 0.000000 0.007239
# 5 0.004890 0.000553 0.000699 0.000000 0.028752 0.000000
# 6 0.000000 0.000000 0.000000 0.007239 0.000000 0.091900
#
#
# Mechanical properties :
#
#
# Convention : Reuss Voigt Hill
#
# Bulk Modulus (GPa) = 26.20004 34.97327 30.58666
# Shear Modulus (GPa) = 16.51967 23.35134 19.93550
#
# Velocity S-wave (km/s) = 2.99388 3.55951 3.28888
# Velocity P-wave (km/s) = 5.11536 5.98912 5.56940
#
# Compressibility (1/GPa) = 0.03816788
#
# Stress axis : x y z
#
# Youngs Moduli (GPa) = 29.52098 51.88399 108.84177
#
# Poissons Ratio (x) = 0.28787 0.66787
# Poissons Ratio (y) = 0.16379 0.04346
# Poissons Ratio (z) = 0.18115 0.02072
#
# Static dielectric constant tensor:
#      x y z
#    x 1.750840 0.000000 -0.031750 
#    y 0.000000 1.600660 0.000000 
#    z -0.031750 0.000000 1.745560 
# 
# From -- ./inp_files/177934.got.cif
#   From: 2010.05.17/outbox.cif.g08.bks.cpg/sg12_89_cif.got.tgz:177934.got - 2010.06.03 13:09:07.
