data_PCOD9169570
_publ_section_title
;
Structure prediction by ZEFSAII (Michael W. Deem and Ramdas Pophale) SiO2 
 PCOD9169570
Probable space group: C 2/M
;
_chemical_formula_sum "Si O2"
_cell_formula_units_Z 48
_cell_length_a 34.175872
_cell_length_b 8.982210
_cell_length_c 10.543134
_cell_angle_alpha 90.000000
_cell_angle_beta 115.514855
_cell_angle_gamma 90.000000
_cell_volume 2920.835234
_symmetry_space_group_name_H-M "C 2/M"
_symmetry_group_IT_number 12
_symmetry_cell_setting 'monoclinic'
loop_
_space_group_symop_operation_xyz
x,y,z
-x,y,-z
-x,-y,-z
x,-y,z
1/2+x,1/2+y,z
1/2-x,1/2+y,-z
1/2-x,1/2-y,-z
1/2+x,1/2-y,z
loop_
_atom_site_type_symbol
_atom_site_label
_atom_site_fract_x
_atom_site_fract_y
_atom_site_fract_z
Si Si1 0.118024 0.821435 0.661733
Si Si2 0.976351 0.179365 0.098827
Si Si3 0.610304 0.179428 0.929675
Si Si4 0.205940 0.328401 0.089806
Si Si5 0.028849 0.180713 0.420571
Si Si6 0.706836 0.170655 0.782113
O O1 0.108555 0.750068 0.786380
O O2 0.078571 0.776587 0.514684
O O3 0.165093 0.765412 0.683949
O O4 0.118245 0.000000 0.675391
O O5 0.930297 0.259051 0.049876
O O6 0.006686 0.227508 0.258971
O O7 0.969992 0.000000 0.098649
O O8 0.000000 0.211635 0.000000
O O9 0.609549 0.000000 0.918071
O O10 0.657201 0.221646 0.054003
O O11 0.211735 0.500000 0.135914
O O12 0.246623 0.233905 0.193563
O O13 0.206826 0.324604 0.936629
O O14 0.000000 0.231020 0.500000
O O15 0.027909 0.000000 0.419844
O O16 0.701503 0.000000 0.736501
#
# Coordination Sequence:
#
# PCOD9169570 Si02
#       6
#     8   8   8   8   8   8
#     4  10  17  27  46  66  92 126 158 191 232 279
#     4  10  20  34  51  70  93 124 162 198 232 277
#     4  10  19  30  45  67  95 123 156 196 236 278
#     4   8  15  26  39  58  87 123 155 183 226 283
#     4   9  16  29  48  70  93 121 159 196 230 275
#     4   9  16  25  38  62  94 120 150 192 234 277
#
# _framework density 16.433655999999999
#
# number of rings (size 3 to 8) (size 9 to 14) (size 15 to 20)
#    0.000    2.667    1.667    2.500    0.000    5.000 
#    0.000    2.500    0.000    0.000    0.000    1.167 
#    0.000    0.000    0.000    0.000    0.000    0.000 
#
# Total GULP energy -133685.211697 kJ/mol
# GULP energy per Si atom -5570.217154 kJ/mol
# Density = 1.639625 g / cm^3
# Si number density = 16.433656 Si / 1000 Ang^3
#
#
#
# Elastic Constant Matrix: (Units=GPa)
#
#
# Indices 1 2 3 4 5 6 
#
# 1 146.6307 55.0950 63.5701 0.0000 34.5743 0.0000
# 2 55.0950 52.6021 26.8143 0.0000 13.4686 0.0000
# 3 63.5701 26.8143 64.4698 0.0000 12.4202 0.0000
# 4 0.0000 0.0000 0.0000 8.2735 0.0000 8.4505
# 5 34.5743 13.4686 12.4202 0.0000 25.9498 0.0000
# 6 0.0000 0.0000 0.0000 8.4505 0.0000 28.0308
#
#
#
# Elastic Compliance Matrix: (Units=1/GPa)
#
#
# Indices 1 2 3 4 5 6 
#
# 1 0.019391 -0.010462 -0.011938 0.000000 -0.014691 0.000000
# 2 -0.010462 0.031604 -0.002593 0.000000 -0.001223 0.000000
# 3 -0.011938 -0.002593 0.027581 0.000000 0.004051 0.000000
# 4 0.000000 0.000000 0.000000 0.174644 0.000000 -0.052650
# 5 -0.014691 -0.001223 0.004051 0.000000 0.056805 0.000000
# 6 0.000000 0.000000 0.000000 -0.052650 0.000000 0.051548
#
#
# Mechanical properties :
#
#
# Convention : Reuss Voigt Hill
#
# Bulk Modulus (GPa) = 34.97936 61.62905 48.30421
# Shear Modulus (GPa) = 11.87398 20.33237 16.10318
#
# Velocity S-wave (km/s) = 2.69093 3.52126 3.13372
# Velocity P-wave (km/s) = 5.56652 7.35632 6.52310
#
# Compressibility (1/GPa) = 0.02858829
#
# Stress axis : x y z
#
# Youngs Moduli (GPa) = 51.57083 31.64199 36.25704
#
# Poissons Ratio (x) = 0.33105 0.43285
# Poissons Ratio (y) = 0.53956 0.09400
# Poissons Ratio (z) = 0.61567 0.08204
#
# Static dielectric constant tensor:
#      x y z
#    x 1.565850 0.000000 0.024040 
#    y 0.000000 1.551920 0.000000 
#    z 0.024040 0.000000 1.534940 
# 
# From -- ./inp_files/185961.got.cif
#   From: 2010.05.17/outbox.cif.g08.bks.cpg/sg12_93_cif.got.tgz:185961.got - 2010.06.03 13:09:07.
