data_PCOD9169984
_publ_section_title
;
Structure prediction by ZEFSAII (Michael W. Deem and Ramdas Pophale) SiO2 
 PCOD9169984
Probable space group: C 2/M
;
_chemical_formula_sum "Si O2"
_cell_formula_units_Z 56
_cell_length_a 11.974451
_cell_length_b 27.884769
_cell_length_c 10.415150
_cell_angle_alpha 90.000000
_cell_angle_beta 137.801698
_cell_angle_gamma 90.000000
_cell_volume 2335.945236
_symmetry_space_group_name_H-M "C 2/M"
_symmetry_group_IT_number 12
_symmetry_cell_setting 'monoclinic'
loop_
_space_group_symop_operation_xyz
x,y,z
-x,y,-z
-x,-y,-z
x,-y,z
1/2+x,1/2+y,z
1/2-x,1/2+y,-z
1/2-x,1/2-y,-z
1/2+x,1/2-y,z
loop_
_atom_site_type_symbol
_atom_site_label
_atom_site_fract_x
_atom_site_fract_y
_atom_site_fract_z
Si Si1 0.175282 0.102535 0.598977
Si Si2 0.206377 0.634276 0.044071
Si Si3 0.566561 0.312236 0.354058
Si Si4 0.845812 0.735032 0.949895
Si Si5 0.345298 0.443948 0.686673
Si Si6 0.650917 0.781427 0.563123
Si Si7 0.735555 0.556679 0.096064
O O1 0.289937 0.104460 0.820466
O O2 0.141555 0.157829 0.534801
O O3 0.214695 0.079832 0.495814
O O4 0.000000 0.081024 0.500000
O O5 0.390695 0.660563 0.180676
O O6 0.096299 0.681363 0.965742
O O7 0.166647 0.596827 0.899700
O O8 0.582927 0.254986 0.394878
O O9 0.701777 0.315755 0.356093
O O10 0.711363 0.744896 0.725000
O O11 0.750000 0.750000 0.000000
O O12 0.000000 0.758014 0.000000
O O13 0.313475 0.500000 0.645246
O O14 0.545368 0.438788 0.879193
O O15 0.266323 0.430208 0.755574
O O16 0.500000 0.809231 0.500000
O O17 0.781290 0.500000 0.120856
#
# Coordination Sequence:
#
# PCOD9169984 Si02
#       7
#     8   8   8   8   8   8   8
#     4  10  17  29  49  77 105 145 197 242 299 355
#     4  11  20  38  59  85 121 162 206 262 317 377
#     4  10  19  33  59  79 110 152 209 248 307 362
#     4  12  27  43  60  92 131 166 215 267 328 378
#     4   9  17  29  47  78 121 153 189 250 313 374
#     4  11  21  38  62  80 109 163 211 257 309 375
#     4   9  18  31  51  81 122 162 196 246 323 387
#
# _framework density 23.973164000000001
#
# number of rings (size 3 to 8) (size 9 to 14) (size 15 to 20)
#    0.000    1.714    5.714    2.143    2.000    2.000 
#    2.571    0.000    0.000    0.429    0.000    0.000 
#    0.000    4.571    0.000    0.000    0.000    2.000 
#
# Total GULP energy -155917.551491 kJ/mol
# GULP energy per Si atom -5568.483982 kJ/mol
# Density = 2.391860 g / cm^3
# Si number density = 23.973164 Si / 1000 Ang^3
#
#
#
# Elastic Constant Matrix: (Units=GPa)
#
#
# Indices 1 2 3 4 5 6 
#
# 1 142.0496 50.7732 44.4208 0.0000 -28.8919 0.0000
# 2 50.7732 70.5432 28.9284 0.0000 -34.0458 0.0000
# 3 44.4208 28.9284 47.4064 0.0000 -21.5495 0.0000
# 4 0.0000 0.0000 0.0000 20.5087 0.0000 -19.6853
# 5 -28.8919 -34.0458 -21.5495 0.0000 43.4116 0.0000
# 6 0.0000 0.0000 0.0000 -19.6853 0.0000 32.8802
#
#
#
# Elastic Compliance Matrix: (Units=1/GPa)
#
#
# Indices 1 2 3 4 5 6 
#
# 1 0.011133 -0.005095 -0.007453 0.000000 -0.000286 0.000000
# 2 -0.005095 0.027393 -0.004801 0.000000 0.015709 0.000000
# 3 -0.007453 -0.004801 0.034921 0.000000 0.008609 0.000000
# 4 0.000000 0.000000 0.000000 0.114637 0.000000 0.068633
# 5 -0.000286 0.015709 0.008609 0.000000 0.039439 0.000000
# 6 0.000000 0.000000 0.000000 0.068633 0.000000 0.071504
#
#
# Mechanical properties :
#
#
# Convention : Reuss Voigt Hill
#
# Bulk Modulus (GPa) = 25.80664 56.47156 41.13910
# Shear Modulus (GPa) = 14.42412 28.41857 21.42134
#
# Velocity S-wave (km/s) = 2.45557 3.44675 2.99248
# Velocity P-wave (km/s) = 4.33912 6.28071 5.39793
#
# Compressibility (1/GPa) = 0.03874972
#
# Stress axis : x y z
#
# Youngs Moduli (GPa) = 89.81975 36.50559 28.63587
#
# Poissons Ratio (x) = 0.18598 0.21343
# Poissons Ratio (y) = 0.45760 0.13749
# Poissons Ratio (z) = 0.66944 0.17527
#
# Static dielectric constant tensor:
#      x y z
#    x 2.021320 0.000000 0.056880 
#    y 0.000000 1.930190 0.000000 
#    z 0.056880 0.000000 2.118690 
# 
# From -- ./inp_files/137013.got.cif
#   From: 2010.05.17/outbox.cif.g08.bks.cpg/sg12_69_cif.got.tgz:137013.got - 2010.06.03 13:09:07.
