data_PCOD9169228
_publ_section_title
;
Structure prediction by ZEFSAII (Michael W. Deem and Ramdas Pophale) SiO2 
 PCOD9169228
Probable space group: C 2/M
;
_chemical_formula_sum "Si O2"
_cell_formula_units_Z 56
_cell_length_a 24.350952
_cell_length_b 9.445269
_cell_length_c 18.076865
_cell_angle_alpha 90.000000
_cell_angle_beta 116.322846
_cell_angle_gamma 90.000000
_cell_volume 3726.588864
_symmetry_space_group_name_H-M "C 2/M"
_symmetry_group_IT_number 12
_symmetry_cell_setting 'monoclinic'
loop_
_space_group_symop_operation_xyz
x,y,z
-x,y,-z
-x,-y,-z
x,-y,z
1/2+x,1/2+y,z
1/2-x,1/2+y,-z
1/2-x,1/2-y,-z
1/2+x,1/2-y,z
loop_
_atom_site_type_symbol
_atom_site_label
_atom_site_fract_x
_atom_site_fract_y
_atom_site_fract_z
Si Si1 0.037932 0.168396 0.781793
Si Si2 0.406391 0.833083 0.492454
Si Si3 0.895063 0.832603 0.732064
Si Si4 0.560457 0.165759 0.938284
Si Si5 0.956556 0.333735 0.362144
Si Si6 0.685615 0.670121 0.459680
Si Si7 0.914440 0.664784 0.885467
O O1 0.070107 0.240459 0.871679
O O2 0.057798 0.238194 0.716748
O O3 0.964769 0.198103 0.747270
O O4 0.046243 0.000000 0.786811
O O5 0.416600 0.805197 0.411517
O O6 0.472714 0.812169 0.570654
O O7 0.357306 0.733109 0.501568
O O8 0.390537 0.000000 0.491925
O O9 0.849035 0.797736 0.638363
O O10 0.883273 0.751470 0.801432
O O11 0.891978 0.000000 0.744112
O O12 0.487511 0.172633 0.912355
O O13 0.574596 0.000000 0.933440
O O14 0.593122 0.212744 0.033987
O O15 0.950126 0.500000 0.339474
O O16 0.691977 0.500000 0.469617
O O17 0.750000 0.750000 0.500000
O O18 0.897259 0.500000 0.871248
#
# Coordination Sequence:
#
# PCOD9169228 Si02
#       7
#     8   8   8   8   8   8   8
#     4  10  17  25  39  62  89 117 148 179 216 263
#     4   9  18  32  48  66  86 114 150 186 226 268
#     4   9  18  29  40  58  85 113 145 183 223 263
#     4   8  14  24  36  55  82 112 144 177 212 254
#     4   9  17  29  46  66  89 116 148 183 221 269
#     4  11  22  35  48  65  89 118 153 192 229 266
#     4   8  14  24  39  56  77 109 147 179 211 257
#
# _framework density 15.027148
#
# number of rings (size 3 to 8) (size 9 to 14) (size 15 to 20)
#    0.000    2.857    1.429    2.571    0.000    2.857 
#    0.000    4.286    0.000    0.000    0.000    0.000 
#    0.000    1.143    0.000    3.714    0.000    4.571 
#
# Total GULP energy -155914.833339 kJ/mol
# GULP energy per Si atom -5568.386905 kJ/mol
# Density = 1.499295 g / cm^3
# Si number density = 15.027148 Si / 1000 Ang^3
#
#
#
# Elastic Constant Matrix: (Units=GPa)
#
#
# Indices 1 2 3 4 5 6 
#
# 1 52.3249 45.3695 46.6626 0.0000 -9.9139 0.0000
# 2 45.3695 66.7029 71.8779 0.0000 -20.0481 0.0000
# 3 46.6626 71.8779 115.6554 0.0000 -33.0905 0.0000
# 4 0.0000 0.0000 0.0000 26.1600 0.0000 -4.1877
# 5 -9.9139 -20.0481 -33.0905 0.0000 22.3856 0.0000
# 6 0.0000 0.0000 0.0000 -4.1877 0.0000 17.8908
#
#
#
# Elastic Compliance Matrix: (Units=1/GPa)
#
#
# Indices 1 2 3 4 5 6 
#
# 1 0.048511 -0.035774 -0.000623 0.000000 -0.011475 0.000000
# 2 -0.035774 0.071812 -0.028296 0.000000 0.006643 0.000000
# 3 -0.000623 -0.028296 0.033191 0.000000 0.023447 0.000000
# 4 0.000000 0.000000 0.000000 0.039714 0.000000 0.009296
# 5 -0.011475 0.006643 0.023447 0.000000 0.080198 0.000000
# 6 0.000000 0.000000 0.000000 0.009296 0.000000 0.058070
#
#
# Mechanical properties :
#
#
# Convention : Reuss Voigt Hill
#
# Bulk Modulus (GPa) = 41.44226 62.50036 51.97131
# Shear Modulus (GPa) = 10.66270 18.00550 14.33410
#
# Velocity S-wave (km/s) = 2.66665 3.46526 3.09185
# Velocity P-wave (km/s) = 6.09258 7.59556 6.88520
#
# Compressibility (1/GPa) = 0.02412996
#
# Stress axis : x y z
#
# Youngs Moduli (GPa) = 20.61394 13.92531 30.12830
#
# Poissons Ratio (x) = 0.49816 0.01876
# Poissons Ratio (y) = 0.73743 0.85250
# Poissons Ratio (z) = 0.01284 0.39403
#
# Static dielectric constant tensor:
#      x y z
#    x 1.477190 0.000000 -0.013700 
#    y 0.000000 1.495460 0.000000 
#    z -0.013700 0.000000 1.506060 
# 
# From -- ./inp_files/287399.got.cif
#   From: 2010.05.17/outbox.cif.g08.bks.cpg/sg12_144_cif.got.tgz:287399.got - 2010.06.03 13:09:07.
