data_PCOD9169769
_publ_section_title
;
Structure prediction by ZEFSAII (Michael W. Deem and Ramdas Pophale) SiO2 
 PCOD9169769
Probable space group: C 2/M
;
_chemical_formula_sum "Si O2"
_cell_formula_units_Z 56
_cell_length_a 14.865891
_cell_length_b 26.178594
_cell_length_c 7.458309
_cell_angle_alpha 90.000000
_cell_angle_beta 132.215080
_cell_angle_gamma 90.000000
_cell_volume 2149.698880
_symmetry_space_group_name_H-M "C 2/M"
_symmetry_group_IT_number 12
_symmetry_cell_setting 'monoclinic'
loop_
_space_group_symop_operation_xyz
x,y,z
-x,y,-z
-x,-y,-z
x,-y,z
1/2+x,1/2+y,z
1/2-x,1/2+y,-z
1/2-x,1/2-y,-z
1/2+x,1/2-y,z
loop_
_atom_site_type_symbol
_atom_site_label
_atom_site_fract_x
_atom_site_fract_y
_atom_site_fract_z
Si Si1 0.605974 0.157086 0.956020
Si Si2 0.751708 0.903217 0.418565
Si Si3 0.473963 0.056053 0.749764
Si Si4 0.797954 0.841621 0.928899
Si Si5 0.904083 0.285194 0.538512
Si Si6 0.632271 0.556281 0.773420
Si Si7 0.949490 0.823964 0.638056
O O1 0.549998 0.105182 0.786056
O O2 0.720674 0.176643 0.997548
O O3 0.498058 0.196160 0.811268
O O4 0.660783 0.138284 0.213750
O O5 0.671121 0.932868 0.455299
O O6 0.780063 0.938068 0.282020
O O7 0.875923 0.872348 0.617281
O O8 0.504924 0.000000 0.718479
O O9 0.500000 0.054019 0.000000
O O10 0.705667 0.823868 0.650744
O O11 0.834412 0.899600 0.038541
O O12 0.927253 0.814924 0.087770
O O13 0.868751 0.226837 0.524261
O O14 0.000000 0.284932 0.500000
O O15 0.500000 0.560015 0.500000
O O16 0.642222 0.500000 0.867211
O O17 0.000000 0.833089 0.500000
#
# Coordination Sequence:
#
# PCOD9169769 Si02
#       7
#     8   8   8   8   8   8   8
#     4   9  18  32  48  71 102 131 167 206 245 299
#     4  10  17  30  50  76 102 126 167 211 248 299
#     4   9  18  32  52  73  96 131 171 212 251 290
#     4  10  18  33  48  76 109 128 166 208 245 310
#     4   9  21  30  49  73 103 139 167 198 248 302
#     4  10  17  28  47  74 106 129 155 205 261 298
#     4  11  18  30  50  78 102 135 161 205 258 296
#
# _framework density 26.050159000000001
#
# number of rings (size 3 to 8) (size 9 to 14) (size 15 to 20)
#    0.000    2.286    4.286    0.429    2.000    5.143 
#    0.000    1.429    0.000    6.000    0.000    1.000 
#    0.000    0.000    0.000    0.000    0.000    0.000 
#
# Total GULP energy -156340.433372 kJ/mol
# GULP energy per Si atom -5583.586906 kJ/mol
# Density = 2.599087 g / cm^3
# Si number density = 26.050159 Si / 1000 Ang^3
#
#
#
# Elastic Constant Matrix: (Units=GPa)
#
#
# Indices 1 2 3 4 5 6 
#
# 1 78.0969 8.9072 18.6965 0.0000 16.9506 0.0000
# 2 8.9072 138.5640 55.4771 0.0000 22.2146 0.0000
# 3 18.6965 55.4771 128.8879 0.0000 22.7603 0.0000
# 4 0.0000 0.0000 0.0000 21.8439 0.0000 5.4427
# 5 16.9506 22.2146 22.7603 0.0000 41.6619 0.0000
# 6 0.0000 0.0000 0.0000 5.4427 0.0000 17.7989
#
#
#
# Elastic Compliance Matrix: (Units=1/GPa)
#
#
# Indices 1 2 3 4 5 6 
#
# 1 0.014222 0.000468 -0.001327 0.000000 -0.005311 0.000000
# 2 0.000468 0.009058 -0.003409 0.000000 -0.003158 0.000000
# 3 -0.001327 -0.003409 0.009963 0.000000 -0.003086 0.000000
# 4 0.000000 0.000000 0.000000 0.049555 0.000000 -0.015153
# 5 -0.005311 -0.003158 -0.003086 0.000000 0.029533 0.000000
# 6 0.000000 0.000000 0.000000 -0.015153 0.000000 0.060817
#
#
# Mechanical properties :
#
#
# Convention : Reuss Voigt Hill
#
# Bulk Modulus (GPa) = 40.47236 56.85671 48.66454
# Shear Modulus (GPa) = 26.32704 33.75881 30.04293
#
# Velocity S-wave (km/s) = 3.18249 3.60379 3.39967
# Velocity P-wave (km/s) = 5.39206 6.26016 5.84226
#
# Compressibility (1/GPa) = 0.02470822
#
# Stress axis : x y z
#
# Youngs Moduli (GPa) = 70.31570 110.40016 100.36755
#
# Poissons Ratio (x) = -0.05172 0.13316
# Poissons Ratio (y) = -0.03294 0.34216
# Poissons Ratio (z) = 0.09329 0.37636
#
# Static dielectric constant tensor:
#      x y z
#    x 2.129450 0.000000 -0.017800 
#    y 0.000000 2.098650 0.000000 
#    z -0.017800 0.000000 2.087940 
# 
# From -- ./inp_files/80131.got.cif
#   From: 2010.05.17/outbox.cif.g08.bks.cpg/sg12_41_cif.got.tgz:80131.got - 2010.06.03 13:09:07.
