data_PCOD9169171
_publ_section_title
;
Structure prediction by ZEFSAII (Michael W. Deem and Ramdas Pophale) SiO2 
 PCOD9169171
Probable space group: C 2/M
;
_chemical_formula_sum "Si O2"
_cell_formula_units_Z 64
_cell_length_a 13.729802
_cell_length_b 8.787261
_cell_length_c 22.171224
_cell_angle_alpha 90.000000
_cell_angle_beta 93.455372
_cell_angle_gamma 90.000000
_cell_volume 2670.036660
_symmetry_space_group_name_H-M "C 2/M"
_symmetry_group_IT_number 12
_symmetry_cell_setting 'monoclinic'
loop_
_space_group_symop_operation_xyz
x,y,z
-x,y,-z
-x,-y,-z
x,-y,z
1/2+x,1/2+y,z
1/2-x,1/2+y,-z
1/2-x,1/2-y,-z
1/2+x,1/2-y,z
loop_
_atom_site_type_symbol
_atom_site_label
_atom_site_fract_x
_atom_site_fract_y
_atom_site_fract_z
Si Si1 0.695740 0.673774 0.636755
Si Si2 0.423615 0.180395 0.858321
Si Si3 0.545657 0.330573 0.262307
Si Si4 0.577014 0.171746 0.388910
Si Si5 0.314336 0.327171 0.233149
Si Si6 0.616950 0.323018 0.020411
Si Si7 0.355488 0.816428 0.484565
Si Si8 0.860521 0.186556 0.109582
O O1 0.657627 0.500000 0.641933
O O2 0.806201 0.662221 0.618022
O O3 0.706163 0.748400 0.703222
O O4 0.633200 0.759018 0.583682
O O5 0.400480 0.240030 0.789550
O O6 0.368892 0.232239 0.917290
O O7 0.532302 0.244993 0.875037
O O8 0.423636 0.000000 0.856283
O O9 0.586640 0.500000 0.265781
O O10 0.543366 0.262289 0.329193
O O11 0.432211 0.338539 0.239890
O O12 0.573692 0.231033 0.457547
O O13 0.537097 0.000000 0.385709
O O14 0.273646 0.500000 0.233894
O O15 0.297421 0.264573 0.165507
O O16 0.641808 0.500000 0.031640
O O17 0.500000 0.319351 0.000000
O O18 0.665089 0.267514 0.959543
O O19 0.250000 0.750000 0.500000
O O20 0.353811 0.000000 0.484987
O O21 0.864693 0.000000 0.110735
#
# Coordination Sequence:
#
# PCOD9169171 Si02
#       8
#     8   8   8   8   8   8   8   8
#     4   9  17  31  51  71  92 117 148 186 222 263
#     4  10  17  24  37  58  86 116 146 183 225 266
#     4  10  19  31  47  65  89 121 153 184 219 266
#     4   9  18  31  47  68  91 115 144 182 226 265
#     4   8  15  29  47  67  90 119 153 184 219 262
#     4   8  13  22  36  55  81 113 148 184 219 259
#     4   9  17  30  48  69  92 117 148 185 223 263
#     4   8  14  25  40  58  84 117 151 184 218 261
#
# _framework density 23.969709000000002
#
# number of rings (size 3 to 8) (size 9 to 14) (size 15 to 20)
#    0.000    3.125    0.000    4.125    0.000    4.750 
#    0.000    3.750    0.000    3.750    0.000    0.875 
#    0.000    0.000    0.000    0.000    0.000    0.000 
#
# Total GULP energy -178522.896297 kJ/mol
# GULP energy per Si atom -5578.840509 kJ/mol
# Density = 2.391515 g / cm^3
# Si number density = 23.969709 Si / 1000 Ang^3
#
#
#
# Elastic Constant Matrix: (Units=GPa)
#
#
# Indices 1 2 3 4 5 6 
#
# 1 53.9604 3.1451 42.7945 0.0000 -4.6485 0.0000
# 2 3.1451 52.1706 68.6610 0.0000 3.6668 0.0000
# 3 42.7945 68.6610 298.2167 0.0000 -13.4294 0.0000
# 4 0.0000 0.0000 0.0000 41.8109 0.0000 -0.8934
# 5 -4.6485 3.6668 -13.4294 0.0000 58.6557 0.0000
# 6 0.0000 0.0000 0.0000 -0.8934 0.0000 3.1818
#
#
#
# Elastic Compliance Matrix: (Units=1/GPa)
#
#
# Indices 1 2 3 4 5 6 
#
# 1 0.021485 0.003860 -0.003947 0.000000 0.000558 0.000000
# 2 0.003860 0.028803 -0.007328 0.000000 -0.003173 0.000000
# 3 -0.003947 -0.007328 0.005672 0.000000 0.001444 0.000000
# 4 0.000000 0.000000 0.000000 0.024062 0.000000 0.006756
# 5 0.000558 -0.003173 0.001444 0.000000 0.017622 0.000000
# 6 0.000000 0.000000 0.000000 0.006756 0.000000 0.316183
#
#
# Mechanical properties :
#
#
# Convention : Reuss Voigt Hill
#
# Bulk Modulus (GPa) = 24.31341 70.39431 47.35386
# Shear Modulus (GPa) = 11.30284 40.04617 25.67450
#
# Velocity S-wave (km/s) = 2.17387 4.09185 3.27635
# Velocity P-wave (km/s) = 4.05788 7.19417 5.84048
#
# Compressibility (1/GPa) = 0.04112956
#
# Stress axis : x y z
#
# Youngs Moduli (GPa) = 46.54358 34.71885 176.30773
#
# Poissons Ratio (x) = -0.13401 0.69584
# Poissons Ratio (y) = -0.17965 1.29203
# Poissons Ratio (z) = 0.18369 0.25443
#
# Static dielectric constant tensor:
#      x y z
#    x 2.048270 0.000000 -0.029880 
#    y 0.000000 1.859030 0.000000 
#    z -0.029880 0.000000 2.003210 
# 
# From -- ./inp_files/319091.got.cif
#   From: 2010.05.17/outbox.cif.g08.bks.cpg/sg12_160_cif.got.tgz:319091.got - 2010.06.03 13:09:07.
