data_PCOD9169739
_publ_section_title
;
Structure prediction by ZEFSAII (Michael W. Deem and Ramdas Pophale) SiO2 
 PCOD9169739
Probable space group: C 2/M
;
_chemical_formula_sum "Si O2"
_cell_formula_units_Z 56
_cell_length_a 16.240323
_cell_length_b 19.338931
_cell_length_c 11.572964
_cell_angle_alpha 90.000000
_cell_angle_beta 122.687989
_cell_angle_gamma 90.000000
_cell_volume 3059.073048
_symmetry_space_group_name_H-M "C 2/M"
_symmetry_group_IT_number 12
_symmetry_cell_setting 'monoclinic'
loop_
_space_group_symop_operation_xyz
x,y,z
-x,y,-z
-x,-y,-z
x,-y,z
1/2+x,1/2+y,z
1/2-x,1/2+y,-z
1/2-x,1/2-y,-z
1/2+x,1/2-y,z
loop_
_atom_site_type_symbol
_atom_site_label
_atom_site_fract_x
_atom_site_fract_y
_atom_site_fract_z
Si Si1 0.279276 0.148368 0.344028
Si Si2 0.155045 0.500000 0.661989
Si Si3 0.561462 0.245349 0.659819
Si Si4 0.106562 0.828540 0.066716
Si Si5 0.400830 0.848865 0.665100
Si Si6 0.210308 0.824230 0.924533
Si Si7 0.391465 0.831853 0.918023
Si Si8 0.473192 0.000000 0.669604
O O1 0.356029 0.192700 0.326173
O O2 0.170409 0.170849 0.231050
O O3 0.317227 0.154079 0.503541
O O4 0.286134 0.069813 0.307115
O O5 0.083948 0.500000 0.496114
O O6 0.087026 0.500000 0.722966
O O7 0.500000 0.267928 0.500000
O O8 0.487826 0.202173 0.687219
O O9 0.621010 0.304988 0.770916
O O10 0.093130 0.747093 0.028139
O O11 0.167669 0.859787 0.006546
O O12 0.000000 0.859910 0.000000
O O13 0.361827 0.830402 0.761461
O O14 0.442270 0.927389 0.701903
O O15 0.302232 0.858952 0.928840
O O16 0.250000 0.750000 0.000000
O O17 0.500000 0.865117 0.000000
#
# Coordination Sequence:
#
# PCOD9169739 Si02
#       8
#     8   4   8   8   8   8   8   4
#     4  10  18  30  50  72  97 126 163 207 247 281
#     4   9  16  28  47  74  97 129 164 202 250 287
#     4  10  17  28  46  73  99 126 162 202 236 282
#     4  10  20  34  51  71  95 130 167 203 246 291
#     4  10  19  30  48  74 102 128 162 200 243 293
#     4  10  18  33  49  67  97 135 163 192 241 293
#     4  10  20  31  48  70  99 137 161 189 241 297
#     4   9  16  28  47  70 103 131 160 198 243 296
#
# _framework density 18.306198999999999
#
# number of rings (size 3 to 8) (size 9 to 14) (size 15 to 20)
#    0.000    2.143    4.286    2.571    0.000    0.571 
#    2.571    0.714    0.000    0.857    0.000    0.000 
#    0.000    3.429    0.000    0.000    0.000    0.000 
#
# Total GULP energy -155942.806578 kJ/mol
# GULP energy per Si atom -5569.385949 kJ/mol
# Density = 1.826453 g / cm^3
# Si number density = 18.306199 Si / 1000 Ang^3
#
#
#
# Elastic Constant Matrix: (Units=GPa)
#
#
# Indices 1 2 3 4 5 6 
#
# 1 127.5561 2.7435 49.9196 0.0000 -3.3345 0.0000
# 2 2.7435 19.5891 6.2492 0.0000 0.8247 0.0000
# 3 49.9196 6.2492 104.1908 0.0000 8.2083 0.0000
# 4 0.0000 0.0000 0.0000 8.6013 0.0000 -2.3310
# 5 -3.3345 0.8247 8.2083 0.0000 35.1470 0.0000
# 6 0.0000 0.0000 0.0000 -2.3310 0.0000 -4.0101
#
#
#
# Elastic Compliance Matrix: (Units=1/GPa)
#
#
# Indices 1 2 3 4 5 6 
#
# 1 0.009794 0.000092 -0.004860 0.000000 0.002062 0.000000
# 2 0.000092 0.052054 -0.003128 0.000000 -0.000482 0.000000
# 3 -0.004860 -0.003128 0.012372 0.000000 -0.003277 0.000000
# 4 0.000000 0.000000 0.000000 0.100439 0.000000 -0.058384
# 5 0.002062 -0.000482 -0.003277 0.000000 0.029424 0.000000
# 6 0.000000 0.000000 0.000000 -0.058384 0.000000 -0.215433
#
#
# Mechanical properties :
#
#
# Convention : Reuss Voigt Hill
#
# Bulk Modulus (GPa) = 17.11537 41.01786 29.06661
# Shear Modulus (GPa) = 209.04218 20.77589 114.90903
#
# Velocity S-wave (km/s) = 10.69766 3.37250 7.93138
# Velocity P-wave (km/s) = 12.72621 6.13353 9.98941
#
# Compressibility (1/GPa) = 0.05842702
#
# Stress axis : x y z
#
# Youngs Moduli (GPa) = 102.10630 19.21078 80.82610
#
# Poissons Ratio (x) = -0.00177 0.39284
# Poissons Ratio (y) = -0.00940 0.25285
# Poissons Ratio (z) = 0.49627 0.06010
#
# Static dielectric constant tensor:
#      x y z
#    x 1.691300 0.000000 0.004070 
#    y 0.000000 1.677680 0.000000 
#    z 0.004070 0.000000 1.680050 
# 
# From -- ./inp_files/146271.got.cif
#   From: 2010.05.17/outbox.cif.g08.bks.cpg/sg12_74_cif.got.tgz:146271.got - 2010.06.03 13:09:07.
