data_PCOD9169959
_publ_section_title
;
Structure prediction by ZEFSAII (Michael W. Deem and Ramdas Pophale) SiO2 
 PCOD9169959
Probable space group: C 2/M
;
_chemical_formula_sum "Si O2"
_cell_formula_units_Z 56
_cell_length_a 16.282747
_cell_length_b 19.651574
_cell_length_c 17.587789
_cell_angle_alpha 90.000000
_cell_angle_beta 27.083856
_cell_angle_gamma 90.000000
_cell_volume 2562.289782
_symmetry_space_group_name_H-M "C 2/M"
_symmetry_group_IT_number 12
_symmetry_cell_setting 'monoclinic'
loop_
_space_group_symop_operation_xyz
x,y,z
-x,y,-z
-x,-y,-z
x,-y,z
1/2+x,1/2+y,z
1/2-x,1/2+y,-z
1/2-x,1/2-y,-z
1/2+x,1/2-y,z
loop_
_atom_site_type_symbol
_atom_site_label
_atom_site_fract_x
_atom_site_fract_y
_atom_site_fract_z
Si Si1 0.293729 0.921183 0.969905
Si Si2 0.072022 0.423465 0.595765
Si Si3 0.702983 0.154464 0.270562
Si Si4 0.307065 0.322424 0.487432
Si Si5 0.123944 0.813121 0.329171
Si Si6 0.535848 0.667518 0.088036
Si Si7 0.046318 0.326750 0.848658
O O1 0.432886 0.922337 0.782884
O O2 0.400627 0.884249 0.950016
O O3 0.244729 0.000000 0.025523
O O4 0.129624 0.872689 0.078920
O O5 0.127547 0.500000 0.535275
O O6 0.960753 0.393691 0.616717
O O7 0.237982 0.378029 0.485736
O O8 0.631172 0.231378 0.329996
O O9 0.831937 0.144919 0.236652
O O10 0.839983 0.150130 0.086658
O O11 0.250000 0.250000 0.500000
O O12 0.514607 0.327530 0.342468
O O13 0.188799 0.329516 0.661431
O O14 0.328367 0.834291 0.179670
O O15 0.000000 0.840498 0.500000
O O16 0.534125 0.750086 0.091848
#
# Coordination Sequence:
#
# PCOD9169959 Si02
#       7
#     8   8   8   8   8   8   8
#     4   9  17  29  44  65  94 123 150 183 226 271
#     4   9  17  28  44  67  94 120 150 185 225 272
#     4   9  16  28  45  70  92 117 148 183 234 272
#     4  10  17  29  49  69  89 120 156 188 226 266
#     4   9  17  29  46  70  92 116 151 193 229 262
#     4   9  17  28  46  70  94 114 151 190 226 269
#     4   9  18  30  46  71  93 116 152 194 228 264
#
# _framework density 21.855450999999999
#
# number of rings (size 3 to 8) (size 9 to 14) (size 15 to 20)
#    0.000    2.857    1.429    0.429    0.000    0.571 
#    0.000    3.571    0.000    5.571    0.000    8.000 
#    0.000    0.000    0.000    0.000    0.000    0.000 
#
# Total GULP energy -156304.483373 kJ/mol
# GULP energy per Si atom -5582.302978 kJ/mol
# Density = 2.180571 g / cm^3
# Si number density = 21.855451 Si / 1000 Ang^3
#
#
#
# Elastic Constant Matrix: (Units=GPa)
#
#
# Indices 1 2 3 4 5 6 
#
# 1 143.1994 76.4251 53.8532 0.0250 -49.7789 -0.0069
# 2 76.4251 107.4391 38.8863 0.0203 -53.8354 -0.0253
# 3 53.8532 38.8863 88.7971 -0.0504 -27.1889 -0.0109
# 4 0.0250 0.0203 -0.0504 19.9065 -0.0234 -6.4023
# 5 -49.7789 -53.8354 -27.1889 -0.0234 50.5047 0.0142
# 6 -0.0069 -0.0253 -0.0109 -6.4023 0.0142 23.7928
#
#
#
# Elastic Compliance Matrix: (Units=1/GPa)
#
#
# Indices 1 2 3 4 5 6 
#
# 1 0.013113 -0.005315 -0.004074 -0.000019 0.005066 -0.000012
# 2 -0.005315 0.022675 -0.001089 0.000006 0.018346 0.000013
# 3 -0.004074 -0.001089 0.015116 0.000054 0.002961 0.000017
# 4 -0.000019 0.000006 0.000054 0.054994 0.000038 0.014798
# 5 0.005066 0.018346 0.002961 0.000038 0.045943 0.000005
# 6 -0.000012 0.000013 0.000017 0.014798 0.000005 0.046012
#
#
# Mechanical properties :
#
#
# Convention : Reuss Voigt Hill
#
# Bulk Modulus (GPa) = 33.39146 75.30721 54.34933
# Shear Modulus (GPa) = 21.85397 30.19221 26.02309
#
# Velocity S-wave (km/s) = 3.16560 3.72082 3.45438
# Velocity P-wave (km/s) = 5.35470 7.27950 6.38999
#
# Compressibility (1/GPa) = 0.02994778
#
# Stress axis : x y z
#
# Youngs Moduli (GPa) = 76.26109 44.10164 66.15434
#
# Poissons Ratio (x) = 0.23438 0.26952
# Poissons Ratio (y) = 0.40529 0.07207
# Poissons Ratio (z) = 0.31069 0.04805
#
# Static dielectric constant tensor:
#      x y z
#    x 1.864690 0.000000 0.058890 
#    y 0.000000 1.724950 0.000020 
#    z 0.058890 0.000020 1.901600 
# 
# From -- ./inp_files/290333.got.cif
#   From: 2010.05.17/outbox.cif.g08.bks.cpg/sg12_146_cif.got.tgz:290333.got - 2010.06.03 13:09:07.
