data_PCOD9169979
_publ_section_title
;
Structure prediction by ZEFSAII (Michael W. Deem and Ramdas Pophale) SiO2 
 PCOD9169979
Probable space group: C 2/M
;
_chemical_formula_sum "Si O2"
_cell_formula_units_Z 64
_cell_length_a 21.804346
_cell_length_b 13.732908
_cell_length_c 33.679811
_cell_angle_alpha 90.000000
_cell_angle_beta 155.331595
_cell_angle_gamma 90.000000
_cell_volume 4209.129764
_symmetry_space_group_name_H-M "C 2/M"
_symmetry_group_IT_number 12
_symmetry_cell_setting 'monoclinic'
loop_
_space_group_symop_operation_xyz
x,y,z
-x,y,-z
-x,-y,-z
x,-y,z
1/2+x,1/2+y,z
1/2-x,1/2+y,-z
1/2-x,1/2-y,-z
1/2+x,1/2-y,z
loop_
_atom_site_type_symbol
_atom_site_label
_atom_site_fract_x
_atom_site_fract_y
_atom_site_fract_z
Si Si1 0.592389 0.386627 0.594688
Si Si2 0.004542 0.615027 0.910466
Si Si3 0.352859 0.759138 0.937182
Si Si4 0.442953 0.704137 0.581327
Si Si5 0.412389 0.116296 0.208121
Si Si6 0.123471 0.384848 0.408168
Si Si7 0.071521 0.617833 0.221174
Si Si8 0.792761 0.886546 0.216279
O O1 0.500000 0.386818 0.500000
O O2 0.596262 0.500000 0.611906
O O3 0.514970 0.319036 0.581435
O O4 0.758051 0.354235 0.682724
O O5 0.043449 0.500000 0.937540
O O6 0.010553 0.644567 0.867915
O O7 0.834970 0.623257 0.825449
O O8 0.098046 0.682976 0.994552
O O9 0.241607 0.671574 0.879529
O O10 0.269124 0.833559 0.858788
O O11 0.500000 0.728294 0.000000
O O12 0.286586 0.649844 0.491890
O O13 0.421138 0.816158 0.581227
O O14 0.557186 0.659330 0.680074
O O15 0.513196 0.133453 0.306303
O O16 0.497162 0.150602 0.218222
O O17 0.390597 0.000000 0.192507
O O18 0.122083 0.500000 0.415882
O O19 0.072136 0.500000 0.222740
O O20 0.812851 0.000000 0.220341
#
# Coordination Sequence:
#
# PCOD9169979 Si02
#       8
#     8   8   8   8   8   8   8   8
#     4  10  18  29  49  78 106 128 157 200 246 296
#     4   9  17  30  48  72 100 123 153 203 255 299
#     4  10  20  32  48  70  95 128 170 202 245 292
#     4  11  19  31  54  77 100 132 166 195 241 301
#     4  10  20  35  49  67 100 132 165 206 248 290
#     4  10  21  34  49  74 106 134 162 202 245 289
#     4   9  17  29  47  70  97 129 158 199 256 297
#     4  10  17  29  49  75 101 123 153 201 249 299
#
# _framework density 15.205043
#
# number of rings (size 3 to 8) (size 9 to 14) (size 15 to 20)
#    0.000    2.125    2.500    2.250    0.000    4.250 
#    0.000    0.000    0.000    0.375    0.000    1.750 
#    0.000    0.000    0.000    0.000    0.000    0.000 
#
# Total GULP energy -178381.870867 kJ/mol
# GULP energy per Si atom -5574.433465 kJ/mol
# Density = 1.517044 g / cm^3
# Si number density = 15.205043 Si / 1000 Ang^3
#
#
#
# Elastic Constant Matrix: (Units=GPa)
#
#
# Indices 1 2 3 4 5 6 
#
# 1 97.2223 55.7125 43.4997 -0.0003 0.2360 0.0001
# 2 55.7125 78.0039 47.5771 -0.0021 5.0041 0.0005
# 3 43.4997 47.5771 106.9848 -0.0053 3.4044 0.0002
# 4 -0.0003 -0.0021 -0.0053 24.9176 -0.0005 0.8968
# 5 0.2360 5.0041 3.4044 -0.0005 18.9933 0.0002
# 6 0.0001 0.0005 0.0002 0.8968 0.0002 20.5435
#
#
#
# Elastic Compliance Matrix: (Units=1/GPa)
#
#
# Indices 1 2 3 4 5 6 
#
# 1 0.017967 -0.011695 -0.002208 -0.000001 0.003254 0.000000
# 2 -0.011695 0.025405 -0.006371 0.000001 -0.005406 0.000000
# 3 -0.002208 -0.006371 0.013099 0.000002 -0.000642 0.000000
# 4 -0.000001 0.000001 0.000002 0.040195 0.000001 -0.001755
# 5 0.003254 -0.005406 -0.000642 0.000001 0.054149 0.000000
# 6 0.000000 0.000000 0.000000 -0.001755 0.000000 0.048754
#
#
# Mechanical properties :
#
#
# Convention : Reuss Voigt Hill
#
# Bulk Modulus (GPa) = 62.80013 63.97661 63.38837
# Shear Modulus (GPa) = 20.37286 21.91900 21.14593
#
# Velocity S-wave (km/s) = 3.66440 3.80091 3.73328
# Velocity P-wave (km/s) = 7.70037 7.83772 7.76934
#
# Compressibility (1/GPa) = 0.01592353
#
# Stress axis : x y z
#
# Youngs Moduli (GPa) = 55.65658 39.36229 76.34389
#
# Poissons Ratio (x) = 0.46032 0.16859
# Poissons Ratio (y) = 0.65088 0.48638
# Poissons Ratio (z) = 0.12291 0.25077
#
# Static dielectric constant tensor:
#      x y z
#    x 1.508290 0.000000 -0.007060 
#    y 0.000000 1.482450 0.000000 
#    z -0.007060 0.000000 1.501520 
# 
# From -- ./inp_files/283291.got.cif
#   From: 2010.05.17/outbox.cif.g08.bks.cpg/sg12_142_cif.got.tgz:283291.got - 2010.06.03 13:09:07.
