data_PCOD9169226
_publ_section_title
;
Structure prediction by ZEFSAII (Michael W. Deem and Ramdas Pophale) SiO2 
 PCOD9169226
Probable space group: C 2/M
;
_chemical_formula_sum "Si O2"
_cell_formula_units_Z 64
_cell_length_a 29.112171
_cell_length_b 9.185685
_cell_length_c 16.453934
_cell_angle_alpha 90.000000
_cell_angle_beta 83.873027
_cell_angle_gamma 90.000000
_cell_volume 4374.898756
_symmetry_space_group_name_H-M "C 2/M"
_symmetry_group_IT_number 12
_symmetry_cell_setting 'monoclinic'
loop_
_space_group_symop_operation_xyz
x,y,z
-x,y,-z
-x,-y,-z
x,-y,z
1/2+x,1/2+y,z
1/2-x,1/2+y,-z
1/2-x,1/2-y,-z
1/2+x,1/2-y,z
loop_
_atom_site_type_symbol
_atom_site_label
_atom_site_fract_x
_atom_site_fract_y
_atom_site_fract_z
Si Si1 0.773637 0.667852 0.616500
Si Si2 0.724558 0.172485 0.767408
Si Si3 0.976429 0.832153 0.914615
Si Si4 0.109001 0.825703 0.973894
Si Si5 0.939743 0.325837 0.169511
Si Si6 0.283491 0.674091 0.057799
Si Si7 0.177797 0.167258 0.530958
Si Si8 0.630581 0.171918 0.681401
O O1 0.784137 0.500000 0.633558
O O2 0.761986 0.761014 0.698373
O O3 0.811888 0.740538 0.551653
O O4 0.726035 0.668796 0.572795
O O5 0.724516 0.257238 0.851987
O O6 0.674670 0.192309 0.733078
O O7 0.731442 0.000000 0.777928
O O8 0.924030 0.785713 0.944020
O O9 0.008686 0.735242 0.851755
O O10 0.977362 0.000000 0.887216
O O11 0.000000 0.827475 0.000000
O O12 0.102515 0.000000 0.962165
O O13 0.090391 0.742992 0.897962
O O14 0.162917 0.798117 0.975329
O O15 0.939173 0.500000 0.161912
O O16 0.914538 0.286766 0.258502
O O17 0.276525 0.500000 0.061014
O O18 0.250000 0.750000 0.000000
O O19 0.140712 0.238237 0.598401
O O20 0.167151 0.000000 0.513983
O O21 0.628873 0.000000 0.662437
#
# Coordination Sequence:
#
# PCOD9169226 Si02
#       8
#     8   8   8   8   8   8   8   8
#     4   9  16  26  39  55  76 102 133 168 204 242
#     4  10  18  30  44  58  77 104 137 173 209 247
#     4   8  15  27  40  56  77 103 133 165 201 244
#     4   9  18  31  44  56  76 105 136 169 208 252
#     4  10  17  25  39  61  83 106 136 170 205 241
#     4  11  22  34  47  62  80 105 139 179 220 256
#     4   9  16  24  36  55  76 103 137 168 198 236
#     4   9  17  26  37  55  82 110 135 167 204 240
#
# _framework density 14.628909
#
# number of rings (size 3 to 8) (size 9 to 14) (size 15 to 20)
#    0.000    2.625    1.250    2.625    0.000    7.250 
#    0.000    0.000    0.000    0.000    0.000    0.000 
#    0.000    0.000    0.000    1.125    0.000   21.750 
#
# Total GULP energy -178249.028605 kJ/mol
# GULP energy per Si atom -5570.282144 kJ/mol
# Density = 1.459561 g / cm^3
# Si number density = 14.628909 Si / 1000 Ang^3
#
#
#
# Elastic Constant Matrix: (Units=GPa)
#
#
# Indices 1 2 3 4 5 6 
#
# 1 70.8535 48.2576 55.8654 0.0000 -29.3657 0.0000
# 2 48.2576 80.7320 51.5433 0.0000 -23.7838 0.0000
# 3 55.8654 51.5433 72.6634 0.0000 -34.1470 0.0000
# 4 0.0000 0.0000 0.0000 25.2330 0.0000 -7.6624
# 5 -29.3657 -23.7838 -34.1470 0.0000 30.4047 0.0000
# 6 0.0000 0.0000 0.0000 -7.6624 0.0000 18.5384
#
#
#
# Elastic Compliance Matrix: (Units=1/GPa)
#
#
# Indices 1 2 3 4 5 6 
#
# 1 0.039209 -0.007747 -0.020544 0.000000 0.008737 0.000000
# 2 -0.007747 0.024177 -0.012330 0.000000 -0.002417 0.000000
# 3 -0.020544 -0.012330 0.051768 0.000000 0.028652 0.000000
# 4 0.000000 0.000000 0.000000 0.045319 0.000000 0.018731
# 5 0.008737 -0.002417 0.028652 0.000000 0.071616 0.000000
# 6 0.000000 0.000000 0.000000 0.018731 0.000000 0.061684
#
#
# Mechanical properties :
#
#
# Convention : Reuss Voigt Hill
#
# Bulk Modulus (GPa) = 29.48779 59.50905 44.49842
# Shear Modulus (GPa) = 12.94266 19.40740 16.17503
#
# Velocity S-wave (km/s) = 2.97767 3.64627 3.32880
# Velocity P-wave (km/s) = 5.65889 7.64816 6.72746
#
# Compressibility (1/GPa) = 0.03391234
#
# Stress axis : x y z
#
# Youngs Moduli (GPa) = 25.50407 41.36097 19.31712
#
# Poissons Ratio (x) = 0.32044 0.39685
# Poissons Ratio (y) = 0.19759 0.23817
# Poissons Ratio (z) = 0.52396 0.50997
#
# Static dielectric constant tensor:
#      x y z
#    x 1.486410 0.000000 -0.031530 
#    y 0.000000 1.487310 0.000000 
#    z -0.031530 0.000000 1.464240 
# 
# From -- ./inp_files/248397.got.cif
#   From: 2010.05.17/outbox.cif.g08.bks.cpg/sg12_125_cif.got.tgz:248397.got - 2010.06.03 13:09:07.
