data_PCOD9169165
_publ_section_title
;
Structure prediction by ZEFSAII (Michael W. Deem and Ramdas Pophale) SiO2 
 PCOD9169165
Probable space group: C 2/M
;
_chemical_formula_sum "Si O2"
_cell_formula_units_Z 48
_cell_length_a 25.094362
_cell_length_b 7.542218
_cell_length_c 14.897268
_cell_angle_alpha 90.000000
_cell_angle_beta 70.926284
_cell_angle_gamma 90.000000
_cell_volume 2664.766365
_symmetry_space_group_name_H-M "C 2/M"
_symmetry_group_IT_number 12
_symmetry_cell_setting 'monoclinic'
loop_
_space_group_symop_operation_xyz
x,y,z
-x,y,-z
-x,-y,-z
x,-y,z
1/2+x,1/2+y,z
1/2-x,1/2+y,-z
1/2-x,1/2-y,-z
1/2+x,1/2-y,z
loop_
_atom_site_type_symbol
_atom_site_label
_atom_site_fract_x
_atom_site_fract_y
_atom_site_fract_z
Si Si1 0.508246 0.706306 0.271535
Si Si2 0.459366 0.282733 0.942016
Si Si3 0.830842 0.215805 0.007063
Si Si4 0.220643 0.293131 0.158318
Si Si5 0.554121 0.713929 0.528262
Si Si6 0.618715 0.209436 0.325343
O O1 0.494378 0.500000 0.265230
O O2 0.519207 0.781596 0.167082
O O3 0.459441 0.779962 0.364050
O O4 0.566588 0.713251 0.296369
O O5 0.459082 0.500000 0.940292
O O6 0.394490 0.228670 0.991342
O O7 0.500000 0.227473 0.000000
O O8 0.812199 0.277670 0.918434
O O9 0.829049 0.000000 0.006194
O O10 0.782834 0.279861 0.102797
O O11 0.228858 0.500000 0.175753
O O12 0.178019 0.218105 0.255966
O O13 0.500000 0.774504 0.500000
O O14 0.552866 0.500000 0.531655
O O15 0.606711 0.764044 0.437401
O O16 0.617257 0.000000 0.307824
#
# Coordination Sequence:
#
# PCOD9169165 Si02
#       6
#     8   8   8   8   8   8
#     4   9  16  27  40  56  80 106 132 164 199 235
#     4   9  16  26  43  64  81 102 136 172 202 234
#     4   9  16  27  42  58  79 107 135 163 199 239
#     4   9  17  26  38  59  84 107 131 162 198 239
#     4   8  15  25  37  54  78 105 132 161 196 239
#     4  10  17  24  37  58  83 106 131 161 195 239
#
# _framework density 18.012836
#
# number of rings (size 3 to 8) (size 9 to 14) (size 15 to 20)
#    0.000    3.000    1.667    1.500    0.000    3.667 
#    0.000    0.000    0.000    2.000    0.000    1.167 
#    0.000    0.000    0.000    0.000    0.000    0.000 
#
# Total GULP energy -133603.153382 kJ/mol
# GULP energy per Si atom -5566.798058 kJ/mol
# Density = 1.797184 g / cm^3
# Si number density = 18.012836 Si / 1000 Ang^3
#
#
#
# Elastic Constant Matrix: (Units=GPa)
#
#
# Indices 1 2 3 4 5 6 
#
# 1 77.6913 -5.3274 76.7657 0.0000 -15.2319 0.0000
# 2 -5.3274 41.2092 1.1284 0.0000 -1.2306 0.0000
# 3 76.7657 1.1284 185.4669 0.0000 -42.2781 0.0000
# 4 0.0000 0.0000 0.0000 -2.2817 0.0000 -3.9017
# 5 -15.2319 -1.2306 -42.2781 0.0000 30.4201 0.0000
# 6 0.0000 0.0000 0.0000 -3.9017 0.0000 5.7860
#
#
#
# Elastic Compliance Matrix: (Units=1/GPa)
#
#
# Indices 1 2 3 4 5 6 
#
# 1 0.022280 0.003079 -0.009762 0.000000 -0.002286 0.000000
# 2 0.003079 0.024723 -0.001238 0.000000 0.000822 0.000000
# 3 -0.009762 -0.001238 0.012170 0.000000 0.011976 0.000000
# 4 0.000000 0.000000 0.000000 -0.203551 0.000000 -0.137262
# 5 -0.002286 0.000822 0.011976 0.000000 0.048405 0.000000
# 6 0.000000 0.000000 0.000000 -0.137262 0.000000 0.080271
#
#
# Mechanical properties :
#
#
# Convention : Reuss Voigt Hill
#
# Bulk Modulus (GPa) = 23.07743 49.94452 36.51097
# Shear Modulus (GPa) = 342.90808 22.23824 182.57316
#
# Velocity S-wave (km/s) = 13.81239 3.51747 10.07856
# Velocity P-wave (km/s) = 16.34673 6.65463 12.47998
#
# Compressibility (1/GPa) = 0.04333239
#
# Stress axis : x y z
#
# Youngs Moduli (GPa) = 44.88410 40.44823 82.17223
#
# Poissons Ratio (x) = -0.12455 0.80213
# Poissons Ratio (y) = -0.13821 0.10169
# Poissons Ratio (z) = 0.43814 0.05006
#
# Static dielectric constant tensor:
#      x y z
#    x 1.581950 0.000000 -0.057310 
#    y 0.000000 1.664750 0.000000 
#    z -0.057310 0.000000 1.677140 
# 
# From -- ./inp_files/236579.got.cif
#   From: 2010.05.17/outbox.cif.g08.bks.cpg/sg12_119_cif.got.tgz:236579.got - 2010.06.03 13:09:07.
