data_PCOD9169514
_publ_section_title
;
Structure prediction by ZEFSAII (Michael W. Deem and Ramdas Pophale) SiO2 
 PCOD9169514
Probable space group: C 2/M
;
_chemical_formula_sum "Si O2"
_cell_formula_units_Z 56
_cell_length_a 8.398708
_cell_length_b 18.062777
_cell_length_c 22.661057
_cell_angle_alpha 90.000000
_cell_angle_beta 57.866044
_cell_angle_gamma 90.000000
_cell_volume 2911.129494
_symmetry_space_group_name_H-M "C 2/M"
_symmetry_group_IT_number 12
_symmetry_cell_setting 'monoclinic'
loop_
_space_group_symop_operation_xyz
x,y,z
-x,y,-z
-x,-y,-z
x,-y,z
1/2+x,1/2+y,z
1/2-x,1/2+y,-z
1/2-x,1/2-y,-z
1/2+x,1/2-y,z
loop_
_atom_site_type_symbol
_atom_site_label
_atom_site_fract_x
_atom_site_fract_y
_atom_site_fract_z
Si Si1 0.138736 0.345259 0.219402
Si Si2 0.561170 0.353774 0.927088
Si Si3 0.687462 0.811673 0.929945
Si Si4 0.797947 0.586223 0.509465
Si Si5 0.229754 0.321044 0.787853
Si Si6 0.465431 0.414110 0.655571
Si Si7 0.113380 0.585176 0.635462
O O1 0.294953 0.387433 0.149071
O O2 0.224457 0.265932 0.219694
O O3 0.958202 0.334187 0.212709
O O4 0.059957 0.381092 0.294561
O O5 0.664784 0.277526 0.927717
O O6 0.373037 0.330441 0.929710
O O7 0.500000 0.393212 0.000000
O O8 0.700538 0.843162 0.861489
O O9 0.500000 0.837655 0.000000
O O10 0.735779 0.500000 0.513295
O O11 0.643994 0.617256 0.584861
O O12 0.824073 0.619752 0.439259
O O13 0.000000 0.586736 0.500000
O O14 0.397967 0.365739 0.723882
O O15 0.499563 0.500000 0.666190
O O16 0.292207 0.413583 0.643564
O O17 0.063389 0.500000 0.632468
#
# Coordination Sequence:
#
# PCOD9169514 Si02
#       7
#     8   8   8   8   8   8   8
#     4  10  19  31  48  71  98 125 155 192 235 280
#     4  10  17  27  44  66  93 123 157 194 231 273
#     4  10  17  27  44  66  93 123 157 194 231 273
#     4   9  17  29  48  73  96 119 153 197 236 273
#     4  10  19  31  48  71  98 125 155 192 235 280
#     4   9  18  33  52  71  93 124 159 193 231 278
#     4   9  18  33  52  71  93 124 159 193 231 278
#
# _framework density 19.236519999999999
#
# number of rings (size 3 to 8) (size 9 to 14) (size 15 to 20)
#    0.000    2.429    0.000    6.429    0.000    4.000 
#    0.000    0.714    0.000    0.857    0.000    0.000 
#    0.000    0.000    0.000    0.000    0.000    0.000 
#
# Total GULP energy -156089.756733 kJ/mol
# GULP energy per Si atom -5574.634169 kJ/mol
# Density = 1.919274 g / cm^3
# Si number density = 19.236520 Si / 1000 Ang^3
#
#
#
# Elastic Constant Matrix: (Units=GPa)
#
#
# Indices 1 2 3 4 5 6 
#
# 1 36.1942 -2.0115 16.4359 0.0000 -11.9675 0.0000
# 2 -2.0115 11.0566 28.7262 0.0000 -2.3190 0.0000
# 3 16.4359 28.7262 207.3384 0.0000 -17.4600 0.0000
# 4 0.0000 0.0000 0.0000 40.7360 0.0000 -2.8257
# 5 -11.9675 -2.3190 -17.4600 0.0000 36.5989 0.0000
# 6 0.0000 0.0000 0.0000 -2.8257 0.0000 8.4516
#
#
#
# Elastic Compliance Matrix: (Units=1/GPa)
#
#
# Indices 1 2 3 4 5 6 
#
# 1 0.034317 0.020652 -0.004716 0.000000 0.010280 0.000000
# 2 0.020652 0.153744 -0.022451 0.000000 0.005784 0.000000
# 3 -0.004716 -0.022451 0.008395 0.000000 0.001040 0.000000
# 4 0.000000 0.000000 0.000000 0.025131 0.000000 0.008402
# 5 0.010280 0.005784 0.001040 0.000000 0.031547 0.000000
# 6 0.000000 0.000000 0.000000 0.008402 0.000000 0.121130
#
#
# Mechanical properties :
#
#
# Convention : Reuss Voigt Hill
#
# Bulk Modulus (GPa) = 5.45177 37.87670 21.66424
# Shear Modulus (GPa) = 11.14984 31.25320 21.20152
#
# Velocity S-wave (km/s) = 2.41014 4.03511 3.32347
# Velocity P-wave (km/s) = 3.25350 6.43756 5.10036
#
# Compressibility (1/GPa) = 0.18342651
#
# Stress axis : x y z
#
# Youngs Moduli (GPa) = 29.14006 6.50431 119.11865
#
# Poissons Ratio (x) = -0.13433 0.56175
# Poissons Ratio (y) = -0.60180 2.67432
# Poissons Ratio (z) = 0.13742 0.14603
#
# Static dielectric constant tensor:
#      x y z
#    x 1.655310 0.000000 -0.001520 
#    y 0.000000 1.671200 0.000000 
#    z -0.001520 0.000000 1.748610 
# 
# From -- ./inp_files/301666.got.cif
#   From: 2010.05.17/outbox.cif.g08.bks.cpg/sg12_151_cif.got.tgz:301666.got - 2010.06.03 13:09:07.
