data_PCOD9169484
_publ_section_title
;
Structure prediction by ZEFSAII (Michael W. Deem and Ramdas Pophale) SiO2 
 PCOD9169484
Probable space group: C 2/M
;
_chemical_formula_sum "Si O2"
_cell_formula_units_Z 56
_cell_length_a 8.662833
_cell_length_b 31.712739
_cell_length_c 18.328518
_cell_angle_alpha 90.000000
_cell_angle_beta 44.849300
_cell_angle_gamma 90.000000
_cell_volume 3551.082418
_symmetry_space_group_name_H-M "C 2/M"
_symmetry_group_IT_number 12
_symmetry_cell_setting 'monoclinic'
loop_
_space_group_symop_operation_xyz
x,y,z
-x,y,-z
-x,-y,-z
x,-y,z
1/2+x,1/2+y,z
1/2-x,1/2+y,-z
1/2-x,1/2-y,-z
1/2+x,1/2-y,z
loop_
_atom_site_type_symbol
_atom_site_label
_atom_site_fract_x
_atom_site_fract_y
_atom_site_fract_z
Si Si1 0.322074 0.551144 0.000000
Si Si2 0.238360 0.618490 0.383741
Si Si3 0.610416 0.381510 0.383741
Si Si4 0.357300 0.048407 0.218962
Si Si5 0.258393 0.706704 0.617609
Si Si6 0.485815 0.451593 0.218962
Si Si7 0.888781 0.706703 0.617609
O O1 0.313773 0.500000 0.000000
O O2 0.082363 0.564054 0.107171
O O3 0.500000 0.563811 0.000000
O O4 0.403876 0.564054 0.892829
O O5 0.417416 0.621311 0.388389
O O6 0.301774 0.579739 0.310500
O O7 0.237875 0.662473 0.339440
O O8 0.000000 0.612764 0.500000
O O9 0.500000 0.387236 0.500000
O O10 0.766726 0.420261 0.310500
O O11 0.743806 0.337527 0.339440
O O12 0.174727 0.047520 0.216849
O O13 0.387616 0.000000 0.234887
O O14 0.500000 0.706297 0.500000
O O15 0.251593 0.750000 0.665605
O O16 0.076730 0.707542 0.615513
O O17 0.407724 0.500000 0.234887
O O18 0.000000 0.706297 0.500000
#
# Coordination Sequence:
#
# PCOD9169484 Si02
#       7
#     8   8   8   8   8   8   8
#     4   9  17  29  47  69  88 109 146 195 235 263
#     4  10  19  30  44  65  93 123 154 185 221 267
#     4  10  19  30  44  65  93 123 154 185 221 267
#     4   9  18  32  48  65  89 122 155 186 223 267
#     4  10  17  27  43  62  86 115 148 185 224 264
#     4   9  18  32  48  65  89 122 155 186 223 267
#     4  10  17  27  43  62  86 115 148 185 224 264
#
# _framework density 15.769838999999999
#
# number of rings (size 3 to 8) (size 9 to 14) (size 15 to 20)
#    0.000    2.429    0.000    6.429    0.000    4.571 
#    0.000    0.000    0.000    0.000    0.000    1.000 
#    0.000    0.000    0.000    0.000    0.000    0.000 
#
# Total GULP energy -155960.016748 kJ/mol
# GULP energy per Si atom -5570.000598 kJ/mol
# Density = 1.573395 g / cm^3
# Si number density = 15.769839 Si / 1000 Ang^3
#
#
#
# Elastic Constant Matrix: (Units=GPa)
#
#
# Indices 1 2 3 4 5 6 
#
# 1 72.1027 40.4673 27.8076 0.0000 1.2309 0.0000
# 2 40.4673 120.5542 64.8106 0.0000 -1.7347 0.0000
# 3 27.8076 64.8106 79.9093 0.0000 -1.7872 0.0000
# 4 0.0000 0.0000 0.0000 -0.0387 0.0000 8.1849
# 5 1.2309 -1.7347 -1.7872 0.0000 13.7256 0.0000
# 6 0.0000 0.0000 0.0000 8.1849 0.0000 114.8187
#
#
#
# Elastic Compliance Matrix: (Units=1/GPa)
#
#
# Indices 1 2 3 4 5 6 
#
# 1 0.017411 -0.004598 -0.002385 0.000000 -0.002453 0.000000
# 2 -0.004598 0.015924 -0.011294 0.000000 0.000954 0.000000
# 3 -0.002385 -0.011294 0.022542 0.000000 0.001722 0.000000
# 4 0.000000 0.000000 0.000000 -1.607253 0.000000 0.114574
# 5 -0.002453 0.000954 0.001722 0.000000 0.073421 0.000000
# 6 0.000000 0.000000 0.000000 0.114574 0.000000 0.000542
#
#
# Mechanical properties :
#
#
# Convention : Reuss Voigt Hill
#
# Bulk Modulus (GPa) = 51.74676 59.85968 55.80322
# Shear Modulus (GPa) = -3.48573 34.99984 15.75706
#
# Velocity S-wave (km/s) = -1.48835 4.71618 3.16443
# Velocity P-wave (km/s) = 5.47096 8.22783 6.98672
#
# Compressibility (1/GPa) = 0.01932488
#
# Stress axis : x y z
#
# Youngs Moduli (GPa) = 57.43431 62.79986 44.36124
#
# Poissons Ratio (x) = 0.28874 0.10579
# Poissons Ratio (y) = 0.26407 0.50100
# Poissons Ratio (z) = 0.13696 0.70923
#
# Static dielectric constant tensor:
#      x y z
#    x 1.530000 0.000000 0.001930 
#    y 0.000000 1.576750 0.000000 
#    z 0.001930 0.000000 1.502880 
# 
# From -- ./inp_files/259538.got.cif
#   From: 2010.05.17/outbox.cif.g08.bks.cpg/sg12_130_cif.got.tgz:259538.got - 2010.06.03 13:09:07.
