data_PCOD9169947
_publ_section_title
;
Structure prediction by ZEFSAII (Michael W. Deem and Ramdas Pophale) SiO2 
 PCOD9169947
Probable space group: C 2/M
;
_chemical_formula_sum "Si O2"
_cell_formula_units_Z 56
_cell_length_a 17.525029
_cell_length_b 13.146005
_cell_length_c 18.940599
_cell_angle_alpha 90.000000
_cell_angle_beta 137.876568
_cell_angle_gamma 90.000000
_cell_volume 2926.806313
_symmetry_space_group_name_H-M "C 2/M"
_symmetry_group_IT_number 12
_symmetry_cell_setting 'monoclinic'
loop_
_space_group_symop_operation_xyz
x,y,z
-x,y,-z
-x,-y,-z
x,-y,z
1/2+x,1/2+y,z
1/2-x,1/2+y,-z
1/2-x,1/2-y,-z
1/2+x,1/2-y,z
loop_
_atom_site_type_symbol
_atom_site_label
_atom_site_fract_x
_atom_site_fract_y
_atom_site_fract_z
Si Si1 0.512002 0.240469 0.226998
Si Si2 0.184799 0.884889 0.410723
Si Si3 0.039656 0.379956 0.947185
Si Si4 0.307147 0.379244 0.143534
Si Si5 0.586414 0.306776 0.485903
Si Si6 0.045283 0.613468 0.391678
Si Si7 0.849454 0.886769 0.332282
O O1 0.617904 0.317016 0.308844
O O2 0.512177 0.186771 0.151381
O O3 0.398548 0.307973 0.166609
O O4 0.521901 0.156920 0.297135
O O5 0.158046 0.831659 0.466588
O O6 0.319896 0.891008 0.499688
O O7 0.139946 0.000000 0.379192
O O8 0.011646 0.500000 0.919289
O O9 0.176119 0.368578 0.031355
O O10 0.000000 0.352560 0.000000
O O11 0.337735 0.500000 0.158904
O O12 0.306774 0.352877 0.226849
O O13 0.514861 0.203172 0.425108
O O14 0.486213 0.389341 0.417946
O O15 0.663224 0.317558 0.607502
O O16 0.997839 0.500000 0.367931
O O17 0.804218 0.000000 0.315641
#
# Coordination Sequence:
#
# PCOD9169947 Si02
#       7
#     8   8   8   8   8   8   8
#     4  11  19  35  59  80 107 145 184 227 271 322
#     4  10  19  32  52  80 109 140 179 218 264 321
#     4  10  23  40  57  82 111 140 178 227 284 335
#     4  10  20  35  58  85 110 140 183 230 275 323
#     4  10  17  29  48  74 107 141 172 213 259 313
#     4  10  21  33  49  76 111 147 181 216 259 322
#     4  10  18  29  50  79 105 131 169 221 266 306
#
# _framework density 19.133485
#
# number of rings (size 3 to 8) (size 9 to 14) (size 15 to 20)
#    0.000    1.857    2.857    4.714    0.000    2.286 
#    0.000    4.286    0.000    1.714    0.000    0.000 
#    0.000    0.000    0.000    0.000    0.000    0.000 
#
# Total GULP energy -156009.722075 kJ/mol
# GULP energy per Si atom -5571.775788 kJ/mol
# Density = 1.908994 g / cm^3
# Si number density = 19.133485 Si / 1000 Ang^3
#
#
#
# Elastic Constant Matrix: (Units=GPa)
#
#
# Indices 1 2 3 4 5 6 
#
# 1 53.6065 34.7010 48.2682 0.0000 -14.4313 0.0000
# 2 34.7010 130.2545 42.8416 0.0000 -21.7318 0.0000
# 3 48.2682 42.8416 72.2853 0.0000 -22.9739 0.0000
# 4 0.0000 0.0000 0.0000 29.4313 0.0000 -1.8540
# 5 -14.4313 -21.7318 -22.9739 0.0000 39.5663 0.0000
# 6 0.0000 0.0000 0.0000 -1.8540 0.0000 18.5676
#
#
#
# Elastic Compliance Matrix: (Units=1/GPa)
#
#
# Indices 1 2 3 4 5 6 
#
# 1 0.047707 -0.002933 -0.030780 0.000000 -0.002082 0.000000
# 2 -0.002933 0.009906 -0.003094 0.000000 0.002574 0.000000
# 3 -0.030780 -0.003094 0.039380 0.000000 0.009940 0.000000
# 4 0.000000 0.000000 0.000000 0.034192 0.000000 0.003414
# 5 -0.002082 0.002574 0.009940 0.000000 0.031700 0.000000
# 6 0.000000 0.000000 0.000000 0.003414 0.000000 0.054198
#
#
# Mechanical properties :
#
#
# Convention : Reuss Voigt Hill
#
# Bulk Modulus (GPa) = 42.77362 56.41864 49.59613
# Shear Modulus (GPa) = 16.75097 26.20209 21.47653
#
# Velocity S-wave (km/s) = 2.96206 3.70460 3.35394
# Velocity P-wave (km/s) = 5.83972 6.91734 6.40125
#
# Compressibility (1/GPa) = 0.02337890
#
# Stress axis : x y z
#
# Youngs Moduli (GPa) = 20.96124 100.94976 25.39377
#
# Poissons Ratio (x) = 0.29613 0.78161
# Poissons Ratio (y) = 0.06149 0.07857
# Poissons Ratio (z) = 0.64518 0.31234
#
# Static dielectric constant tensor:
#      x y z
#    x 1.707120 0.000000 0.011400 
#    y 0.000000 1.770520 0.000000 
#    z 0.011400 0.000000 1.713250 
# 
# From -- ./inp_files/277865.got.cif
#   From: 2010.05.17/outbox.cif.g08.bks.cpg/sg12_139_cif.got.tgz:277865.got - 2010.06.03 13:09:07.
