data_PCOD9169104
_publ_section_title
;
Structure prediction by ZEFSAII (Michael W. Deem and Ramdas Pophale) SiO2 
 PCOD9169104
Probable space group: C 2/M
;
_chemical_formula_sum "Si O2"
_cell_formula_units_Z 40
_cell_length_a 9.944966
_cell_length_b 24.859647
_cell_length_c 10.301907
_cell_angle_alpha 90.000000
_cell_angle_beta 61.445693
_cell_angle_gamma 90.000000
_cell_volume 2237.126979
_symmetry_space_group_name_H-M "C 2/M"
_symmetry_group_IT_number 12
_symmetry_cell_setting 'monoclinic'
loop_
_space_group_symop_operation_xyz
x,y,z
-x,y,-z
-x,-y,-z
x,-y,z
1/2+x,1/2+y,z
1/2-x,1/2+y,-z
1/2-x,1/2-y,-z
1/2+x,1/2-y,z
loop_
_atom_site_type_symbol
_atom_site_label
_atom_site_fract_x
_atom_site_fract_y
_atom_site_fract_z
Si Si1 0.328603 0.000000 0.018234
Si Si2 0.163905 0.882399 0.770498
Si Si3 0.194577 0.883534 0.065729
Si Si4 0.322450 0.223586 0.092460
Si Si5 0.682177 0.780607 0.407748
Si Si6 0.162672 0.000000 0.837091
O O1 0.304532 0.000000 0.872635
O O2 0.500000 0.000000 0.000000
O O3 0.241832 0.943633 0.089170
O O4 0.259574 0.841832 0.638751
O O5 0.171795 0.946489 0.748690
O O6 0.984366 0.870312 0.833940
O O7 0.212579 0.876966 0.900561
O O8 0.293467 0.839916 0.095533
O O9 0.245258 0.249015 0.253562
O O10 0.500000 0.236003 0.000000
O O11 0.250000 0.250000 0.000000
O O12 0.500000 0.779679 0.500000
O O13 0.750000 0.750000 0.500000
O O14 0.000000 0.000000 0.000000
#
# Coordination Sequence:
#
# PCOD9169104 Si02
#       6
#     4   8   8   8   8   4
#     4  10  18  30  50  93 131 141 179 259 325 343
#     4  10  18  35  62  87 119 157 200 247 305 367
#     4  10  18  33  59  90 118 146 199 254 302 351
#     4  12  23  38  62  89 114 158 211 259 303 360
#     4  12  26  42  58  87 129 166 203 252 313 370
#     4  10  16  34  61  93 118 151 203 259 307 355
#
# _framework density 17.880075000000001
#
# number of rings (size 3 to 8) (size 9 to 14) (size 15 to 20)
#    0.000    1.200    6.000    4.200    0.000    0.000 
#    0.000    0.500    0.000    1.200    0.000    4.200 
#    0.000    0.000    0.000    0.000    0.000    0.000 
#
# Total GULP energy -111513.841988 kJ/mol
# GULP energy per Si atom -5575.692099 kJ/mol
# Density = 1.783938 g / cm^3
# Si number density = 17.880075 Si / 1000 Ang^3
#
#
#
# Elastic Constant Matrix: (Units=GPa)
#
#
# Indices 1 2 3 4 5 6 
#
# 1 134.6450 46.3693 61.4469 0.0000 -19.3128 0.0000
# 2 46.3693 148.1815 64.1052 0.0000 -8.9975 0.0000
# 3 61.4469 64.1052 107.1555 0.0000 -10.2383 0.0000
# 4 0.0000 0.0000 0.0000 -197.6243 0.0000 -64.1398
# 5 -19.3128 -8.9975 -10.2383 0.0000 28.3499 0.0000
# 6 0.0000 0.0000 0.0000 -64.1398 0.0000 16.0237
#
#
#
# Elastic Compliance Matrix: (Units=1/GPa)
#
#
# Indices 1 2 3 4 5 6 
#
# 1 0.010847 -0.000812 -0.005233 0.000000 0.005241 0.000000
# 2 -0.000812 0.009191 -0.004979 0.000000 0.000566 0.000000
# 3 -0.005233 -0.004979 0.015350 0.000000 0.000398 0.000000
# 4 0.000000 0.000000 0.000000 -0.002201 0.000000 -0.008810
# 5 0.005241 0.000566 0.000398 0.000000 0.039167 0.000000
# 6 0.000000 0.000000 0.000000 -0.008810 0.000000 0.027144
#
#
# Mechanical properties :
#
#
# Convention : Reuss Voigt Hill
#
# Bulk Modulus (GPa) = 74.96663 81.53610 78.25136
# Shear Modulus (GPa) = 39.68505 -16.11276 11.78615
#
# Velocity S-wave (km/s) = 4.71628 -3.00519 2.57023
# Velocity P-wave (km/s) = 8.46618 5.80165 7.25725
#
# Compressibility (1/GPa) = 0.01333927
#
# Stress axis : x y z
#
# Youngs Moduli (GPa) = 92.19441 108.80522 65.14764
#
# Poissons Ratio (x) = 0.08834 0.34094
# Poissons Ratio (y) = 0.07485 0.32435
# Poissons Ratio (z) = 0.48249 0.54171
#
# Static dielectric constant tensor:
#      x y z
#    x 1.607630 0.000000 -0.010980 
#    y 0.000000 1.686680 0.000000 
#    z -0.010980 0.000000 1.579080 
# 
# From -- ./inp_files/121703.got.cif
#   From: 2010.05.17/outbox.cif.g08.bks.cpg/sg12_61_cif.got.tgz:121703.got - 2010.06.03 13:09:07.
