data_PCOD9169216
_publ_section_title
;
Structure prediction by ZEFSAII (Michael W. Deem and Ramdas Pophale) SiO2 
 PCOD9169216
Probable space group: C 2/M
;
_chemical_formula_sum "Si O2"
_cell_formula_units_Z 64
_cell_length_a 33.658956
_cell_length_b 9.234728
_cell_length_c 14.290560
_cell_angle_alpha 90.000000
_cell_angle_beta 81.897941
_cell_angle_gamma 90.000000
_cell_volume 4397.616449
_symmetry_space_group_name_H-M "C 2/M"
_symmetry_group_IT_number 12
_symmetry_cell_setting 'monoclinic'
loop_
_space_group_symop_operation_xyz
x,y,z
-x,y,-z
-x,-y,-z
x,-y,z
1/2+x,1/2+y,z
1/2-x,1/2+y,-z
1/2-x,1/2-y,-z
1/2+x,1/2-y,z
loop_
_atom_site_type_symbol
_atom_site_label
_atom_site_fract_x
_atom_site_fract_y
_atom_site_fract_z
Si Si1 0.528198 0.827076 0.079348
Si Si2 0.346731 0.828359 0.760294
Si Si3 0.120675 0.329201 0.039132
Si Si4 0.304482 0.333486 0.055700
Si Si5 0.991836 0.170929 0.722049
Si Si6 0.912838 0.828656 0.618088
Si Si7 0.229639 0.167168 0.146534
Si Si8 0.960219 0.332976 0.447401
O O1 0.574380 0.788110 0.042241
O O2 0.513699 0.741525 0.175065
O O3 0.527623 0.000000 0.099894
O O4 0.500000 0.799828 0.000000
O O5 0.367589 0.808868 0.855501
O O6 0.374558 0.749018 0.675854
O O7 0.302995 0.756420 0.783853
O O8 0.344183 0.000000 0.743723
O O9 0.125508 0.500000 0.017221
O O10 0.152059 0.239204 0.967425
O O11 0.306503 0.500000 0.085039
O O12 0.272853 0.243158 0.127254
O O13 0.286968 0.331788 0.955118
O O14 0.025955 0.251694 0.650775
O O15 0.950021 0.189060 0.678590
O O16 0.999950 0.000000 0.724967
O O17 0.927073 0.752992 0.517689
O O18 0.906406 0.000000 0.607828
O O19 0.232070 0.000000 0.175134
O O20 0.949046 0.500000 0.434446
O O21 0.000000 0.333442 0.500000
#
# Coordination Sequence:
#
# PCOD9169216 Si02
#       8
#     8   8   8   8   8   8   8   8
#     4  10  20  33  47  62  81 108 144 183 220 256
#     4  10  17  25  39  57  80 109 140 171 204 244
#     4   9  17  28  41  56  75 103 137 174 213 249
#     4   9  16  25  38  54  73  99 133 168 202 244
#     4  10  19  30  44  60  81 106 136 175 216 255
#     4  10  18  27  40  60  84 109 138 171 208 249
#     4   9  16  25  36  53  77 103 132 166 202 240
#     4   9  17  28  43  60  79 104 136 170 206 249
#
# _framework density 14.553338
#
# number of rings (size 3 to 8) (size 9 to 14) (size 15 to 20)
#    0.000    2.500    1.250    2.250    0.000    6.750 
#    0.000    0.000    0.000    0.000    0.000    0.000 
#    0.000    0.000    0.000    1.125    0.000   14.250 
#
# Total GULP energy -178352.066385 kJ/mol
# GULP energy per Si atom -5573.502075 kJ/mol
# Density = 1.452021 g / cm^3
# Si number density = 14.553338 Si / 1000 Ang^3
#
#
#
# Elastic Constant Matrix: (Units=GPa)
#
#
# Indices 1 2 3 4 5 6 
#
# 1 81.5335 67.3893 58.0859 0.0000 -32.9184 0.0000
# 2 67.3893 123.8001 69.9510 0.0000 -34.0634 0.0000
# 3 58.0859 69.9510 70.9072 0.0000 -30.3303 0.0000
# 4 0.0000 0.0000 0.0000 22.7701 0.0000 -10.9006
# 5 -32.9184 -34.0634 -30.3303 0.0000 30.1448 0.0000
# 6 0.0000 0.0000 0.0000 -10.9006 0.0000 20.5877
#
#
#
# Elastic Compliance Matrix: (Units=1/GPa)
#
#
# Indices 1 2 3 4 5 6 
#
# 1 0.034573 -0.005231 -0.016749 0.000000 0.014991 0.000000
# 2 -0.005231 0.019381 -0.013887 0.000000 0.002216 0.000000
# 3 -0.016749 -0.013887 0.047377 0.000000 0.013687 0.000000
# 4 0.000000 0.000000 0.000000 0.058829 0.000000 0.031148
# 5 0.014991 0.002216 0.013687 0.000000 0.065819 0.000000
# 6 0.000000 0.000000 0.000000 0.031148 0.000000 0.065065
#
#
# Mechanical properties :
#
#
# Convention : Reuss Voigt Hill
#
# Bulk Modulus (GPa) = 33.78533 74.12147 53.95340
# Shear Modulus (GPa) = 13.41765 20.08819 16.75292
#
# Velocity S-wave (km/s) = 3.03968 3.71929 3.39653
# Velocity P-wave (km/s) = 5.96530 8.33580 7.24812
#
# Compressibility (1/GPa) = 0.02959865
#
# Stress axis : x y z
#
# Youngs Moduli (GPa) = 28.92402 51.59640 21.10724
#
# Poissons Ratio (x) = 0.26991 0.35352
# Poissons Ratio (y) = 0.15131 0.29311
# Poissons Ratio (z) = 0.48444 0.71650
#
# Static dielectric constant tensor:
#      x y z
#    x 1.463500 0.000000 -0.016570 
#    y 0.000000 1.485640 0.000000 
#    z -0.016570 0.000000 1.449790 
# 
# From -- ./inp_files/248237.got.cif
#   From: 2010.05.17/outbox.cif.g08.bks.cpg/sg12_125_cif.got.tgz:248237.got - 2010.06.03 13:09:07.
