data_PCOD9169778
_publ_section_title
;
Structure prediction by ZEFSAII (Michael W. Deem and Ramdas Pophale) SiO2 
 PCOD9169778
Probable space group: C 2/M
;
_chemical_formula_sum "Si O2"
_cell_formula_units_Z 48
_cell_length_a 24.908894
_cell_length_b 8.565384
_cell_length_c 14.756833
_cell_angle_alpha 90.000000
_cell_angle_beta 109.536530
_cell_angle_gamma 90.000000
_cell_volume 2967.172835
_symmetry_space_group_name_H-M "C 2/M"
_symmetry_group_IT_number 12
_symmetry_cell_setting 'monoclinic'
loop_
_space_group_symop_operation_xyz
x,y,z
-x,y,-z
-x,-y,-z
x,-y,z
1/2+x,1/2+y,z
1/2-x,1/2+y,-z
1/2-x,1/2-y,-z
1/2+x,1/2-y,z
loop_
_atom_site_type_symbol
_atom_site_label
_atom_site_fract_x
_atom_site_fract_y
_atom_site_fract_z
Si Si1 0.026030 0.686708 0.150136
Si Si2 0.374251 0.189710 0.669485
Si Si3 0.734977 0.186918 0.271453
Si Si4 0.918660 0.186438 0.002168
Si Si5 0.212449 0.186696 0.060693
Si Si6 0.198204 0.687481 0.532695
O O1 0.019154 0.500000 0.149757
O O2 0.065563 0.740725 0.255717
O O3 0.964647 0.765161 0.103669
O O4 0.060863 0.730436 0.078609
O O5 0.322848 0.239465 0.708068
O O6 0.357060 0.234890 0.557511
O O7 0.374231 0.000000 0.671945
O O8 0.733442 0.250307 0.169345
O O9 0.788414 0.245026 0.361169
O O10 0.734739 0.000000 0.270466
O O11 0.921415 0.000000 0.989770
O O12 0.854065 0.231872 0.987326
O O13 0.215200 0.000000 0.063181
O O14 0.250000 0.250000 0.000000
O O15 0.200339 0.500000 0.537734
O O16 0.250000 0.750000 0.500000
#
# Coordination Sequence:
#
# PCOD9169778 Si02
#       6
#     8   8   8   8   8   8
#     4  10  17  28  48  70  94 129 160 188 231 283
#     4   8  15  26  43  68  96 125 156 189 227 277
#     4  10  18  31  47  66  95 126 159 199 238 283
#     4  10  20  32  44  67  96 123 156 198 241 280
#     4  11  23  36  51  69  93 127 165 203 242 284
#     4   9  16  27  42  65  95 126 159 193 234 283
#
# _framework density 16.177015000000001
#
# number of rings (size 3 to 8) (size 9 to 14) (size 15 to 20)
#    0.000    2.333    1.667    4.500    0.000    2.000 
#    0.000    2.500    0.000    0.000    0.000    1.167 
#    0.000    9.333    0.000    0.000    0.000    0.000 
#
# Total GULP energy -133728.024699 kJ/mol
# GULP energy per Si atom -5572.001029 kJ/mol
# Density = 1.614020 g / cm^3
# Si number density = 16.177015 Si / 1000 Ang^3
#
#
#
# Elastic Constant Matrix: (Units=GPa)
#
#
# Indices 1 2 3 4 5 6 
#
# 1 67.2534 21.2340 65.3823 0.0000 10.0601 0.0000
# 2 21.2340 40.1733 27.8391 0.0000 1.3670 0.0000
# 3 65.3823 27.8391 156.8051 0.0000 29.3167 0.0000
# 4 0.0000 0.0000 0.0000 25.8873 0.0000 2.0451
# 5 10.0601 1.3670 29.3167 0.0000 25.6600 0.0000
# 6 0.0000 0.0000 0.0000 2.0451 0.0000 19.2418
#
#
#
# Elastic Compliance Matrix: (Units=1/GPa)
#
#
# Indices 1 2 3 4 5 6 
#
# 1 0.026811 -0.007161 -0.010191 0.000000 0.001513 0.000000
# 2 -0.007161 0.030897 -0.003455 0.000000 0.005109 0.000000
# 3 -0.010191 -0.003455 0.013299 0.000000 -0.011015 0.000000
# 4 0.000000 0.000000 0.000000 0.038956 0.000000 -0.004140
# 5 0.001513 0.005109 -0.011015 0.000000 0.050691 0.000000
# 6 0.000000 0.000000 0.000000 -0.004140 0.000000 0.052410
#
#
# Mechanical properties :
#
#
# Convention : Reuss Voigt Hill
#
# Bulk Modulus (GPa) = 34.01952 54.79362 44.40657
# Shear Modulus (GPa) = 18.90532 24.14291 21.52412
#
# Velocity S-wave (km/s) = 3.42227 3.86738 3.65161
# Velocity P-wave (km/s) = 6.05732 7.34077 6.72971
#
# Compressibility (1/GPa) = 0.02939489
#
# Stress axis : x y z
#
# Youngs Moduli (GPa) = 37.29815 32.36525 75.19151
#
# Poissons Ratio (x) = 0.23176 0.76627
# Poissons Ratio (y) = 0.26708 0.25977
# Poissons Ratio (z) = 0.38010 0.11182
#
# Static dielectric constant tensor:
#      x y z
#    x 1.523570 0.000000 0.045100 
#    y 0.000000 1.549170 0.000000 
#    z 0.045100 0.000000 1.572980 
# 
# From -- ./inp_files/242744.got.cif
#   From: 2010.05.17/outbox.cif.g08.bks.cpg/sg12_122_cif.got.tgz:242744.got - 2010.06.03 13:09:07.
