data_PCOD9169443
_publ_section_title
;
Structure prediction by ZEFSAII (Michael W. Deem and Ramdas Pophale) SiO2 
 PCOD9169443
Probable space group: C 2/M
;
_chemical_formula_sum "Si O2"
_cell_formula_units_Z 56
_cell_length_a 27.701522
_cell_length_b 7.621935
_cell_length_c 18.296237
_cell_angle_alpha 90.000000
_cell_angle_beta 125.616571
_cell_angle_gamma 90.000000
_cell_volume 3140.400690
_symmetry_space_group_name_H-M "C 2/M"
_symmetry_group_IT_number 12
_symmetry_cell_setting 'monoclinic'
loop_
_space_group_symop_operation_xyz
x,y,z
-x,y,-z
-x,-y,-z
x,-y,z
1/2+x,1/2+y,z
1/2-x,1/2+y,-z
1/2-x,1/2-y,-z
1/2+x,1/2-y,z
loop_
_atom_site_type_symbol
_atom_site_label
_atom_site_fract_x
_atom_site_fract_y
_atom_site_fract_z
Si Si1 0.708616 0.702891 0.774610
Si Si2 0.508320 0.795874 0.392208
Si Si3 0.172433 0.715107 0.060899
Si Si4 0.536445 0.784947 0.961545
Si Si5 0.596333 0.296533 0.592178
Si Si6 0.981678 0.709293 0.214232
Si Si7 0.659069 0.791277 0.886685
O O1 0.715198 0.500000 0.758244
O O2 0.774720 0.778450 0.840470
O O3 0.657488 0.781005 0.677804
O O4 0.683647 0.706128 0.835384
O O5 0.453738 0.712336 0.388505
O O6 0.566009 0.784266 0.494045
O O7 0.514825 0.724065 0.315861
O O8 0.491599 0.000000 0.371340
O O9 0.173390 0.500000 0.060794
O O10 0.105840 0.766905 0.023978
O O11 0.183871 0.770523 0.986833
O O12 0.509316 0.723368 0.860036
O O13 0.536107 0.000000 0.960478
O O14 0.500000 0.727551 0.000000
O O15 0.605777 0.500000 0.583584
O O16 0.992953 0.500000 0.219598
O O17 0.911835 0.734357 0.169872
O O18 0.669403 0.000000 0.889512
#
# Coordination Sequence:
#
# PCOD9169443 Si02
#       7
#     8   8   8   8   8   8   8
#     4  10  18  26  36  54  82 111 134 161 194 230
#     4  10  17  27  41  55  76 106 138 168 200 232
#     4   8  15  25  37  55  79 106 132 160 198 236
#     4   8  13  23  40  61  83 103 125 160 206 247
#     4  10  19  27  36  53  80 109 140 170 192 224
#     4   8  14  23  37  58  80 102 129 164 201 234
#     4   9  15  25  39  54  78 108 136 162 187 228
#
# _framework density 17.832118999999999
#
# number of rings (size 3 to 8) (size 9 to 14) (size 15 to 20)
#    0.000    3.000    1.429    3.857    0.000    0.571 
#    0.000    0.000    0.000    0.000    0.000    1.000 
#    0.000   28.000    0.000    0.000    0.000    0.000 
#
# Total GULP energy -155968.668373 kJ/mol
# GULP energy per Si atom -5570.309585 kJ/mol
# Density = 1.779153 g / cm^3
# Si number density = 17.832119 Si / 1000 Ang^3
#
#
#
# Elastic Constant Matrix: (Units=GPa)
#
#
# Indices 1 2 3 4 5 6 
#
# 1 62.4917 -0.6992 56.7253 -0.0001 -10.3642 0.0000
# 2 -0.6992 34.3499 1.7236 -0.0008 -0.5535 0.0001
# 3 56.7253 1.7236 169.8893 -0.0001 3.6967 0.0000
# 4 -0.0001 -0.0008 -0.0001 245.8027 0.0000 -6.6869
# 5 -10.3642 -0.5535 3.6967 0.0000 25.0158 0.0000
# 6 0.0000 0.0001 0.0000 -6.6869 0.0000 5.1952
#
#
#
# Elastic Compliance Matrix: (Units=1/GPa)
#
#
# Indices 1 2 3 4 5 6 
#
# 1 0.026256 0.001186 -0.009045 0.000000 0.012241 0.000000
# 2 0.001186 0.029192 -0.000719 0.000000 0.001243 0.000000
# 3 -0.009045 -0.000719 0.009025 0.000000 -0.005097 0.000000
# 4 0.000000 0.000000 0.000000 0.004216 0.000000 0.005426
# 5 0.012241 0.001243 -0.005097 0.000000 0.045827 0.000000
# 6 0.000000 0.000000 0.000000 0.005426 0.000000 0.199468
#
#
# Mechanical properties :
#
#
# Convention : Reuss Voigt Hill
#
# Bulk Modulus (GPa) = 21.13463 42.47003 31.80233
# Shear Modulus (GPa) = 14.41281 69.13483 41.77382
#
# Velocity S-wave (km/s) = 2.84606 6.23330 4.84531
# Velocity P-wave (km/s) = 4.76212 8.69906 7.01254
#
# Compressibility (1/GPa) = 0.04731570
#
# Stress axis : x y z
#
# Youngs Moduli (GPa) = 38.08638 34.25548 110.80890
#
# Poissons Ratio (x) = -0.04061 1.00229
# Poissons Ratio (y) = -0.04516 0.07968
# Poissons Ratio (z) = 0.34450 0.02463
#
# Static dielectric constant tensor:
#      x y z
#    x 1.577990 0.000000 0.017030 
#    y 0.000000 1.652850 0.000000 
#    z 0.017030 0.000000 1.677500 
# 
# From -- ./inp_files/291680.got.cif
#   From: 2010.05.17/outbox.cif.g08.bks.cpg/sg12_146_cif.got.tgz:291680.got - 2010.06.03 13:09:07.
