data_PCOD9169605
_publ_section_title
;
Structure prediction by ZEFSAII (Michael W. Deem and Ramdas Pophale) SiO2 
 PCOD9169605
Probable space group: C 2/M
;
_chemical_formula_sum "Si O2"
_cell_formula_units_Z 48
_cell_length_a 35.913516
_cell_length_b 7.892012
_cell_length_c 20.513404
_cell_angle_alpha 90.000000
_cell_angle_beta 153.364279
_cell_angle_gamma 90.000000
_cell_volume 2606.562125
_symmetry_space_group_name_H-M "C 2/M"
_symmetry_group_IT_number 12
_symmetry_cell_setting 'monoclinic'
loop_
_space_group_symop_operation_xyz
x,y,z
-x,y,-z
-x,-y,-z
x,-y,z
1/2+x,1/2+y,z
1/2-x,1/2+y,-z
1/2-x,1/2-y,-z
1/2+x,1/2-y,z
loop_
_atom_site_type_symbol
_atom_site_label
_atom_site_fract_x
_atom_site_fract_y
_atom_site_fract_z
Si Si1 0.240123 0.300529 0.335681
Si Si2 0.910277 0.705246 0.670643
Si Si3 0.131934 0.000000 0.671817
Si Si4 0.997507 0.305814 0.311178
Si Si5 0.679047 0.813956 0.665753
Si Si6 0.947740 0.000000 0.316499
Si Si7 0.080446 0.292814 0.165917
O O1 0.228439 0.500000 0.304899
O O2 0.323805 0.276036 0.508243
O O3 0.255719 0.214601 0.290421
O O4 0.162987 0.236439 0.257272
O O5 0.923400 0.761743 0.765054
O O6 0.982233 0.747974 0.731351
O O7 0.595966 0.000000 0.340654
O O8 0.178008 0.165171 0.716477
O O9 0.116393 0.000000 0.724396
O O10 0.039921 0.000000 0.494223
O O11 0.966404 0.500000 0.264338
O O12 0.088734 0.307955 0.488541
O O13 0.944661 0.167769 0.267223
O O14 0.688923 0.000000 0.710227
O O15 0.082178 0.500000 0.169665
O O16 0.000000 0.239684 0.000000
#
# Coordination Sequence:
#
# PCOD9169605 Si02
#       7
#     8   8   4   8   8   4   8
#     4  10  17  27  47  69  90 125 170 202 236 285
#     4   9  17  29  46  67  90 124 168 201 236 286
#     4   9  16  26  38  64  91 122 158 182 238 295
#     4   8  15  25  39  61  86 120 158 190 231 279
#     4   9  16  27  42  61  90 123 157 197 232 279
#     4   9  16  24  40  60  93 124 148 192 234 287
#     4   9  18  31  46  67  96 128 158 205 247 287
#
# _framework density 18.415061000000001
#
# number of rings (size 3 to 8) (size 9 to 14) (size 15 to 20)
#    0.000    3.000    0.833    2.000    3.500    0.667 
#    0.000    4.167    0.000    4.500    0.000    0.000 
#    0.000    1.333    0.667    0.000    0.000    0.000 
#
# Total GULP energy -133769.310680 kJ/mol
# GULP energy per Si atom -5573.721278 kJ/mol
# Density = 1.837315 g / cm^3
# Si number density = 18.415061 Si / 1000 Ang^3
#
#
#
# Elastic Constant Matrix: (Units=GPa)
#
#
# Indices 1 2 3 4 5 6 
#
# 1 189.0119 83.8885 34.2772 0.0000 -4.7399 0.0000
# 2 83.8885 97.2582 13.4365 0.0000 -3.5679 0.0000
# 3 34.2772 13.4365 20.0046 0.0000 -3.0358 0.0000
# 4 0.0000 0.0000 0.0000 18.3130 0.0000 -31.0767
# 5 -4.7399 -3.5679 -3.0358 0.0000 -3.6503 0.0000
# 6 0.0000 0.0000 0.0000 -31.0767 0.0000 81.9154
#
#
#
# Elastic Compliance Matrix: (Units=1/GPa)
#
#
# Indices 1 2 3 4 5 6 
#
# 1 0.011255 -0.007693 -0.013492 0.000000 0.004125 0.000000
# 2 -0.007693 0.016519 0.001022 0.000000 -0.007007 0.000000
# 3 -0.013492 0.001022 0.066531 0.000000 -0.038810 0.000000
# 4 0.000000 0.000000 0.000000 0.153297 0.000000 0.058157
# 5 0.004125 -0.007007 -0.038810 0.000000 -0.240180 0.000000
# 6 0.000000 0.000000 0.000000 0.058157 0.000000 0.034271
#
#
# Mechanical properties :
#
#
# Convention : Reuss Voigt Hill
#
# Bulk Modulus (GPa) = 18.52554 63.27547 40.90050
# Shear Modulus (GPa) = 49.99463 30.96046 40.47754
#
# Velocity S-wave (km/s) = 5.21610 4.10476 4.69344
# Velocity P-wave (km/s) = 6.80873 7.54326 7.18539
#
# Compressibility (1/GPa) = 0.05397953
#
# Stress axis : x y z
#
# Youngs Moduli (GPa) = 88.84845 60.53739 15.03066
#
# Poissons Ratio (x) = 0.46569 0.20280
# Poissons Ratio (y) = 0.68347 -0.01537
# Poissons Ratio (z) = 1.19877 -0.06190
#
# Static dielectric constant tensor:
#      x y z
#    x 1.632100 0.000000 0.001480 
#    y 0.000000 1.653740 0.000000 
#    z 0.001480 0.000000 1.590630 
# 
# From -- ./inp_files/295921.got.cif
#   From: 2010.05.17/outbox.cif.g08.bks.cpg/sg12_148_cif.got.tgz:295921.got - 2010.06.03 13:09:07.
