data_PCOD9169364
_publ_section_title
;
Structure prediction by ZEFSAII (Michael W. Deem and Ramdas Pophale) SiO2 
 PCOD9169364
Probable space group: C 2/M
;
_chemical_formula_sum "Si O2"
_cell_formula_units_Z 64
_cell_length_a 24.660314
_cell_length_b 13.722754
_cell_length_c 12.230841
_cell_angle_alpha 90.000000
_cell_angle_beta 113.276476
_cell_angle_gamma 90.000000
_cell_volume 3802.128202
_symmetry_space_group_name_H-M "C 2/M"
_symmetry_group_IT_number 12
_symmetry_cell_setting 'monoclinic'
loop_
_space_group_symop_operation_xyz
x,y,z
-x,y,-z
-x,-y,-z
x,-y,z
1/2+x,1/2+y,z
1/2-x,1/2+y,-z
1/2-x,1/2-y,-z
1/2+x,1/2-y,z
loop_
_atom_site_type_symbol
_atom_site_label
_atom_site_fract_x
_atom_site_fract_y
_atom_site_fract_z
Si Si1 0.437221 0.753058 0.989209
Si Si2 0.904320 0.888444 0.764819
Si Si3 0.215508 0.109004 0.996009
Si Si4 0.270509 0.389003 0.584130
Si Si5 0.630694 0.612030 0.715376
Si Si6 0.471345 0.615075 0.219177
Si Si7 0.770230 0.195198 0.346162
Si Si8 0.812526 0.688411 0.921614
O O1 0.415210 0.684966 0.872345
O O2 0.382680 0.823671 0.972217
O O3 0.500000 0.796195 0.000000
O O4 0.449696 0.682582 0.102335
O O5 0.840185 0.875501 0.663080
O O6 0.958028 0.875191 0.722226
O O7 0.909042 0.000000 0.809549
O O8 0.169366 0.114912 0.858300
O O9 0.279020 0.131383 0.991721
O O10 0.212761 0.000000 0.040415
O O11 0.199821 0.196675 0.064118
O O12 0.254551 0.500000 0.597175
O O13 0.237286 0.307933 0.628207
O O14 0.261040 0.365331 0.449295
O O15 0.630090 0.500000 0.676487
O O16 0.565388 0.641003 0.701867
O O17 0.666280 0.674511 0.656594
O O18 0.458212 0.500000 0.186653
O O19 0.721287 0.165390 0.217484
#
# Coordination Sequence:
#
# PCOD9169364 Si02
#       8
#     8   8   8   8   8   8   8   8
#     4  10  17  26  43  68  98 126 152 183 225 274
#     4   9  17  28  43  66  95 127 157 185 222 272
#     4   9  18  29  45  68  97 127 151 184 229 278
#     4  10  20  34  49  66  92 123 158 199 235 271
#     4   9  16  28  46  69  98 128 153 181 222 274
#     4   9  16  26  43  68  99 129 152 175 217 283
#     4  10  20  32  47  66  93 123 157 197 234 271
#     4  10  18  30  46  70  97 122 156 190 226 279
#
# _framework density 16.832678000000001
#
# number of rings (size 3 to 8) (size 9 to 14) (size 15 to 20)
#    0.000    2.500    2.500    0.750    0.000    3.000 
#    0.000    0.625    0.000    3.375    0.000    0.000 
#    0.000    9.000    0.000    0.000    0.000    0.000 
#
# Total GULP energy -178363.804020 kJ/mol
# GULP energy per Si atom -5573.868876 kJ/mol
# Density = 1.679437 g / cm^3
# Si number density = 16.832678 Si / 1000 Ang^3
#
#
#
# Elastic Constant Matrix: (Units=GPa)
#
#
# Indices 1 2 3 4 5 6 
#
# 1 112.6417 25.5373 6.8882 0.0000 -13.7685 0.0000
# 2 25.5373 35.4438 2.4565 0.0000 1.7026 0.0000
# 3 6.8882 2.4565 29.1199 0.0000 -2.3631 0.0000
# 4 0.0000 0.0000 0.0000 8.4239 0.0000 -0.3609
# 5 -13.7685 1.7026 -2.3631 0.0000 13.4372 0.0000
# 6 0.0000 0.0000 0.0000 -0.3609 0.0000 22.9577
#
#
#
# Elastic Compliance Matrix: (Units=1/GPa)
#
#
# Indices 1 2 3 4 5 6 
#
# 1 0.012951 -0.009947 -0.001060 0.000000 0.014344 0.000000
# 2 -0.009947 0.036241 -0.001932 0.000000 -0.015124 0.000000
# 3 -0.001060 -0.001932 0.035188 0.000000 0.005347 0.000000
# 4 0.000000 0.000000 0.000000 0.118789 0.000000 0.001868
# 5 0.014344 -0.015124 0.005347 0.000000 0.091975 0.000000
# 6 0.000000 0.000000 0.000000 0.001868 0.000000 0.043588
#
#
# Mechanical properties :
#
#
# Convention : Reuss Voigt Hill
#
# Bulk Modulus (GPa) = 17.09327 27.44104 22.26715
# Shear Modulus (GPa) = 13.01709 18.45197 15.73453
#
# Velocity S-wave (km/s) = 2.78389 3.31448 3.06070
# Velocity P-wave (km/s) = 4.52882 5.56645 5.07423
#
# Compressibility (1/GPa) = 0.05850256
#
# Stress axis : x y z
#
# Youngs Moduli (GPa) = 77.21466 27.59327 28.41842
#
# Poissons Ratio (x) = 0.27446 0.03013
# Poissons Ratio (y) = 0.76803 0.05490
# Poissons Ratio (z) = 0.08188 0.05330
#
# Static dielectric constant tensor:
#      x y z
#    x 1.611610 0.000000 -0.000520 
#    y 0.000000 1.558600 0.000000 
#    z -0.000520 0.000000 1.561520 
# 
# From -- ./inp_files/176134.got.cif
#   From: 2010.05.17/outbox.cif.g08.bks.cpg/sg12_89_cif.got.tgz:176134.got - 2010.06.03 13:09:07.
