data_PCOD9169520
_publ_section_title
;
Structure prediction by ZEFSAII (Michael W. Deem and Ramdas Pophale) SiO2 
 PCOD9169520
Probable space group: C 2/M
;
_chemical_formula_sum "Si O2"
_cell_formula_units_Z 64
_cell_length_a 26.434671
_cell_length_b 8.619610
_cell_length_c 22.149332
_cell_angle_alpha 90.000000
_cell_angle_beta 52.843012
_cell_angle_gamma 90.000000
_cell_volume 4022.272831
_symmetry_space_group_name_H-M "C 2/M"
_symmetry_group_IT_number 12
_symmetry_cell_setting 'monoclinic'
loop_
_space_group_symop_operation_xyz
x,y,z
-x,y,-z
-x,-y,-z
x,-y,z
1/2+x,1/2+y,z
1/2-x,1/2+y,-z
1/2-x,1/2-y,-z
1/2+x,1/2-y,z
loop_
_atom_site_type_symbol
_atom_site_label
_atom_site_fract_x
_atom_site_fract_y
_atom_site_fract_z
Si Si1 0.603116 0.687660 0.412755
Si Si2 0.139920 0.313681 0.836887
Si Si3 0.439964 0.180085 0.997199
Si Si4 0.525241 0.315073 0.838638
Si Si5 0.511831 0.311265 0.587614
Si Si6 0.243748 0.685697 0.318211
Si Si7 0.559813 0.689209 0.681721
Si Si8 0.206958 0.812624 0.585020
O O1 0.607950 0.500000 0.408592
O O2 0.554891 0.735679 0.394113
O O3 0.567742 0.732532 0.500667
O O4 0.672385 0.758785 0.358868
O O5 0.138680 0.500000 0.838224
O O6 0.117851 0.260853 0.919769
O O7 0.207036 0.253229 0.765665
O O8 0.086243 0.255967 0.828731
O O9 0.429467 0.000000 0.989354
O O10 0.500000 0.185826 0.000000
O O11 0.463159 0.268552 0.921315
O O12 0.532557 0.500000 0.834865
O O13 0.526727 0.263059 0.768036
O O14 0.511340 0.500000 0.588683
O O15 0.526614 0.256189 0.644262
O O16 0.247150 0.500000 0.314046
O O17 0.266562 0.736972 0.368728
O O18 0.559233 0.500000 0.680898
O O19 0.633696 0.736503 0.630386
O O20 0.250000 0.750000 0.500000
O O21 0.208215 0.000000 0.582452
#
# Coordination Sequence:
#
# PCOD9169520 Si02
#       8
#     8   8   8   8   8   8   8   8
#     4   9  17  31  51  71  87 117 163 200 232 269
#     4  10  19  31  46  64  91 125 158 191 224 269
#     4   8  16  29  43  62  89 121 155 189 225 266
#     4  10  17  27  44  67  95 125 153 185 231 280
#     4   8  15  29  50  70  89 117 159 202 230 265
#     4  11  21  32  46  68  97 124 151 190 237 280
#     4   9  16  28  44  65  95 123 149 188 230 269
#     4  10  20  32  44  63  92 123 155 185 223 273
#
# _framework density 15.911403
#
# number of rings (size 3 to 8) (size 9 to 14) (size 15 to 20)
#    0.000    2.625    1.250    3.375    0.000    4.750 
#    0.000    1.250    0.000    3.000    0.000    0.875 
#    0.000    0.000    0.000    0.000    0.000    0.000 
#
# Total GULP energy -178338.363680 kJ/mol
# GULP energy per Si atom -5573.073865 kJ/mol
# Density = 1.587519 g / cm^3
# Si number density = 15.911403 Si / 1000 Ang^3
#
#
#
# Elastic Constant Matrix: (Units=GPa)
#
#
# Indices 1 2 3 4 5 6 
#
# 1 98.8016 20.4608 82.7794 -0.0001 5.5216 -0.0007
# 2 20.4608 22.1004 30.7156 -0.0008 1.0294 -0.0018
# 3 82.7794 30.7156 161.6319 -0.0007 8.9037 0.0009
# 4 -0.0001 -0.0008 -0.0007 21.2467 0.0004 -5.0702
# 5 5.5216 1.0294 8.9037 0.0004 19.2183 -0.0005
# 6 -0.0007 -0.0018 0.0009 -5.0702 -0.0005 12.9724
#
#
#
# Elastic Compliance Matrix: (Units=1/GPa)
#
#
# Indices 1 2 3 4 5 6 
#
# 1 0.018195 -0.005337 -0.008242 0.000000 -0.001123 0.000001
# 2 -0.005337 0.063142 -0.009404 0.000005 0.002508 0.000011
# 3 -0.008242 -0.009404 0.012352 -0.000001 -0.002851 -0.000003
# 4 0.000000 0.000005 -0.000001 0.051907 0.000000 0.020288
# 5 -0.001123 0.002508 -0.002851 0.000000 0.053543 0.000002
# 6 0.000001 0.000011 -0.000003 0.020288 0.000002 0.085016
#
#
# Mechanical properties :
#
#
# Convention : Reuss Voigt Hill
#
# Bulk Modulus (GPa) = 20.95447 61.16061 41.05754
# Shear Modulus (GPa) = 14.44954 20.59270 17.52112
#
# Velocity S-wave (km/s) = 3.01678 3.60142 3.32198
# Velocity P-wave (km/s) = 5.03316 7.47096 6.36977
#
# Compressibility (1/GPa) = 0.04772252
#
# Stress axis : x y z
#
# Youngs Moduli (GPa) = 54.95950 15.83720 80.95619
#
# Poissons Ratio (x) = 0.08453 0.66728
# Poissons Ratio (y) = 0.29334 0.76130
# Poissons Ratio (z) = 0.45300 0.14893
#
# Static dielectric constant tensor:
#      x y z
#    x 1.514700 0.000000 0.012610 
#    y 0.000000 1.542170 0.000000 
#    z 0.012610 0.000000 1.544870 
# 
# From -- ./inp_files/348526.got.cif
#   From: 2010.05.17/outbox.cif.g08.bks.cpg/sg12_175_cif.got.tgz:348526.got - 2010.06.03 13:09:07.
