data_PCOD9169996
_publ_section_title
;
Structure prediction by ZEFSAII (Michael W. Deem and Ramdas Pophale) SiO2 
 PCOD9169996
Probable space group: C 2/M
;
_chemical_formula_sum "Si O2"
_cell_formula_units_Z 56
_cell_length_a 19.827763
_cell_length_b 7.581673
_cell_length_c 24.677941
_cell_angle_alpha 90.000000
_cell_angle_beta 49.456508
_cell_angle_gamma 90.000000
_cell_volume 2819.106153
_symmetry_space_group_name_H-M "C 2/M"
_symmetry_group_IT_number 12
_symmetry_cell_setting 'monoclinic'
loop_
_space_group_symop_operation_xyz
x,y,z
-x,y,-z
-x,-y,-z
x,-y,z
1/2+x,1/2+y,z
1/2-x,1/2+y,-z
1/2-x,1/2-y,-z
1/2+x,1/2-y,z
loop_
_atom_site_type_symbol
_atom_site_label
_atom_site_fract_x
_atom_site_fract_y
_atom_site_fract_z
Si Si1 0.188603 0.288477 0.200542
Si Si2 0.635769 0.715235 0.404124
Si Si3 0.514597 0.703689 0.691380
Si Si4 0.047903 0.215311 0.557810
Si Si5 0.701697 0.210292 0.751916
Si Si6 0.181411 0.711454 0.083130
Si Si7 0.015971 0.297171 0.813164
O O1 0.179843 0.500000 0.205753
O O2 0.091301 0.212643 0.264380
O O3 0.259013 0.237370 0.209014
O O4 0.211234 0.229487 0.127549
O O5 0.636403 0.500000 0.403132
O O6 0.618279 0.769353 0.475285
O O7 0.548822 0.768013 0.414952
O O8 0.724961 0.779028 0.328896
O O9 0.540233 0.500000 0.685259
O O10 0.559542 0.776281 0.613366
O O11 0.529596 0.795400 0.740979
O O12 0.047468 0.000000 0.559933
O O13 0.603320 0.284011 0.794279
O O14 0.696171 0.000000 0.745126
O O15 0.173666 0.500000 0.090718
O O16 0.081493 0.782361 0.125635
O O17 0.250000 0.750000 0.000000
O O18 0.010763 0.500000 0.834573
#
# Coordination Sequence:
#
# PCOD9169996 Si02
#       7
#     8   8   8   8   8   8   8
#     4  10  20  33  51  76 105 129 157 204 251 285
#     4   8  13  23  42  69  97 125 162 210 249 278
#     4  10  17  29  50  73  95 130 178 210 239 294
#     4   8  13  22  41  70  97 121 164 217 247 274
#     4  10  18  32  53  74  98 134 174 200 237 299
#     4   9  19  36  55  75  98 126 158 196 242 290
#     4   9  20  35  50  73 105 132 158 203 253 290
#
# _framework density 19.864452
#
# number of rings (size 3 to 8) (size 9 to 14) (size 15 to 20)
#    0.000    2.857    1.429    2.571    0.000    3.429 
#    0.000    1.429    0.000    6.857    0.000    0.000 
#    0.000    0.000    0.000    0.000    0.000    0.000 
#
# Total GULP energy -156100.696595 kJ/mol
# GULP energy per Si atom -5575.024878 kJ/mol
# Density = 1.981924 g / cm^3
# Si number density = 19.864452 Si / 1000 Ang^3
#
#
#
# Elastic Constant Matrix: (Units=GPa)
#
#
# Indices 1 2 3 4 5 6 
#
# 1 114.9045 -6.7870 61.5552 0.0000 -9.9807 0.0010
# 2 -6.7870 41.7107 -3.4092 0.0007 -7.5446 -0.0013
# 3 61.5552 -3.4092 148.9450 -0.0001 4.0246 0.0000
# 4 0.0000 0.0007 -0.0001 3.4998 0.0000 8.9407
# 5 -9.9807 -7.5446 4.0246 0.0000 19.5690 0.0001
# 6 0.0010 -0.0013 0.0000 8.9407 0.0001 12.1029
#
#
#
# Elastic Compliance Matrix: (Units=1/GPa)
#
#
# Indices 1 2 3 4 5 6 
#
# 1 0.012500 0.003171 -0.005328 -0.000001 0.008693 0.000000
# 2 0.003171 0.026592 -0.001028 0.000013 0.012081 -0.000007
# 3 -0.005328 -0.001028 0.009027 0.000001 -0.004970 0.000000
# 4 -0.000001 0.000013 0.000001 -0.322069 0.000002 0.237921
# 5 0.008693 0.012081 -0.004970 0.000002 0.061215 -0.000002
# 6 0.000000 -0.000007 0.000000 0.237921 -0.000002 -0.093134
#
#
# Mechanical properties :
#
#
# Convention : Reuss Voigt Hill
#
# Bulk Modulus (GPa) = 23.95380 45.36425 34.65902
# Shear Modulus (GPa) = -17.50799 23.98109 3.23655
#
# Velocity S-wave (km/s) = -2.97201 3.47830 1.27783
# Velocity P-wave (km/s) = 0.55466 6.24643 4.43427
#
# Compressibility (1/GPa) = 0.04174703
#
# Stress axis : x y z
#
# Youngs Moduli (GPa) = 80.00265 37.60567 110.78344
#
# Poissons Ratio (x) = -0.11924 0.59026
# Poissons Ratio (y) = -0.25367 0.11391
# Poissons Ratio (z) = 0.42626 0.03867
#
# Static dielectric constant tensor:
#      x y z
#    x 1.698130 0.000000 0.005290 
#    y 0.000000 1.749600 0.000000 
#    z 0.005290 0.000000 1.710170 
# 
# From -- ./inp_files/342297.got.cif
#   From: 2010.05.17/outbox.cif.g08.bks.cpg/sg12_172_cif.got.tgz:342297.got - 2010.06.03 13:09:07.
