data_PCOD9169533
_publ_section_title
;
Structure prediction by ZEFSAII (Michael W. Deem and Ramdas Pophale) SiO2 
 PCOD9169533
Probable space group: C 2/M
;
_chemical_formula_sum "Si O2"
_cell_formula_units_Z 56
_cell_length_a 18.399743
_cell_length_b 30.904936
_cell_length_c 8.565324
_cell_angle_alpha 90.000000
_cell_angle_beta 34.392091
_cell_angle_gamma 90.000000
_cell_volume 2751.179448
_symmetry_space_group_name_H-M "C 2/M"
_symmetry_group_IT_number 12
_symmetry_cell_setting 'monoclinic'
loop_
_space_group_symop_operation_xyz
x,y,z
-x,y,-z
-x,-y,-z
x,-y,z
1/2+x,1/2+y,z
1/2-x,1/2+y,-z
1/2-x,1/2-y,-z
1/2+x,1/2-y,z
loop_
_atom_site_type_symbol
_atom_site_label
_atom_site_fract_x
_atom_site_fract_y
_atom_site_fract_z
Si Si1 0.070717 0.605793 0.201989
Si Si2 0.899081 0.205917 0.823186
Si Si3 0.479002 0.615007 0.720948
Si Si4 0.619712 0.548908 0.665324
Si Si5 0.259622 0.451683 0.039031
Si Si6 0.382661 0.800108 0.831810
Si Si7 0.615651 0.952971 0.615794
O O1 0.187422 0.572809 0.028007
O O2 0.110227 0.654532 0.091896
O O3 0.000000 0.608665 0.500000
O O4 0.984508 0.585605 0.218583
O O5 0.939748 0.163046 0.847478
O O6 0.895234 0.254440 0.900403
O O7 0.000000 0.208889 0.500000
O O8 0.755075 0.198948 0.011959
O O9 0.500000 0.620611 0.500000
O O10 0.593862 0.589981 0.601436
O O11 0.365644 0.579864 0.923056
O O12 0.615000 0.500000 0.603037
O O13 0.756597 0.552986 0.508550
O O14 0.500000 0.549933 0.000000
O O15 0.306597 0.500000 0.916116
O O16 0.160707 0.456099 0.356117
O O17 0.500000 0.800217 0.500000
O O18 0.557765 0.000000 0.753112
#
# Coordination Sequence:
#
# PCOD9169533 Si02
#       7
#     8   8   8   8   8   8   8
#     4   9  16  26  45  73  98 122 165 214 260 295
#     4   9  18  31  46  72 107 136 166 211 271 319
#     4  11  21  32  48  72 103 135 171 208 257 313
#     4  10  19  32  49  69  99 138 173 209 254 306
#     4  10  17  27  44  70 101 128 160 209 254 297
#     4   9  16  28  49  74 101 132 171 219 262 311
#     4   9  17  29  46  69  99 131 163 206 258 304
#
# _framework density 20.354907000000001
#
# number of rings (size 3 to 8) (size 9 to 14) (size 15 to 20)
#    0.000    2.429    2.857    0.857    0.000    2.857 
#    0.000    0.000    0.000    1.714    0.000    3.000 
#    0.000    0.000    0.000    0.000    0.000    0.000 
#
# Total GULP energy -155916.034869 kJ/mol
# GULP energy per Si atom -5568.429817 kJ/mol
# Density = 2.030858 g / cm^3
# Si number density = 20.354907 Si / 1000 Ang^3
#
#
#
# Elastic Constant Matrix: (Units=GPa)
#
#
# Indices 1 2 3 4 5 6 
#
# 1 77.8599 76.7359 6.2056 0.0000 -16.8090 0.0000
# 2 76.7359 235.4176 1.9954 0.0000 -20.7818 0.0000
# 3 6.2056 1.9954 48.9140 0.0000 -6.4134 0.0000
# 4 0.0000 0.0000 0.0000 13.4102 0.0000 -15.9885
# 5 -16.8090 -20.7818 -6.4134 0.0000 22.6746 0.0000
# 6 0.0000 0.0000 0.0000 -15.9885 0.0000 14.9406
#
#
#
# Elastic Compliance Matrix: (Units=1/GPa)
#
#
# Indices 1 2 3 4 5 6 
#
# 1 0.020887 -0.005941 -0.001133 0.000000 0.009718 0.000000
# 2 -0.005941 0.006318 0.000704 0.000000 0.001586 0.000000
# 3 -0.001133 0.000704 0.021324 0.000000 0.005837 0.000000
# 4 0.000000 0.000000 0.000000 -0.270286 0.000000 -0.289244
# 5 0.009718 0.001586 0.005837 0.000000 0.054411 0.000000
# 6 0.000000 0.000000 0.000000 -0.289244 0.000000 -0.242600
#
#
# Mechanical properties :
#
#
# Convention : Reuss Voigt Hill
#
# Bulk Modulus (GPa) = 27.94134 59.11837 43.52985
# Shear Modulus (GPa) = -12.97773 28.68871 7.85549
#
# Velocity S-wave (km/s) = -2.52776 3.75830 1.96663
# Velocity P-wave (km/s) = 2.28855 6.92387 5.15642
#
# Compressibility (1/GPa) = 0.03578927
#
# Stress axis : x y z
#
# Youngs Moduli (GPa) = 47.87675 158.27221 46.89475
#
# Poissons Ratio (x) = 0.94025 0.05315
# Poissons Ratio (y) = 0.28442 -0.03301
# Poissons Ratio (z) = 0.05426 -0.11141
#
# Static dielectric constant tensor:
#      x y z
#    x 1.702530 0.000000 -0.008330 
#    y 0.000000 1.818690 0.000000 
#    z -0.008330 0.000000 1.545770 
# 
# From -- ./inp_files/80422.got.cif
#   From: 2010.05.17/outbox.cif.g08.bks.cpg/sg12_41_cif.got.tgz:80422.got - 2010.06.03 13:09:07.
