data_PCOD9169614
_publ_section_title
;
Structure prediction by ZEFSAII (Michael W. Deem and Ramdas Pophale) SiO2 
 PCOD9169614
Probable space group: C 2/M
;
_chemical_formula_sum "Si O2"
_cell_formula_units_Z 40
_cell_length_a 13.770753
_cell_length_b 7.692357
_cell_length_c 15.833941
_cell_angle_alpha 90.000000
_cell_angle_beta 112.756753
_cell_angle_gamma 90.000000
_cell_volume 1546.714831
_symmetry_space_group_name_H-M "C 2/M"
_symmetry_group_IT_number 12
_symmetry_cell_setting 'monoclinic'
loop_
_space_group_symop_operation_xyz
x,y,z
-x,y,-z
-x,-y,-z
x,-y,z
1/2+x,1/2+y,z
1/2-x,1/2+y,-z
1/2-x,1/2-y,-z
1/2+x,1/2-y,z
loop_
_atom_site_type_symbol
_atom_site_label
_atom_site_fract_x
_atom_site_fract_y
_atom_site_fract_z
Si Si1 0.420278 0.299961 0.080930
Si Si2 0.681464 0.786645 0.309703
Si Si3 0.941076 0.294085 0.269591
Si Si4 0.608968 0.304036 0.565583
Si Si5 0.652513 0.802876 0.116802
O O1 0.452348 0.500000 0.096403
O O2 0.383911 0.243808 0.161431
O O3 0.526842 0.194082 0.097338
O O4 0.345571 0.281010 0.974821
O O5 0.563963 0.743066 0.298704
O O6 0.774482 0.725303 0.402939
O O7 0.696190 0.721657 0.218056
O O8 0.685728 0.000000 0.308466
O O9 0.936234 0.500000 0.284626
O O10 0.901372 0.191412 0.336642
O O11 0.500000 0.216796 0.500000
O O12 0.609882 0.500000 0.530008
O O13 0.690750 0.000000 0.120844
#
# Coordination Sequence:
#
# PCOD9169614 Si02
#       5
#     8   8   8   8   8
#     4  10  17  27  47  77 109 139 176 218 260 306
#     4   8  17  34  55  78 108 144 176 212 262 317
#     4  10  20  36  56  78 107 143 180 216 261 317
#     4  10  21  38  58  80 106 136 174 223 274 318
#     4   9  15  27  48  74 107 145 179 210 254 311
#
# _framework density 25.861263999999998
#
# number of rings (size 3 to 8) (size 9 to 14) (size 15 to 20)
#    0.000    2.600    0.000    5.400    0.000    1.200 
#    0.000    7.000    0.000    0.000    0.000    0.000 
#    0.000    0.000    0.000    0.000    0.000    0.000 
#
# Total GULP energy -111752.391922 kJ/mol
# GULP energy per Si atom -5587.619596 kJ/mol
# Density = 2.580240 g / cm^3
# Si number density = 25.861264 Si / 1000 Ang^3
#
#
#
# Elastic Constant Matrix: (Units=GPa)
#
#
# Indices 1 2 3 4 5 6 
#
# 1 62.4820 -3.2586 20.9411 0.0000 12.3693 0.0000
# 2 -3.2586 94.7397 -6.1878 0.0000 -0.4581 0.0000
# 3 20.9411 -6.1878 101.0063 0.0000 33.7796 0.0000
# 4 0.0000 0.0000 0.0000 6.6559 0.0000 -12.8650
# 5 12.3693 -0.4581 33.7796 0.0000 59.0188 0.0000
# 6 0.0000 0.0000 0.0000 -12.8650 0.0000 6.6250
#
#
#
# Elastic Compliance Matrix: (Units=1/GPa)
#
#
# Indices 1 2 3 4 5 6 
#
# 1 0.017395 0.000398 -0.002923 0.000000 -0.001969 0.000000
# 2 0.000398 0.010613 0.000702 0.000000 -0.000403 0.000000
# 3 -0.002923 0.000702 0.012791 0.000000 -0.006703 0.000000
# 4 0.000000 0.000000 0.000000 -0.054567 0.000000 -0.105962
# 5 -0.001969 -0.000403 -0.006703 0.000000 0.021190 0.000000
# 6 0.000000 0.000000 0.000000 -0.105962 0.000000 -0.054822
#
#
# Mechanical properties :
#
#
# Convention : Reuss Voigt Hill
#
# Bulk Modulus (GPa) = 26.91587 31.24638 29.08113
# Shear Modulus (GPa) = -159.39159 30.90885 -64.24137
#
# Velocity S-wave (km/s) = -7.85921 3.46089 -4.98946
# Velocity P-wave (km/s) = 8.48091 5.29895 4.68225
#
# Compressibility (1/GPa) = 0.03715280
#
# Stress axis : x y z
#
# Youngs Moduli (GPa) = 57.48772 94.22539 78.17904
#
# Poissons Ratio (x) = -0.03749 0.22855
# Poissons Ratio (y) = -0.02287 -0.05492
# Poissons Ratio (z) = 0.16806 -0.06619
#
# Static dielectric constant tensor:
#      x y z
#    x 2.117080 0.000000 0.060620 
#    y 0.000000 1.908880 0.000000 
#    z 0.060620 0.000000 2.059780 
# 
# From -- ./inp_files/266947.got.cif
#   From: 2010.05.17/outbox.cif.g08.bks.cpg/sg12_134_cif.got.tgz:266947.got - 2010.06.03 13:09:07.
