data_PCOD9169237
_publ_section_title
;
Structure prediction by ZEFSAII (Michael W. Deem and Ramdas Pophale) SiO2 
 PCOD9169237
Probable space group: C 2/M
;
_chemical_formula_sum "Si O2"
_cell_formula_units_Z 64
_cell_length_a 30.165165
_cell_length_b 7.420242
_cell_length_c 17.383513
_cell_angle_alpha 90.000000
_cell_angle_beta 114.672238
_cell_angle_gamma 90.000000
_cell_volume 3535.793461
_symmetry_space_group_name_H-M "C 2/M"
_symmetry_group_IT_number 12
_symmetry_cell_setting 'monoclinic'
loop_
_space_group_symop_operation_xyz
x,y,z
-x,y,-z
-x,-y,-z
x,-y,z
1/2+x,1/2+y,z
1/2-x,1/2+y,-z
1/2-x,1/2-y,-z
1/2+x,1/2-y,z
loop_
_atom_site_type_symbol
_atom_site_label
_atom_site_fract_x
_atom_site_fract_y
_atom_site_fract_z
Si Si1 0.480439 0.786136 0.270043
Si Si2 0.091143 0.281542 0.345582
Si Si3 0.244586 0.283374 0.587773
Si Si4 0.951709 0.720376 0.416293
Si Si5 0.636716 0.781077 0.543006
Si Si6 0.075228 0.220841 0.096153
Si Si7 0.160951 0.205077 0.257451
Si Si8 0.473894 0.715227 0.095302
O O1 0.535688 0.716753 0.303582
O O2 0.456262 0.719047 0.331123
O O3 0.457499 0.757899 0.169635
O O4 0.484561 0.000000 0.283846
O O5 0.092176 0.500000 0.338653
O O6 0.114020 0.235325 0.444031
O O7 0.123540 0.202819 0.301665
O O8 0.245336 0.500000 0.594860
O O9 0.250000 0.250000 0.500000
O O10 0.192540 0.218234 0.581889
O O11 0.289902 0.212819 0.671173
O O12 0.951415 0.500000 0.417874
O O13 0.901807 0.780222 0.420870
O O14 0.000000 0.773443 0.500000
O O15 0.638119 0.000000 0.548410
O O16 0.127170 0.285577 0.165666
O O17 0.029191 0.279148 0.116042
O O18 0.076423 0.000000 0.099681
O O19 0.060756 0.276451 0.999394
O O20 0.172871 0.000000 0.242715
O O21 0.475955 0.500000 0.090684
#
# Coordination Sequence:
#
# PCOD9169237 Si02
#       8
#     8   8   8   8   8   8   8   8
#     4  10  18  26  41  66  86 106 140 175 204 240
#     4  10  17  25  40  61  86 111 137 169 203 239
#     4  10  19  28  42  63  85 110 138 170 204 240
#     4   9  15  25  41  60  82 111 142 168 198 238
#     4   9  16  27  40  57  84 113 141 168 196 238
#     4   8  15  27  42  59  79 108 143 169 197 247
#     4  10  18  28  42  61  83 110 142 170 199 240
#     4   9  16  28  44  58  79 112 140 166 208 251
#
# _framework density 18.100605000000002
#
# number of rings (size 3 to 8) (size 9 to 14) (size 15 to 20)
#    0.000    2.625    3.750    0.750    0.000    0.000 
#    0.000    1.875    0.000    1.875    0.000    0.875 
#    0.000    0.000    0.000    0.000    0.000    0.000 
#
# Total GULP energy -178410.001200 kJ/mol
# GULP energy per Si atom -5575.312538 kJ/mol
# Density = 1.805941 g / cm^3
# Si number density = 18.100605 Si / 1000 Ang^3
#
#
#
# Elastic Constant Matrix: (Units=GPa)
#
#
# Indices 1 2 3 4 5 6 
#
# 1 125.4575 1.6212 77.6749 0.0000 7.0427 0.0000
# 2 1.6212 58.1697 1.1772 0.0000 3.0498 0.0000
# 3 77.6749 1.1772 150.1834 0.0000 9.5115 0.0000
# 4 0.0000 0.0000 0.0000 13.5451 0.0000 -5.6958
# 5 7.0427 3.0498 9.5115 0.0000 28.8719 0.0000
# 6 0.0000 0.0000 0.0000 -5.6958 0.0000 5.4226
#
#
#
# Elastic Compliance Matrix: (Units=1/GPa)
#
#
# Indices 1 2 3 4 5 6 
#
# 1 0.011749 -0.000160 -0.006020 0.000000 -0.000866 0.000000
# 2 -0.000160 0.017289 0.000062 0.000000 -0.001808 0.000000
# 3 -0.006020 0.000062 0.009885 0.000000 -0.001795 0.000000
# 4 0.000000 0.000000 0.000000 0.132234 0.000000 0.138896
# 5 -0.000866 -0.001808 -0.001795 0.000000 0.035629 0.000000
# 6 0.000000 0.000000 0.000000 0.138896 0.000000 0.330307
#
#
# Mechanical properties :
#
#
# Convention : Reuss Voigt Hill
#
# Bulk Modulus (GPa) = 37.47318 54.97302 46.22310
# Shear Modulus (GPa) = 8.95693 26.45709 17.70701
#
# Velocity S-wave (km/s) = 2.22692 3.82733 3.13110
# Velocity P-wave (km/s) = 5.23067 7.06880 6.21803
#
# Compressibility (1/GPa) = 0.02668575
#
# Stress axis : x y z
#
# Youngs Moduli (GPa) = 85.11383 57.84007 101.15830
#
# Poissons Ratio (x) = 0.00927 0.60902
# Poissons Ratio (y) = 0.01364 -0.00625
# Poissons Ratio (z) = 0.51243 -0.00358
#
# Static dielectric constant tensor:
#      x y z
#    x 1.611200 0.000000 0.016110 
#    y 0.000000 1.738520 0.000000 
#    z 0.016110 0.000000 1.648700 
# 
# From -- ./inp_files/294570.got.cif
#   From: 2010.05.17/outbox.cif.g08.bks.cpg/sg12_148_cif.got.tgz:294570.got - 2010.06.03 13:09:07.
