data_PCOD9169452
_publ_section_title
;
Structure prediction by ZEFSAII (Michael W. Deem and Ramdas Pophale) SiO2 
 PCOD9169452
Probable space group: C 2/M
;
_chemical_formula_sum "Si O2"
_cell_formula_units_Z 50
_cell_length_a 18.027859
_cell_length_b 15.534053
_cell_length_c 9.544101
_cell_angle_alpha 90.000000
_cell_angle_beta 44.832135
_cell_angle_gamma 90.000000
_cell_volume 1884.398866
_symmetry_space_group_name_H-M "C 2/M"
_symmetry_group_IT_number 12
_symmetry_cell_setting 'monoclinic'
loop_
_space_group_symop_operation_xyz
x,y,z
-x,y,-z
-x,-y,-z
x,-y,z
1/2+x,1/2+y,z
1/2-x,1/2+y,-z
1/2-x,1/2-y,-z
1/2+x,1/2-y,z
loop_
_atom_site_type_symbol
_atom_site_label
_atom_site_fract_x
_atom_site_fract_y
_atom_site_fract_z
Si Si1 0.500000 0.500000 0.000000
Si Si2 0.377833 0.600438 0.793838
Si Si3 0.255502 0.826005 0.260181
Si Si4 0.085355 0.172456 0.986816
Si Si5 0.947273 0.399642 0.853810
Si Si6 0.161719 0.599577 0.263621
Si Si7 0.323017 0.896985 0.434830
O O1 0.411904 0.576694 0.086337
O O2 0.407145 0.500000 0.730710
O O3 0.346377 0.651832 0.696578
O O4 0.451949 0.649936 0.804705
O O5 0.271227 0.599373 0.031241
O O6 0.244492 0.845341 0.439013
O O7 0.318125 0.738908 0.138785
O O8 0.344246 0.893282 0.086721
O O9 0.000000 0.215033 0.000000
O O10 0.964467 0.500000 0.804886
O O11 0.918242 0.358749 0.741166
O O12 0.057801 0.372219 0.767785
O O13 0.130873 0.500000 0.322142
O O14 0.173283 0.628529 0.407060
O O15 0.304486 0.000000 0.445302
#
# Coordination Sequence:
#
# PCOD9169452 Si02
#       7
#     2   8   8   8   8   8   8
#     4   8  20  36  56  72  94 126 176 216 240 278
#     4  10  18  34  52  75 102 132 164 201 247 298
#     4  11  20  28  48  77 105 122 154 211 261 293
#     4  10  19  35  53  74  96 127 174 212 247 280
#     4   9  16  27  42  66 101 142 171 194 233 293
#     4   8  16  27  44  64  95 138 175 195 226 292
#     4  10  17  27  41  68 105 140 164 192 242 300
#
# _framework density 26.533663000000001
#
# number of rings (size 3 to 8) (size 9 to 14) (size 15 to 20)
#    0.480    1.920    0.800    4.800    0.000    3.200 
#    0.000    0.800    0.000    0.000    0.000    3.360 
#    0.000   16.640    0.000    0.000    0.000    0.000 
#
# Total GULP energy -139266.222009 kJ/mol
# GULP energy per Si atom -5570.648880 kJ/mol
# Density = 2.647327 g / cm^3
# Si number density = 26.533663 Si / 1000 Ang^3
#
#
#
# Elastic Constant Matrix: (Units=GPa)
#
#
# Indices 1 2 3 4 5 6 
#
# 1 127.4314 32.4251 36.1220 0.0000 58.8709 0.0000
# 2 32.4251 132.2033 20.5263 0.0000 22.7323 0.0000
# 3 36.1220 20.5263 81.3447 0.0000 28.9031 0.0000
# 4 0.0000 0.0000 0.0000 -18.9911 0.0000 21.2170
# 5 58.8709 22.7323 28.9031 0.0000 53.3230 0.0000
# 6 0.0000 0.0000 0.0000 21.2170 0.0000 9.0467
#
#
#
# Elastic Compliance Matrix: (Units=1/GPa)
#
#
# Indices 1 2 3 4 5 6 
#
# 1 0.016185 -0.000906 -0.000925 0.000000 -0.016982 0.000000
# 2 -0.000906 0.008282 -0.000976 0.000000 -0.002001 0.000000
# 3 -0.000925 -0.000976 0.015407 0.000000 -0.006914 0.000000
# 4 0.000000 0.000000 0.000000 -0.014545 0.000000 0.034113
# 5 -0.016982 -0.002001 -0.006914 0.000000 0.042103 0.000000
# 6 0.000000 0.000000 0.000000 0.034113 0.000000 0.030534
#
#
# Mechanical properties :
#
#
# Convention : Reuss Voigt Hill
#
# Bulk Modulus (GPa) = 29.18881 57.68069 43.43475
# Shear Modulus (GPa) = 43.47808 25.46945 34.47377
#
# Velocity S-wave (km/s) = 4.05236 3.10157 3.60842
# Velocity P-wave (km/s) = 5.73759 5.88322 5.81086
#
# Compressibility (1/GPa) = 0.03425970
#
# Stress axis : x y z
#
# Youngs Moduli (GPa) = 61.78450 120.74317 64.90528
#
# Poissons Ratio (x) = 0.10941 0.06002
# Poissons Ratio (y) = 0.05599 0.06338
# Poissons Ratio (z) = 0.05713 0.11790
#
# Static dielectric constant tensor:
#      x y z
#    x 2.323960 0.000000 -0.023630 
#    y 0.000000 2.068930 0.000000 
#    z -0.023630 0.000000 2.173720 
# 
# From -- ./inp_files/75172.got.cif
#   From: 2010.05.17/outbox.cif.g08.bks.cpg/sg12_38_cif.got.tgz:75172.got - 2010.06.03 13:09:07.
