data_PCOD9169817
_publ_section_title
;
Structure prediction by ZEFSAII (Michael W. Deem and Ramdas Pophale) SiO2 
 PCOD9169817
Probable space group: C 2/M
;
_chemical_formula_sum "Si O2"
_cell_formula_units_Z 56
_cell_length_a 18.716424
_cell_length_b 19.129637
_cell_length_c 13.083704
_cell_angle_alpha 90.000000
_cell_angle_beta 139.893715
_cell_angle_gamma 90.000000
_cell_volume 3017.769837
_symmetry_space_group_name_H-M "C 2/M"
_symmetry_group_IT_number 12
_symmetry_cell_setting 'monoclinic'
loop_
_space_group_symop_operation_xyz
x,y,z
-x,y,-z
-x,-y,-z
x,-y,z
1/2+x,1/2+y,z
1/2-x,1/2+y,-z
1/2-x,1/2-y,-z
1/2+x,1/2-y,z
loop_
_atom_site_type_symbol
_atom_site_label
_atom_site_fract_x
_atom_site_fract_y
_atom_site_fract_z
Si Si1 0.561739 0.922991 0.794295
Si Si2 0.435530 0.778997 0.665932
Si Si3 0.375845 0.818961 0.826908
Si Si4 0.201872 0.719180 0.681472
Si Si5 0.742590 0.918620 0.162475
Si Si6 0.866557 0.576680 0.342424
Si Si7 0.850875 0.213327 0.173087
O O1 0.484285 0.856586 0.697236
O O2 0.648861 0.920553 0.796486
O O3 0.507368 0.000000 0.728921
O O4 0.629348 0.918579 0.972527
O O5 0.382128 0.791684 0.717938
O O6 0.353259 0.757713 0.484894
O O7 0.538856 0.725292 0.773119
O O8 0.319957 0.754999 0.826687
O O9 0.294498 0.882994 0.770470
O O10 0.500000 0.833751 0.000000
O O11 0.202521 0.636378 0.681092
O O12 0.131153 0.742165 0.702808
O O13 0.820353 0.863950 0.183786
O O14 0.779560 0.000000 0.210778
O O15 0.839575 0.500000 0.350858
O O16 0.000000 0.586580 0.500000
O O17 0.750000 0.250000 0.000000
#
# Coordination Sequence:
#
# PCOD9169817 Si02
#       7
#     8   8   8   8   8   8   8
#     4  10  18  29  51  82 112 135 173 225 280 332
#     4  12  20  34  53  82 113 147 184 231 282 332
#     4  11  23  37  53  78 110 148 188 229 283 336
#     4  11  21  34  54  80 110 145 187 233 281 332
#     4  10  21  37  57  83 112 147 191 234 282 338
#     4  10  17  28  49  79 107 133 168 219 279 330
#     4  11  19  35  58  82 112 149 189 229 277 337
#
# _framework density 18.556750999999998
#
# number of rings (size 3 to 8) (size 9 to 14) (size 15 to 20)
#    0.000    1.286    5.714    1.714    0.000    0.857 
#    0.000    0.000    0.000    8.143    0.000    0.000 
#    0.000    0.000    0.000    0.000    0.000    0.000 
#
# Total GULP energy -155920.394134 kJ/mol
# GULP energy per Si atom -5568.585505 kJ/mol
# Density = 1.851451 g / cm^3
# Si number density = 18.556751 Si / 1000 Ang^3
#
#
#
# Elastic Constant Matrix: (Units=GPa)
#
#
# Indices 1 2 3 4 5 6 
#
# 1 79.7702 42.6983 17.1977 0.0000 -9.6959 0.0000
# 2 42.6983 137.1970 1.8183 0.0000 16.1584 0.0000
# 3 17.1977 1.8183 47.7232 0.0000 -18.8695 0.0000
# 4 0.0000 0.0000 0.0000 15.9008 0.0000 -2.0489
# 5 -9.6959 16.1584 -18.8695 0.0000 28.4281 0.0000
# 6 0.0000 0.0000 0.0000 -2.0489 0.0000 25.1189
#
#
#
# Elastic Compliance Matrix: (Units=1/GPa)
#
#
# Indices 1 2 3 4 5 6 
#
# 1 0.017472 -0.006276 -0.003106 0.000000 0.007465 0.000000
# 2 -0.006276 0.010348 -0.001769 0.000000 -0.009197 0.000000
# 3 -0.003106 -0.001769 0.029991 0.000000 0.019853 0.000000
# 4 0.000000 0.000000 0.000000 0.063558 0.000000 0.005184
# 5 0.007465 -0.009197 0.019853 0.000000 0.056128 0.000000
# 6 0.000000 0.000000 0.000000 0.005184 0.000000 0.040234
#
#
# Mechanical properties :
#
#
# Convention : Reuss Voigt Hill
#
# Bulk Modulus (GPa) = 28.16090 43.12434 35.64262
# Shear Modulus (GPa) = 19.85168 27.42127 23.63648
#
# Velocity S-wave (km/s) = 3.27430 3.84825 3.57282
# Velocity P-wave (km/s) = 5.43169 6.56011 6.02239
#
# Compressibility (1/GPa) = 0.03551022
#
# Stress axis : x y z
#
# Youngs Moduli (GPa) = 57.23431 96.63253 33.34386
#
# Poissons Ratio (x) = 0.60643 0.10355
# Poissons Ratio (y) = 0.35918 0.05899
# Poissons Ratio (z) = 0.17775 0.17096
#
# Static dielectric constant tensor:
#      x y z
#    x 1.691470 0.000000 -0.041260 
#    y 0.000000 1.683800 0.000000 
#    z -0.041260 0.000000 1.687990 
# 
# From -- ./inp_files/158320.got.cif
#   From: 2010.05.17/outbox.cif.g08.bks.cpg/sg12_80_cif.got.tgz:158320.got - 2010.06.03 13:09:07.
