data_PCOD9169915
_publ_section_title
;
Structure prediction by ZEFSAII (Michael W. Deem and Ramdas Pophale) SiO2 
 PCOD9169915
Probable space group: C 2/M
;
_chemical_formula_sum "Si O2"
_cell_formula_units_Z 56
_cell_length_a 21.603169
_cell_length_b 17.228322
_cell_length_c 8.295082
_cell_angle_alpha 90.000000
_cell_angle_beta 65.775862
_cell_angle_gamma 90.000000
_cell_volume 2815.469893
_symmetry_space_group_name_H-M "C 2/M"
_symmetry_group_IT_number 12
_symmetry_cell_setting 'monoclinic'
loop_
_space_group_symop_operation_xyz
x,y,z
-x,y,-z
-x,-y,-z
x,-y,z
1/2+x,1/2+y,z
1/2-x,1/2+y,-z
1/2-x,1/2-y,-z
1/2+x,1/2-y,z
loop_
_atom_site_type_symbol
_atom_site_label
_atom_site_fract_x
_atom_site_fract_y
_atom_site_fract_z
Si Si1 0.690098 0.749554 0.693441
Si Si2 0.563426 0.415960 0.592319
Si Si3 0.723768 0.165606 0.967667
Si Si4 0.369315 0.618040 0.821987
Si Si5 0.908431 0.297290 0.749260
Si Si6 0.845168 0.082757 0.184799
Si Si7 0.450301 0.239812 0.345911
O O1 0.750000 0.750000 0.500000
O O2 0.704048 0.817184 0.804720
O O3 0.693967 0.664172 0.770728
O O4 0.614352 0.759340 0.702215
O O5 0.527104 0.500000 0.639914
O O6 0.599963 0.412238 0.378503
O O7 0.613959 0.416666 0.690884
O O8 0.529435 0.331082 0.646186
O O9 0.787453 0.108358 0.907437
O O10 0.750000 0.250000 0.000000
O O11 0.654107 0.148362 0.135886
O O12 0.383594 0.709705 0.809824
O O13 0.391035 0.586196 0.973625
O O14 0.924562 0.295819 0.542351
O O15 0.979722 0.304201 0.768301
O O16 0.807659 0.000000 0.220040
#
# Coordination Sequence:
#
# PCOD9169915 Si02
#       7
#     8   8   8   8   8   8   8
#     4  11  19  31  50  72  94 131 169 207 255 300
#     4   9  18  32  46  67  98 131 170 208 240 293
#     4  10  17  29  47  67  92 121 160 208 249 294
#     4  10  18  32  50  70  94 132 166 207 256 292
#     4   9  17  32  44  66  95 125 164 206 249 293
#     4  10  19  31  48  72  99 130 168 206 249 297
#     4   9  19  30  47  65  95 131 163 203 252 286
#
# _framework density 19.890107
#
# number of rings (size 3 to 8) (size 9 to 14) (size 15 to 20)
#    0.000    2.286    2.857    3.857    0.000    0.571 
#    0.000    6.429    0.000    2.571    0.000    0.000 
#    0.000    3.429    0.000   15.714    0.000    0.000 
#
# Total GULP energy -155868.717306 kJ/mol
# GULP energy per Si atom -5566.739904 kJ/mol
# Density = 1.984484 g / cm^3
# Si number density = 19.890107 Si / 1000 Ang^3
#
#
#
# Elastic Constant Matrix: (Units=GPa)
#
#
# Indices 1 2 3 4 5 6 
#
# 1 91.5598 0.9196 28.3863 0.0000 -3.8786 0.0000
# 2 0.9196 15.4006 4.1279 0.0000 5.1551 0.0000
# 3 28.3863 4.1279 90.0145 0.0000 3.1798 0.0000
# 4 0.0000 0.0000 0.0000 -33.4188 0.0000 -37.5609
# 5 -3.8786 5.1551 3.1798 0.0000 40.3689 0.0000
# 6 0.0000 0.0000 0.0000 -37.5609 0.0000 -28.5030
#
#
#
# Elastic Compliance Matrix: (Units=1/GPa)
#
#
# Indices 1 2 3 4 5 6 
#
# 1 0.012193 -0.000188 -0.003890 0.000000 0.001502 0.000000
# 2 -0.000188 0.068553 -0.002782 0.000000 -0.008553 0.000000
# 3 -0.003890 -0.002782 0.012499 0.000000 -0.001003 0.000000
# 4 0.000000 0.000000 0.000000 0.062194 0.000000 -0.081959
# 5 0.001502 -0.008553 -0.001003 0.000000 0.026087 0.000000
# 6 0.000000 0.000000 0.000000 -0.081959 0.000000 0.072921
#
#
# Mechanical properties :
#
#
# Convention : Reuss Voigt Hill
#
# Bulk Modulus (GPa) = 12.57470 29.31583 20.94526
# Shear Modulus (GPa) = 16.96780 6.59216 11.77998
#
# Velocity S-wave (km/s) = 2.92392 1.82250 2.43627
# Velocity P-wave (km/s) = 4.21128 4.38173 4.29735
#
# Compressibility (1/GPa) = 0.07952478
#
# Stress axis : x y z
#
# Youngs Moduli (GPa) = 82.01278 14.58730 80.00689
#
# Poissons Ratio (x) = 0.00275 0.31119
# Poissons Ratio (y) = 0.01544 0.22260
# Poissons Ratio (z) = 0.31900 0.04059
#
# Static dielectric constant tensor:
#      x y z
#    x 1.786260 0.000000 -0.003920 
#    y 0.000000 1.703520 0.000000 
#    z -0.003920 0.000000 1.757040 
# 
# From -- ./inp_files/89061.got.cif
#   From: 2010.05.17/outbox.cif.g08.bks.cpg/sg12_45_cif.got.tgz:89061.got - 2010.06.03 13:09:07.
