data_PCOD9169401
_publ_section_title
;
Structure prediction by ZEFSAII (Michael W. Deem and Ramdas Pophale) SiO2 
 PCOD9169401
Probable space group: C 2/M
;
_chemical_formula_sum "Si O2"
_cell_formula_units_Z 64
_cell_length_a 19.576290
_cell_length_b 8.622696
_cell_length_c 25.965761
_cell_angle_alpha 90.000000
_cell_angle_beta 124.164874
_cell_angle_gamma 90.000000
_cell_volume 3626.629294
_symmetry_space_group_name_H-M "C 2/M"
_symmetry_group_IT_number 12
_symmetry_cell_setting 'monoclinic'
loop_
_space_group_symop_operation_xyz
x,y,z
-x,y,-z
-x,-y,-z
x,-y,z
1/2+x,1/2+y,z
1/2-x,1/2+y,-z
1/2-x,1/2-y,-z
1/2+x,1/2-y,z
loop_
_atom_site_type_symbol
_atom_site_label
_atom_site_fract_x
_atom_site_fract_y
_atom_site_fract_z
Si Si1 0.091559 0.686046 0.194957
Si Si2 0.232574 0.313151 0.697645
Si Si3 0.005739 0.688150 0.944335
Si Si4 0.571611 0.185857 0.696902
Si Si5 0.625710 0.814746 0.559870
Si Si6 0.976692 0.184286 0.566961
Si Si7 0.436451 0.315004 0.191831
Si Si8 0.163717 0.686225 0.943463
O O1 0.084559 0.500000 0.195059
O O2 0.182362 0.738546 0.248946
O O3 0.066232 0.734419 0.125988
O O4 0.022368 0.758484 0.202881
O O5 0.239802 0.500000 0.702272
O O6 0.156851 0.269843 0.703609
O O7 0.204989 0.270167 0.627659
O O8 0.003612 0.500000 0.945870
O O9 0.091573 0.730470 0.953279
O O10 0.000000 0.747906 0.000000
O O11 0.495815 0.258798 0.632493
O O12 0.572693 0.244679 0.755415
O O13 0.565009 0.000000 0.692145
O O14 0.549652 0.764165 0.564487
O O15 0.606946 0.737229 0.497047
O O16 0.624289 0.000000 0.553536
O O17 0.984431 0.000000 0.566773
O O18 0.434766 0.500000 0.193463
O O19 0.364907 0.254704 0.123302
O O20 0.165726 0.500000 0.940743
O O21 0.250000 0.750000 0.000000
#
# Coordination Sequence:
#
# PCOD9169401 Si02
#       8
#     8   8   8   8   8   8   8   8
#     4  10  20  34  54  77 104 139 174 211 259 314
#     4   9  19  33  51  76 105 136 171 215 261 308
#     4   8  16  32  52  74  99 129 167 208 249 297
#     4  10  20  35  53  76 107 138 173 218 266 313
#     4   9  16  28  45  67  99 138 173 210 262 310
#     4  10  17  26  44  72 102 132 170 214 260 310
#     4  11  22  37  56  76 103 140 180 218 259 310
#     4  10  20  35  55  79 106 136 171 212 261 311
#
# _framework density 17.647241000000001
#
# number of rings (size 3 to 8) (size 9 to 14) (size 15 to 20)
#    0.000    2.375    0.000    6.000    0.000    4.000 
#    0.000    1.250    0.000   13.500    0.000    0.000 
#    0.000    0.000    0.000    0.000    0.000    0.000 
#
# Total GULP energy -178420.476975 kJ/mol
# GULP energy per Si atom -5575.639905 kJ/mol
# Density = 1.760707 g / cm^3
# Si number density = 17.647241 Si / 1000 Ang^3
#
#
#
# Elastic Constant Matrix: (Units=GPa)
#
#
# Indices 1 2 3 4 5 6 
#
# 1 43.1370 18.0251 72.5374 0.0000 2.5594 0.0000
# 2 18.0251 28.1736 35.4306 0.0000 2.9689 0.0000
# 3 72.5374 35.4306 195.8040 0.0000 3.4217 0.0000
# 4 0.0000 0.0000 0.0000 10.7987 0.0000 33.7071
# 5 2.5594 2.9689 3.4217 0.0000 25.5239 0.0000
# 6 0.0000 0.0000 0.0000 33.7071 0.0000 -19.1175
#
#
#
# Elastic Compliance Matrix: (Units=1/GPa)
#
#
# Indices 1 2 3 4 5 6 
#
# 1 0.066056 -0.014656 -0.021784 0.000000 -0.001999 0.000000
# 2 -0.014656 0.049665 -0.003490 0.000000 -0.003839 0.000000
# 3 -0.021784 -0.003490 0.013796 0.000000 0.000741 0.000000
# 4 0.000000 0.000000 0.000000 0.014239 0.000000 0.025106
# 5 -0.001999 -0.003839 0.000741 0.000000 0.039727 0.000000
# 6 0.000000 0.000000 0.000000 0.025106 0.000000 -0.008043
#
#
# Mechanical properties :
#
#
# Convention : Reuss Voigt Hill
#
# Bulk Modulus (GPa) = 20.13849 57.67787 38.90818
# Shear Modulus (GPa) = 18.39236 12.84911 15.62073
#
# Velocity S-wave (km/s) = 3.23185 2.70128 2.97840
# Velocity P-wave (km/s) = 5.03616 6.51797 5.82438
#
# Compressibility (1/GPa) = 0.04965615
#
# Stress axis : x y z
#
# Youngs Moduli (GPa) = 15.13866 20.13501 72.48506
#
# Poissons Ratio (x) = 0.29509 1.57903
# Poissons Ratio (y) = 0.22187 0.25300
# Poissons Ratio (z) = 0.32978 0.07028
#
# Static dielectric constant tensor:
#      x y z
#    x 1.580230 0.000000 -0.004590 
#    y 0.000000 1.589810 0.000000 
#    z -0.004590 0.000000 1.636150 
# 
# From -- ./inp_files/346106.got.cif
#   From: 2010.05.17/outbox.cif.g08.bks.cpg/sg12_174_cif.got.tgz:346106.got - 2010.06.03 13:09:07.
