data_PCOD9169366
_publ_section_title
;
Structure prediction by ZEFSAII (Michael W. Deem and Ramdas Pophale) SiO2 
 PCOD9169366
Probable space group: C 2/M
;
_chemical_formula_sum "Si O2"
_cell_formula_units_Z 64
_cell_length_a 23.834864
_cell_length_b 8.779899
_cell_length_c 17.636580
_cell_angle_alpha 90.000000
_cell_angle_beta 105.388483
_cell_angle_gamma 90.000000
_cell_volume 3558.447967
_symmetry_space_group_name_H-M "C 2/M"
_symmetry_group_IT_number 12
_symmetry_cell_setting 'monoclinic'
loop_
_space_group_symop_operation_xyz
x,y,z
-x,y,-z
-x,-y,-z
x,-y,z
1/2+x,1/2+y,z
1/2-x,1/2+y,-z
1/2-x,1/2-y,-z
1/2+x,1/2-y,z
loop_
_atom_site_type_symbol
_atom_site_label
_atom_site_fract_x
_atom_site_fract_y
_atom_site_fract_z
Si Si1 0.726393 0.817735 0.569495
Si Si2 0.132761 0.818882 0.632308
Si Si3 0.786353 0.683956 0.204184
Si Si4 0.805515 0.683181 0.732160
Si Si5 0.059531 0.316447 0.237086
Si Si6 0.019305 0.181601 0.923962
Si Si7 0.882771 0.677526 0.131165
Si Si8 0.964043 0.321819 0.311751
O O1 0.774235 0.500000 0.431945
O O2 0.750000 0.750000 0.500000
O O3 0.662311 0.755994 0.569279
O O4 0.769582 0.757086 0.650431
O O5 0.172770 0.754446 0.715342
O O6 0.068033 0.768941 0.633280
O O7 0.137552 0.000000 0.630265
O O8 0.786763 0.500000 0.210965
O O9 0.723321 0.750539 0.201389
O O10 0.818822 0.724742 0.137397
O O11 0.798786 0.500000 0.728337
O O12 0.872961 0.721984 0.745481
O O13 0.053854 0.500000 0.232086
O O14 0.024541 0.248142 0.154139
O O15 0.026675 0.268950 0.302987
O O16 0.083924 0.231725 0.921757
O O17 0.016097 0.000000 0.920959
O O18 0.000000 0.235756 0.000000
O O19 0.881146 0.500000 0.109655
O O20 0.923476 0.689236 0.221384
O O21 0.966095 0.500000 0.333467
#
# Coordination Sequence:
#
# PCOD9169366 Si02
#       8
#     8   8   8   8   8   8   8   8
#     4  11  21  34  51  72  98 129 160 194 237 281
#     4  10  17  26  43  69  95 121 155 195 235 275
#     4   9  16  27  43  66  93 121 154 193 236 278
#     4  10  19  32  50  74  99 125 159 196 235 282
#     4   9  19  33  50  71  97 129 162 194 233 285
#     4  10  20  31  46  71  99 125 157 199 243 283
#     4   8  15  27  44  65  90 121 157 194 234 282
#     4   8  14  27  44  65  92 121 154 193 234 275
#
# _framework density 17.985368999999999
#
# number of rings (size 3 to 8) (size 9 to 14) (size 15 to 20)
#    0.000    2.625    0.000    6.375    0.000    7.000 
#    0.000    0.000    0.000    1.500    0.000    5.250 
#    0.000    0.000    0.000    0.000    0.000    0.000 
#
# Total GULP energy -178242.789848 kJ/mol
# GULP energy per Si atom -5570.087183 kJ/mol
# Density = 1.794443 g / cm^3
# Si number density = 17.985369 Si / 1000 Ang^3
#
#
#
# Elastic Constant Matrix: (Units=GPa)
#
#
# Indices 1 2 3 4 5 6 
#
# 1 177.5019 62.3756 48.3490 0.0000 -47.5410 0.0000
# 2 62.3756 77.1599 26.7897 0.0000 -20.8813 0.0000
# 3 48.3490 26.7897 46.1261 0.0000 -31.8734 0.0000
# 4 0.0000 0.0000 0.0000 19.5266 0.0000 -9.9737
# 5 -47.5410 -20.8813 -31.8734 0.0000 30.9309 0.0000
# 6 0.0000 0.0000 0.0000 -9.9737 0.0000 30.1887
#
#
#
# Elastic Compliance Matrix: (Units=1/GPa)
#
#
# Indices 1 2 3 4 5 6 
#
# 1 0.011222 -0.005620 0.002772 0.000000 0.016311 0.000000
# 2 -0.005620 0.019216 -0.007899 0.000000 -0.003805 0.000000
# 3 0.002772 -0.007899 0.078562 0.000000 0.079885 0.000000
# 4 0.000000 0.000000 0.000000 0.061609 0.000000 0.020354
# 5 0.016311 -0.003805 0.079885 0.000000 0.137151 0.000000
# 6 0.000000 0.000000 0.000000 0.020354 0.000000 0.039849
#
#
# Mechanical properties :
#
#
# Convention : Reuss Voigt Hill
#
# Bulk Modulus (GPa) = 11.42768 63.97963 37.70365
# Shear Modulus (GPa) = 12.55420 27.01414 19.78417
#
# Velocity S-wave (km/s) = 2.64488 3.87978 3.32024
# Velocity P-wave (km/s) = 3.96167 7.46462 5.97559
#
# Compressibility (1/GPa) = 0.08750686
#
# Stress axis : x y z
#
# Youngs Moduli (GPa) = 89.10758 52.03928 12.72874
#
# Poissons Ratio (x) = 0.29248 -0.03529
# Poissons Ratio (y) = 0.50082 0.10054
# Poissons Ratio (z) = -0.24703 0.41106
#
# Static dielectric constant tensor:
#      x y z
#    x 1.697740 0.000000 -0.028170 
#    y 0.000000 1.599000 0.000000 
#    z -0.028170 0.000000 1.611740 
# 
# From -- ./inp_files/287724.got.cif
#   From: 2010.05.17/outbox.cif.g08.bks.cpg/sg12_144_cif.got.tgz:287724.got - 2010.06.03 13:09:07.
