data_PCOD9169103
_publ_section_title
;
Structure prediction by ZEFSAII (Michael W. Deem and Ramdas Pophale) SiO2 
 PCOD9169103
Probable space group: C 2/M
;
_chemical_formula_sum "Si O2"
_cell_formula_units_Z 40
_cell_length_a 18.242184
_cell_length_b 26.365670
_cell_length_c 10.357128
_cell_angle_alpha 90.000000
_cell_angle_beta 27.569172
_cell_angle_gamma 90.000000
_cell_volume 2305.506252
_symmetry_space_group_name_H-M "C 2/M"
_symmetry_group_IT_number 12
_symmetry_cell_setting 'monoclinic'
loop_
_space_group_symop_operation_xyz
x,y,z
-x,y,-z
-x,-y,-z
x,-y,z
1/2+x,1/2+y,z
1/2-x,1/2+y,-z
1/2-x,1/2-y,-z
1/2+x,1/2-y,z
loop_
_atom_site_type_symbol
_atom_site_label
_atom_site_fract_x
_atom_site_fract_y
_atom_site_fract_z
Si Si1 0.692859 0.500000 0.689677
Si Si2 0.610380 0.290624 0.202281
Si Si3 0.897464 0.091772 0.790115
Si Si4 0.381838 0.402252 0.306766
Si Si5 0.688386 0.000000 0.202042
Si Si6 0.610161 0.710574 0.701935
O O1 0.732588 0.448466 0.551513
O O2 0.756045 0.500000 0.735417
O O3 0.500000 0.500000 0.000000
O O4 0.500000 0.287375 0.500000
O O5 0.663476 0.349873 0.109767
O O6 0.502382 0.280083 0.245499
O O7 0.750000 0.250000 0.000000
O O8 0.000000 0.085116 0.500000
O O9 0.015437 0.084900 0.727621
O O10 0.762184 0.049706 0.018275
O O11 0.316394 0.345910 0.427788
O O12 0.500000 0.397276 0.000000
O O13 0.500000 0.000000 0.500000
O O14 0.750000 0.750000 0.500000
O O15 0.500000 0.712395 0.000000
#
# Coordination Sequence:
#
# PCOD9169103 Si02
#       6
#     4   8   8   8   4   8
#     4  10  16  34  61  79 103 145 191 215 267 341
#     4  10  21  37  56  81 114 152 188 225 282 337
#     4  10  20  36  58  83 111 150 191 226 273 347
#     4   9  16  32  60  80  98 147 198 213 253 341
#     4  12  23  36  56  92 117 136 185 252 288 320
#     4  10  20  34  55  83 109 139 189 231 268 321
#
# _framework density 17.349768000000001
#
# number of rings (size 3 to 8) (size 9 to 14) (size 15 to 20)
#    0.000    2.000    4.000    1.500    0.000    0.800 
#    3.600    0.000    0.000    1.200    0.000    0.000 
#    0.000    0.000    0.000    0.000    0.000    0.000 
#
# Total GULP energy -111459.825994 kJ/mol
# GULP energy per Si atom -5572.991300 kJ/mol
# Density = 1.731028 g / cm^3
# Si number density = 17.349768 Si / 1000 Ang^3
#
#
#
# Elastic Constant Matrix: (Units=GPa)
#
#
# Indices 1 2 3 4 5 6 
#
# 1 137.3786 62.2441 50.7882 -0.0002 12.5206 0.0003
# 2 62.2441 178.9201 72.1803 -0.0005 -22.0115 0.0001
# 3 50.7882 72.1803 72.0138 -0.0030 -3.8651 0.0006
# 4 -0.0002 -0.0005 -0.0030 25.7989 0.0013 -0.5114
# 5 12.5206 -22.0115 -3.8651 0.0013 25.0133 -0.0002
# 6 0.0003 0.0001 0.0006 -0.5114 -0.0002 29.5991
#
#
#
# Elastic Compliance Matrix: (Units=1/GPa)
#
#
# Indices 1 2 3 4 5 6 
#
# 1 0.011525 -0.002777 -0.005833 0.000000 -0.009114 0.000000
# 2 -0.002777 0.011386 -0.008915 -0.000001 0.010032 0.000000
# 3 -0.005833 -0.008915 0.026895 0.000003 -0.000770 0.000000
# 4 0.000000 -0.000001 0.000003 0.038775 -0.000003 0.000670
# 5 -0.009114 0.010032 -0.000770 -0.000003 0.053250 0.000000
# 6 0.000000 0.000000 0.000000 0.000670 0.000000 0.033796
#
#
# Mechanical properties :
#
#
# Convention : Reuss Voigt Hill
#
# Bulk Modulus (GPa) = 67.77906 84.30418 76.04162
# Shear Modulus (GPa) = 23.19145 29.62224 26.40684
#
# Velocity S-wave (km/s) = 3.66006 4.13650 3.90555
# Velocity P-wave (km/s) = 7.55066 8.45640 8.01633
#
# Compressibility (1/GPa) = 0.01475382
#
# Stress axis : x y z
#
# Youngs Moduli (GPa) = 86.77007 87.82651 37.18182
#
# Poissons Ratio (x) = 0.24392 0.21690
# Poissons Ratio (y) = 0.24098 0.33149
# Poissons Ratio (z) = 0.50616 0.78300
#
# Static dielectric constant tensor:
#      x y z
#    x 1.580560 0.000000 0.019460 
#    y 0.000000 1.655320 0.000000 
#    z 0.019460 0.000000 1.557520 
# 
# From -- ./inp_files/68477.got.cif
#   From: 2010.05.17/outbox.cif.g08.bks.cpg/sg12_35_cif.got.tgz:68477.got - 2010.06.03 13:09:07.
