data_PCOD9169967
_publ_section_title
;
Structure prediction by ZEFSAII (Michael W. Deem and Ramdas Pophale) SiO2 
 PCOD9169967
Probable space group: C 2/M
;
_chemical_formula_sum "Si O2"
_cell_formula_units_Z 48
_cell_length_a 28.024364
_cell_length_b 10.451393
_cell_length_c 18.440672
_cell_angle_alpha 90.000000
_cell_angle_beta 31.707808
_cell_angle_gamma 90.000000
_cell_volume 2838.780348
_symmetry_space_group_name_H-M "C 2/M"
_symmetry_group_IT_number 12
_symmetry_cell_setting 'monoclinic'
loop_
_space_group_symop_operation_xyz
x,y,z
-x,y,-z
-x,-y,-z
x,-y,z
1/2+x,1/2+y,z
1/2-x,1/2+y,-z
1/2-x,1/2-y,-z
1/2+x,1/2-y,z
loop_
_atom_site_type_symbol
_atom_site_label
_atom_site_fract_x
_atom_site_fract_y
_atom_site_fract_z
Si Si1 0.481295 0.000000 0.638961
Si Si2 0.897043 0.649612 0.142044
Si Si3 0.156756 0.500000 0.304920
Si Si4 0.273984 0.254081 0.719929
Si Si5 0.146715 0.000000 0.311860
Si Si6 0.666292 0.151021 0.610150
Si Si7 0.510423 0.500000 0.360781
Si Si8 0.940475 0.742349 0.389286
O O1 0.496169 0.872284 0.665217
O O2 0.567047 0.000000 0.472487
O O3 0.387517 0.000000 0.716932
O O4 0.892358 0.500000 0.124942
O O5 0.822871 0.726481 0.192162
O O6 0.871131 0.653363 0.259997
O O7 0.000000 0.694580 0.000000
O O8 0.213210 0.625085 0.251665
O O9 0.297003 0.373549 0.741866
O O10 0.350484 0.249897 0.557144
O O11 0.102488 0.000000 0.289192
O O12 0.065949 0.000000 0.476598
O O13 0.750000 0.250000 0.500000
O O14 0.594744 0.205313 0.644479
O O15 0.688039 0.000000 0.564839
O O16 0.492343 0.375051 0.335754
#
# Coordination Sequence:
#
# PCOD9169967 Si02
#       8
#     4   8   4   8   4   8   4   8
#     4   9  16  30  42  70 108 136 165 201 252 320
#     4  10  21  37  55  76 103 141 186 221 252 309
#     4   9  18  26  46  71 104 137 161 203 266 313
#     4  10  17  29  49  72 101 134 171 210 258 306
#     4   9  16  28  44  71 100 137 171 207 250 307
#     4  11  22  34  55  79 104 139 177 215 268 315
#     4   9  18  26  44  72 106 130 165 211 262 300
#     4  10  18  29  47  74 104 134 165 210 260 309
#
# _framework density 16.908670999999998
#
# number of rings (size 3 to 8) (size 9 to 14) (size 15 to 20)
#    0.000    2.167    3.333    1.000    1.167    4.000 
#    0.000    0.417    0.000    0.000    0.000    7.000 
#    0.000    0.000    0.000    0.000    0.000    0.000 
#
# Total GULP energy -133757.368276 kJ/mol
# GULP energy per Si atom -5573.223678 kJ/mol
# Density = 1.687019 g / cm^3
# Si number density = 16.908671 Si / 1000 Ang^3
#
#
#
# Elastic Constant Matrix: (Units=GPa)
#
#
# Indices 1 2 3 4 5 6 
#
# 1 189.9877 102.4727 28.2783 0.0000 -24.4884 -0.0001
# 2 102.4727 166.3424 25.5320 0.0001 -14.6363 -0.0001
# 3 28.2783 25.5320 32.1848 0.0001 -14.6962 -0.0002
# 4 0.0000 0.0001 0.0001 9.2523 0.0000 -2.0470
# 5 -24.4884 -14.6363 -14.6962 0.0000 14.6047 0.0000
# 6 -0.0001 -0.0001 -0.0002 -2.0470 0.0000 23.8922
#
#
#
# Elastic Compliance Matrix: (Units=1/GPa)
#
#
# Indices 1 2 3 4 5 6 
#
# 1 0.009203 -0.004804 0.001060 0.000000 0.011683 0.000000
# 2 -0.004804 0.009406 -0.004837 0.000000 -0.003496 0.000000
# 3 0.001060 -0.004837 0.060266 0.000000 0.057572 0.000000
# 4 0.000000 0.000000 0.000000 0.110169 0.000000 0.009439
# 5 0.011683 -0.003496 0.057572 0.000000 0.142489 0.000000
# 6 0.000000 0.000000 0.000000 0.009439 0.000000 0.042663
#
#
# Mechanical properties :
#
#
# Convention : Reuss Voigt Hill
#
# Bulk Modulus (GPa) = 16.20448 77.89785 47.05116
# Shear Modulus (GPa) = 12.13801 25.03198 18.58500
#
# Velocity S-wave (km/s) = 2.68219 3.85180 3.31892
# Velocity P-wave (km/s) = 4.38139 8.12106 6.52488
#
# Compressibility (1/GPa) = 0.06171135
#
# Stress axis : x y z
#
# Youngs Moduli (GPa) = 108.66485 106.31644 16.59320
#
# Poissons Ratio (x) = 0.51073 -0.01758
# Poissons Ratio (y) = 0.52201 0.08027
# Poissons Ratio (z) = -0.11515 0.51428
#
# Static dielectric constant tensor:
#      x y z
#    x 1.563150 0.000000 -0.001660 
#    y 0.000000 1.572690 0.000000 
#    z -0.001660 0.000000 1.549660 
# 
# From -- ./inp_files/295433.got.cif
#   From: 2010.05.17/outbox.cif.g08.bks.cpg/sg12_148_cif.got.tgz:295433.got - 2010.06.03 13:09:07.
