data_PCOD9169062
_publ_section_title
;
Structure prediction by ZEFSAII (Michael W. Deem and Ramdas Pophale) SiO2 
 PCOD9169062
Probable space group: C 2/M
;
_chemical_formula_sum "Si O2"
_cell_formula_units_Z 56
_cell_length_a 16.614237
_cell_length_b 13.806732
_cell_length_c 19.843392
_cell_angle_alpha 90.000000
_cell_angle_beta 149.200596
_cell_angle_gamma 90.000000
_cell_volume 2330.697704
_symmetry_space_group_name_H-M "C 2/M"
_symmetry_group_IT_number 12
_symmetry_cell_setting 'monoclinic'
loop_
_space_group_symop_operation_xyz
x,y,z
-x,y,-z
-x,-y,-z
x,-y,z
1/2+x,1/2+y,z
1/2-x,1/2+y,-z
1/2-x,1/2-y,-z
1/2+x,1/2-y,z
loop_
_atom_site_type_symbol
_atom_site_label
_atom_site_fract_x
_atom_site_fract_y
_atom_site_fract_z
Si Si1 0.872522 0.638320 0.959070
Si Si2 0.368551 0.391075 0.587990
Si Si3 0.995175 0.856757 0.920518
Si Si4 0.481134 0.179993 0.679582
Si Si5 0.118115 0.892318 0.663032
Si Si6 0.359364 0.815642 0.352192
Si Si7 0.277911 0.136684 0.035331
O O1 0.833535 0.597795 0.003819
O O2 0.939898 0.746425 0.021777
O O3 0.717941 0.627176 0.802751
O O4 0.000000 0.596214 0.000000
O O5 0.403326 0.500000 0.639995
O O6 0.440358 0.291929 0.671250
O O7 0.183123 0.372715 0.452007
O O8 0.441388 0.389926 0.564804
O O9 0.814732 0.858344 0.766434
O O10 0.000000 0.897125 0.000000
O O11 0.117763 0.898028 0.955048
O O12 0.581202 0.177714 0.682305
O O13 0.583846 0.130792 0.810850
O O14 0.156141 0.800129 0.644994
O O15 0.152263 0.000000 0.661294
O O16 0.500000 0.854494 0.500000
O O17 0.250000 0.250000 0.000000
#
# Coordination Sequence:
#
# PCOD9169062 Si02
#       7
#     8   8   8   8   8   8   8
#     4  10  19  34  53  80 115 154 202 253 300 362
#     4   9  19  36  58  82 121 159 199 254 305 367
#     4  10  16  33  53  80 116 153 191 248 316 353
#     4  10  20  36  58  89 118 164 208 251 312 374
#     4  10  20  36  53  76 119 168 203 246 311 376
#     4  11  21  33  55  86 122 152 207 260 300 371
#     4  10  19  31  60  84 116 157 206 254 306 370
#
# _framework density 24.027138999999998
#
# number of rings (size 3 to 8) (size 9 to 14) (size 15 to 20)
#    0.000    2.000    4.286    2.571    0.000    8.571 
#    0.000    0.714    0.000    1.286    0.000    3.000 
#    0.000    0.571    0.000    0.000    0.000    0.000 
#
# Total GULP energy -156291.275587 kJ/mol
# GULP energy per Si atom -5581.831271 kJ/mol
# Density = 2.397245 g / cm^3
# Si number density = 24.027139 Si / 1000 Ang^3
#
#
#
# Elastic Constant Matrix: (Units=GPa)
#
#
# Indices 1 2 3 4 5 6 
#
# 1 192.5579 24.1836 86.6135 0.0002 15.0082 0.0000
# 2 24.1836 103.5848 16.5549 0.0021 9.1678 0.0007
# 3 86.6135 16.5549 147.1972 0.0024 4.8722 0.0009
# 4 0.0002 0.0021 0.0024 -44.2463 0.0005 3.8863
# 5 15.0082 9.1678 4.8722 0.0005 46.8149 0.0001
# 6 0.0000 0.0007 0.0009 3.8863 0.0001 -29.6593
#
#
#
# Elastic Compliance Matrix: (Units=1/GPa)
#
#
# Indices 1 2 3 4 5 6 
#
# 1 0.007302 -0.000890 -0.004139 0.000000 -0.001736 0.000000
# 2 -0.000890 0.010095 -0.000558 0.000000 -0.001634 0.000000
# 3 -0.004139 -0.000558 0.009276 0.000000 0.000471 0.000000
# 4 0.000000 0.000000 0.000000 -0.022864 0.000000 -0.002996
# 5 -0.001736 -0.001634 0.000471 0.000000 0.022188 0.000000
# 6 0.000000 0.000000 0.000000 -0.002996 0.000000 -0.034109
#
#
# Mechanical properties :
#
#
# Convention : Reuss Voigt Hill
#
# Bulk Modulus (GPa) = 64.51407 77.56043 71.03725
# Shear Modulus (GPa) = 607.57473 15.64771 311.61122
#
# Velocity S-wave (km/s) = 15.91914 2.55473 11.40057
# Velocity P-wave (km/s) = 19.09976 6.40723 14.24524
#
# Compressibility (1/GPa) = 0.01550049
#
# Stress axis : x y z
#
# Youngs Moduli (GPa) = 136.94698 99.05524 107.80128
#
# Poissons Ratio (x) = 0.08812 0.44621
# Poissons Ratio (y) = 0.12183 0.06014
# Poissons Ratio (z) = 0.56685 0.05526
#
# Static dielectric constant tensor:
#      x y z
#    x 1.946730 0.000000 -0.013760 
#    y 0.000000 1.950390 0.000000 
#    z -0.013760 0.000000 2.020720 
# 
# From -- ./inp_files/317191.got.cif
#   From: 2010.05.17/outbox.cif.g08.bks.cpg/sg12_159_cif.got.tgz:317191.got - 2010.06.03 13:09:07.
