data_PCOD9169781
_publ_section_title
;
Structure prediction by ZEFSAII (Michael W. Deem and Ramdas Pophale) SiO2 
 PCOD9169781
Probable space group: C 2/M
;
_chemical_formula_sum "Si O2"
_cell_formula_units_Z 44
_cell_length_a 16.788433
_cell_length_b 22.533953
_cell_length_c 16.493784
_cell_angle_alpha 90.000000
_cell_angle_beta 157.334871
_cell_angle_gamma 90.000000
_cell_volume 2404.457002
_symmetry_space_group_name_H-M "C 2/M"
_symmetry_group_IT_number 12
_symmetry_cell_setting 'monoclinic'
loop_
_space_group_symop_operation_xyz
x,y,z
-x,y,-z
-x,-y,-z
x,-y,z
1/2+x,1/2+y,z
1/2-x,1/2+y,-z
1/2-x,1/2-y,-z
1/2+x,1/2-y,z
loop_
_atom_site_type_symbol
_atom_site_label
_atom_site_fract_x
_atom_site_fract_y
_atom_site_fract_z
Si Si1 0.786417 0.847098 0.909869
Si Si2 0.141926 0.774048 0.519060
Si Si3 0.394401 0.159701 0.630951
Si Si4 0.000000 0.399588 0.500000
Si Si5 0.295968 0.224577 0.840484
Si Si6 0.160771 0.067180 0.304481
O O1 0.640189 0.848859 0.852075
O O2 0.634951 0.864260 0.693212
O O3 0.861070 0.781075 0.956650
O O4 0.970983 0.893058 0.094275
O O5 0.301366 0.819737 0.628589
O O6 0.143195 0.715260 0.465296
O O7 0.206153 0.755843 0.669146
O O8 0.907306 0.799987 0.304590
O O9 0.270175 0.103377 0.479969
O O10 0.167422 0.434370 0.604689
O O11 0.500000 0.190389 0.000000
O O12 0.099412 0.000000 0.267433
#
# Coordination Sequence:
#
# PCOD9169781 Si02
#       6
#     8   8   8   4   8   8
#     4  10  19  31  48  69  96 129 162 195 234 279
#     4   9  18  32  49  71  96 127 162 195 240 293
#     4   9  19  34  49  67  97 130 162 200 239 281
#     4  10  19  32  46  64  94 130 166 200 227 262
#     4  10  17  28  48  72  97 122 153 195 241 287
#     4  11  22  33  47  69  97 132 170 200 231 275
#
# _framework density 18.29935
#
# number of rings (size 3 to 8) (size 9 to 14) (size 15 to 20)
#    0.000    2.182    0.000    6.273    0.000    5.818 
#    0.000    5.455    0.000    0.000    0.000    2.545 
#    0.000    7.273    0.000    0.000    0.000    0.000 
#
# Total GULP energy -122509.865862 kJ/mol
# GULP energy per Si atom -5568.630266 kJ/mol
# Density = 1.825770 g / cm^3
# Si number density = 18.299350 Si / 1000 Ang^3
#
#
#
# Elastic Constant Matrix: (Units=GPa)
#
#
# Indices 1 2 3 4 5 6 
#
# 1 89.4261 34.0208 30.9352 0.0001 26.6443 0.0000
# 2 34.0208 52.6036 18.7312 0.0000 15.3216 0.0000
# 3 30.9352 18.7312 72.4539 0.0004 29.8651 0.0000
# 4 0.0001 0.0000 0.0004 6.9500 0.0002 1.8135
# 5 26.6443 15.3216 29.8651 0.0002 27.0833 0.0000
# 6 0.0000 0.0000 0.0000 1.8135 0.0000 13.4484
#
#
#
# Elastic Compliance Matrix: (Units=1/GPa)
#
#
# Indices 1 2 3 4 5 6 
#
# 1 0.018173 -0.007822 -0.000351 0.000000 -0.013066 0.000000
# 2 -0.007822 0.026172 -0.000908 0.000000 -0.006109 0.000000
# 3 -0.000351 -0.000908 0.025359 -0.000001 -0.027104 0.000000
# 4 0.000000 0.000000 -0.000001 0.149132 -0.000001 -0.020110
# 5 -0.013066 -0.006109 -0.027104 -0.000001 0.083121 0.000000
# 6 0.000000 0.000000 0.000000 -0.020110 0.000000 0.077070
#
#
# Mechanical properties :
#
#
# Convention : Reuss Voigt Hill
#
# Bulk Modulus (GPa) = 19.40244 42.42866 30.91555
# Shear Modulus (GPa) = 12.06649 18.21608 15.14129
#
# Velocity S-wave (km/s) = 2.57065 3.15850 2.87962
# Velocity P-wave (km/s) = 4.40872 6.04464 5.29030
#
# Compressibility (1/GPa) = 0.05153990
#
# Stress axis : x y z
#
# Youngs Moduli (GPa) = 55.02763 38.20894 39.43398
#
# Poissons Ratio (x) = 0.29888 0.01385
# Poissons Ratio (y) = 0.43045 0.03581
# Poissons Ratio (z) = 0.01933 0.03470
#
# Static dielectric constant tensor:
#      x y z
#    x 1.664820 0.000000 0.038030 
#    y 0.000000 1.616380 0.000000 
#    z 0.038030 0.000000 1.712660 
# 
# From -- ./inp_files/279407.got.cif
#   From: 2010.05.17/outbox.cif.g08.bks.cpg/sg12_140_cif.got.tgz:279407.got - 2010.06.03 13:09:07.
