data_PCOD9169813
_publ_section_title
;
Structure prediction by ZEFSAII (Michael W. Deem and Ramdas Pophale) SiO2 
 PCOD9169813
Probable space group: C 2/M
;
_chemical_formula_sum "Si O2"
_cell_formula_units_Z 52
_cell_length_a 21.633052
_cell_length_b 13.643914
_cell_length_c 27.114835
_cell_angle_alpha 90.000000
_cell_angle_beta 158.927935
_cell_angle_gamma 90.000000
_cell_volume 2877.486128
_symmetry_space_group_name_H-M "C 2/M"
_symmetry_group_IT_number 12
_symmetry_cell_setting 'monoclinic'
loop_
_space_group_symop_operation_xyz
x,y,z
-x,y,-z
-x,-y,-z
x,-y,z
1/2+x,1/2+y,z
1/2-x,1/2+y,-z
1/2-x,1/2-y,-z
1/2+x,1/2-y,z
loop_
_atom_site_type_symbol
_atom_site_label
_atom_site_fract_x
_atom_site_fract_y
_atom_site_fract_z
Si Si1 0.500000 0.295878 0.000000
Si Si2 0.841235 0.785220 0.683970
Si Si3 0.882710 0.113952 0.609155
Si Si4 0.008361 0.612370 0.577910
Si Si5 0.357214 0.225018 0.229858
Si Si6 0.621932 0.388889 0.191854
Si Si7 0.461736 0.885612 0.712215
O O1 0.328733 0.240370 0.889953
O O2 0.455347 0.358835 0.918261
O O3 0.882186 0.849135 0.665300
O O4 0.639267 0.808078 0.540846
O O5 0.925847 0.821494 0.797544
O O6 0.895448 0.675956 0.709601
O O7 0.694689 0.124682 0.444178
O O8 0.012293 0.184430 0.676379
O O9 0.929084 0.000000 0.641218
O O10 0.940728 0.500000 0.528408
O O11 0.085258 0.642634 0.688055
O O12 0.170917 0.614815 0.662551
O O13 0.375659 0.169411 0.191230
O O14 0.575313 0.500000 0.168962
O O15 0.491366 0.000000 0.743062
#
# Coordination Sequence:
#
# PCOD9169813 Si02
#       7
#     4   8   8   8   8   8   8
#     4  10  23  38  55  72 104 146 183 210 255 314
#     4  11  18  31  51  80 110 133 168 218 269 310
#     4  10  18  31  54  82 110 137 172 213 263 318
#     4  10  17  28  49  78 107 134 166 211 267 317
#     4  10  18  34  53  78 106 141 176 213 255 309
#     4  10  21  33  50  76 107 141 175 215 260 310
#     4  10  19  32  54  81 110 139 169 212 264 319
#
# _framework density 18.071328999999999
#
# number of rings (size 3 to 8) (size 9 to 14) (size 15 to 20)
#    0.000    1.846    3.077    3.462    0.000    3.077 
#    0.000    3.462    0.000    8.308    0.000    0.000 
#    0.000    0.000    0.000    0.000    0.000    0.000 
#
# Total GULP energy -144909.348395 kJ/mol
# GULP energy per Si atom -5573.436477 kJ/mol
# Density = 1.803020 g / cm^3
# Si number density = 18.071329 Si / 1000 Ang^3
#
#
#
# Elastic Constant Matrix: (Units=GPa)
#
#
# Indices 1 2 3 4 5 6 
#
# 1 96.9181 38.7561 22.1880 -0.0087 -7.9994 0.0027
# 2 38.7561 86.5371 1.4562 -0.0233 5.0368 -0.0021
# 3 22.1880 1.4562 32.0951 -0.0314 4.9578 -0.0057
# 4 -0.0087 -0.0233 -0.0314 9.8756 -0.0187 1.8612
# 5 -7.9994 5.0368 4.9578 -0.0187 32.1439 0.0025
# 6 0.0027 -0.0021 -0.0057 1.8612 0.0025 17.9060
#
#
#
# Elastic Compliance Matrix: (Units=1/GPa)
#
#
# Indices 1 2 3 4 5 6 
#
# 1 0.016887 -0.007781 -0.012456 -0.000028 0.007343 -0.000006
# 2 -0.007781 0.015249 0.005486 0.000036 -0.005172 0.000002
# 3 -0.012456 0.005486 0.041110 0.000112 -0.010300 0.000005
# 4 -0.000028 0.000036 0.000112 0.103283 0.000031 -0.010735
# 5 0.007343 -0.005172 -0.010300 0.000031 0.035337 -0.000013
# 6 -0.000006 0.000002 0.000005 -0.010735 -0.000013 0.056963
#
#
# Mechanical properties :
#
#
# Convention : Reuss Voigt Hill
#
# Bulk Modulus (GPa) = 22.85922 37.81676 30.33799
# Shear Modulus (GPa) = 15.97893 22.19509 19.08701
#
# Velocity S-wave (km/s) = 2.97680 3.50836 3.25346
# Velocity P-wave (km/s) = 4.94894 6.11419 5.56216
#
# Compressibility (1/GPa) = 0.04374602
#
# Stress axis : x y z
#
# Youngs Moduli (GPa) = 59.21729 65.57771 24.32474
#
# Poissons Ratio (x) = 0.51024 0.30298
# Poissons Ratio (y) = 0.46075 -0.13345
# Poissons Ratio (z) = 0.73758 -0.35976
#
# Static dielectric constant tensor:
#      x y z
#    x 1.644410 0.000000 -0.005110 
#    y 0.000000 1.592830 -0.000010 
#    z -0.005110 -0.000010 1.694120 
# 
# From -- ./inp_files/366478.got.cif
#   From: 2010.05.17/outbox.cif.g08.bks.cpg/sg12_184_cif.got.tgz:366478.got - 2010.06.03 13:09:07.
