data_PCOD9169826
_publ_section_title
;
Structure prediction by ZEFSAII (Michael W. Deem and Ramdas Pophale) SiO2 
 PCOD9169826
Probable space group: C 2/M
;
_chemical_formula_sum "Si O2"
_cell_formula_units_Z 40
_cell_length_a 25.306958
_cell_length_b 8.444027
_cell_length_c 21.470419
_cell_angle_alpha 90.000000
_cell_angle_beta 31.052251
_cell_angle_gamma 90.000000
_cell_volume 2366.616461
_symmetry_space_group_name_H-M "C 2/M"
_symmetry_group_IT_number 12
_symmetry_cell_setting 'monoclinic'
loop_
_space_group_symop_operation_xyz
x,y,z
-x,y,-z
-x,-y,-z
x,-y,z
1/2+x,1/2+y,z
1/2-x,1/2+y,-z
1/2-x,1/2-y,-z
1/2+x,1/2-y,z
loop_
_atom_site_type_symbol
_atom_site_label
_atom_site_fract_x
_atom_site_fract_y
_atom_site_fract_z
Si Si1 0.242769 0.311167 0.437398
Si Si2 0.074485 0.191286 0.515167
Si Si3 0.585150 0.311160 0.833637
Si Si4 0.629493 0.811445 0.926776
Si Si5 0.855666 0.192788 0.693598
O O1 0.244231 0.500000 0.437133
O O2 0.250000 0.250000 0.500000
O O3 0.140939 0.255450 0.504498
O O4 0.339473 0.258660 0.297437
O O5 0.124636 0.240565 0.398235
O O6 0.955549 0.242002 0.631634
O O7 0.076777 0.000000 0.514676
O O8 0.595390 0.500000 0.832358
O O9 0.616280 0.226470 0.866616
O O10 0.466169 0.270254 0.943036
O O11 0.743744 0.755543 0.828778
O O12 0.622073 0.000000 0.943092
O O13 0.854843 0.000000 0.694233
#
# Coordination Sequence:
#
# PCOD9169826 Si02
#       5
#     8   8   8   8   8
#     4  11  23  36  51  71  98 133 171 208 246 290
#     4   9  16  31  51  72 101 131 162 200 243 294
#     4  10  20  32  45  69 102 131 161 201 251 291
#     4  10  17  28  50  76 100 129 163 197 237 294
#     4   8  15  27  49  77 102 129 158 196 246 294
#
# _framework density 16.901767
#
# number of rings (size 3 to 8) (size 9 to 14) (size 15 to 20)
#    0.000    2.400    2.000    4.200    0.000    2.400 
#    0.000    4.000    0.000    1.200    0.000    0.000 
#    0.000    0.000    0.000    0.000    0.000    0.000 
#
# Total GULP energy -111493.092331 kJ/mol
# GULP energy per Si atom -5574.654617 kJ/mol
# Density = 1.686330 g / cm^3
# Si number density = 16.901767 Si / 1000 Ang^3
#
#
#
# Elastic Constant Matrix: (Units=GPa)
#
#
# Indices 1 2 3 4 5 6 
#
# 1 121.1502 10.7265 64.4552 -0.0015 -16.8943 0.0004
# 2 10.7265 16.3859 5.6558 -0.0028 1.7283 0.0015
# 3 64.4552 5.6558 95.6048 -0.0013 -22.8137 0.0008
# 4 -0.0015 -0.0028 -0.0013 22.8628 0.0016 -1.1486
# 5 -16.8943 1.7283 -22.8137 0.0016 31.3837 -0.0005
# 6 0.0004 0.0015 0.0008 -1.1486 -0.0005 19.2324
#
#
#
# Elastic Compliance Matrix: (Units=1/GPa)
#
#
# Indices 1 2 3 4 5 6 
#
# 1 0.013441 -0.006078 -0.008343 0.000000 0.001506 0.000001
# 2 -0.006078 0.066499 -0.001804 0.000008 -0.008245 -0.000005
# 3 -0.008343 -0.001804 0.018321 0.000000 0.008926 0.000000
# 4 0.000000 0.000008 0.000000 0.043871 -0.000003 0.002620
# 5 0.001506 -0.008245 0.008926 -0.000003 0.039617 0.000001
# 6 0.000001 -0.000005 0.000000 0.002620 0.000001 0.052152
#
#
# Mechanical properties :
#
#
# Convention : Reuss Voigt Hill
#
# Bulk Modulus (GPa) = 15.19482 43.86844 29.53163
# Shear Modulus (GPa) = 17.34382 24.84934 21.09658
#
# Velocity S-wave (km/s) = 3.20684 3.83851 3.53680
# Velocity P-wave (km/s) = 4.76669 6.75698 5.84714
#
# Compressibility (1/GPa) = 0.06581189
#
# Stress axis : x y z
#
# Youngs Moduli (GPa) = 74.39977 15.03784 54.58189
#
# Poissons Ratio (x) = 0.09140 0.45537
# Poissons Ratio (y) = 0.45219 0.09846
# Poissons Ratio (z) = 0.62071 0.02713
#
# Static dielectric constant tensor:
#      x y z
#    x 1.555330 0.000000 -0.039450 
#    y 0.000000 1.576900 0.000000 
#    z -0.039450 0.000000 1.595320 
# 
# From -- ./inp_files/236928.got.cif
#   From: 2010.05.17/outbox.cif.g08.bks.cpg/sg12_119_cif.got.tgz:236928.got - 2010.06.03 13:09:07.
