data_PCOD9169163
_publ_section_title
;
Structure prediction by ZEFSAII (Michael W. Deem and Ramdas Pophale) SiO2 
 PCOD9169163
Probable space group: C 2/M
;
_chemical_formula_sum "Si O2"
_cell_formula_units_Z 48
_cell_length_a 14.368477
_cell_length_b 9.236047
_cell_length_c 17.091620
_cell_angle_alpha 90.000000
_cell_angle_beta 105.907960
_cell_angle_gamma 90.000000
_cell_volume 2181.329029
_symmetry_space_group_name_H-M "C 2/M"
_symmetry_group_IT_number 12
_symmetry_cell_setting 'monoclinic'
loop_
_space_group_symop_operation_xyz
x,y,z
-x,y,-z
-x,-y,-z
x,-y,z
1/2+x,1/2+y,z
1/2-x,1/2+y,-z
1/2-x,1/2-y,-z
1/2+x,1/2-y,z
loop_
_atom_site_type_symbol
_atom_site_label
_atom_site_fract_x
_atom_site_fract_y
_atom_site_fract_z
Si Si1 0.618851 0.165591 0.407511
Si Si2 0.954554 0.664365 0.910715
Si Si3 0.798743 0.823346 0.256461
Si Si4 0.646525 0.665039 0.565402
Si Si5 0.904697 0.172042 0.752028
Si Si6 0.234250 0.839055 0.917422
O O1 0.603696 0.232393 0.489416
O O2 0.736120 0.166698 0.420482
O O3 0.574791 0.260432 0.327752
O O4 0.586725 0.000000 0.394762
O O5 0.992715 0.500000 0.908031
O O6 0.965807 0.759732 0.836803
O O7 0.841384 0.652132 0.904708
O O8 0.000000 0.727287 0.000000
O O9 0.867525 0.795966 0.346736
O O10 0.704099 0.727941 0.253583
O O11 0.826344 0.788869 0.173010
O O12 0.779182 0.000000 0.254518
O O13 0.615006 0.500000 0.545123
O O14 0.911141 0.000000 0.752097
O O15 0.200603 0.000000 0.931242
O O16 0.250000 0.750000 0.000000
#
# Coordination Sequence:
#
# PCOD9169163 Si02
#       6
#     8   8   8   8   8   8
#     4   9  15  22  32  48  74 106 136 165 203 254
#     4   9  18  33  49  62  82 115 150 180 213 255
#     4   8  15  27  39  52  76 110 143 171 206 254
#     4   8  13  21  33  49  70  99 136 174 205 238
#     4  10  17  24  37  57  80 105 136 174 213 251
#     4   9  17  29  45  65  87 113 144 177 215 255
#
# _framework density 22.004935
#
# number of rings (size 3 to 8) (size 9 to 14) (size 15 to 20)
#    0.000    3.167    0.000    4.000    0.000    7.000 
#    0.000    0.000    0.000    0.000    0.000    0.000 
#    0.000    1.333    0.000   15.333    0.000   16.667 
#
# Total GULP energy -133807.375667 kJ/mol
# GULP energy per Si atom -5575.307319 kJ/mol
# Density = 2.195485 g / cm^3
# Si number density = 22.004935 Si / 1000 Ang^3
#
#
#
# Elastic Constant Matrix: (Units=GPa)
#
#
# Indices 1 2 3 4 5 6 
#
# 1 62.9168 13.5894 17.7573 0.0000 -7.8963 0.0000
# 2 13.5894 126.5716 123.7637 0.0000 -19.5096 0.0000
# 3 17.7573 123.7637 266.1644 0.0000 -31.7948 0.0000
# 4 0.0000 0.0000 0.0000 42.5107 0.0000 -7.7413
# 5 -7.8963 -19.5096 -31.7948 0.0000 16.5649 0.0000
# 6 0.0000 0.0000 0.0000 -7.7413 0.0000 -2.8531
#
#
#
# Elastic Compliance Matrix: (Units=1/GPa)
#
#
# Indices 1 2 3 4 5 6 
#
# 1 0.016958 -0.000805 0.000124 0.000000 0.007373 0.000000
# 2 -0.000805 0.014903 -0.006261 0.000000 0.005152 0.000000
# 3 0.000124 -0.006261 0.007508 0.000000 0.007096 0.000000
# 4 0.000000 0.000000 0.000000 0.015744 0.000000 -0.042719
# 5 0.007373 0.005152 0.007096 0.000000 0.083570 0.000000
# 6 0.000000 0.000000 0.000000 -0.042719 0.000000 -0.234588
#
#
# Mechanical properties :
#
#
# Convention : Reuss Voigt Hill
#
# Bulk Modulus (GPa) = 39.23945 85.09707 62.16826
# Shear Modulus (GPa) = -68.00298 31.28064 -18.36117
#
# Velocity S-wave (km/s) = -5.56512 3.77441 -2.89175
# Velocity P-wave (km/s) = 4.83976 7.59938 4.14290
#
# Compressibility (1/GPa) = 0.02548456
#
# Stress axis : x y z
#
# Youngs Moduli (GPa) = 58.96800 67.10112 133.20000
#
# Poissons Ratio (x) = 0.05404 -0.01650
# Poissons Ratio (y) = 0.04749 0.83391
# Poissons Ratio (z) = -0.00730 0.42009
#
# Static dielectric constant tensor:
#      x y z
#    x 2.046640 0.000000 0.076080 
#    y 0.000000 1.757120 0.000000 
#    z 0.076080 0.000000 1.866520 
# 
# From -- ./inp_files/280525.got.cif
#   From: 2010.05.17/outbox.cif.g08.bks.cpg/sg12_141_cif.got.tgz:280525.got - 2010.06.03 13:09:07.
