data_PCOD9169849
_publ_section_title
;
Structure prediction by ZEFSAII (Michael W. Deem and Ramdas Pophale) SiO2 
 PCOD9169849
Probable space group: C 2/M
;
_chemical_formula_sum "Si O2"
_cell_formula_units_Z 40
_cell_length_a 10.624283
_cell_length_b 22.812125
_cell_length_c 7.994585
_cell_angle_alpha 90.000000
_cell_angle_beta 58.454026
_cell_angle_gamma 90.000000
_cell_volume 1651.251955
_symmetry_space_group_name_H-M "C 2/M"
_symmetry_group_IT_number 12
_symmetry_cell_setting 'monoclinic'
loop_
_space_group_symop_operation_xyz
x,y,z
-x,y,-z
-x,-y,-z
x,-y,z
1/2+x,1/2+y,z
1/2-x,1/2+y,-z
1/2-x,1/2-y,-z
1/2+x,1/2-y,z
loop_
_atom_site_type_symbol
_atom_site_label
_atom_site_fract_x
_atom_site_fract_y
_atom_site_fract_z
Si Si1 0.369456 0.122902 0.768902
Si Si2 0.097516 0.295790 0.761266
Si Si3 0.323359 0.500000 0.646777
Si Si4 0.103599 0.158936 0.761389
Si Si5 0.011831 0.500000 0.784077
Si Si6 0.673980 0.372413 0.226606
O O1 0.498475 0.171380 0.692049
O O2 0.256731 0.125998 0.692152
O O3 0.437102 0.059067 0.763091
O O4 0.261950 0.141331 0.995676
O O5 0.128593 0.227698 0.713443
O O6 0.246603 0.331468 0.693876
O O7 0.000000 0.298926 0.000000
O O8 0.500000 0.500000 0.500000
O O9 0.295101 0.439853 0.761438
O O10 0.186121 0.500000 0.612741
O O11 0.998695 0.134754 0.688871
O O12 0.000000 0.153593 0.000000
O O13 0.000000 0.500000 0.000000
#
# Coordination Sequence:
#
# PCOD9169849 Si02
#       6
#     8   8   4   8   4   8
#     4  10  17  28  52  79 107 137 167 208 257 305
#     4   9  15  27  48  77 111 140 166 201 249 309
#     4  12  24  37  55  75  99 137 181 220 259 304
#     4   9  18  27  45  83 116 133 160 209 265 302
#     4  12  18  35  55  77  99 133 178 219 253 308
#     4  10  18  32  50  75 108 138 169 212 253 304
#
# _framework density 24.224042000000001
#
# number of rings (size 3 to 8) (size 9 to 14) (size 15 to 20)
#    0.000    2.000    4.000    1.800    0.000    5.600 
#    0.000    3.000    0.000    3.600    0.000    0.000 
#    0.000    0.000    0.000    0.000    0.000    0.000 
#
# Total GULP energy -111790.350383 kJ/mol
# GULP energy per Si atom -5589.517519 kJ/mol
# Density = 2.416891 g / cm^3
# Si number density = 24.224042 Si / 1000 Ang^3
#
#
#
# Elastic Constant Matrix: (Units=GPa)
#
#
# Indices 1 2 3 4 5 6 
#
# 1 257.2594 114.2867 23.9660 0.0000 -31.3181 0.0000
# 2 114.2867 131.8510 -8.3812 0.0000 -3.7871 0.0000
# 3 23.9660 -8.3812 84.2866 0.0000 -11.9400 0.0000
# 4 0.0000 0.0000 0.0000 34.7685 0.0000 -29.2790
# 5 -31.3181 -3.7871 -11.9400 0.0000 33.4012 0.0000
# 6 0.0000 0.0000 0.0000 -29.2790 0.0000 26.5345
#
#
#
# Elastic Compliance Matrix: (Units=1/GPa)
#
#
# Indices 1 2 3 4 5 6 
#
# 1 0.007749 -0.006682 -0.002050 0.000000 0.005776 0.000000
# 2 -0.006682 0.013439 0.002701 0.000000 -0.003775 0.000000
# 3 -0.002050 0.002701 0.013153 0.000000 0.003086 0.000000
# 4 0.000000 0.000000 0.000000 0.406310 0.000000 0.448335
# 5 0.005776 -0.003775 0.003086 0.000000 0.036030 0.000000
# 6 0.000000 0.000000 0.000000 0.448335 0.000000 0.532394
#
#
# Mechanical properties :
#
#
# Convention : Reuss Voigt Hill
#
# Bulk Modulus (GPa) = 44.87988 81.46000 63.16994
# Shear Modulus (GPa) = 4.86116 41.84255 23.35185
#
# Velocity S-wave (km/s) = 1.41813 4.16061 3.10820
# Velocity P-wave (km/s) = 4.60963 7.53536 6.24621
#
# Compressibility (1/GPa) = 0.02228170
#
# Stress axis : x y z
#
# Youngs Moduli (GPa) = 129.04144 74.41015 76.02896
#
# Poissons Ratio (x) = 0.49717 0.15583
# Poissons Ratio (y) = 0.86219 -0.20538
# Poissons Ratio (z) = 0.26449 -0.20101
#
# Static dielectric constant tensor:
#      x y z
#    x 1.933800 0.000000 0.014800 
#    y 0.000000 1.809590 0.000000 
#    z 0.014800 0.000000 2.055610 
# 
# From -- ./inp_files/48827.got.cif
#   From: 2010.05.17/outbox.cif.g08.bks.cpg/sg12_25_cif.got.tgz:48827.got - 2010.06.03 13:09:07.
