data_PCOD9169512
_publ_section_title
;
Structure prediction by ZEFSAII (Michael W. Deem and Ramdas Pophale) SiO2 
 PCOD9169512
Probable space group: C 2/M
;
_chemical_formula_sum "Si O2"
_cell_formula_units_Z 64
_cell_length_a 19.990894
_cell_length_b 8.528822
_cell_length_c 24.543714
_cell_angle_alpha 90.000000
_cell_angle_beta 60.011530
_cell_angle_gamma 90.000000
_cell_volume 3624.454286
_symmetry_space_group_name_H-M "C 2/M"
_symmetry_group_IT_number 12
_symmetry_cell_setting 'monoclinic'
loop_
_space_group_symop_operation_xyz
x,y,z
-x,y,-z
-x,-y,-z
x,-y,z
1/2+x,1/2+y,z
1/2-x,1/2+y,-z
1/2-x,1/2-y,-z
1/2+x,1/2-y,z
loop_
_atom_site_type_symbol
_atom_site_label
_atom_site_fract_x
_atom_site_fract_y
_atom_site_fract_z
Si Si1 0.429844 0.812687 0.226499
Si Si2 0.758742 0.310444 0.326708
Si Si3 0.190393 0.190683 0.149797
Si Si4 0.634383 0.308393 0.290889
Si Si5 0.067019 0.187128 0.107273
Si Si6 0.034087 0.189539 0.669001
Si Si7 0.187288 0.687875 0.981880
Si Si8 0.296109 0.312533 0.429631
O O1 0.339680 0.766084 0.264586
O O2 0.482358 0.747154 0.156753
O O3 0.463762 0.750526 0.269987
O O4 0.433781 0.000000 0.224185
O O5 0.757482 0.500000 0.330607
O O6 0.686700 0.256805 0.319897
O O7 0.760766 0.244759 0.386830
O O8 0.170945 0.243668 0.218386
O O9 0.124218 0.240498 0.133558
O O10 0.188116 0.000000 0.151271
O O11 0.273943 0.235539 0.091310
O O12 0.635725 0.500000 0.290400
O O13 0.544911 0.259926 0.327629
O O14 0.105898 0.247124 0.035796
O O15 0.067697 0.000000 0.106746
O O16 0.113903 0.239966 0.608279
O O17 0.033800 0.000000 0.671679
O O18 0.185079 0.500000 0.985041
O O19 0.250000 0.750000 0.000000
O O20 0.295305 0.500000 0.431058
O O21 0.250000 0.250000 0.500000
#
# Coordination Sequence:
#
# PCOD9169512 Si02
#       8
#     8   8   8   8   8   8   8   8
#     4  10  18  28  44  71 100 125 157 202 251 296
#     4   9  19  33  52  76 102 129 158 196 244 292
#     4   8  14  24  43  67  91 120 157 200 245 286
#     4   9  15  29  52  75  98 125 161 203 241 287
#     4  10  17  27  44  65  90 126 169 211 249 288
#     4   9  17  31  53  76  96 126 166 201 235 281
#     4   9  16  25  38  63  95 125 159 204 254 303
#     4  10  20  35  56  78 102 132 164 197 234 281
#
# _framework density 17.657830000000001
#
# number of rings (size 3 to 8) (size 9 to 14) (size 15 to 20)
#    0.000    2.750    1.250    2.250    0.000    1.000 
#    0.000    1.250    0.000    4.500    0.000    5.250 
#    0.000    0.000    0.000    0.000    0.000    0.000 
#
# Total GULP energy -178285.071391 kJ/mol
# GULP energy per Si atom -5571.408481 kJ/mol
# Density = 1.761764 g / cm^3
# Si number density = 17.657830 Si / 1000 Ang^3
#
#
#
# Elastic Constant Matrix: (Units=GPa)
#
#
# Indices 1 2 3 4 5 6 
#
# 1 114.4997 18.7400 60.8105 0.0001 -7.7301 0.0003
# 2 18.7400 17.2111 20.8595 0.0002 -4.9466 0.0008
# 3 60.8105 20.8595 135.3428 0.0000 -21.1452 0.0001
# 4 0.0001 0.0002 0.0000 26.4144 0.0000 -3.0316
# 5 -7.7301 -4.9466 -21.1452 0.0000 18.6012 0.0001
# 6 0.0003 0.0008 0.0001 -3.0316 0.0001 15.1058
#
#
#
# Elastic Compliance Matrix: (Units=1/GPa)
#
#
# Indices 1 2 3 4 5 6 
#
# 1 0.012446 -0.008618 -0.004637 0.000000 -0.002391 0.000000
# 2 -0.008618 0.078380 -0.006701 -0.000001 0.009644 -0.000004
# 3 -0.004637 -0.006701 0.012069 0.000000 0.010010 0.000000
# 4 0.000000 -0.000001 0.000000 0.038751 0.000000 0.007777
# 5 -0.002391 0.009644 0.010010 0.000000 0.066710 -0.000001
# 6 0.000000 -0.000004 0.000000 0.007777 -0.000001 0.067760
#
#
# Mechanical properties :
#
#
# Convention : Reuss Voigt Hill
#
# Bulk Modulus (GPa) = 15.87782 51.98596 33.93189
# Shear Modulus (GPa) = 14.83581 23.13384 18.98482
#
# Velocity S-wave (km/s) = 2.90174 3.62348 3.28251
# Velocity P-wave (km/s) = 4.49869 6.85644 5.79867
#
# Compressibility (1/GPa) = 0.06298094
#
# Stress axis : x y z
#
# Youngs Moduli (GPa) = 80.35006 12.75843 82.85718
#
# Poissons Ratio (x) = 0.10995 0.38423
# Poissons Ratio (y) = 0.69247 0.55524
# Poissons Ratio (z) = 0.37260 0.08550
#
# Static dielectric constant tensor:
#      x y z
#    x 1.600470 0.000000 -0.029040 
#    y 0.000000 1.606460 0.000000 
#    z -0.029040 0.000000 1.606720 
# 
# From -- ./inp_files/345528.got.cif
#   From: 2010.05.17/outbox.cif.g08.bks.cpg/sg12_173_cif.got.tgz:345528.got - 2010.06.03 13:09:07.
