data_PCOD9169633
_publ_section_title
;
Structure prediction by ZEFSAII (Michael W. Deem and Ramdas Pophale) SiO2 
 PCOD9169633
Probable space group: C 2/M
;
_chemical_formula_sum "Si O2"
_cell_formula_units_Z 56
_cell_length_a 24.317016
_cell_length_b 14.078453
_cell_length_c 11.746024
_cell_angle_alpha 90.000000
_cell_angle_beta 37.648326
_cell_angle_gamma 90.000000
_cell_volume 2456.204455
_symmetry_space_group_name_H-M "C 2/M"
_symmetry_group_IT_number 12
_symmetry_cell_setting 'monoclinic'
loop_
_space_group_symop_operation_xyz
x,y,z
-x,y,-z
-x,-y,-z
x,-y,z
1/2+x,1/2+y,z
1/2-x,1/2+y,-z
1/2-x,1/2-y,-z
1/2+x,1/2-y,z
loop_
_atom_site_type_symbol
_atom_site_label
_atom_site_fract_x
_atom_site_fract_y
_atom_site_fract_z
Si Si1 0.094425 0.107187 0.914628
Si Si2 0.413371 0.111998 0.808686
Si Si3 0.829250 0.113404 0.443445
Si Si4 0.005292 0.790501 0.260220
Si Si5 0.875855 0.107998 0.755008
Si Si6 0.794049 0.606237 0.791812
Si Si7 0.747944 0.696249 0.227421
O O1 0.166678 0.129796 0.698391
O O2 0.109378 0.000000 0.936840
O O3 0.076724 0.181333 0.043224
O O4 0.000000 0.102699 0.000000
O O5 0.495586 0.179151 0.709620
O O6 0.380042 0.124312 0.732888
O O7 0.424831 0.000000 0.809546
O O8 0.331733 0.155403 0.017940
O O9 0.748839 0.153268 0.651643
O O10 0.914623 0.166471 0.359016
O O11 0.838243 0.000000 0.444596
O O12 0.044490 0.840694 0.308340
O O13 0.836953 0.155621 0.706084
O O14 0.899191 0.000000 0.692208
O O15 0.790651 0.107465 0.981822
O O16 0.802580 0.500000 0.729715
O O17 0.771864 0.691649 0.744296
#
# Coordination Sequence:
#
# PCOD9169633 Si02
#       7
#     8   8   8   8   8   8   8
#     4   8  16  32  51  71  97 132 168 198 245 305
#     4  10  19  33  53  74 100 138 173 199 239 302
#     4  10  21  34  52  76 103 133 162 205 262 304
#     4  11  18  32  52  76 100 127 169 213 243 289
#     4  10  17  27  49  77 101 128 163 205 246 290
#     4   9  17  31  50  72 101 139 174 196 234 301
#     4  11  18  34  50  75 108 134 159 202 257 304
#
# _framework density 22.799405
#
# number of rings (size 3 to 8) (size 9 to 14) (size 15 to 20)
#    0.000    2.143    2.857    5.143    0.000    0.571 
#    0.000    2.857    0.000    6.429    0.000    0.000 
#    0.000    0.000    0.000    0.000    0.000    0.000 
#
# Total GULP energy -156477.191285 kJ/mol
# GULP energy per Si atom -5588.471117 kJ/mol
# Density = 2.274751 g / cm^3
# Si number density = 22.799405 Si / 1000 Ang^3
#
#
#
# Elastic Constant Matrix: (Units=GPa)
#
#
# Indices 1 2 3 4 5 6 
#
# 1 54.8372 39.2694 7.7955 0.0000 8.3278 0.0000
# 2 39.2694 178.6344 21.0319 0.0000 20.1413 0.0000
# 3 7.7955 21.0319 46.9968 0.0000 25.2841 0.0000
# 4 0.0000 0.0000 0.0000 14.8980 0.0000 3.1963
# 5 8.3278 20.1413 25.2841 0.0000 27.8791 0.0000
# 6 0.0000 0.0000 0.0000 3.1963 0.0000 30.0596
#
#
#
# Elastic Compliance Matrix: (Units=1/GPa)
#
#
# Indices 1 2 3 4 5 6 
#
# 1 0.021927 -0.004449 0.000290 0.000000 -0.003599 0.000000
# 2 -0.004449 0.007009 -0.000760 0.000000 -0.003045 0.000000
# 3 0.000290 -0.000760 0.041637 0.000000 -0.037299 0.000000
# 4 0.000000 0.000000 0.000000 0.068690 0.000000 -0.007304
# 5 -0.003599 -0.003045 -0.037299 0.000000 0.072971 0.000000
# 6 0.000000 0.000000 0.000000 -0.007304 0.000000 0.034044
#
#
# Mechanical properties :
#
#
# Convention : Reuss Voigt Hill
#
# Bulk Modulus (GPa) = 16.46518 46.29577 31.38047
# Shear Modulus (GPa) = 18.09233 28.72543 23.40888
#
# Velocity S-wave (km/s) = 2.82005 3.55339 3.20774
# Velocity P-wave (km/s) = 4.22386 6.09797 5.24529
#
# Compressibility (1/GPa) = 0.06073424
#
# Stress axis : x y z
#
# Youngs Moduli (GPa) = 45.60634 142.67737 24.01724
#
# Poissons Ratio (x) = 0.63471 -0.00696
# Poissons Ratio (y) = 0.20288 0.01826
# Poissons Ratio (z) = -0.01322 0.10850
#
# Static dielectric constant tensor:
#      x y z
#    x 1.828510 0.000000 -0.061310 
#    y 0.000000 1.838210 0.000000 
#    z -0.061310 0.000000 1.983160 
# 
# From -- ./inp_files/183439.got.cif
#   From: 2010.05.17/outbox.cif.g08.bks.cpg/sg12_92_cif.got.tgz:183439.got - 2010.06.03 13:09:07.
