data_PCOD9169076
_publ_section_title
;
Structure prediction by ZEFSAII (Michael W. Deem and Ramdas Pophale) SiO2 
 PCOD9169076
Probable space group: C 2/M
;
_chemical_formula_sum "Si O2"
_cell_formula_units_Z 36
_cell_length_a 21.056587
_cell_length_b 14.310273
_cell_length_c 14.770962
_cell_angle_alpha 90.000000
_cell_angle_beta 159.783153
_cell_angle_gamma 90.000000
_cell_volume 1538.104730
_symmetry_space_group_name_H-M "C 2/M"
_symmetry_group_IT_number 12
_symmetry_cell_setting 'monoclinic'
loop_
_space_group_symop_operation_xyz
x,y,z
-x,y,-z
-x,-y,-z
x,-y,z
1/2+x,1/2+y,z
1/2-x,1/2+y,-z
1/2-x,1/2-y,-z
1/2+x,1/2-y,z
loop_
_atom_site_type_symbol
_atom_site_label
_atom_site_fract_x
_atom_site_fract_y
_atom_site_fract_z
Si Si1 0.715208 0.852470 0.277293
Si Si2 0.565801 0.400280 0.253185
Si Si3 0.500000 0.841235 0.500000
Si Si4 0.824778 0.285618 0.958832
Si Si5 0.359777 0.143309 0.497202
O O1 0.832431 0.898989 0.513045
O O2 0.766108 0.744058 0.358150
O O3 0.500000 0.871939 0.000000
O O4 0.742268 0.859872 0.206186
O O5 0.462161 0.500000 0.109168
O O6 0.457666 0.301250 0.103099
O O7 0.717226 0.402147 0.376087
O O8 0.598624 0.892501 0.548478
O O9 0.644954 0.772568 0.744372
O O10 0.947952 0.341087 0.194286
#
# Coordination Sequence:
#
# PCOD9169076 Si02
#       5
#     8   8   4   8   8
#     4  10  16  33  59  83 107 141 181 230 278 323
#     4  11  22  35  58  88 115 144 182 231 285 329
#     4  10  22  32  59  82 103 150 204 222 264 328
#     4  10  19  38  57  85 113 147 182 236 277 331
#     4  10  19  35  56  83 114 145 184 236 275 326
#
# _framework density 23.405429000000002
#
# number of rings (size 3 to 8) (size 9 to 14) (size 15 to 20)
#    0.000    1.778    4.444    2.000    0.000    0.444 
#    0.000   11.111    0.000    0.000    0.000   21.778 
#    0.000    0.000    0.000    0.000    0.000    0.000 
#
# Total GULP energy -100230.683106 kJ/mol
# GULP energy per Si atom -5568.371284 kJ/mol
# Density = 2.335216 g / cm^3
# Si number density = 23.405429 Si / 1000 Ang^3
#
#
#
# Elastic Constant Matrix: (Units=GPa)
#
#
# Indices 1 2 3 4 5 6 
#
# 1 112.6346 31.2340 8.6626 0.0000 -6.8286 -0.0001
# 2 31.2340 67.9303 0.2228 0.0000 -4.4187 0.0001
# 3 8.6626 0.2228 93.0891 0.0000 -9.4290 0.0004
# 4 0.0000 0.0000 0.0000 -36.0706 0.0000 166.4176
# 5 -6.8286 -4.4187 -9.4290 0.0000 34.2204 0.0003
# 6 -0.0001 0.0001 0.0004 166.4176 0.0003 -637.6033
#
#
#
# Elastic Compliance Matrix: (Units=1/GPa)
#
#
# Indices 1 2 3 4 5 6 
#
# 1 0.010307 -0.004657 -0.000824 0.000000 0.001229 0.000000
# 2 -0.004657 0.016952 0.000535 0.000000 0.001407 0.000000
# 3 -0.000824 0.000535 0.011118 0.000000 0.002968 0.000000
# 4 0.000000 0.000000 0.000000 0.135773 0.000000 0.035437
# 5 0.001229 0.001407 0.002968 0.000000 0.030467 0.000000
# 6 0.000000 0.000000 0.000000 0.035437 0.000000 0.007681
#
#
# Mechanical properties :
#
#
# Convention : Reuss Voigt Hill
#
# Bulk Modulus (GPa) = 35.10281 39.32142 37.21212
# Shear Modulus (GPa) = 21.58105 -112.32171 -45.37033
#
# Velocity S-wave (km/s) = 3.03983 -6.93497 -4.40756
# Velocity P-wave (km/s) = 5.22982 6.87666 3.15733
#
# Compressibility (1/GPa) = 0.02848774
#
# Stress axis : x y z
#
# Youngs Moduli (GPa) = 97.01753 58.99054 89.94092
#
# Poissons Ratio (x) = 0.27470 0.07407
# Poissons Ratio (y) = 0.45178 -0.04814
# Poissons Ratio (z) = 0.07990 -0.03158
#
# Static dielectric constant tensor:
#      x y z
#    x 1.977140 0.000000 -0.010650 
#    y 0.000000 1.840380 0.000000 
#    z -0.010650 0.000000 1.902410 
# 
# From -- ./inp_files/46650.got.cif
#   From: 2010.05.17/outbox.cif.g08.bks.cpg/sg12_24_cif.got.tgz:46650.got - 2010.06.03 13:09:07.
