data_PCOD9169232
_publ_section_title
;
Structure prediction by ZEFSAII (Michael W. Deem and Ramdas Pophale) SiO2 
 PCOD9169232
Probable space group: C 2/M
;
_chemical_formula_sum "Si O2"
_cell_formula_units_Z 48
_cell_length_a 20.602261
_cell_length_b 8.558434
_cell_length_c 28.316872
_cell_angle_alpha 90.000000
_cell_angle_beta 33.391272
_cell_angle_gamma 90.000000
_cell_volume 2747.870413
_symmetry_space_group_name_H-M "C 2/M"
_symmetry_group_IT_number 12
_symmetry_cell_setting 'monoclinic'
loop_
_space_group_symop_operation_xyz
x,y,z
-x,y,-z
-x,-y,-z
x,-y,z
1/2+x,1/2+y,z
1/2-x,1/2+y,-z
1/2-x,1/2-y,-z
1/2+x,1/2-y,z
loop_
_atom_site_type_symbol
_atom_site_label
_atom_site_fract_x
_atom_site_fract_y
_atom_site_fract_z
Si Si1 0.872562 0.313370 0.053165
Si Si2 0.225032 0.190012 0.231198
Si Si3 0.013122 0.185743 0.419057
Si Si4 0.368684 0.315423 0.950739
Si Si5 0.880652 0.686981 0.227726
Si Si6 0.825867 0.684563 0.594130
O O1 0.858479 0.500000 0.053177
O O2 0.775324 0.259817 0.150345
O O3 0.867902 0.226751 0.006572
O O4 0.000000 0.292570 0.000000
O O5 0.314789 0.237192 0.218800
O O6 0.092651 0.237681 0.326256
O O7 0.226624 0.000000 0.230204
O O8 0.890222 0.267749 0.506482
O O9 0.099954 0.225587 0.410261
O O10 0.995237 0.000000 0.427888
O O11 0.375281 0.500000 0.940095
O O12 0.484774 0.237977 0.857576
O O13 0.250000 0.250000 0.000000
O O14 0.871637 0.500000 0.236270
O O15 0.807353 0.762949 0.315117
O O16 0.838365 0.500000 0.593624
#
# Coordination Sequence:
#
# PCOD9169232 Si02
#       6
#     8   8   8   8   8   8
#     4  10  18  34  57  79 105 140 177 216 264 316
#     4   8  15  27  48  74 100 133 172 209 255 308
#     4   9  15  25  40  63  96 136 173 207 250 308
#     4  12  25  39  54  77 106 140 179 222 265 312
#     4  10  18  33  52  72  98 135 174 213 260 316
#     4  10  17  25  39  65  98 132 167 211 260 307
#
# _framework density 17.468073
#
# number of rings (size 3 to 8) (size 9 to 14) (size 15 to 20)
#    0.000    2.167    1.667    6.000    0.000    0.333 
#    0.000    1.667    0.000    0.000    0.000    1.167 
#    0.000    0.000    0.000    0.000    0.000    0.000 
#
# Total GULP energy -133786.181102 kJ/mol
# GULP energy per Si atom -5574.424213 kJ/mol
# Density = 1.742831 g / cm^3
# Si number density = 17.468073 Si / 1000 Ang^3
#
#
#
# Elastic Constant Matrix: (Units=GPa)
#
#
# Indices 1 2 3 4 5 6 
#
# 1 23.3530 12.4674 23.3857 0.0018 -7.9059 -0.0100
# 2 12.4674 44.4470 23.7586 0.0045 -0.8174 -0.0221
# 3 23.3857 23.7586 178.9261 0.0009 5.0854 -0.0083
# 4 0.0018 0.0045 0.0009 26.3994 -0.0003 -2.2024
# 5 -7.9059 -0.8174 5.0854 -0.0003 14.9499 0.0040
# 6 -0.0100 -0.0221 -0.0083 -2.2024 0.0040 12.9770
#
#
#
# Elastic Compliance Matrix: (Units=1/GPa)
#
#
# Indices 1 2 3 4 5 6 
#
# 1 0.073639 -0.015211 -0.008773 -0.000001 0.041094 0.000012
# 2 -0.015211 0.027448 -0.001485 -0.000001 -0.006038 0.000036
# 3 -0.008773 -0.001485 0.007136 0.000000 -0.007148 -0.000002
# 4 -0.000001 -0.000001 0.000000 0.038424 -0.000001 0.006521
# 5 0.041094 -0.006038 -0.007148 -0.000001 0.090723 -0.000011
# 6 0.000012 0.000036 -0.000002 0.006521 -0.000011 0.078166
#
#
# Mechanical properties :
#
#
# Convention : Reuss Voigt Hill
#
# Bulk Modulus (GPa) = 17.45638 40.66107 29.05873
# Shear Modulus (GPa) = 12.96789 23.33955 18.15372
#
# Velocity S-wave (km/s) = 2.72762 3.65927 3.22724
# Velocity P-wave (km/s) = 4.46485 6.41729 5.52795
#
# Compressibility (1/GPa) = 0.05728565
#
# Stress axis : x y z
#
# Youngs Moduli (GPa) = 13.57985 36.43246 140.13733
#
# Poissons Ratio (x) = 0.55416 1.22940
# Poissons Ratio (y) = 0.20656 0.20811
# Poissons Ratio (z) = 0.11913 0.05410
#
# Static dielectric constant tensor:
#      x y z
#    x 1.557600 0.000000 0.016730 
#    y 0.000000 1.588120 0.000000 
#    z 0.016730 0.000000 1.663580 
# 
# From -- ./inp_files/380140.got.cif
#   From: 2010.05.17/outbox.cif.g08.bks.cpg/sg12_191_cif.got.tgz:380140.got - 2010.06.03 13:09:07.
