data_PCOD9169871
_publ_section_title
;
Structure prediction by ZEFSAII (Michael W. Deem and Ramdas Pophale) SiO2 
 PCOD9169871
Probable space group: C 2/M
;
_chemical_formula_sum "Si O2"
_cell_formula_units_Z 64
_cell_length_a 28.042929
_cell_length_b 25.756222
_cell_length_c 5.420620
_cell_angle_alpha 90.000000
_cell_angle_beta 78.854581
_cell_angle_gamma 90.000000
_cell_volume 3841.363121
_symmetry_space_group_name_H-M "C 2/M"
_symmetry_group_IT_number 12
_symmetry_cell_setting 'monoclinic'
loop_
_space_group_symop_operation_xyz
x,y,z
-x,y,-z
-x,-y,-z
x,-y,z
1/2+x,1/2+y,z
1/2-x,1/2+y,-z
1/2-x,1/2-y,-z
1/2+x,1/2-y,z
loop_
_atom_site_type_symbol
_atom_site_label
_atom_site_fract_x
_atom_site_fract_y
_atom_site_fract_z
Si Si1 0.682790 0.814594 0.817210
Si Si2 0.554100 0.221586 0.445895
Si Si3 0.657429 0.822769 0.342570
Si Si4 0.208653 0.791348 0.291347
Si Si5 0.444741 0.437174 0.555341
Si Si6 0.828275 0.155724 0.171725
Si Si7 0.613132 0.562316 0.886778
Si Si8 0.909090 0.765186 0.090916
O O1 0.677803 0.846314 0.571910
O O2 0.733361 0.783773 0.766643
O O3 0.636398 0.775851 0.863600
O O4 0.677803 0.846314 0.072483
O O5 0.500000 0.199133 0.500000
O O6 0.599245 0.181447 0.400752
O O7 0.561841 0.254644 0.687666
O O8 0.561840 0.254643 0.188640
O O9 0.678948 0.762950 0.321049
O O10 0.195611 0.822862 0.552858
O O11 0.195610 0.822863 0.055927
O O12 0.500000 0.416876 0.500000
O O13 0.447647 0.500000 0.552413
O O14 0.416415 0.423560 0.834366
O O15 0.416392 0.423553 0.333063
O O16 0.882534 0.180153 0.117468
O O17 0.836898 0.094468 0.163120
O O18 0.619826 0.500000 0.880079
#
# Coordination Sequence:
#
# PCOD9169871 Si02
#       8
#     8   8   8   8   8   8   8   8
#     4  10  18  28  46  64  85 106 130 156 214 259
#     4  10  18  30  43  54  79 112 137 163 198 237
#     4  10  17  29  42  62  84 107 135 165 196 246
#     4  12  19  30  47  65  85 107 127 167 211 257
#     4   9  17  33  54  68  76  93 130 175 220 267
#     4  12  21  32  45  62  86 102 135 168 207 254
#     4  10  21  35  49  62  82 108 130 167 217 258
#     4  10  19  32  41  62  81 102 133 171 203 244
#
# _framework density 16.660753
#
# number of rings (size 3 to 8) (size 9 to 14) (size 15 to 20)
#    0.000    1.625    5.000    3.000    0.000    1.500 
#    0.000    3.750    0.000    0.000    0.000    0.000 
#    0.000    0.000    0.000    0.000    0.000    0.000 
#
# Total GULP energy -178382.475786 kJ/mol
# GULP energy per Si atom -5574.452368 kJ/mol
# Density = 1.662283 g / cm^3
# Si number density = 16.660753 Si / 1000 Ang^3
#
#
#
# Elastic Constant Matrix: (Units=GPa)
#
#
# Indices 1 2 3 4 5 6 
#
# 1 83.0882 5.7795 38.6301 0.0000 -3.8732 0.0000
# 2 5.7795 23.0850 18.1709 0.0000 2.5880 0.0000
# 3 38.6301 18.1709 169.2850 0.0000 21.8578 0.0000
# 4 0.0000 0.0000 0.0000 8.5605 0.0000 -0.7580
# 5 -3.8732 2.5880 21.8578 0.0000 18.2979 0.0000
# 6 0.0000 0.0000 0.0000 -0.7580 0.0000 12.2198
#
#
#
# Elastic Compliance Matrix: (Units=1/GPa)
#
#
# Indices 1 2 3 4 5 6 
#
# 1 0.014482 -0.001214 -0.004248 0.000000 0.008311 0.000000
# 2 -0.001214 0.047426 -0.004628 0.000000 -0.001436 0.000000
# 3 -0.004248 -0.004628 0.008755 0.000000 -0.010703 0.000000
# 4 0.000000 0.000000 0.000000 0.117460 0.000000 0.007286
# 5 0.008311 -0.001436 -0.010703 0.000000 0.069399 0.000000
# 6 0.000000 0.000000 0.000000 0.007286 0.000000 0.082286
#
#
# Mechanical properties :
#
#
# Convention : Reuss Voigt Hill
#
# Bulk Modulus (GPa) = 19.80835 44.51324 32.16079
# Shear Modulus (GPa) = 13.26906 22.00750 17.63828
#
# Velocity S-wave (km/s) = 2.82516 3.63839 3.25725
# Velocity P-wave (km/s) = 4.74943 6.66528 5.78718
#
# Compressibility (1/GPa) = 0.05048377
#
# Stress axis : x y z
#
# Youngs Moduli (GPa) = 69.05083 21.08548 114.21762
#
# Poissons Ratio (x) = 0.02560 0.48515
# Poissons Ratio (y) = 0.08383 0.52862
# Poissons Ratio (z) = 0.29330 0.09759
#
# Static dielectric constant tensor:
#      x y z
#    x 1.593640 0.000000 0.015330 
#    y 0.000000 1.538610 0.000000 
#    z 0.015330 0.000000 1.667170 
# 
# From -- ./inp_files/29498.got.cif
#   From: 2010.05.17/outbox.cif.g08.bks.cpg/sg12_15_cif.got.tgz:29498.got - 2010.06.03 13:09:07.
