data_PCOD9169144
_publ_section_title
;
Structure prediction by ZEFSAII (Michael W. Deem and Ramdas Pophale) SiO2 
 PCOD9169144
Probable space group: C 2/M
;
_chemical_formula_sum "Si O2"
_cell_formula_units_Z 64
_cell_length_a 15.532157
_cell_length_b 7.898230
_cell_length_c 19.465450
_cell_angle_alpha 90.000000
_cell_angle_beta 79.616844
_cell_angle_gamma 90.000000
_cell_volume 2348.850269
_symmetry_space_group_name_H-M "C 2/M"
_symmetry_group_IT_number 12
_symmetry_cell_setting 'monoclinic'
loop_
_space_group_symop_operation_xyz
x,y,z
-x,y,-z
-x,-y,-z
x,-y,z
1/2+x,1/2+y,z
1/2-x,1/2+y,-z
1/2-x,1/2-y,-z
1/2+x,1/2-y,z
loop_
_atom_site_type_symbol
_atom_site_label
_atom_site_fract_x
_atom_site_fract_y
_atom_site_fract_z
Si Si1 0.318002 0.802320 0.550582
Si Si2 0.680969 0.803085 0.669555
Si Si3 0.348828 0.192607 0.910447
Si Si4 0.529602 0.304085 0.826483
Si Si5 0.249183 0.795979 0.200439
Si Si6 0.954199 0.195261 0.424426
Si Si7 0.063037 0.791929 0.291118
Si Si8 0.401231 0.297921 0.044384
O O1 0.189289 0.500000 0.434624
O O2 0.250000 0.750000 0.500000
O O3 0.278901 0.706091 0.621978
O O4 0.410068 0.766776 0.499354
O O5 0.685128 0.741121 0.747892
O O6 0.620309 0.704421 0.624901
O O7 0.656481 0.000000 0.671371
O O8 0.430095 0.305033 0.872823
O O9 0.264597 0.228536 0.874823
O O10 0.343116 0.218013 0.992750
O O11 0.374957 0.000000 0.894159
O O12 0.554572 0.500000 0.816410
O O13 0.508020 0.229720 0.754960
O O14 0.589262 0.226391 0.878964
O O15 0.156300 0.742462 0.248271
O O16 0.252219 0.000000 0.197492
O O17 0.035266 0.272766 0.370095
O O18 0.973240 0.000000 0.434063
O O19 0.060318 0.000000 0.291990
O O20 0.384828 0.500000 0.049695
O O21 0.500000 0.275652 0.000000
#
# Coordination Sequence:
#
# PCOD9169144 Si02
#       8
#     8   8   8   8   8   8   8   8
#     4  10  18  30  48  68  92 118 148 185 221 262
#     4  10  19  32  51  71  90 115 150 189 224 261
#     4  10  17  23  36  60  89 116 144 183 228 268
#     4   8  14  26  41  57  82 117 155 186 215 259
#     4   9  18  33  49  64  88 122 156 185 216 264
#     4  10  18  30  50  72  94 117 145 184 225 267
#     4   8  15  29  48  68  89 118 154 186 218 260
#     4   8  13  22  37  55  79 114 151 185 218 258
#
# _framework density 27.247371999999999
#
# number of rings (size 3 to 8) (size 9 to 14) (size 15 to 20)
#    0.000    2.875    0.000    6.000    0.000    3.250 
#    0.000    5.625    0.000    3.750    0.000    0.875 
#    0.000    0.000    0.000    0.000    0.000    0.000 
#
# Total GULP energy -178970.816301 kJ/mol
# GULP energy per Si atom -5592.838009 kJ/mol
# Density = 2.718536 g / cm^3
# Si number density = 27.247372 Si / 1000 Ang^3
#
#
#
# Elastic Constant Matrix: (Units=GPa)
#
#
# Indices 1 2 3 4 5 6 
#
# 1 69.3148 3.3629 -7.5857 0.0000 21.2568 0.0000
# 2 3.3629 99.1534 18.5730 0.0000 -3.3009 0.0000
# 3 -7.5857 18.5730 228.4233 0.0000 15.9327 0.0000
# 4 0.0000 0.0000 0.0000 25.6643 0.0000 1.6497
# 5 21.2568 -3.3009 15.9327 0.0000 58.7871 0.0000
# 6 0.0000 0.0000 0.0000 1.6497 0.0000 10.9857
#
#
#
# Elastic Compliance Matrix: (Units=1/GPa)
#
#
# Indices 1 2 3 4 5 6 
#
# 1 0.016530 -0.000971 0.001069 0.000000 -0.006321 0.000000
# 2 -0.000971 0.010337 -0.000956 0.000000 0.001191 0.000000
# 3 0.001069 -0.000956 0.004609 0.000000 -0.001689 0.000000
# 4 0.000000 0.000000 0.000000 0.039344 0.000000 -0.005908
# 5 -0.006321 0.001191 -0.001689 0.000000 0.019821 0.000000
# 6 0.000000 0.000000 0.000000 -0.005908 0.000000 0.091915
#
#
# Mechanical properties :
#
#
# Convention : Reuss Voigt Hill
#
# Bulk Modulus (GPa) = 33.60340 47.28798 40.44569
# Shear Modulus (GPa) = 25.74776 44.59017 35.16897
#
# Velocity S-wave (km/s) = 3.07736 4.04975 3.59657
# Velocity P-wave (km/s) = 4.99863 6.26578 5.66773
#
# Compressibility (1/GPa) = 0.02975890
#
# Stress axis : x y z
#
# Youngs Moduli (GPa) = 60.49777 96.73988 216.97274
#
# Poissons Ratio (x) = 0.09396 -0.23190
# Poissons Ratio (y) = 0.05876 0.20738
# Poissons Ratio (z) = -0.06466 0.09246
#
# Static dielectric constant tensor:
#      x y z
#    x -3.577350 0.000000 -2.261540 
#    y 0.000000 1.907530 0.000000 
#    z -2.261540 0.000000 1.343890 
# 
# From -- ./inp_files/319088.got.cif
#   From: 2010.05.17/outbox.cif.g08.bks.cpg/sg12_160_cif.got.tgz:319088.got - 2010.06.03 13:09:07.
