data_PCOD9169206
_publ_section_title
;
Structure prediction by ZEFSAII (Michael W. Deem and Ramdas Pophale) SiO2 
 PCOD9169206
Probable space group: C 2/M
;
_chemical_formula_sum "Si O2"
_cell_formula_units_Z 56
_cell_length_a 14.051077
_cell_length_b 9.119687
_cell_length_c 20.680523
_cell_angle_alpha 90.000000
_cell_angle_beta 112.267556
_cell_angle_gamma 90.000000
_cell_volume 2452.404073
_symmetry_space_group_name_H-M "C 2/M"
_symmetry_group_IT_number 12
_symmetry_cell_setting 'monoclinic'
loop_
_space_group_symop_operation_xyz
x,y,z
-x,y,-z
-x,-y,-z
x,-y,z
1/2+x,1/2+y,z
1/2-x,1/2+y,-z
1/2-x,1/2-y,-z
1/2+x,1/2-y,z
loop_
_atom_site_type_symbol
_atom_site_label
_atom_site_fract_x
_atom_site_fract_y
_atom_site_fract_z
Si Si1 0.716592 0.831721 0.122331
Si Si2 0.780836 0.663925 0.571191
Si Si3 0.623472 0.674442 0.291961
Si Si4 0.320877 0.680161 0.274856
Si Si5 0.443102 0.664399 0.423060
Si Si6 0.394361 0.331574 0.015183
Si Si7 0.005388 0.330814 0.154175
O O1 0.806898 0.787452 0.195187
O O2 0.611680 0.828699 0.138947
O O3 0.731914 0.000000 0.107227
O O4 0.691586 0.736740 0.053344
O O5 0.818767 0.500000 0.567615
O O6 0.750000 0.750000 0.500000
O O7 0.860918 0.755072 0.633863
O O8 0.674182 0.652042 0.582655
O O9 0.616197 0.500000 0.292992
O O10 0.727265 0.728556 0.282167
O O11 0.533049 0.741672 0.225614
O O12 0.306713 0.500000 0.276822
O O13 0.420871 0.718211 0.344000
O O14 0.500000 0.737201 0.500000
O O15 0.489637 0.500000 0.429100
O O16 0.372714 0.500000 0.024009
O O17 0.421040 0.242925 0.086635
O O18 0.500000 0.327190 0.000000
O O19 0.981966 0.500000 0.162325
#
# Coordination Sequence:
#
# PCOD9169206 Si02
#       7
#     8   8   8   8   8   8   8
#     4   8  13  20  29  42  63  93 126 159 196 238
#     4  10  19  31  46  64  86 112 143 177 214 255
#     4  10  17  25  38  55  75 100 132 168 205 246
#     4   8  14  24  37  53  74 101 133 167 204 248
#     4   8  14  26  45  66  85 108 141 179 215 252
#     4   9  15  20  27  42  63  89 124 163 199 236
#     4   9  15  23  33  45  65  94 127 162 200 242
#
# _framework density 22.834738000000002
#
# number of rings (size 3 to 8) (size 9 to 14) (size 15 to 20)
#    0.000    3.143    0.000    4.286    0.000    5.143 
#    0.000    0.000    0.000   10.714    0.000    0.000 
#    0.000    0.000    0.000    1.286    0.000   14.286 
#
# Total GULP energy -156228.170615 kJ/mol
# GULP energy per Si atom -5579.577522 kJ/mol
# Density = 2.278276 g / cm^3
# Si number density = 22.834738 Si / 1000 Ang^3
#
#
#
# Elastic Constant Matrix: (Units=GPa)
#
#
# Indices 1 2 3 4 5 6 
#
# 1 71.9792 16.4330 37.5680 0.0000 16.6005 0.0000
# 2 16.4330 163.4317 126.8026 0.0000 10.1354 0.0000
# 3 37.5680 126.8026 291.4537 0.0000 24.6142 0.0000
# 4 0.0000 0.0000 0.0000 40.2131 0.0000 -0.4621
# 5 16.6005 10.1354 24.6142 0.0000 29.5381 0.0000
# 6 0.0000 0.0000 0.0000 -0.4621 0.0000 -10.1606
#
#
#
# Elastic Compliance Matrix: (Units=1/GPa)
#
#
# Indices 1 2 3 4 5 6 
#
# 1 0.016510 -0.000056 -0.001422 0.000000 -0.008075 0.000000
# 2 -0.000056 0.009238 -0.004030 0.000000 0.000220 0.000000
# 3 -0.001422 -0.004030 0.005576 0.000000 -0.002465 0.000000
# 4 0.000000 0.000000 0.000000 0.024855 0.000000 -0.001130
# 5 -0.008075 0.000220 -0.002465 0.000000 0.040371 0.000000
# 6 0.000000 0.000000 0.000000 -0.001130 0.000000 -0.098368
#
#
# Mechanical properties :
#
#
# Convention : Reuss Voigt Hill
#
# Bulk Modulus (GPa) = 49.24399 98.71908 73.98154
# Shear Modulus (GPa) = 313.14891 34.98886 174.06888
#
# Velocity S-wave (km/s) = 11.72326 3.91866 8.74044
# Velocity P-wave (km/s) = 14.31288 7.98751 11.59006
#
# Compressibility (1/GPa) = 0.02030705
#
# Stress axis : x y z
#
# Youngs Moduli (GPa) = 60.56925 108.24962 179.33951
#
# Poissons Ratio (x) = 0.00609 0.25497
# Poissons Ratio (y) = 0.00341 0.72283
# Poissons Ratio (z) = 0.08611 0.43630
#
# Static dielectric constant tensor:
#      x y z
#    x 2.087780 0.000000 -0.104880 
#    y 0.000000 1.783230 0.000000 
#    z -0.104880 0.000000 1.909540 
# 
# From -- ./inp_files/319019.got.cif
#   From: 2010.05.17/outbox.cif.g08.bks.cpg/sg12_160_cif.got.tgz:319019.got - 2010.06.03 13:09:07.
