data_PCOD9169310
_publ_section_title
;
Structure prediction by ZEFSAII (Michael W. Deem and Ramdas Pophale) SiO2 
 PCOD9169310
Probable space group: C 2/M
;
_chemical_formula_sum "Si O2"
_cell_formula_units_Z 64
_cell_length_a 27.737945
_cell_length_b 8.974218
_cell_length_c 24.809738
_cell_angle_alpha 90.000000
_cell_angle_beta 135.557758
_cell_angle_gamma 90.000000
_cell_volume 4324.231341
_symmetry_space_group_name_H-M "C 2/M"
_symmetry_group_IT_number 12
_symmetry_cell_setting 'monoclinic'
loop_
_space_group_symop_operation_xyz
x,y,z
-x,y,-z
-x,-y,-z
x,-y,z
1/2+x,1/2+y,z
1/2-x,1/2+y,-z
1/2-x,1/2-y,-z
1/2+x,1/2-y,z
loop_
_atom_site_type_symbol
_atom_site_label
_atom_site_fract_x
_atom_site_fract_y
_atom_site_fract_z
Si Si1 0.346172 0.321499 0.834036
Si Si2 0.207070 0.326285 0.672277
Si Si3 0.106322 0.680148 0.441822
Si Si4 0.740869 0.672879 0.408991
Si Si5 0.956186 0.680964 0.839774
Si Si6 0.064329 0.328305 0.009426
Si Si7 0.929773 0.178009 0.473937
Si Si8 0.903516 0.321099 0.683606
O O1 0.350139 0.500000 0.832144
O O2 0.267027 0.276535 0.760763
O O3 0.394633 0.249266 0.826545
O O4 0.377191 0.268612 0.915681
O O5 0.190480 0.500000 0.669093
O O6 0.241977 0.318818 0.640896
O O7 0.137009 0.234702 0.612112
O O8 0.103172 0.500000 0.444901
O O9 0.187831 0.719771 0.506009
O O10 0.074833 0.751943 0.470034
O O11 0.075031 0.726948 0.359403
O O12 0.727060 0.500000 0.411507
O O13 0.674537 0.768777 0.369019
O O14 0.951392 0.500000 0.839705
O O15 0.946883 0.727739 0.770405
O O16 0.028538 0.723229 0.925507
O O17 0.087054 0.500000 0.022566
O O18 0.000000 0.326904 0.000000
O O19 0.000000 0.221413 0.500000
O O20 0.927201 0.000000 0.476319
O O21 0.904713 0.500000 0.684178
#
# Coordination Sequence:
#
# PCOD9169310 Si02
#       8
#     8   8   8   8   8   8   8   8
#     4  10  17  26  40  59  83 109 144 183 209 242
#     4   9  18  30  44  64  87 112 142 175 213 255
#     4   9  19  32  44  61  84 110 141 174 210 253
#     4   9  16  27  39  56  85 113 140 176 210 241
#     4   9  17  27  38  55  83 117 149 178 208 241
#     4   8  15  26  37  52  78 113 148 178 209 244
#     4  10  21  35  50  67  84 104 136 176 215 258
#     4  10  18  27  41  60  83 114 149 177 203 242
#
# _framework density 14.800319
#
# number of rings (size 3 to 8) (size 9 to 14) (size 15 to 20)
#    0.000    2.750    1.250    2.625    0.000    6.750 
#    0.000    0.000    0.000    0.000    0.000    0.000 
#    0.000    1.000    0.000    2.250    0.000    3.500 
#
# Total GULP energy -178190.645374 kJ/mol
# GULP energy per Si atom -5568.457668 kJ/mol
# Density = 1.476663 g / cm^3
# Si number density = 14.800319 Si / 1000 Ang^3
#
#
#
# Elastic Constant Matrix: (Units=GPa)
#
#
# Indices 1 2 3 4 5 6 
#
# 1 48.5069 18.0400 53.3592 0.0000 -0.4589 0.0000
# 2 18.0400 17.2617 34.9203 0.0000 0.3857 0.0000
# 3 53.3592 34.9203 145.0867 0.0000 -13.5507 0.0000
# 4 0.0000 0.0000 0.0000 16.5857 0.0000 6.7992
# 5 -0.4589 0.3857 -13.5507 0.0000 15.0259 0.0000
# 6 0.0000 0.0000 0.0000 6.7992 0.0000 9.5793
#
#
#
# Elastic Compliance Matrix: (Units=1/GPa)
#
#
# Indices 1 2 3 4 5 6 
#
# 1 0.039418 -0.019973 -0.010406 0.000000 -0.007668 0.000000
# 2 -0.019973 0.136860 -0.028369 0.000000 -0.029707 -0.000001
# 3 -0.010406 -0.028369 0.019203 0.000000 0.017728 0.000000
# 4 0.000000 0.000000 0.000000 0.085036 0.000000 -0.060356
# 5 -0.007668 -0.029707 0.017728 0.000000 0.083068 0.000000
# 6 0.000000 -0.000001 0.000000 -0.060356 0.000000 0.147231
#
#
# Mechanical properties :
#
#
# Convention : Reuss Voigt Hill
#
# Bulk Modulus (GPa) = 12.82301 47.05494 29.93897
# Shear Modulus (GPa) = 7.64168 15.20725 11.42446
#
# Velocity S-wave (km/s) = 2.27473 3.20893 2.78133
# Velocity P-wave (km/s) = 3.94741 6.75218 5.53055
#
# Compressibility (1/GPa) = 0.07798484
#
# Stress axis : x y z
#
# Youngs Moduli (GPa) = 25.36915 7.30675 52.07457
#
# Poissons Ratio (x) = 0.14594 0.54188
# Poissons Ratio (y) = 0.50670 1.47731
# Poissons Ratio (z) = 0.26399 0.20729
#
# Static dielectric constant tensor:
#      x y z
#    x 1.456080 0.000000 -0.026120 
#    y 0.000000 1.496450 0.000000 
#    z -0.026120 0.000000 1.541640 
# 
# From -- ./inp_files/348576.got.cif
#   From: 2010.05.17/outbox.cif.g08.bks.cpg/sg12_175_cif.got.tgz:348576.got - 2010.06.03 13:09:07.
