data_PCOD9169418
_publ_section_title
;
Structure prediction by ZEFSAII (Michael W. Deem and Ramdas Pophale) SiO2 
 PCOD9169418
Probable space group: C 2/M
;
_chemical_formula_sum "Si O2"
_cell_formula_units_Z 64
_cell_length_a 19.673045
_cell_length_b 7.899886
_cell_length_c 23.992963
_cell_angle_alpha 90.000000
_cell_angle_beta 64.322721
_cell_angle_gamma 90.000000
_cell_volume 3360.632720
_symmetry_space_group_name_H-M "C 2/M"
_symmetry_group_IT_number 12
_symmetry_cell_setting 'monoclinic'
loop_
_space_group_symop_operation_xyz
x,y,z
-x,y,-z
-x,-y,-z
x,-y,z
1/2+x,1/2+y,z
1/2-x,1/2+y,-z
1/2-x,1/2-y,-z
1/2+x,1/2-y,z
loop_
_atom_site_type_symbol
_atom_site_label
_atom_site_fract_x
_atom_site_fract_y
_atom_site_fract_z
Si Si1 0.184735 0.296167 0.651074
Si Si2 0.163053 0.206185 0.461604
Si Si3 0.257176 0.703684 0.737470
Si Si4 0.675589 0.700795 0.061609
Si Si5 0.075544 0.796963 0.599880
Si Si6 0.581377 0.292199 0.994242
Si Si7 0.228083 0.199646 0.873999
Si Si8 0.588998 0.706589 0.373414
O O1 0.187634 0.500000 0.650465
O O2 0.254570 0.235356 0.587503
O O3 0.201044 0.237275 0.708171
O O4 0.108590 0.243058 0.648363
O O5 0.131871 0.268337 0.531525
O O6 0.106899 0.251874 0.431015
O O7 0.165876 0.000000 0.462578
O O8 0.258404 0.500000 0.734525
O O9 0.235813 0.751188 0.807244
O O10 0.340525 0.762855 0.689252
O O11 0.669642 0.500000 0.065154
O O12 0.697816 0.755909 0.115830
O O13 0.750000 0.750000 0.000000
O O14 0.605259 0.762095 0.048759
O O15 0.991631 0.732086 0.618512
O O16 0.073126 0.000000 0.594847
O O17 0.580321 0.500000 0.994317
O O18 0.651194 0.232921 0.930346
O O19 0.500000 0.236905 0.000000
O O20 0.220860 0.000000 0.879863
O O21 0.588512 0.500000 0.372035
#
# Coordination Sequence:
#
# PCOD9169418 Si02
#       8
#     8   8   8   8   8   8   8   8
#     4   9  18  31  45  63  92 126 153 182 230 288
#     4   8  14  26  45  67  89 116 151 190 231 279
#     4   9  18  34  51  63  84 124 165 191 220 272
#     4   9  16  28  49  74 100 128 156 187 222 263
#     4  10  17  26  46  72  91 110 146 197 242 277
#     4   8  15  29  49  74 100 122 146 180 222 262
#     4  10  19  31  51  74  94 120 156 196 231 269
#     4   8  15  28  46  67  88 114 153 196 232 270
#
# _framework density 19.044032999999999
#
# number of rings (size 3 to 8) (size 9 to 14) (size 15 to 20)
#    0.000    3.125    0.000    3.750    0.000    2.000 
#    0.000    1.875    0.000   22.500    0.000    0.000 
#    0.000    0.000    0.000    0.000    0.000    0.000 
#
# Total GULP energy -178241.811002 kJ/mol
# GULP energy per Si atom -5570.056594 kJ/mol
# Density = 1.900069 g / cm^3
# Si number density = 19.044033 Si / 1000 Ang^3
#
#
#
# Elastic Constant Matrix: (Units=GPa)
#
#
# Indices 1 2 3 4 5 6 
#
# 1 135.9886 1.3997 55.8231 0.0012 39.3035 0.0011
# 2 1.3997 14.6881 4.9185 0.0017 -0.5146 0.0021
# 3 55.8231 4.9185 109.3212 0.0006 28.5847 0.0004
# 4 0.0012 0.0017 0.0006 13.5530 0.0004 8.5496
# 5 39.3035 -0.5146 28.5847 0.0004 19.3903 0.0004
# 6 0.0011 0.0021 0.0004 8.5496 0.0004 16.7691
#
#
#
# Elastic Compliance Matrix: (Units=1/GPa)
#
#
# Indices 1 2 3 4 5 6 
#
# 1 0.017931 -0.003312 0.000845 0.000000 -0.037678 0.000000
# 2 -0.003312 0.071061 -0.006109 -0.000005 0.017605 -0.000006
# 3 0.000845 -0.006109 0.015428 0.000000 -0.024618 0.000001
# 4 0.000000 -0.000005 0.000000 0.108765 -0.000002 -0.055453
# 5 -0.037678 0.017605 -0.024618 -0.000002 0.164703 -0.000002
# 6 0.000000 -0.000006 0.000001 -0.055453 -0.000002 0.087906
#
#
# Mechanical properties :
#
#
# Convention : Reuss Voigt Hill
#
# Bulk Modulus (GPa) = 11.45910 42.69783 27.07847
# Shear Modulus (GPa) = 9.76498 23.13292 16.44895
#
# Velocity S-wave (km/s) = 2.26687 3.48905 2.94212
# Velocity P-wave (km/s) = 3.58913 6.22097 5.07850
#
# Compressibility (1/GPa) = 0.08726687
#
# Stress axis : x y z
#
# Youngs Moduli (GPa) = 55.77076 14.07250 64.81819
#
# Poissons Ratio (x) = 0.04660 -0.05477
# Poissons Ratio (y) = 0.18470 0.39599
# Poissons Ratio (z) = -0.04712 0.08597
#
# Static dielectric constant tensor:
#      x y z
#    x 1.683030 0.000000 0.015680 
#    y 0.000000 1.699630 0.000000 
#    z 0.015680 0.000000 1.671770 
# 
# From -- ./inp_files/341966.got.cif
#   From: 2010.05.17/outbox.cif.g08.bks.cpg/sg12_171_cif.got.tgz:341966.got - 2010.06.03 13:09:07.
