data_PCOD9169922
_publ_section_title
;
Structure prediction by ZEFSAII (Michael W. Deem and Ramdas Pophale) SiO2 
 PCOD9169922
Probable space group: C 2/M
;
_chemical_formula_sum "Si O2"
_cell_formula_units_Z 48
_cell_length_a 23.714251
_cell_length_b 8.291980
_cell_length_c 17.513173
_cell_angle_alpha 90.000000
_cell_angle_beta 49.504127
_cell_angle_gamma 90.000000
_cell_volume 2618.814440
_symmetry_space_group_name_H-M "C 2/M"
_symmetry_group_IT_number 12
_symmetry_cell_setting 'monoclinic'
loop_
_space_group_symop_operation_xyz
x,y,z
-x,y,-z
-x,-y,-z
x,-y,z
1/2+x,1/2+y,z
1/2-x,1/2+y,-z
1/2-x,1/2-y,-z
1/2+x,1/2-y,z
loop_
_atom_site_type_symbol
_atom_site_label
_atom_site_fract_x
_atom_site_fract_y
_atom_site_fract_z
Si Si1 0.819810 0.307798 0.987040
Si Si2 0.562945 0.179051 0.881302
Si Si3 0.251103 0.804425 0.621795
Si Si4 0.869831 0.695548 0.393428
Si Si5 0.020796 0.689808 0.205117
Si Si6 0.203230 0.817178 0.821882
O O1 0.825200 0.500000 0.978871
O O2 0.807230 0.264247 0.086966
O O3 0.750000 0.250000 0.000000
O O4 0.897094 0.241577 0.882546
O O5 0.520912 0.198949 0.839323
O O6 0.623073 0.309015 0.851634
O O7 0.599023 0.000000 0.850036
O O8 0.500000 0.178906 0.000000
O O9 0.178707 0.747524 0.637829
O O10 0.321546 0.753477 0.509064
O O11 0.252629 0.748278 0.708618
O O12 0.249004 0.000000 0.625237
O O13 0.872163 0.500000 0.389870
O O14 0.955031 0.755709 0.317186
O O15 0.030614 0.500000 0.216366
O O16 0.226861 0.000000 0.816247
#
# Coordination Sequence:
#
# PCOD9169922 Si02
#       6
#     8   8   8   8   8   8
#     4  11  23  40  56  74  96 127 171 216 259 303
#     4  10  17  29  47  72 102 135 168 201 244 299
#     4   9  18  29  44  73 109 136 164 200 237 286
#     4   9  16  29  49  72 101 138 169 196 239 292
#     4   9  17  30  52  75  99 130 167 206 246 297
#     4  11  21  32  48  75 108 138 164 202 248 298
#
# _framework density 18.328904000000001
#
# number of rings (size 3 to 8) (size 9 to 14) (size 15 to 20)
#    0.000    2.167    3.333    1.000    0.000    1.000 
#    0.000    1.667    0.000    1.000    0.000    7.000 
#    0.000    0.000    0.000    0.000    0.000    0.000 
#
# Total GULP energy -133603.775248 kJ/mol
# GULP energy per Si atom -5566.823969 kJ/mol
# Density = 1.828719 g / cm^3
# Si number density = 18.328904 Si / 1000 Ang^3
#
#
#
# Elastic Constant Matrix: (Units=GPa)
#
#
# Indices 1 2 3 4 5 6 
#
# 1 57.7392 10.9422 59.9423 -0.0011 -13.9329 0.0007
# 2 10.9422 17.2435 16.1561 -0.0031 -2.1433 0.0026
# 3 59.9423 16.1561 163.2871 -0.0016 -24.5401 0.0014
# 4 -0.0011 -0.0031 -0.0016 18.0376 0.0000 1.5603
# 5 -13.9329 -2.1433 -24.5401 0.0000 14.6688 -0.0001
# 6 0.0007 0.0026 0.0014 1.5603 -0.0001 21.8486
#
#
#
# Elastic Compliance Matrix: (Units=1/GPa)
#
#
# Indices 1 2 3 4 5 6 
#
# 1 0.031410 -0.010322 -0.008352 -0.000001 0.014353 0.000001
# 2 -0.010322 0.067341 -0.003832 0.000011 -0.006375 -0.000008
# 3 -0.008352 -0.003832 0.011078 0.000000 0.010040 0.000000
# 4 -0.000001 0.000011 0.000000 0.055785 0.000001 -0.003984
# 5 0.014353 -0.006375 0.010040 0.000001 0.097671 0.000000
# 6 0.000001 -0.000008 0.000000 -0.003984 0.000000 0.046054
#
#
# Mechanical properties :
#
#
# Convention : Reuss Voigt Hill
#
# Bulk Modulus (GPa) = 15.42810 45.81677 30.62244
# Shear Modulus (GPa) = 13.29945 20.99294 17.14619
#
# Velocity S-wave (km/s) = 2.69662 3.38797 3.06187
# Velocity P-wave (km/s) = 4.25809 6.35261 5.40773
#
# Compressibility (1/GPa) = 0.06481680
#
# Stress axis : x y z
#
# Youngs Moduli (GPa) = 31.83740 14.84982 90.26695
#
# Poissons Ratio (x) = 0.15328 0.75390
# Poissons Ratio (y) = 0.32863 0.34588
# Poissons Ratio (z) = 0.26590 0.05690
#
# Static dielectric constant tensor:
#      x y z
#    x 1.600500 0.000000 -0.032920 
#    y 0.000000 1.689070 0.000000 
#    z -0.032920 0.000000 1.766780 
# 
# From -- ./inp_files/281825.got.cif
#   From: 2010.05.17/outbox.cif.g08.bks.cpg/sg12_141_cif.got.tgz:281825.got - 2010.06.03 13:09:07.
