data_PCOD9169354
_publ_section_title
;
Structure prediction by ZEFSAII (Michael W. Deem and Ramdas Pophale) SiO2 
 PCOD9169354
Probable space group: C 2/M
;
_chemical_formula_sum "Si O2"
_cell_formula_units_Z 48
_cell_length_a 34.034288
_cell_length_b 9.097097
_cell_length_c 23.546795
_cell_angle_alpha 90.000000
_cell_angle_beta 155.905926
_cell_angle_gamma 90.000000
_cell_volume 2976.203658
_symmetry_space_group_name_H-M "C 2/M"
_symmetry_group_IT_number 12
_symmetry_cell_setting 'monoclinic'
loop_
_space_group_symop_operation_xyz
x,y,z
-x,y,-z
-x,-y,-z
x,-y,z
1/2+x,1/2+y,z
1/2-x,1/2+y,-z
1/2-x,1/2-y,-z
1/2+x,1/2-y,z
loop_
_atom_site_type_symbol
_atom_site_label
_atom_site_fract_x
_atom_site_fract_y
_atom_site_fract_z
Si Si1 0.923664 0.823678 0.074648
Si Si2 0.969072 0.821153 0.897190
Si Si3 0.605096 0.830609 0.785022
Si Si4 0.760990 0.668856 0.924625
Si Si5 0.762383 0.823245 0.577675
Si Si6 0.054292 0.322925 0.343426
O O1 0.957678 0.780782 0.056546
O O2 0.000894 0.756671 0.220827
O O3 0.924408 0.000000 0.080430
O O4 0.820301 0.761543 0.956952
O O5 0.861774 0.774519 0.737641
O O6 0.967901 0.000000 0.897459
O O7 0.000000 0.768091 0.000000
O O8 0.659214 0.735297 0.809518
O O9 0.501741 0.781146 0.672789
O O10 0.599864 0.000000 0.759445
O O11 0.672423 0.826772 0.930486
O O12 0.752733 0.500000 0.896366
O O13 0.750000 0.750000 0.500000
O O14 0.667139 0.790659 0.488760
O O15 0.766872 0.000000 0.576142
O O16 0.041002 0.500000 0.319508
#
# Coordination Sequence:
#
# PCOD9169354 Si02
#       6
#     8   8   8   8   8   8
#     4  10  17  26  43  64  86 118 153 185 222 267
#     4   9  18  31  46  67  94 123 156 190 226 270
#     4   8  14  24  36  56  85 115 143 176 221 271
#     4   9  16  25  38  58  86 117 145 181 225 268
#     4  10  18  30  48  69  92 121 154 190 230 272
#     4   9  17  27  42  64  91 117 145 185 229 267
#
# _framework density 16.127929000000002
#
# number of rings (size 3 to 8) (size 9 to 14) (size 15 to 20)
#    0.000    2.833    1.667    2.000    0.000    4.000 
#    0.000    0.000    0.000    4.500    0.000    1.167 
#    0.000    9.333    0.000    0.000    0.000    0.000 
#
# Total GULP energy -133631.875547 kJ/mol
# GULP energy per Si atom -5567.994814 kJ/mol
# Density = 1.609122 g / cm^3
# Si number density = 16.127929 Si / 1000 Ang^3
#
#
#
# Elastic Constant Matrix: (Units=GPa)
#
#
# Indices 1 2 3 4 5 6 
#
# 1 143.6959 47.8836 69.9938 0.0000 32.7219 0.0000
# 2 47.8836 38.3889 23.0398 0.0000 11.6971 0.0000
# 3 69.9938 23.0398 71.9663 0.0000 13.2679 0.0000
# 4 0.0000 0.0000 0.0000 11.9224 0.0000 5.2822
# 5 32.7219 11.6971 13.2679 0.0000 27.9362 0.0000
# 6 0.0000 0.0000 0.0000 5.2822 0.0000 21.1455
#
#
#
# Elastic Compliance Matrix: (Units=1/GPa)
#
#
# Indices 1 2 3 4 5 6 
#
# 1 0.021378 -0.014593 -0.013842 0.000000 -0.012356 0.000000
# 2 -0.014593 0.044641 0.000215 0.000000 -0.001701 0.000000
# 3 -0.013842 0.000215 0.026650 0.000000 0.003466 0.000000
# 4 0.000000 0.000000 0.000000 0.094314 0.000000 -0.023560
# 5 -0.012356 -0.001701 0.003466 0.000000 0.049334 0.000000
# 6 0.000000 0.000000 0.000000 -0.023560 0.000000 0.053177
#
#
# Mechanical properties :
#
#
# Convention : Reuss Voigt Hill
#
# Bulk Modulus (GPa) = 27.60250 59.54285 43.57267
# Shear Modulus (GPa) = 13.96606 19.74309 16.85458
#
# Velocity S-wave (km/s) = 2.94590 3.50259 3.23624
# Velocity P-wave (km/s) = 5.35938 7.30457 6.40624
#
# Compressibility (1/GPa) = 0.03622860
#
# Stress axis : x y z
#
# Youngs Moduli (GPa) = 46.77668 22.40110 37.52289
#
# Poissons Ratio (x) = 0.32690 0.51940
# Poissons Ratio (y) = 0.68261 -0.00807
# Poissons Ratio (z) = 0.64750 -0.00482
#
# Static dielectric constant tensor:
#      x y z
#    x 1.553580 0.000000 0.035300 
#    y 0.000000 1.540950 0.000000 
#    z 0.035300 0.000000 1.529590 
# 
# From -- ./inp_files/314481.got.cif
#   From: 2010.05.17/outbox.cif.g08.bks.cpg/sg12_158_cif.got.tgz:314481.got - 2010.06.03 13:09:07.
