data_PCOD9169362
_publ_section_title
;
Structure prediction by ZEFSAII (Michael W. Deem and Ramdas Pophale) SiO2 
 PCOD9169362
Probable space group: C 2/M
;
_chemical_formula_sum "Si O2"
_cell_formula_units_Z 64
_cell_length_a 19.820572
_cell_length_b 8.705949
_cell_length_c 27.623940
_cell_angle_alpha 90.000000
_cell_angle_beta 130.111429
_cell_angle_gamma 90.000000
_cell_volume 3645.539194
_symmetry_space_group_name_H-M "C 2/M"
_symmetry_group_IT_number 12
_symmetry_cell_setting 'monoclinic'
loop_
_space_group_symop_operation_xyz
x,y,z
-x,y,-z
-x,-y,-z
x,-y,z
1/2+x,1/2+y,z
1/2-x,1/2+y,-z
1/2-x,1/2-y,-z
1/2+x,1/2-y,z
loop_
_atom_site_type_symbol
_atom_site_label
_atom_site_fract_x
_atom_site_fract_y
_atom_site_fract_z
Si Si1 0.225974 0.316665 0.605601
Si Si2 0.750200 0.185407 0.173386
Si Si3 0.057230 0.816018 0.072774
Si Si4 0.765636 0.684155 0.723832
Si Si5 0.070195 0.814058 0.793154
Si Si6 0.159889 0.815644 0.481759
Si Si7 0.583477 0.313707 0.349487
Si Si8 0.031209 0.316186 0.164795
O O1 0.223048 0.500000 0.601827
O O2 0.217159 0.260570 0.656334
O O3 0.157838 0.249097 0.534952
O O4 0.324397 0.265746 0.633222
O O5 0.657821 0.258657 0.115475
O O6 0.767966 0.224971 0.238024
O O7 0.832232 0.231397 0.178257
O O8 0.740650 0.000000 0.167419
O O9 0.020335 0.747664 0.105788
O O10 0.056130 0.000000 0.075317
O O11 0.000000 0.767877 0.000000
O O12 0.760498 0.500000 0.716173
O O13 0.869567 0.728779 0.772096
O O14 0.999473 0.760878 0.719964
O O15 0.038345 0.749172 0.829444
O O16 0.067262 0.000000 0.793494
O O17 0.250000 0.750000 0.500000
O O18 0.087218 0.770314 0.407926
O O19 0.164555 0.000000 0.485718
O O20 0.582814 0.500000 0.348008
O O21 0.028182 0.500000 0.162276
#
# Coordination Sequence:
#
# PCOD9169362 Si02
#       8
#     8   8   8   8   8   8   8   8
#     4  10  17  26  43  68  93 126 170 214 261 306
#     4   9  20  35  54  80 108 137 169 209 259 307
#     4  10  21  38  60  82 105 137 174 209 248 298
#     4   9  17  30  46  70 100 130 167 213 258 302
#     4  10  18  33  54  77 108 140 170 209 258 311
#     4   9  16  26  39  62  94 127 165 211 258 306
#     4   8  15  26  43  67  95 128 166 205 251 305
#     4  10  20  33  53  82 109 135 171 212 255 301
#
# _framework density 17.555702
#
# number of rings (size 3 to 8) (size 9 to 14) (size 15 to 20)
#    0.000    2.625    1.250    3.000    0.000    3.500 
#    0.000    1.250    0.000    0.750    0.000    5.250 
#    0.000    0.000    0.000    0.000    0.000    0.000 
#
# Total GULP energy -178359.764010 kJ/mol
# GULP energy per Si atom -5573.742625 kJ/mol
# Density = 1.751574 g / cm^3
# Si number density = 17.555702 Si / 1000 Ang^3
#
#
#
# Elastic Constant Matrix: (Units=GPa)
#
#
# Indices 1 2 3 4 5 6 
#
# 1 111.5192 28.4203 59.7695 0.0000 -15.4184 0.0000
# 2 28.4203 30.5311 32.9869 0.0000 -7.8228 0.0000
# 3 59.7695 32.9869 141.2625 0.0000 -25.5630 0.0000
# 4 0.0000 0.0000 0.0000 25.4620 0.0000 -5.1382
# 5 -15.4184 -7.8228 -25.5630 0.0000 18.5591 0.0000
# 6 0.0000 0.0000 0.0000 -5.1382 0.0000 20.6139
#
#
#
# Elastic Compliance Matrix: (Units=1/GPa)
#
#
# Indices 1 2 3 4 5 6 
#
# 1 0.013121 -0.008048 -0.003082 0.000000 0.003264 0.000000
# 2 -0.008048 0.049220 -0.007385 0.000000 0.003889 0.000000
# 3 -0.003082 -0.007385 0.012096 0.000000 0.010987 0.000000
# 4 0.000000 0.000000 0.000000 0.041354 0.000000 0.010308
# 5 0.003264 0.003889 0.010987 0.000000 0.073366 0.000000
# 6 0.000000 0.000000 0.000000 0.010308 0.000000 0.051080
#
#
# Mechanical properties :
#
#
# Convention : Reuss Voigt Hill
#
# Bulk Modulus (GPa) = 26.73221 58.40737 42.56979
# Shear Modulus (GPa) = 17.25709 23.73608 20.49658
#
# Velocity S-wave (km/s) = 3.13867 3.68100 3.42060
# Velocity P-wave (km/s) = 5.32871 7.16996 6.31678
#
# Compressibility (1/GPa) = 0.03740806
#
# Stress axis : x y z
#
# Youngs Moduli (GPa) = 76.21392 20.31681 82.67452
#
# Poissons Ratio (x) = 0.16351 0.25478
# Poissons Ratio (y) = 0.61338 0.61052
# Poissons Ratio (z) = 0.23487 0.15003
#
# Static dielectric constant tensor:
#      x y z
#    x 1.588950 0.000000 -0.012350 
#    y 0.000000 1.593240 0.000000 
#    z -0.012350 0.000000 1.610040 
# 
# From -- ./inp_files/365233.got.cif
#   From: 2010.05.17/outbox.cif.g08.bks.cpg/sg12_183_cif.got.tgz:365233.got - 2010.06.03 13:09:07.
