data_PCOD9169373
_publ_section_title
;
Structure prediction by ZEFSAII (Michael W. Deem and Ramdas Pophale) SiO2 
 PCOD9169373
Probable space group: C 2/M
;
_chemical_formula_sum "Si O2"
_cell_formula_units_Z 56
_cell_length_a 20.572500
_cell_length_b 7.382137
_cell_length_c 15.631900
_cell_angle_alpha 90.000000
_cell_angle_beta 62.371046
_cell_angle_gamma 90.000000
_cell_volume 2103.292311
_symmetry_space_group_name_H-M "C 2/M"
_symmetry_group_IT_number 12
_symmetry_cell_setting 'monoclinic'
loop_
_space_group_symop_operation_xyz
x,y,z
-x,y,-z
-x,-y,-z
x,-y,z
1/2+x,1/2+y,z
1/2-x,1/2+y,-z
1/2-x,1/2-y,-z
1/2+x,1/2-y,z
loop_
_atom_site_type_symbol
_atom_site_label
_atom_site_fract_x
_atom_site_fract_y
_atom_site_fract_z
Si Si1 0.900295 0.787335 0.123381
Si Si2 0.781992 0.780062 0.336169
Si Si3 0.404787 0.719232 0.386219
Si Si4 0.286686 0.212703 0.068476
Si Si5 0.138207 0.776633 0.222153
Si Si6 0.611669 0.707077 0.420455
Si Si7 0.022398 0.782002 0.164931
O O1 0.836254 0.718994 0.226032
O O2 0.866501 0.777335 0.049239
O O3 0.978514 0.714031 0.108200
O O4 0.906377 0.000000 0.137325
O O5 0.826510 0.724923 0.394332
O O6 0.700160 0.707065 0.379136
O O7 0.777659 0.000000 0.336903
O O8 0.402776 0.500000 0.393895
O O9 0.418540 0.788727 0.473346
O O10 0.465442 0.756678 0.277631
O O11 0.222322 0.285057 0.169710
O O12 0.291261 0.000000 0.075454
O O13 0.250000 0.250000 0.000000
O O14 0.100421 0.715308 0.332763
O O15 0.097831 0.714544 0.160421
O O16 0.138047 0.000000 0.222566
O O17 0.585421 0.500000 0.431264
O O18 0.031607 0.000000 0.152029
#
# Coordination Sequence:
#
# PCOD9169373 Si02
#       7
#     8   8   8   8   8   8   8
#     4   9  17  32  55  77  99 133 171 205 247 297
#     4   9  16  27  43  67  99 135 171 203 243 295
#     4   8  15  25  41  68 101 135 170 208 246 285
#     4  11  22  37  57  81 105 127 159 205 255 307
#     4   9  18  31  49  75 104 132 165 210 256 296
#     4  10  17  26  43  71 103 132 168 212 251 284
#     4   8  15  30  50  74 105 137 170 206 246 295
#
# _framework density 26.624925999999999
#
# number of rings (size 3 to 8) (size 9 to 14) (size 15 to 20)
#    0.000    2.857    1.429    2.571    0.000    0.571 
#    0.000    3.571    0.000    6.857    0.000    1.000 
#    0.000    0.000    0.000    0.000    0.000    0.000 
#
# Total GULP energy -156435.509071 kJ/mol
# GULP energy per Si atom -5586.982467 kJ/mol
# Density = 2.656433 g / cm^3
# Si number density = 26.624926 Si / 1000 Ang^3
#
#
#
# Elastic Constant Matrix: (Units=GPa)
#
#
# Indices 1 2 3 4 5 6 
#
# 1 194.1307 0.9503 45.1927 0.0000 23.1265 -0.0005
# 2 0.9503 101.4961 -5.0741 0.0000 -2.1122 -0.0007
# 3 45.1927 -5.0741 119.9619 0.0000 36.3905 0.0000
# 4 0.0000 0.0000 0.0000 -6.4131 0.0000 -0.8035
# 5 23.1265 -2.1122 36.3905 0.0000 52.6862 -0.0001
# 6 -0.0005 -0.0007 0.0000 -0.8035 -0.0001 7.2013
#
#
#
# Elastic Compliance Matrix: (Units=1/GPa)
#
#
# Indices 1 2 3 4 5 6 
#
# 1 0.005718 -0.000169 -0.001768 0.000000 -0.001295 0.000000
# 2 -0.000169 0.009879 0.000429 0.000000 0.000174 0.000001
# 3 -0.001768 0.000429 0.011107 0.000000 -0.006878 0.000000
# 4 0.000000 0.000000 0.000000 -0.153781 0.000000 -0.017159
# 5 -0.001295 0.000174 -0.006878 0.000000 0.024307 0.000000
# 6 0.000000 0.000001 0.000000 -0.017159 0.000000 0.136949
#
#
# Mechanical properties :
#
#
# Convention : Reuss Voigt Hill
#
# Bulk Modulus (GPa) = 42.21750 55.30294 48.76022
# Shear Modulus (GPa) = 110.88701 35.66288 73.27495
#
# Velocity S-wave (km/s) = 6.46051 3.66383 5.25175
# Velocity P-wave (km/s) = 8.45824 6.22209 7.42483
#
# Compressibility (1/GPa) = 0.02368686
#
# Stress axis : x y z
#
# Youngs Moduli (GPa) = 174.88773 101.22247 90.03536
#
# Poissons Ratio (x) = 0.01710 0.15921
# Poissons Ratio (y) = 0.02954 -0.03860
# Poissons Ratio (z) = 0.30926 -0.04339
#
# Static dielectric constant tensor:
#      x y z
#    x 2.007200 0.000000 -0.008440 
#    y 0.000000 2.059650 0.000000 
#    z -0.008440 0.000000 2.151490 
# 
# From -- ./inp_files/280245.got.cif
#   From: 2010.05.17/outbox.cif.g08.bks.cpg/sg12_141_cif.got.tgz:280245.got - 2010.06.03 13:09:07.
