data_PCOD9169985
_publ_section_title
;
Structure prediction by ZEFSAII (Michael W. Deem and Ramdas Pophale) SiO2 
 PCOD9169985
Probable space group: C 2/M
;
_chemical_formula_sum "Si O2"
_cell_formula_units_Z 56
_cell_length_a 9.835515
_cell_length_b 28.557731
_cell_length_c 12.149012
_cell_angle_alpha 90.000000
_cell_angle_beta 62.711116
_cell_angle_gamma 90.000000
_cell_volume 3032.633820
_symmetry_space_group_name_H-M "C 2/M"
_symmetry_group_IT_number 12
_symmetry_cell_setting 'monoclinic'
loop_
_space_group_symop_operation_xyz
x,y,z
-x,y,-z
-x,-y,-z
x,-y,z
1/2+x,1/2+y,z
1/2-x,1/2+y,-z
1/2-x,1/2-y,-z
1/2+x,1/2-y,z
loop_
_atom_site_type_symbol
_atom_site_label
_atom_site_fract_x
_atom_site_fract_y
_atom_site_fract_z
Si Si1 0.264886 0.281050 0.682341
Si Si2 0.472617 0.210340 0.389496
Si Si3 0.440380 0.703061 0.131026
Si Si4 0.736234 0.447798 0.839832
Si Si5 0.841902 0.647288 0.847644
Si Si6 0.274376 0.350487 0.871153
Si Si7 0.088300 0.947399 0.139845
O O1 0.434355 0.259606 0.634508
O O2 0.156329 0.238415 0.761293
O O3 0.231769 0.324519 0.774905
O O4 0.204096 0.290330 0.582036
O O5 0.500000 0.188557 0.500000
O O6 0.553212 0.182155 0.260205
O O7 0.329664 0.662895 0.124650
O O8 0.580429 0.679742 0.140820
O O9 0.500000 0.729568 0.000000
O O10 0.797986 0.500000 0.798233
O O11 0.856257 0.405761 0.800052
O O12 0.593740 0.440199 0.809679
O O13 0.659686 0.447133 0.990041
O O14 0.841494 0.650393 0.980843
O O15 0.330717 0.403687 0.832240
O O16 0.113261 0.000000 0.175468
#
# Coordination Sequence:
#
# PCOD9169985 Si02
#       7
#     8   8   8   8   8   8   8
#     4  11  22  35  54  72  99 135 169 209 253 300
#     4  11  24  39  52  69  98 135 176 213 249 298
#     4   9  17  27  44  71 105 129 157 198 244 295
#     4   8  12  22  43  72 103 134 165 199 250 304
#     4   9  18  29  49  73 103 133 163 208 250 297
#     4  10  17  29  49  78 106 131 165 202 260 304
#     4   8  13  22  41  73 111 137 157 198 252 311
#
# _framework density 18.465796999999998
#
# number of rings (size 3 to 8) (size 9 to 14) (size 15 to 20)
#    0.000    2.571    2.857    1.286    2.000    1.714 
#    0.000    0.000    0.000    1.286    0.000    4.000 
#    0.000    2.857    0.000    0.000    0.000    0.000 
#
# Total GULP energy -155887.134264 kJ/mol
# GULP energy per Si atom -5567.397652 kJ/mol
# Density = 1.842377 g / cm^3
# Si number density = 18.465797 Si / 1000 Ang^3
#
#
#
# Elastic Constant Matrix: (Units=GPa)
#
#
# Indices 1 2 3 4 5 6 
#
# 1 65.5290 22.7608 27.0102 0.0000 26.7032 0.0000
# 2 22.7608 110.6653 31.5828 0.0000 13.4296 0.0000
# 3 27.0102 31.5828 51.7477 0.0000 12.4643 0.0000
# 4 0.0000 0.0000 0.0000 4.7632 0.0000 -1.6169
# 5 26.7032 13.4296 12.4643 0.0000 24.3793 0.0000
# 6 0.0000 0.0000 0.0000 -1.6169 0.0000 7.7350
#
#
#
# Elastic Compliance Matrix: (Units=1/GPa)
#
#
# Indices 1 2 3 4 5 6 
#
# 1 0.030920 -0.000267 -0.008957 0.000000 -0.029141 0.000000
# 2 -0.000267 0.011138 -0.005988 0.000000 -0.002781 0.000000
# 3 -0.008957 -0.005988 0.027937 0.000000 -0.001174 0.000000
# 4 0.000000 0.000000 0.000000 0.225976 0.000000 0.047238
# 5 -0.029141 -0.002781 -0.001174 0.000000 0.075070 0.000000
# 6 0.000000 0.000000 0.000000 0.047238 0.000000 0.139157
#
#
# Mechanical properties :
#
#
# Convention : Reuss Voigt Hill
#
# Bulk Modulus (GPa) = 25.27125 43.40552 34.33838
# Shear Modulus (GPa) = 9.02832 17.14806 13.08819
#
# Velocity S-wave (km/s) = 2.21355 3.05066 2.66518
# Velocity P-wave (km/s) = 4.49980 5.99714 5.30160
#
# Compressibility (1/GPa) = 0.03957067
#
# Stress axis : x y z
#
# Youngs Moduli (GPa) = 32.34125 89.78521 35.79436
#
# Poissons Ratio (x) = 0.02395 0.32062
# Poissons Ratio (y) = 0.00863 0.21435
# Poissons Ratio (z) = 0.28969 0.53767
#
# Static dielectric constant tensor:
#      x y z
#    x 1.697020 0.000000 -0.000730 
#    y 0.000000 1.669050 0.000000 
#    z -0.000730 0.000000 1.662320 
# 
# From -- ./inp_files/137293.got.cif
#   From: 2010.05.17/outbox.cif.g08.bks.cpg/sg12_69_cif.got.tgz:137293.got - 2010.06.03 13:09:07.
