data_PCOD9169752
_publ_section_title
;
Structure prediction by ZEFSAII (Michael W. Deem and Ramdas Pophale) SiO2 
 PCOD9169752
Probable space group: C 2/M
;
_chemical_formula_sum "Si O2"
_cell_formula_units_Z 64
_cell_length_a 26.212545
_cell_length_b 7.601641
_cell_length_c 24.522721
_cell_angle_alpha 90.000000
_cell_angle_beta 46.474983
_cell_angle_gamma 90.000000
_cell_volume 3542.969241
_symmetry_space_group_name_H-M "C 2/M"
_symmetry_group_IT_number 12
_symmetry_cell_setting 'monoclinic'
loop_
_space_group_symop_operation_xyz
x,y,z
-x,y,-z
-x,-y,-z
x,-y,z
1/2+x,1/2+y,z
1/2-x,1/2+y,-z
1/2-x,1/2-y,-z
1/2+x,1/2-y,z
loop_
_atom_site_type_symbol
_atom_site_label
_atom_site_fract_x
_atom_site_fract_y
_atom_site_fract_z
Si Si1 0.556529 0.212909 0.331147
Si Si2 0.032895 0.285229 0.917146
Si Si3 0.190499 0.710334 0.814295
Si Si4 0.834239 0.288493 0.657268
Si Si5 0.227711 0.715808 0.909133
Si Si6 0.911759 0.294221 0.928060
Si Si7 0.381724 0.707095 0.829787
Si Si8 0.558326 0.795866 0.505636
O O1 0.620463 0.273850 0.323521
O O2 0.572173 0.263016 0.258002
O O3 0.483730 0.279071 0.411782
O O4 0.555366 0.000000 0.334937
O O5 0.035384 0.500000 0.913079
O O6 0.113365 0.222638 0.855048
O O7 0.979701 0.221646 0.909501
O O8 0.000000 0.239252 0.000000
O O9 0.184785 0.500000 0.823373
O O10 0.253194 0.747741 0.726361
O O11 0.213579 0.773940 0.857430
O O12 0.841750 0.500000 0.650590
O O13 0.872564 0.219678 0.574366
O O14 0.230154 0.500000 0.907425
O O15 0.303209 0.778006 0.875232
O O16 0.162329 0.776119 0.994220
O O17 0.910114 0.500000 0.943926
O O18 0.913405 0.280176 0.862050
O O19 0.374983 0.500000 0.843507
O O20 0.500000 0.795097 0.500000
O O21 0.573725 0.000000 0.507474
#
# Coordination Sequence:
#
# PCOD9169752 Si02
#       8
#     8   8   8   8   8   8   8   8
#     4   9  16  28  46  66  89 122 158 185 212 260
#     4   9  16  29  51  70  84 112 158 201 230 258
#     4  10  17  28  47  70  93 119 150 188 231 269
#     4   9  16  27  44  68  95 121 149 182 223 271
#     4   9  17  29  46  65  90 120 152 187 224 265
#     4  10  19  33  50  66  84 118 165 199 220 258
#     4  11  21  31  43  66  98 126 148 182 233 278
#     4   7  12  24  42  63  89 119 150 182 215 258
#
# _framework density 18.063945
#
# number of rings (size 3 to 8) (size 9 to 14) (size 15 to 20)
#    0.000    2.750    2.500    2.250    0.000    0.000 
#    0.000    2.500    0.000    3.000    0.000    0.875 
#    0.000    0.000    0.000    0.000    0.000    0.000 
#
# Total GULP energy -178367.179941 kJ/mol
# GULP energy per Si atom -5573.974373 kJ/mol
# Density = 1.802283 g / cm^3
# Si number density = 18.063945 Si / 1000 Ang^3
#
#
#
# Elastic Constant Matrix: (Units=GPa)
#
#
# Indices 1 2 3 4 5 6 
#
# 1 119.4471 0.8970 76.5477 0.0003 -3.5404 0.0131
# 2 0.8970 33.8315 -10.5446 0.0057 -1.8838 -0.0064
# 3 76.5477 -10.5446 144.8773 -0.0007 -20.3774 -0.0117
# 4 0.0003 0.0057 -0.0007 11.1021 -0.0043 -1.9169
# 5 -3.5404 -1.8838 -20.3774 -0.0043 18.4098 0.0062
# 6 0.0131 -0.0064 -0.0117 -1.9169 0.0062 4.7077
#
#
#
# Elastic Compliance Matrix: (Units=1/GPa)
#
#
# Indices 1 2 3 4 5 6 
#
# 1 0.013578 -0.003374 -0.008410 -0.000012 -0.007043 -0.000059
# 2 -0.003374 0.031765 0.005283 -0.000003 0.008449 0.000053
# 3 -0.008410 0.005283 0.013714 0.000013 0.014103 0.000052
# 4 -0.000012 -0.000003 0.000013 0.096885 0.000021 0.039450
# 5 -0.007043 0.008449 0.014103 0.000021 0.069439 -0.000016
# 6 -0.000059 0.000053 0.000052 0.039450 -0.000016 0.228484
#
#
# Mechanical properties :
#
#
# Convention : Reuss Voigt Hill
#
# Bulk Modulus (GPa) = 21.71327 47.99513 34.85420
# Shear Modulus (GPa) = 10.36872 22.26096 16.31484
#
# Velocity S-wave (km/s) = 2.39843 3.51428 3.00854
# Velocity P-wave (km/s) = 4.44030 6.56461 5.60404
#
# Compressibility (1/GPa) = 0.04605478
#
# Stress axis : x y z
#
# Youngs Moduli (GPa) = 73.64670 31.48149 72.91653
#
# Poissons Ratio (x) = 0.10621 0.61326
# Poissons Ratio (y) = 0.24845 -0.38520
# Poissons Ratio (z) = 0.61940 -0.16631
#
# Static dielectric constant tensor:
#      x y z
#    x 1.601760 -0.000010 -0.020650 
#    y -0.000010 1.695290 0.000000 
#    z -0.020650 0.000000 1.644840 
# 
# From -- ./inp_files/350920.got.cif
#   From: 2010.05.17/outbox.cif.g08.bks.cpg/sg12_176_cif.got.tgz:350920.got - 2010.06.03 13:09:07.
