data_PCOD9169358
_publ_section_title
;
Structure prediction by ZEFSAII (Michael W. Deem and Ramdas Pophale) SiO2 
 PCOD9169358
Probable space group: C 2/M
;
_chemical_formula_sum "Si O2"
_cell_formula_units_Z 64
_cell_length_a 21.919870
_cell_length_b 15.319335
_cell_length_c 9.763608
_cell_angle_alpha 90.000000
_cell_angle_beta 82.924851
_cell_angle_gamma 90.000000
_cell_volume 3253.633359
_symmetry_space_group_name_H-M "C 2/M"
_symmetry_group_IT_number 12
_symmetry_cell_setting 'monoclinic'
loop_
_space_group_symop_operation_xyz
x,y,z
-x,y,-z
-x,-y,-z
x,-y,z
1/2+x,1/2+y,z
1/2-x,1/2+y,-z
1/2-x,1/2-y,-z
1/2+x,1/2-y,z
loop_
_atom_site_type_symbol
_atom_site_label
_atom_site_fract_x
_atom_site_fract_y
_atom_site_fract_z
Si Si1 0.036541 0.099841 0.772801
Si Si2 0.364587 0.661783 0.458121
Si Si3 0.441330 0.829570 0.430562
Si Si4 0.514302 0.893975 0.150625
Si Si5 0.400944 0.393971 0.742593
Si Si6 0.124980 0.399082 0.296254
Si Si7 0.737868 0.393861 0.706031
Si Si8 0.864617 0.893829 0.048821
O O1 0.085895 0.101499 0.636379
O O2 0.073970 0.139227 0.890025
O O3 0.971582 0.137405 0.743744
O O4 0.022122 0.000000 0.814701
O O5 0.390334 0.757079 0.418178
O O6 0.371415 0.645358 0.616051
O O7 0.298050 0.642523 0.415538
O O8 0.500000 0.792711 0.500000
O O9 0.465457 0.866998 0.280869
O O10 0.411200 0.894634 0.549462
O O11 0.579794 0.861344 0.192894
O O12 0.515814 0.000000 0.148756
O O13 0.500000 0.864614 0.000000
O O14 0.401044 0.500000 0.727548
O O15 0.365565 0.369946 0.890779
O O16 0.134394 0.500000 0.256574
O O17 0.192851 0.360975 0.295230
O O18 0.738023 0.500000 0.694726
O O19 0.694785 0.369283 0.846804
O O20 0.867720 0.000000 0.053845
#
# Coordination Sequence:
#
# PCOD9169358 Si02
#       8
#     8   8   8   8   8   8   8   8
#     4   9  16  27  42  61  89 130 179 221 258 298
#     4  11  20  30  45  69 104 139 172 208 246 291
#     4  10  20  34  52  78 109 136 166 204 257 315
#     4   9  18  36  63  89 105 119 154 214 271 312
#     4  10  17  26  43  66  92 128 177 226 260 282
#     4   9  18  35  59  79  99 132 168 206 256 315
#     4   9  18  34  52  71 100 142 184 210 242 298
#     4   8  15  27  43  63  89 124 170 222 263 294
#
# _framework density 19.670317000000001
#
# number of rings (size 3 to 8) (size 9 to 14) (size 15 to 20)
#    0.000    2.625    0.000    3.750    0.000    4.500 
#    0.000    8.750    0.000    6.000    0.000    0.000 
#    0.000    0.000    0.000    0.000    0.000    0.000 
#
# Total GULP energy -178434.141682 kJ/mol
# GULP energy per Si atom -5576.066928 kJ/mol
# Density = 1.962555 g / cm^3
# Si number density = 19.670317 Si / 1000 Ang^3
#
#
#
# Elastic Constant Matrix: (Units=GPa)
#
#
# Indices 1 2 3 4 5 6 
#
# 1 145.6834 16.0452 89.0133 0.0000 22.9968 0.0000
# 2 16.0452 24.5688 7.1190 0.0000 7.5896 0.0000
# 3 89.0133 7.1190 178.0171 0.0000 20.1988 0.0000
# 4 0.0000 0.0000 0.0000 -9.3591 0.0000 -10.3600
# 5 22.9968 7.5896 20.1988 0.0000 16.1249 0.0000
# 6 0.0000 0.0000 0.0000 -10.3600 0.0000 8.9754
#
#
#
# Elastic Compliance Matrix: (Units=1/GPa)
#
#
# Indices 1 2 3 4 5 6 
#
# 1 0.011450 -0.003367 -0.004567 0.000000 -0.009024 0.000000
# 2 -0.003367 0.048702 0.002089 0.000000 -0.020738 0.000000
# 3 -0.004567 0.002089 0.008381 0.000000 -0.004969 0.000000
# 4 0.000000 0.000000 0.000000 -0.046910 0.000000 -0.054147
# 5 -0.009024 -0.020738 -0.004969 0.000000 0.090871 0.000000
# 6 0.000000 0.000000 0.000000 -0.054147 0.000000 0.048916
#
#
# Mechanical properties :
#
#
# Convention : Reuss Voigt Hill
#
# Bulk Modulus (GPa) = 17.59209 63.62494 40.60851
# Shear Modulus (GPa) = 26.03546 18.88769 22.46158
#
# Velocity S-wave (km/s) = 3.64207 3.10209 3.38287
# Velocity P-wave (km/s) = 5.16227 6.72655 5.99565
#
# Compressibility (1/GPa) = 0.05684373
#
# Stress axis : x y z
#
# Youngs Moduli (GPa) = 87.33843 20.53319 119.31561
#
# Poissons Ratio (x) = 0.06913 0.54487
# Poissons Ratio (y) = 0.29403 -0.24923
# Poissons Ratio (z) = 0.39884 -0.04289
#
# Static dielectric constant tensor:
#      x y z
#    x 1.693540 0.000000 0.003940 
#    y 0.000000 1.734590 0.000000 
#    z 0.003940 0.000000 1.688990 
# 
# From -- ./inp_files/89175.got.cif
#   From: 2010.05.17/outbox.cif.g08.bks.cpg/sg12_45_cif.got.tgz:89175.got - 2010.06.03 13:09:07.
