data_PCOD9169885
_publ_section_title
;
Structure prediction by ZEFSAII (Michael W. Deem and Ramdas Pophale) SiO2 
 PCOD9169885
Probable space group: C 2/M
;
_chemical_formula_sum "Si O2"
_cell_formula_units_Z 64
_cell_length_a 28.077419
_cell_length_b 9.094483
_cell_length_c 19.773373
_cell_angle_alpha 90.000000
_cell_angle_beta 59.253104
_cell_angle_gamma 90.000000
_cell_volume 4339.388598
_symmetry_space_group_name_H-M "C 2/M"
_symmetry_group_IT_number 12
_symmetry_cell_setting 'monoclinic'
loop_
_space_group_symop_operation_xyz
x,y,z
-x,y,-z
-x,-y,-z
x,-y,z
1/2+x,1/2+y,z
1/2-x,1/2+y,-z
1/2-x,1/2-y,-z
1/2+x,1/2-y,z
loop_
_atom_site_type_symbol
_atom_site_label
_atom_site_fract_x
_atom_site_fract_y
_atom_site_fract_z
Si Si1 0.616478 0.823526 0.843057
Si Si2 0.006752 0.324557 0.833147
Si Si3 0.038694 0.824833 0.675445
Si Si4 0.656370 0.173450 0.596339
Si Si5 0.223215 0.675535 0.681860
Si Si6 0.444003 0.331014 0.995204
Si Si7 0.168463 0.672779 0.431193
Si Si8 0.541391 0.176641 0.531457
O O1 0.566512 0.793409 0.825902
O O2 0.675161 0.777216 0.768778
O O3 0.601281 0.744166 0.923827
O O4 0.616739 0.000000 0.852484
O O5 0.002208 0.500000 0.829832
O O6 0.005533 0.246523 0.761627
O O7 0.960347 0.260689 0.917148
O O8 0.024093 0.757710 0.612828
O O9 0.102043 0.772619 0.641418
O O10 0.034266 0.000000 0.678785
O O11 0.771854 0.500000 0.316501
O O12 0.698759 0.208549 0.625013
O O13 0.678829 0.191925 0.504253
O O14 0.140312 0.500000 0.615565
O O15 0.283451 0.745930 0.643990
O O16 0.430505 0.500000 0.989052
O O17 0.500000 0.331029 0.000000
O O18 0.171297 0.500000 0.414120
O O19 0.104686 0.721027 0.467415
O O20 0.500000 0.205591 0.500000
O O21 0.542633 0.000000 0.543375
#
# Coordination Sequence:
#
# PCOD9169885 Si02
#       8
#     8   8   8   8   8   8   8   8
#     4   9  17  28  41  57  81 121 160 184 213 257
#     4  10  17  29  45  59  84 120 156 186 214 261
#     4  11  20  28  44  70  93 113 145 189 231 264
#     4   9  17  31  43  56  84 121 155 182 212 260
#     4  10  18  28  42  60  87 120 154 185 214 256
#     4   9  17  27  39  59  85 112 148 192 229 257
#     4   9  18  29  44  65  85 108 145 186 225 264
#     4   9  19  37  55  66  84 116 149 182 225 278
#
# _framework density 14.748621
#
# number of rings (size 3 to 8) (size 9 to 14) (size 15 to 20)
#    0.000    2.500    1.250    3.000    0.000    5.250 
#    0.000    0.000    0.000    0.000    0.000    0.000 
#    0.000    1.000    0.000    3.000    0.000    4.625 
#
# Total GULP energy -178331.974369 kJ/mol
# GULP energy per Si atom -5572.874199 kJ/mol
# Density = 1.471505 g / cm^3
# Si number density = 14.748621 Si / 1000 Ang^3
#
#
#
# Elastic Constant Matrix: (Units=GPa)
#
#
# Indices 1 2 3 4 5 6 
#
# 1 55.7133 33.8177 56.4018 0.0000 3.7643 0.0000
# 2 33.8177 60.6135 61.5528 0.0000 6.6118 0.0004
# 3 56.4018 61.5528 125.5644 0.0000 -3.1713 0.0000
# 4 0.0000 0.0000 0.0000 27.3404 0.0000 -2.0584
# 5 3.7643 6.6118 -3.1713 0.0000 13.3302 0.0000
# 6 0.0000 0.0004 0.0000 -2.0584 0.0000 13.4901
#
#
#
# Elastic Compliance Matrix: (Units=1/GPa)
#
#
# Indices 1 2 3 4 5 6 
#
# 1 0.035716 -0.004177 -0.014284 0.000000 -0.011412 0.000000
# 2 -0.004177 0.039848 -0.018237 0.000000 -0.022924 -0.000001
# 3 -0.014284 -0.018237 0.023793 0.000000 0.018740 0.000001
# 4 0.000000 0.000000 0.000000 0.037001 0.000000 0.005646
# 5 -0.011412 -0.022924 0.018740 0.000000 0.094069 0.000001
# 6 0.000000 -0.000001 0.000001 0.005646 0.000001 0.074990
#
#
# Mechanical properties :
#
#
# Convention : Reuss Voigt Hill
#
# Bulk Modulus (GPa) = 38.51686 60.60397 49.56041
# Shear Modulus (GPa) = 12.90437 16.84007 14.87222
#
# Velocity S-wave (km/s) = 2.96117 3.38273 3.17895
# Velocity P-wave (km/s) = 6.15334 7.51250 6.86663
#
# Compressibility (1/GPa) = 0.02596266
#
# Stress axis : x y z
#
# Youngs Moduli (GPa) = 27.99901 25.09518 42.02859
#
# Poissons Ratio (x) = 0.10481 0.60033
# Poissons Ratio (y) = 0.11694 0.76647
# Poissons Ratio (z) = 0.39993 0.45766
#
# Static dielectric constant tensor:
#      x y z
#    x 1.462350 0.000000 -0.000070 
#    y 0.000000 1.494490 0.000000 
#    z -0.000070 0.000000 1.498630 
# 
# From -- ./inp_files/324194.got.cif
#   From: 2010.05.17/outbox.cif.g08.bks.cpg/sg12_163_cif.got.tgz:324194.got - 2010.06.03 13:09:07.
