data_PCOD9169281
_publ_section_title
;
Structure prediction by ZEFSAII (Michael W. Deem and Ramdas Pophale) SiO2 
 PCOD9169281
Probable space group: C 2/M
;
_chemical_formula_sum "Si O2"
_cell_formula_units_Z 64
_cell_length_a 23.057877
_cell_length_b 9.286665
_cell_length_c 22.935390
_cell_angle_alpha 90.000000
_cell_angle_beta 143.528785
_cell_angle_gamma 90.000000
_cell_volume 2919.293815
_symmetry_space_group_name_H-M "C 2/M"
_symmetry_group_IT_number 12
_symmetry_cell_setting 'monoclinic'
loop_
_space_group_symop_operation_xyz
x,y,z
-x,y,-z
-x,-y,-z
x,-y,z
1/2+x,1/2+y,z
1/2-x,1/2+y,-z
1/2-x,1/2-y,-z
1/2+x,1/2-y,z
loop_
_atom_site_type_symbol
_atom_site_label
_atom_site_fract_x
_atom_site_fract_y
_atom_site_fract_z
Si Si1 0.551629 0.340175 0.743306
Si Si2 0.727047 0.838170 0.039493
Si Si3 0.620104 0.827811 0.173484
Si Si4 0.047704 0.834375 0.221757
Si Si5 0.170054 0.165743 0.101151
Si Si6 0.763572 0.661272 0.452426
Si Si7 0.681863 0.175804 0.624776
Si Si8 0.901502 0.337120 0.325538
O O1 0.506815 0.500000 0.703247
O O2 0.666996 0.354395 0.845411
O O3 0.512302 0.273612 0.771762
O O4 0.541260 0.255931 0.675153
O O5 0.666079 0.744204 0.035820
O O6 0.688639 0.000000 0.997704
O O7 0.750000 0.750000 0.000000
O O8 0.549387 0.760048 0.165046
O O9 0.613551 0.755727 0.104612
O O10 0.726115 0.771824 0.281177
O O11 0.614250 0.000000 0.166083
O O12 0.158108 0.841705 0.335515
O O13 0.015827 0.000000 0.184044
O O14 0.285747 0.162775 0.213345
O O15 0.137840 0.000000 0.072926
O O16 0.792013 0.500000 0.492302
O O17 0.750000 0.750000 0.500000
O O18 0.833782 0.708592 0.455980
O O19 0.601759 0.206090 0.609367
O O20 0.702175 0.000000 0.645059
O O21 0.937593 0.500000 0.351196
#
# Coordination Sequence:
#
# PCOD9169281 Si02
#       8
#     8   8   8   8   8   8   8   8
#     4   9  18  31  48  68  91 120 155 187 220 267
#     4  10  19  31  48  72  97 122 153 190 228 271
#     4  10  17  25  42  69  93 114 148 194 231 265
#     4   9  18  33  48  64  91 126 154 183 226 274
#     4   9  16  28  45  65  91 123 153 186 228 271
#     4   9  17  29  46  66  90 118 151 188 229 272
#     4   8  15  28  43  61  88 122 151 182 227 275
#     4   8  14  25  43  65  88 113 146 186 228 265
#
# _framework density 21.923110999999999
#
# number of rings (size 3 to 8) (size 9 to 14) (size 15 to 20)
#    0.000    3.000    0.000    3.375    0.000    6.000 
#    0.000    0.000    0.000    1.500    0.000   10.500 
#    0.000    0.000    0.000    0.000    0.000    0.000 
#
# Total GULP energy -178456.030243 kJ/mol
# GULP energy per Si atom -5576.750945 kJ/mol
# Density = 2.187321 g / cm^3
# Si number density = 21.923111 Si / 1000 Ang^3
#
#
#
# Elastic Constant Matrix: (Units=GPa)
#
#
# Indices 1 2 3 4 5 6 
#
# 1 190.9134 106.0760 46.5357 0.0000 -77.2113 0.0000
# 2 106.0760 138.9972 39.3203 0.0000 -51.5869 0.0000
# 3 46.5357 39.3203 58.0912 0.0000 -17.3585 0.0000
# 4 0.0000 0.0000 0.0000 11.0715 0.0000 -15.5817
# 5 -77.2113 -51.5869 -17.3585 0.0000 61.8809 0.0000
# 6 0.0000 0.0000 0.0000 -15.5817 0.0000 34.9031
#
#
#
# Elastic Compliance Matrix: (Units=1/GPa)
#
#
# Indices 1 2 3 4 5 6 
#
# 1 0.013848 -0.004938 -0.004167 0.000000 0.011993 0.000000
# 2 -0.004938 0.013611 -0.004047 0.000000 0.004050 0.000000
# 3 -0.004167 -0.004047 0.022626 0.000000 -0.002226 0.000000
# 4 0.000000 0.000000 0.000000 0.242991 0.000000 0.108478
# 5 0.011993 0.004050 -0.002226 0.000000 0.033876 0.000000
# 6 0.000000 0.000000 0.000000 0.108478 0.000000 0.077078
#
#
# Mechanical properties :
#
#
# Convention : Reuss Voigt Hill
#
# Bulk Modulus (GPa) = 42.05025 85.76288 63.90657
# Shear Modulus (GPa) = 11.40873 34.64242 23.02558
#
# Velocity S-wave (km/s) = 2.28370 3.97946 3.24433
# Velocity P-wave (km/s) = 5.11626 7.76657 6.57631
#
# Compressibility (1/GPa) = 0.02378107
#
# Stress axis : x y z
#
# Youngs Moduli (GPa) = 72.21421 73.47115 44.19615
#
# Poissons Ratio (x) = 0.36281 0.18417
# Poissons Ratio (y) = 0.35661 0.17885
# Poissons Ratio (z) = 0.30092 0.29732
#
# Static dielectric constant tensor:
#      x y z
#    x 1.858190 0.000000 0.045710 
#    y 0.000000 1.776090 0.000000 
#    z 0.045710 0.000000 1.881200 
# 
# From -- ./inp_files/323711.got.cif
#   From: 2010.05.17/outbox.cif.g08.bks.cpg/sg12_162_cif.got.tgz:323711.got - 2010.06.03 13:09:07.
