data_PCOD9169757
_publ_section_title
;
Structure prediction by ZEFSAII (Michael W. Deem and Ramdas Pophale) SiO2 
 PCOD9169757
Probable space group: C 2/M
;
_chemical_formula_sum "Si O2"
_cell_formula_units_Z 64
_cell_length_a 19.679106
_cell_length_b 8.791603
_cell_length_c 20.860947
_cell_angle_alpha 90.000000
_cell_angle_beta 93.903939
_cell_angle_gamma 90.000000
_cell_volume 3600.796233
_symmetry_space_group_name_H-M "C 2/M"
_symmetry_group_IT_number 12
_symmetry_cell_setting 'monoclinic'
loop_
_space_group_symop_operation_xyz
x,y,z
-x,y,-z
-x,-y,-z
x,-y,z
1/2+x,1/2+y,z
1/2-x,1/2+y,-z
1/2-x,1/2-y,-z
1/2+x,1/2-y,z
loop_
_atom_site_type_symbol
_atom_site_label
_atom_site_fract_x
_atom_site_fract_y
_atom_site_fract_z
Si Si1 0.921588 0.318603 0.682170
Si Si2 0.978625 0.316666 0.427383
Si Si3 0.364557 0.681558 0.335844
Si Si4 0.766490 0.182170 0.854147
Si Si5 0.965292 0.182560 0.225626
Si Si6 0.875369 0.183003 0.102451
Si Si7 0.220518 0.819127 0.295081
Si Si8 0.178517 0.317890 0.022388
O O1 0.917478 0.500000 0.684329
O O2 0.847055 0.248454 0.678234
O O3 0.963853 0.274684 0.621181
O O4 0.966078 0.259298 0.745051
O O5 0.971638 0.500000 0.425907
O O6 0.909012 0.243932 0.397464
O O7 0.000000 0.270030 0.500000
O O8 0.360968 0.500000 0.337861
O O9 0.406697 0.724062 0.273883
O O10 0.289714 0.750116 0.327317
O O11 0.693596 0.255036 0.868235
O O12 0.781228 0.215062 0.781186
O O13 0.822295 0.252966 0.905840
O O14 0.762953 0.000000 0.863477
O O15 0.937452 0.223091 0.153631
O O16 0.973707 0.000000 0.228634
O O17 0.870670 0.000000 0.097408
O O18 0.876323 0.255872 0.031870
O O19 0.221713 0.000000 0.302515
O O20 0.180724 0.500000 0.022241
O O21 0.250000 0.250000 0.000000
#
# Coordination Sequence:
#
# PCOD9169757 Si02
#       8
#     8   8   8   8   8   8   8   8
#     4  10  21  35  55  80 107 139 174 214 259 311
#     4   9  19  38  61  84 111 142 175 211 255 307
#     4  10  19  33  55  83 110 137 177 219 258 307
#     4  10  19  30  46  69  98 135 174 214 263 314
#     4   9  18  32  51  75 104 137 172 217 266 312
#     4  10  17  28  47  71 100 133 171 217 265 312
#     4  11  22  35  53  77 109 143 176 218 265 314
#     4  10  18  27  41  65  98 133 170 217 265 311
#
# _framework density 17.773847
#
# number of rings (size 3 to 8) (size 9 to 14) (size 15 to 20)
#    0.000    2.125    1.250    4.500    0.000    3.750 
#    0.000    0.625    0.000    0.750    0.000    5.250 
#    0.000    0.000    0.000    0.000    0.000    0.000 
#
# Total GULP energy -178561.727563 kJ/mol
# GULP energy per Si atom -5580.053986 kJ/mol
# Density = 1.773339 g / cm^3
# Si number density = 17.773847 Si / 1000 Ang^3
#
#
#
# Elastic Constant Matrix: (Units=GPa)
#
#
# Indices 1 2 3 4 5 6 
#
# 1 109.7025 40.0727 56.4151 0.0000 22.7761 0.0000
# 2 40.0727 60.7858 51.8348 0.0000 12.1690 0.0000
# 3 56.4151 51.8348 128.7885 0.0000 36.0271 0.0000
# 4 0.0000 0.0000 0.0000 24.8824 0.0000 6.9283
# 5 22.7761 12.1690 36.0271 0.0000 21.7043 0.0000
# 6 0.0000 0.0000 0.0000 6.9283 0.0000 28.6605
#
#
#
# Elastic Compliance Matrix: (Units=1/GPa)
#
#
# Indices 1 2 3 4 5 6 
#
# 1 0.013917 -0.006620 -0.000718 0.000000 -0.009700 0.000000
# 2 -0.006620 0.028494 -0.011281 0.000000 0.009696 0.000000
# 3 -0.000718 -0.011281 0.019862 0.000000 -0.025891 0.000000
# 4 0.000000 0.000000 0.000000 0.043089 0.000000 -0.010416
# 5 -0.009700 0.009696 -0.025891 0.000000 0.093793 0.000000
# 6 0.000000 0.000000 0.000000 -0.010416 0.000000 0.037409
#
#
# Mechanical properties :
#
#
# Convention : Reuss Voigt Hill
#
# Bulk Modulus (GPa) = 39.94430 66.21356 53.07893
# Shear Modulus (GPa) = 17.72116 25.11307 21.41712
#
# Velocity S-wave (km/s) = 3.16101 3.76296 3.47505
# Velocity P-wave (km/s) = 5.98708 7.49761 6.78451
#
# Compressibility (1/GPa) = 0.02503486
#
# Stress axis : x y z
#
# Youngs Moduli (GPa) = 71.85345 35.09499 50.34696
#
# Poissons Ratio (x) = 0.23234 0.03616
# Poissons Ratio (y) = 0.47570 0.56795
# Poissons Ratio (z) = 0.05160 0.39590
#
# Static dielectric constant tensor:
#      x y z
#    x 1.583660 0.000000 0.006550 
#    y 0.000000 1.585540 0.000000 
#    z 0.006550 0.000000 1.631470 
# 
# From -- ./inp_files/319242.got.cif
#   From: 2010.05.17/outbox.cif.g08.bks.cpg/sg12_160_cif.got.tgz:319242.got - 2010.06.03 13:09:07.
