data_PCOD9169324
_publ_section_title
;
Structure prediction by ZEFSAII (Michael W. Deem and Ramdas Pophale) SiO2 
 PCOD9169324
Probable space group: C 2/M
;
_chemical_formula_sum "Si O2"
_cell_formula_units_Z 60
_cell_length_a 9.698432
_cell_length_b 21.871472
_cell_length_c 19.543592
_cell_angle_alpha 90.000000
_cell_angle_beta 134.803177
_cell_angle_gamma 90.000000
_cell_volume 2941.410965
_symmetry_space_group_name_H-M "C 2/M"
_symmetry_group_IT_number 12
_symmetry_cell_setting 'monoclinic'
loop_
_space_group_symop_operation_xyz
x,y,z
-x,y,-z
-x,-y,-z
x,-y,z
1/2+x,1/2+y,z
1/2-x,1/2+y,-z
1/2-x,1/2-y,-z
1/2+x,1/2-y,z
loop_
_atom_site_type_symbol
_atom_site_label
_atom_site_fract_x
_atom_site_fract_y
_atom_site_fract_z
Si Si1 0.500000 0.140077 0.500000
Si Si2 0.894168 0.823301 0.371434
Si Si3 0.325948 0.430430 0.562004
Si Si4 0.826402 0.760095 0.623441
Si Si5 0.090794 0.800972 0.841164
Si Si6 0.070173 0.307848 0.138117
Si Si7 0.473530 0.934214 0.909196
Si Si8 0.522998 0.433033 0.776829
O O1 0.390802 0.097582 0.517297
O O2 0.328427 0.186042 0.419800
O O3 0.010941 0.886334 0.412845
O O4 0.053386 0.772368 0.403169
O O5 0.783799 0.802942 0.401151
O O6 0.731030 0.820274 0.254460
O O7 0.335678 0.500000 0.541336
O O8 0.377406 0.429905 0.661688
O O9 0.978044 0.770650 0.737535
O O10 0.041839 0.754458 0.884451
O O11 0.017218 0.871336 0.819750
O O12 0.310745 0.803029 0.891115
O O13 0.946890 0.370619 0.092078
O O14 0.239377 0.932799 0.819267
O O15 0.546126 0.000000 0.908145
O O16 0.500000 0.934246 0.000000
O O17 0.500633 0.500000 0.802894
#
# Coordination Sequence:
#
# PCOD9169324 Si02
#       8
#     4   8   8   8   8   8   8   8
#     4  10  17  28  40  66  87 108 146 184 228 254
#     4   9  16  29  43  64  84 115 146 176 221 264
#     4  10  17  26  41  62  87 111 143 183 220 257
#     4   9  17  26  42  62  89 110 143 185 220 260
#     4   9  15  29  43  66  86 119 148 181 219 265
#     4   9  16  27  46  64  92 116 148 179 222 258
#     4   9  16  27  45  70  93 114 145 184 221 257
#     4   9  15  27  43  61  85 117 147 178 219 263
#
# _framework density 20.398375000000001
#
# number of rings (size 3 to 8) (size 9 to 14) (size 15 to 20)
#    0.000    2.800    5.333    0.200    0.000    2.133 
#    0.000    2.667    0.000    0.800    0.000   17.267 
#    0.000   10.133    0.000    0.000    0.000    0.000 
#
# Total GULP energy -167048.952705 kJ/mol
# GULP energy per Si atom -5568.298423 kJ/mol
# Density = 2.035195 g / cm^3
# Si number density = 20.398375 Si / 1000 Ang^3
#
#
#
# Elastic Constant Matrix: (Units=GPa)
#
#
# Indices 1 2 3 4 5 6 
#
# 1 46.6320 51.8211 9.1322 0.0000 0.4603 0.0000
# 2 51.8211 192.3340 -8.3849 0.0000 -2.7861 0.0000
# 3 9.1322 -8.3849 44.5506 0.0000 3.2752 0.0000
# 4 0.0000 0.0000 0.0000 4.3577 0.0000 -7.3125
# 5 0.4603 -2.7861 3.2752 0.0000 8.0724 0.0000
# 6 0.0000 0.0000 0.0000 -7.3125 0.0000 25.2865
#
#
#
# Elastic Compliance Matrix: (Units=1/GPa)
#
#
# Indices 1 2 3 4 5 6 
#
# 1 0.033656 -0.009466 -0.008554 0.000000 -0.001715 0.000000
# 2 -0.009466 0.007921 0.003289 0.000000 0.001939 0.000000
# 3 -0.008554 0.003289 0.025459 0.000000 -0.008707 0.000000
# 4 0.000000 0.000000 0.000000 0.445818 0.000001 0.128924
# 5 -0.001715 0.001939 -0.008707 0.000001 0.128178 0.000000
# 6 0.000000 0.000000 0.000000 0.128924 0.000000 0.076830
#
#
# Mechanical properties :
#
#
# Convention : Reuss Voigt Hill
#
# Bulk Modulus (GPa) = 26.61496 43.18367 34.89931
# Shear Modulus (GPa) = 6.58025 22.93988 14.76007
#
# Velocity S-wave (km/s) = 1.79802 3.35713 2.69288
# Velocity P-wave (km/s) = 4.16970 6.02024 5.17830
#
# Compressibility (1/GPa) = 0.03757286
#
# Stress axis : x y z
#
# Youngs Moduli (GPa) = 29.71259 126.24458 39.27894
#
# Poissons Ratio (x) = 1.19500 0.33601
# Poissons Ratio (y) = 0.28125 -0.12917
# Poissons Ratio (z) = 0.25417 -0.41517
#
# Static dielectric constant tensor:
#      x y z
#    x 1.720070 0.000000 0.006770 
#    y 0.000000 1.805780 0.000000 
#    z 0.006770 0.000000 1.805430 
# 
# From -- ./inp_files/358863.got.cif
#   From: 2010.05.17/outbox.cif.g08.bks.cpg/sg12_180_cif.got.tgz:358863.got - 2010.06.03 13:09:07.
