data_PCOD9169905
_publ_section_title
;
Structure prediction by ZEFSAII (Michael W. Deem and Ramdas Pophale) SiO2 
 PCOD9169905
Probable space group: C 2/M
;
_chemical_formula_sum "Si O2"
_cell_formula_units_Z 64
_cell_length_a 27.772247
_cell_length_b 21.116152
_cell_length_c 17.396947
_cell_angle_alpha 90.000000
_cell_angle_beta 20.247107
_cell_angle_gamma 90.000000
_cell_volume 3530.712839
_symmetry_space_group_name_H-M "C 2/M"
_symmetry_group_IT_number 12
_symmetry_cell_setting 'monoclinic'
loop_
_space_group_symop_operation_xyz
x,y,z
-x,y,-z
-x,-y,-z
x,-y,z
1/2+x,1/2+y,z
1/2-x,1/2+y,-z
1/2-x,1/2-y,-z
1/2+x,1/2-y,z
loop_
_atom_site_type_symbol
_atom_site_label
_atom_site_fract_x
_atom_site_fract_y
_atom_site_fract_z
Si Si1 0.847678 0.286426 0.257118
Si Si2 0.414824 0.843123 0.316007
Si Si3 0.757909 0.310593 0.786671
Si Si4 0.680661 0.659926 0.075902
Si Si5 0.538398 0.206633 0.287115
Si Si6 0.458589 0.429174 0.473215
Si Si7 0.212049 0.335164 0.808502
Si Si8 0.845179 0.861080 0.215195
O O1 0.843874 0.306657 0.350721
O O2 0.757746 0.322583 0.327849
O O3 0.842745 0.211506 0.250309
O O4 0.000000 0.305059 0.000000
O O5 0.465539 0.801122 0.313133
O O6 0.293719 0.887753 0.534246
O O7 0.562393 0.864399 0.057850
O O8 0.716923 0.236384 0.836099
O O9 0.680653 0.351851 0.836884
O O10 0.921252 0.313850 0.522907
O O11 0.723005 0.333118 0.923702
O O12 0.586630 0.722152 0.232823
O O13 0.589046 0.599394 0.231784
O O14 0.821088 0.665745 0.915887
O O15 0.500000 0.431481 0.500000
O O16 0.422662 0.500000 0.500686
O O17 0.331349 0.380977 0.657893
O O18 0.000000 0.887080 0.000000
#
# Coordination Sequence:
#
# PCOD9169905 Si02
#       8
#     8   8   8   8   8   8   8   8
#     4   8  16  26  44  70 105 148 175 216 271 342
#     4  10  17  29  46  72 113 152 178 216 286 339
#     4  10  19  31  49  81 114 143 177 225 285 337
#     4  11  21  33  55  78 112 150 182 228 283 336
#     4  10  20  29  49  83 113 148 177 232 281 346
#     4  11  25  41  57  78 111 152 193 233 269 328
#     4  10  18  32  52  77 110 143 188 230 278 336
#     4   9  18  27  40  70 112 149 176 212 266 347
#
# _framework density 18.126650000000001
#
# number of rings (size 3 to 8) (size 9 to 14) (size 15 to 20)
#    0.000    2.125    2.500    2.250    1.750    1.000 
#    0.000    0.000    0.000    4.875    0.000    2.625 
#    0.000    5.000    0.000    0.000    0.000    0.000 
#
# Total GULP energy -178163.101904 kJ/mol
# GULP energy per Si atom -5567.596934 kJ/mol
# Density = 1.808539 g / cm^3
# Si number density = 18.126650 Si / 1000 Ang^3
#
#
#
# Elastic Constant Matrix: (Units=GPa)
#
#
# Indices 1 2 3 4 5 6 
#
# 1 92.1724 13.9730 33.3419 -0.0003 8.6981 0.0003
# 2 13.9730 15.2570 17.1375 -0.0014 5.2337 0.0013
# 3 33.3419 17.1375 113.2794 -0.0005 -2.0876 0.0007
# 4 -0.0003 -0.0014 -0.0005 -0.5073 0.0004 4.7578
# 5 8.6981 5.2337 -2.0876 0.0004 31.5076 -0.0005
# 6 0.0003 0.0013 0.0007 4.7578 -0.0005 6.9885
#
#
#
# Elastic Compliance Matrix: (Units=1/GPa)
#
#
# Indices 1 2 3 4 5 6 
#
# 1 0.013323 -0.008307 -0.002710 0.000004 -0.002478 -0.000001
# 2 -0.008307 0.090755 -0.011534 -0.000053 -0.013546 0.000021
# 3 -0.002710 -0.011534 0.011433 0.000005 0.003422 -0.000002
# 4 0.000004 -0.000053 0.000005 -0.266919 0.000014 0.181719
# 5 -0.002478 -0.013546 0.003422 0.000014 0.034899 -0.000005
# 6 -0.000001 0.000021 -0.000002 0.181719 -0.000005 0.019377
#
#
# Mechanical properties :
#
#
# Convention : Reuss Voigt Hill
#
# Bulk Modulus (GPa) = 14.20311 38.84595 26.52453
# Shear Modulus (GPa) = -175.07675 18.01485 -78.53095
#
# Velocity S-wave (km/s) = -9.83844 3.15593 -6.58920
# Velocity P-wave (km/s) = 11.00942 5.89548 6.57460
#
# Compressibility (1/GPa) = 0.07040710
#
# Stress axis : x y z
#
# Youngs Moduli (GPa) = 75.05943 11.01870 87.46251
#
# Poissons Ratio (x) = 0.09154 0.23704
# Poissons Ratio (y) = 0.62355 1.00882
# Poissons Ratio (z) = 0.20343 0.12709
#
# Static dielectric constant tensor:
#      x y z
#    x 1.705160 0.000000 -0.013860 
#    y 0.000000 1.583790 0.000000 
#    z -0.013860 0.000000 1.692280 
# 
# From -- ./inp_files/184970.got.cif
#   From: 2010.05.17/outbox.cif.g08.bks.cpg/sg12_93_cif.got.tgz:184970.got - 2010.06.03 13:09:07.
