data_PCOD9169405
_publ_section_title
;
Structure prediction by ZEFSAII (Michael W. Deem and Ramdas Pophale) SiO2 
 PCOD9169405
Probable space group: C 2/M
;
_chemical_formula_sum "Si O2"
_cell_formula_units_Z 56
_cell_length_a 22.280707
_cell_length_b 13.565791
_cell_length_c 8.045944
_cell_angle_alpha 90.000000
_cell_angle_beta 84.389443
_cell_angle_gamma 90.000000
_cell_volume 2420.279742
_symmetry_space_group_name_H-M "C 2/M"
_symmetry_group_IT_number 12
_symmetry_cell_setting 'monoclinic'
loop_
_space_group_symop_operation_xyz
x,y,z
-x,y,-z
-x,-y,-z
x,-y,z
1/2+x,1/2+y,z
1/2-x,1/2+y,-z
1/2-x,1/2-y,-z
1/2+x,1/2-y,z
loop_
_atom_site_type_symbol
_atom_site_label
_atom_site_fract_x
_atom_site_fract_y
_atom_site_fract_z
Si Si1 0.074870 0.801714 0.145816
Si Si2 0.962885 0.886050 0.334311
Si Si3 0.647763 0.381283 0.436199
Si Si4 0.238858 0.614829 0.433811
Si Si5 0.176720 0.813817 0.875965
Si Si6 0.869036 0.610649 0.746611
Si Si7 0.721751 0.888196 0.916612
O O1 0.006534 0.833406 0.192613
O O2 0.114337 0.858008 0.274836
O O3 0.108818 0.823469 0.962876
O O4 0.082514 0.688104 0.201249
O O5 0.000000 0.885296 0.500000
O O6 0.897669 0.844020 0.405671
O O7 0.955559 0.000000 0.285640
O O8 0.648815 0.500000 0.452325
O O9 0.717568 0.347696 0.430881
O O10 0.226536 0.500000 0.464588
O O11 0.173333 0.651670 0.391661
O O12 0.288271 0.623484 0.271638
O O13 0.216317 0.843285 0.029208
O O14 0.188708 0.699372 0.826667
O O15 0.891387 0.500000 0.704137
O O16 0.821563 0.603257 0.910375
O O17 0.728837 0.000000 0.849375
#
# Coordination Sequence:
#
# PCOD9169405 Si02
#       7
#     8   8   8   8   8   8   8
#     4  10  17  26  45  66  83 104 141 184 205 228
#     4   8  15  28  43  60  83 109 137 169 208 251
#     4   9  18  31  45  60  83 117 143 161 205 263
#     4   9  17  30  44  59  88 121 137 157 206 263
#     4   9  16  25  41  64  82 105 142 176 204 236
#     4   8  15  27  42  62  87 113 138 166 207 252
#     4   8  14  25  39  57  86 116 137 163 205 253
#
# _framework density 23.137822
#
# number of rings (size 3 to 8) (size 9 to 14) (size 15 to 20)
#    0.000    3.286    0.000    3.429    0.000    2.857 
#    0.000    0.714    0.000    7.286    0.000    0.000 
#    0.000    4.571    0.000    0.000    0.000    0.000 
#
# Total GULP energy -156060.907227 kJ/mol
# GULP energy per Si atom -5573.603830 kJ/mol
# Density = 2.308516 g / cm^3
# Si number density = 23.137822 Si / 1000 Ang^3
#
#
#
# Elastic Constant Matrix: (Units=GPa)
#
#
# Indices 1 2 3 4 5 6 
#
# 1 89.2871 3.4669 23.5826 0.0000 -23.9640 0.0000
# 2 3.4669 102.0851 8.4238 0.0000 -13.2073 0.0000
# 3 23.5826 8.4238 80.8678 0.0000 -22.1475 0.0000
# 4 0.0000 0.0000 0.0000 14.2949 0.0000 2.2570
# 5 -23.9640 -13.2073 -22.1475 0.0000 37.8732 0.0000
# 6 0.0000 0.0000 0.0000 2.2570 0.0000 8.8134
#
#
#
# Elastic Compliance Matrix: (Units=1/GPa)
#
#
# Indices 1 2 3 4 5 6 
#
# 1 0.013789 0.000706 -0.001950 0.000000 0.007831 0.000000
# 2 0.000706 0.010295 -0.000206 0.000000 0.003917 0.000000
# 3 -0.001950 -0.000206 0.015001 0.000000 0.007467 0.000000
# 4 0.000000 0.000000 0.000000 0.072902 0.000000 -0.018669
# 5 0.007831 0.003917 0.007467 0.000000 0.037091 0.000000
# 6 0.000000 0.000000 0.000000 -0.018669 0.000000 0.118245
#
#
# Mechanical properties :
#
#
# Convention : Reuss Voigt Hill
#
# Bulk Modulus (GPa) = 27.63532 38.13185 32.88359
# Shear Modulus (GPa) = 17.71258 27.98075 22.84666
#
# Velocity S-wave (km/s) = 2.76981 3.48128 3.14573
# Velocity P-wave (km/s) = 4.71157 5.71622 5.23804
#
# Compressibility (1/GPa) = 0.03618557
#
# Stress axis : x y z
#
# Youngs Moduli (GPa) = 72.52054 97.13020 66.66281
#
# Poissons Ratio (x) = -0.06855 0.13000
# Poissons Ratio (y) = -0.05118 0.01371
# Poissons Ratio (z) = 0.14142 0.01997
#
# Static dielectric constant tensor:
#      x y z
#    x 1.880340 0.000000 0.081820 
#    y 0.000000 1.920310 0.000000 
#    z 0.081820 0.000000 2.008060 
# 
# From -- ./inp_files/103980.got.cif
#   From: 2010.05.17/outbox.cif.g08.bks.cpg/sg12_52_cif.got.tgz:103980.got - 2010.06.03 13:09:07.
