data_PCOD9169931
_publ_section_title
;
Structure prediction by ZEFSAII (Michael W. Deem and Ramdas Pophale) SiO2 
 PCOD9169931
Probable space group: C 2/M
;
_chemical_formula_sum "Si O2"
_cell_formula_units_Z 64
_cell_length_a 31.035397
_cell_length_b 7.624674
_cell_length_c 15.349431
_cell_angle_alpha 90.000000
_cell_angle_beta 98.782394
_cell_angle_gamma 90.000000
_cell_volume 3589.622896
_symmetry_space_group_name_H-M "C 2/M"
_symmetry_group_IT_number 12
_symmetry_cell_setting 'monoclinic'
loop_
_space_group_symop_operation_xyz
x,y,z
-x,y,-z
-x,-y,-z
x,-y,z
1/2+x,1/2+y,z
1/2-x,1/2+y,-z
1/2-x,1/2-y,-z
1/2+x,1/2-y,z
loop_
_atom_site_type_symbol
_atom_site_label
_atom_site_fract_x
_atom_site_fract_y
_atom_site_fract_z
Si Si1 0.066379 0.713776 0.368979
Si Si2 0.293385 0.293990 0.627841
Si Si3 0.435290 0.714806 0.924333
Si Si4 0.198558 0.792762 0.566297
Si Si5 0.967500 0.292715 0.313344
Si Si6 0.398099 0.788761 0.431460
Si Si7 0.029380 0.788671 0.882352
Si Si8 0.868797 0.795937 0.766974
O O1 0.067447 0.500000 0.364642
O O2 0.085888 0.768980 0.468007
O O3 0.095912 0.784205 0.300005
O O4 0.016463 0.775339 0.344458
O O5 0.304588 0.500000 0.626374
O O6 0.241779 0.278583 0.625808
O O7 0.302631 0.219818 0.533644
O O8 0.324725 0.218118 0.711928
O O9 0.434976 0.500000 0.922673
O O10 0.479680 0.768704 0.887887
O O11 0.393221 0.779535 0.858978
O O12 0.441421 0.768667 0.026501
O O13 0.152267 0.759792 0.595783
O O14 0.205418 0.000000 0.561954
O O15 0.970304 0.500000 0.332166
O O16 0.930957 0.221652 0.367490
O O17 0.956574 0.269310 0.208627
O O18 0.400019 0.000000 0.432119
O O19 0.029010 0.000000 0.882635
O O20 0.860235 0.000000 0.785220
#
# Coordination Sequence:
#
# PCOD9169931 Si02
#       8
#     8   8   8   8   8   8   8   8
#     4  10  19  30  44  64  92 125 159 189 219 261
#     4   9  18  30  46  67  92 120 148 183 230 276
#     4   8  15  27  46  68  91 119 151 186 228 271
#     4  10  19  31  47  68  91 116 152 193 227 267
#     4  10  20  32  45  65  92 125 160 191 225 265
#     4  10  20  33  47  62  90 128 160 189 225 268
#     4   9  16  29  47  66  89 121 155 188 226 268
#     4  10  17  29  48  69  93 121 153 187 222 268
#
# _framework density 17.829170000000001
#
# number of rings (size 3 to 8) (size 9 to 14) (size 15 to 20)
#    0.000    2.500    2.500    1.500    0.000    3.000 
#    0.000    1.875    0.000    2.250    0.000    0.875 
#    0.000    0.000    0.000    0.000    0.000    0.000 
#
# Total GULP energy -178446.468452 kJ/mol
# GULP energy per Si atom -5576.452139 kJ/mol
# Density = 1.778859 g / cm^3
# Si number density = 17.829170 Si / 1000 Ang^3
#
#
#
# Elastic Constant Matrix: (Units=GPa)
#
#
# Indices 1 2 3 4 5 6 
#
# 1 101.4817 -8.4202 51.5772 0.0000 27.2784 0.0000
# 2 -8.4202 33.9107 -9.6746 0.0000 5.1256 0.0000
# 3 51.5772 -9.6746 76.4757 0.0000 29.8752 0.0000
# 4 0.0000 0.0000 0.0000 14.6649 0.0000 -2.7569
# 5 27.2784 5.1256 29.8752 0.0000 34.5994 0.0000
# 6 0.0000 0.0000 0.0000 -2.7569 0.0000 15.0226
#
#
#
# Elastic Compliance Matrix: (Units=1/GPa)
#
#
# Indices 1 2 3 4 5 6 
#
# 1 0.015690 0.002504 -0.007979 0.000000 -0.005851 0.000000
# 2 0.002504 0.034613 0.008246 0.000000 -0.014221 0.000000
# 3 -0.007979 0.008246 0.026438 0.000000 -0.017759 0.000000
# 4 0.000000 0.000000 0.000000 0.070627 0.000000 0.012961
# 5 -0.005851 -0.014221 -0.017759 0.000000 0.050956 0.000000
# 6 0.000000 0.000000 0.000000 0.012961 0.000000 0.068945
#
#
# Mechanical properties :
#
#
# Convention : Reuss Voigt Hill
#
# Bulk Modulus (GPa) = 12.15337 30.98146 21.56741
# Shear Modulus (GPa) = 17.29174 24.74974 21.02074
#
# Velocity S-wave (km/s) = 3.11763 3.72984 3.43739
# Velocity P-wave (km/s) = 4.44869 5.99696 5.27989
#
# Compressibility (1/GPa) = 0.08228170
#
# Stress axis : x y z
#
# Youngs Moduli (GPa) = 63.73527 28.89089 37.82434
#
# Poissons Ratio (x) = -0.07234 0.30181
# Poissons Ratio (y) = -0.15959 -0.31189
# Poissons Ratio (z) = 0.50855 -0.23822
#
# Static dielectric constant tensor:
#      x y z
#    x 1.606080 0.000000 0.032900 
#    y 0.000000 1.668780 0.000000 
#    z 0.032900 0.000000 1.618950 
# 
# From -- ./inp_files/248342.got.cif
#   From: 2010.05.17/outbox.cif.g08.bks.cpg/sg12_125_cif.got.tgz:248342.got - 2010.06.03 13:09:07.
