data_PCOD9169317
_publ_section_title
;
Structure prediction by ZEFSAII (Michael W. Deem and Ramdas Pophale) SiO2 
 PCOD9169317
Probable space group: C 2/M
;
_chemical_formula_sum "Si O2"
_cell_formula_units_Z 56
_cell_length_a 5.382372
_cell_length_b 35.079986
_cell_length_c 17.454356
_cell_angle_alpha 90.000000
_cell_angle_beta 90.223939
_cell_angle_gamma 90.000000
_cell_volume 3295.593475
_symmetry_space_group_name_H-M "C 2/M"
_symmetry_group_IT_number 12
_symmetry_cell_setting 'monoclinic'
loop_
_space_group_symop_operation_xyz
x,y,z
-x,y,-z
-x,-y,-z
x,-y,z
1/2+x,1/2+y,z
1/2-x,1/2+y,-z
1/2-x,1/2-y,-z
1/2+x,1/2-y,z
loop_
_atom_site_type_symbol
_atom_site_label
_atom_site_fract_x
_atom_site_fract_y
_atom_site_fract_z
Si Si1 0.540470 0.790825 0.583400
Si Si2 0.005747 0.454274 0.645908
Si Si3 0.961407 0.237066 0.264311
Si Si4 0.994057 0.953480 0.911169
Si Si5 0.461033 0.669795 0.367762
Si Si6 0.507123 0.953660 0.175137
Si Si7 0.993081 0.914689 0.410389
O O1 0.500000 0.772558 0.500000
O O2 0.544127 0.761015 0.654014
O O3 0.797699 0.814057 0.587129
O O4 0.303112 0.818124 0.596281
O O5 0.011965 0.500000 0.640030
O O6 0.997310 0.443282 0.735696
O O7 0.256675 0.437206 0.610496
O O8 0.755076 0.438662 0.607015
O O9 0.208654 0.250990 0.224301
O O10 0.969016 0.193103 0.288038
O O11 0.241278 0.941003 0.866644
O O12 0.742019 0.941029 0.868714
O O13 0.993844 0.000000 0.910051
O O14 0.000000 0.941986 0.000000
O O15 0.480873 0.624731 0.363865
O O16 0.507574 0.000000 0.172597
O O17 0.000000 0.904592 0.500000
#
# Coordination Sequence:
#
# PCOD9169317 Si02
#       7
#     8   8   8   8   8   8   8
#     4  10  17  26  41  59  81 106 124 143 189 264
#     4  11  24  40  53  63  78 107 148 190 240 293
#     4   8  16  26  39  58  80 105 125 143 185 257
#     4   9  15  24  43  72  98 113 125 146 185 240
#     4  10  20  31  42  60  82  99 124 167 222 274
#     4   9  17  30  46  63  86 113 136 161 199 255
#     4  12  24  36  51  66  79 101 141 203 262 285
#
# _framework density 16.992386
#
# number of rings (size 3 to 8) (size 9 to 14) (size 15 to 20)
#    0.000    2.143    0.000    4.286    0.000   11.429 
#    0.000    0.000    0.000    0.000    0.000    0.000 
#    0.000    0.000    0.000    0.000    0.000    0.000 
#
# Total GULP energy -156175.578282 kJ/mol
# GULP energy per Si atom -5577.699224 kJ/mol
# Density = 1.695371 g / cm^3
# Si number density = 16.992386 Si / 1000 Ang^3
#
#
#
# Elastic Constant Matrix: (Units=GPa)
#
#
# Indices 1 2 3 4 5 6 
#
# 1 157.8675 30.3229 17.8208 0.0000 -5.4313 0.0000
# 2 30.3229 73.6090 0.8541 0.0000 -4.9446 0.0000
# 3 17.8208 0.8541 19.7472 0.0000 0.4057 0.0000
# 4 0.0000 0.0000 0.0000 -3.5704 0.0000 -0.2566
# 5 -5.4313 -4.9446 0.4057 0.0000 14.2716 0.0000
# 6 0.0000 0.0000 0.0000 -0.2566 0.0000 18.0127
#
#
#
# Elastic Compliance Matrix: (Units=1/GPa)
#
#
# Indices 1 2 3 4 5 6 
#
# 1 0.007759 -0.002974 -0.006917 0.000000 0.002119 0.000000
# 2 -0.002974 0.015058 0.001950 0.000000 0.004030 0.000000
# 3 -0.006917 0.001950 0.056872 0.000000 -0.003574 0.000000
# 4 0.000000 0.000000 0.000000 -0.279791 0.000000 -0.003986
# 5 0.002119 0.004030 -0.003574 0.000000 0.072374 0.000000
# 6 0.000000 0.000000 0.000000 -0.003986 0.000000 0.055459
#
#
# Mechanical properties :
#
#
# Convention : Reuss Voigt Hill
#
# Bulk Modulus (GPa) = 15.67237 38.80213 27.23725
# Shear Modulus (GPa) = -142.38613 19.22451 -61.58081
#
# Velocity S-wave (km/s) = -9.16384 3.36722 -6.02652
# Velocity P-wave (km/s) = 10.13532 6.16459 5.68870
#
# Compressibility (1/GPa) = 0.06380654
#
# Stress axis : x y z
#
# Youngs Moduli (GPa) = 128.87578 66.40796 17.58340
#
# Poissons Ratio (x) = 0.19749 0.12163
# Poissons Ratio (y) = 0.38325 -0.03428
# Poissons Ratio (z) = 0.89148 -0.12947
#
# Static dielectric constant tensor:
#      x y z
#    x 1.630010 0.000000 -0.000670 
#    y 0.000000 1.573250 0.000000 
#    z -0.000670 0.000000 1.560660 
# 
# From -- ./inp_files/192605.got.cif
#   From: 2010.05.17/outbox.cif.g08.bks.cpg/sg12_97_cif.got.tgz:192605.got - 2010.06.03 13:09:07.
