data_PCOD9169795
_publ_section_title
;
Structure prediction by ZEFSAII (Michael W. Deem and Ramdas Pophale) SiO2 
 PCOD9169795
Probable space group: C 2/M
;
_chemical_formula_sum "Si O2"
_cell_formula_units_Z 48
_cell_length_a 8.944592
_cell_length_b 19.158908
_cell_length_c 17.656573
_cell_angle_alpha 90.000000
_cell_angle_beta 137.445808
_cell_angle_gamma 90.000000
_cell_volume 2046.298082
_symmetry_space_group_name_H-M "C 2/M"
_symmetry_group_IT_number 12
_symmetry_cell_setting 'monoclinic'
loop_
_space_group_symop_operation_xyz
x,y,z
-x,y,-z
-x,-y,-z
x,-y,z
1/2+x,1/2+y,z
1/2-x,1/2+y,-z
1/2-x,1/2-y,-z
1/2+x,1/2-y,z
loop_
_atom_site_type_symbol
_atom_site_label
_atom_site_fract_x
_atom_site_fract_y
_atom_site_fract_z
Si Si1 0.501718 0.726820 0.108543
Si Si2 0.845588 0.630762 0.788723
Si Si3 0.537860 0.078656 0.629093
Si Si4 0.924533 0.156391 0.699306
Si Si5 0.773727 0.902926 0.878448
Si Si6 0.739854 0.197634 0.406644
O O1 0.617749 0.801059 0.147744
O O2 0.517412 0.688158 0.195809
O O3 0.650762 0.676434 0.111963
O O4 0.250000 0.750000 0.000000
O O5 0.612632 0.606277 0.734052
O O6 0.814444 0.662050 0.693802
O O7 0.074526 0.589627 0.864732
O O8 0.708035 0.110158 0.632300
O O9 0.675927 0.073607 0.760959
O O10 0.351715 0.138212 0.571369
O O11 0.459211 0.000000 0.583649
O O12 0.879507 0.227010 0.633138
O O13 0.000000 0.930694 0.000000
O O14 0.000000 0.209682 0.500000
#
# Coordination Sequence:
#
# PCOD9169795 Si02
#       6
#     8   8   8   8   8   8
#     4  10  17  28  48  81 119 155 191 244 294 342
#     4  10  19  31  52  85 119 150 199 249 298 350
#     4  10  23  42  60  84 125 164 195 245 312 371
#     4  10  21  35  56  89 123 155 200 252 305 352
#     4  10  19  33  52  80 115 161 209 243 287 354
#     4  10  21  39  65  90 116 154 204 254 302 365
#
# _framework density 23.456993000000001
#
# number of rings (size 3 to 8) (size 9 to 14) (size 15 to 20)
#    0.000    2.000    1.667    5.000    0.000    3.333 
#    0.000    3.333    0.000    4.500    0.000    0.000 
#    0.000    0.000    0.000    0.000    0.000    0.000 
#
# Total GULP energy -133837.326161 kJ/mol
# GULP energy per Si atom -5576.555257 kJ/mol
# Density = 2.340360 g / cm^3
# Si number density = 23.456993 Si / 1000 Ang^3
#
#
#
# Elastic Constant Matrix: (Units=GPa)
#
#
# Indices 1 2 3 4 5 6 
#
# 1 150.3174 46.0448 20.7087 0.0001 46.8748 0.0000
# 2 46.0448 99.0529 18.5154 0.0000 7.9519 0.0000
# 3 20.7087 18.5154 84.7913 0.0002 29.2775 0.0001
# 4 0.0001 0.0000 0.0002 -3.6769 0.0001 -1.3049
# 5 46.8748 7.9519 29.2775 0.0001 44.8388 0.0000
# 6 0.0000 0.0000 0.0001 -1.3049 0.0000 -3.0188
#
#
#
# Elastic Compliance Matrix: (Units=1/GPa)
#
#
# Indices 1 2 3 4 5 6 
#
# 1 0.012021 -0.005032 0.002833 0.000000 -0.013524 0.000000
# 2 -0.005032 0.012639 -0.003322 0.000000 0.005188 0.000000
# 3 0.002833 -0.003322 0.016328 0.000001 -0.013033 0.000000
# 4 0.000000 0.000000 0.000001 -0.321242 0.000000 0.138853
# 5 -0.013524 0.005188 -0.013033 0.000000 0.044030 0.000000
# 6 0.000000 0.000000 0.000000 0.138853 0.000000 -0.391272
#
#
# Mechanical properties :
#
#
# Convention : Reuss Voigt Hill
#
# Bulk Modulus (GPa) = 33.39523 56.07771 44.73647
# Shear Modulus (GPa) = -8.24441 24.22145 7.98852
#
# Velocity S-wave (km/s) = -1.87679 3.21688 1.84743
# Velocity P-wave (km/s) = 3.09375 6.14461 4.86454
#
# Compressibility (1/GPa) = 0.02994440
#
# Stress axis : x y z
#
# Youngs Moduli (GPa) = 83.18781 79.11904 61.24625
#
# Poissons Ratio (x) = 0.39811 -0.17348
# Poissons Ratio (y) = 0.41858 0.20349
# Poissons Ratio (z) = -0.23563 0.26287
#
# Static dielectric constant tensor:
#      x y z
#    x 1.966560 0.000000 0.022930 
#    y 0.000000 1.875630 0.000000 
#    z 0.022930 0.000000 2.062780 
# 
# From -- ./inp_files/301822.got.cif
#   From: 2010.05.17/outbox.cif.g08.bks.cpg/sg12_151_cif.got.tgz:301822.got - 2010.06.03 13:09:07.
