data_PCOD9169406
_publ_section_title
;
Structure prediction by ZEFSAII (Michael W. Deem and Ramdas Pophale) SiO2 
 PCOD9169406
Probable space group: C 2/M
;
_chemical_formula_sum "Si O2"
_cell_formula_units_Z 52
_cell_length_a 5.581815
_cell_length_b 31.297558
_cell_length_c 14.240627
_cell_angle_alpha 90.000000
_cell_angle_beta 85.134938
_cell_angle_gamma 90.000000
_cell_volume 2478.834316
_symmetry_space_group_name_H-M "C 2/M"
_symmetry_group_IT_number 12
_symmetry_cell_setting 'monoclinic'
loop_
_space_group_symop_operation_xyz
x,y,z
-x,y,-z
-x,-y,-z
x,-y,z
1/2+x,1/2+y,z
1/2-x,1/2+y,-z
1/2-x,1/2-y,-z
1/2+x,1/2-y,z
loop_
_atom_site_type_symbol
_atom_site_label
_atom_site_fract_x
_atom_site_fract_y
_atom_site_fract_z
Si Si1 0.068872 0.264986 0.891840
Si Si2 0.262253 0.500000 0.443233
Si Si3 0.795998 0.500000 0.257850
Si Si4 0.785819 0.090285 0.346291
Si Si5 0.340514 0.864657 0.122199
Si Si6 0.340282 0.406489 0.115376
Si Si7 0.679981 0.500000 0.859522
Si Si8 0.288037 0.097957 0.331750
O O1 0.809010 0.259795 0.849615
O O2 0.148707 0.314155 0.891772
O O3 0.000000 0.250166 0.000000
O O4 0.500000 0.500000 0.500000
O O5 0.276742 0.541797 0.380180
O O6 0.000000 0.500000 0.500000
O O7 0.563018 0.500000 0.196914
O O8 0.787120 0.546096 0.311516
O O9 0.056348 0.500000 0.198760
O O10 0.813856 0.091816 0.231649
O O11 0.526964 0.108645 0.380344
O O12 0.028751 0.109176 0.380367
O O13 0.604318 0.882234 0.087787
O O14 0.314358 0.877784 0.232366
O O15 0.098638 0.885402 0.088117
O O16 0.327159 0.455590 0.085575
#
# Coordination Sequence:
#
# PCOD9169406 Si02
#       8
#     8   4   4   8   8   8   4   8
#     4  10  21  37  55  74  98 130 159 185 227 291
#     4  12  23  31  38  56  86 133 180 206 229 262
#     4  12  14  23  36  62  92 108 141 178 234 286
#     4  10  17  29  39  54  82 114 158 205 236 266
#     4  10  18  30  47  72  94 112 158 201 234 285
#     4  10  18  28  46  71  90 120 155 205 253 268
#     4  12  15  24  36  64  94 111 140 178 232 284
#     4  10  17  26  45  66  84 115 151 203 254 267
#
# _framework density 20.977602999999998
#
# number of rings (size 3 to 8) (size 9 to 14) (size 15 to 20)
#    0.000    1.538    6.154    3.231    0.000    0.000 
#    0.000    0.000    0.000    0.000    0.000    5.923 
#    0.000    0.000    0.000    0.000    0.000  861.538 
#
# Total GULP energy -145122.647752 kJ/mol
# GULP energy per Si atom -5581.640298 kJ/mol
# Density = 2.092986 g / cm^3
# Si number density = 20.977603 Si / 1000 Ang^3
#
#
#
# Elastic Constant Matrix: (Units=GPa)
#
#
# Indices 1 2 3 4 5 6 
#
# 1 265.7335 44.9207 29.6145 0.0000 -5.9107 0.0000
# 2 44.9207 87.0345 -2.8335 0.0000 -3.3838 0.0000
# 3 29.6145 -2.8335 48.7522 0.0000 -4.1389 0.0000
# 4 0.0000 0.0000 0.0000 2.3476 0.0000 -0.4521
# 5 -5.9107 -3.3838 -4.1389 0.0000 26.5369 0.0000
# 6 0.0000 0.0000 0.0000 -0.4521 0.0000 29.0306
#
#
#
# Elastic Compliance Matrix: (Units=1/GPa)
#
#
# Indices 1 2 3 4 5 6 
#
# 1 0.004492 -0.002401 -0.002847 0.000000 0.000250 0.000000
# 2 -0.002401 0.012862 0.002331 0.000000 0.001469 0.000000
# 3 -0.002847 0.002331 0.022648 0.000000 0.003195 0.000000
# 4 0.000000 0.000000 0.000000 0.427255 0.000000 0.006654
# 5 0.000250 0.001469 0.003195 0.000000 0.038425 0.000000
# 6 0.000000 0.000000 0.000000 0.006654 0.000000 0.034550
#
#
# Mechanical properties :
#
#
# Convention : Reuss Voigt Hill
#
# Bulk Modulus (GPa) = 29.26770 60.54706 44.90738
# Shear Modulus (GPa) = 8.96933 33.57091 21.27012
#
# Velocity S-wave (km/s) = 2.07001 4.00474 3.18770
# Velocity P-wave (km/s) = 4.43795 7.09291 5.91628
#
# Compressibility (1/GPa) = 0.03416736
#
# Stress axis : x y z
#
# Youngs Moduli (GPa) = 222.62051 77.74781 44.15395
#
# Poissons Ratio (x) = 0.18670 0.12570
# Poissons Ratio (y) = 0.53459 -0.10292
# Poissons Ratio (z) = 0.63379 -0.18123
#
# Static dielectric constant tensor:
#      x y z
#    x 1.876270 0.000000 0.006830 
#    y 0.000000 1.700190 0.000000 
#    z 0.006830 0.000000 1.809160 
# 
# From -- ./inp_files/253480.got.cif
#   From: 2010.05.17/outbox.cif.g08.bks.cpg/sg12_127_cif.got.tgz:253480.got - 2010.06.03 13:09:07.
