data_PCOD9169480
_publ_section_title
;
Structure prediction by ZEFSAII (Michael W. Deem and Ramdas Pophale) SiO2 
 PCOD9169480
Probable space group: C 2/M
;
_chemical_formula_sum "Si O2"
_cell_formula_units_Z 64
_cell_length_a 28.264454
_cell_length_b 9.062680
_cell_length_c 17.427210
_cell_angle_alpha 90.000000
_cell_angle_beta 102.759423
_cell_angle_gamma 90.000000
_cell_volume 4353.775300
_symmetry_space_group_name_H-M "C 2/M"
_symmetry_group_IT_number 12
_symmetry_cell_setting 'monoclinic'
loop_
_space_group_symop_operation_xyz
x,y,z
-x,y,-z
-x,-y,-z
x,-y,z
1/2+x,1/2+y,z
1/2-x,1/2+y,-z
1/2-x,1/2-y,-z
1/2+x,1/2-y,z
loop_
_atom_site_type_symbol
_atom_site_label
_atom_site_fract_x
_atom_site_fract_y
_atom_site_fract_z
Si Si1 0.577833 0.324096 0.163820
Si Si2 0.452734 0.672333 0.597807
Si Si3 0.557644 0.169751 0.001513
Si Si4 0.034802 0.177453 0.839323
Si Si5 0.876984 0.675254 0.680043
Si Si6 0.697554 0.823325 0.478501
Si Si7 0.622386 0.326707 0.564367
Si Si8 0.939841 0.821031 0.322418
O O1 0.581765 0.500000 0.162316
O O2 0.522934 0.288592 0.174423
O O3 0.616056 0.256456 0.236910
O O4 0.581971 0.255674 0.080627
O O5 0.449943 0.500000 0.622823
O O6 0.422315 0.772229 0.644707
O O7 0.425422 0.679888 0.507044
O O8 0.508763 0.715627 0.619403
O O9 0.561343 0.247962 0.920649
O O10 0.573368 0.000000 0.004305
O O11 0.500000 0.171718 0.000000
O O12 0.055524 0.225797 0.764343
O O13 0.038887 0.000000 0.846499
O O14 0.877956 0.500000 0.691429
O O15 0.830399 0.714097 0.611182
O O16 0.750000 0.750000 0.500000
O O17 0.836072 0.737842 0.464691
O O18 0.700875 0.000000 0.484468
O O19 0.636406 0.500000 0.573727
O O20 0.604844 0.270490 0.641078
O O21 0.936906 0.000000 0.321433
#
# Coordination Sequence:
#
# PCOD9169480 Si02
#       8
#     8   8   8   8   8   8   8   8
#     4  10  17  27  43  61  83 114 151 186 217 256
#     4   9  15  26  41  60  85 117 152 181 210 250
#     4   9  17  27  38  55  81 114 151 187 223 257
#     4   9  16  26  39  57  84 118 155 186 213 248
#     4  10  19  29  43  65  89 113 143 183 226 264
#     4  10  21  36  51  66  87 113 144 183 228 272
#     4   9  17  28  46  66  86 113 147 183 220 259
#     4   9  15  25  41  63  88 117 152 185 211 248
#
# _framework density 14.699885
#
# number of rings (size 3 to 8) (size 9 to 14) (size 15 to 20)
#    0.000    2.625    1.250    1.875    0.000    5.000 
#    0.000    1.250    0.000    3.000    0.000    0.000 
#    0.000    1.000    0.000    3.000    0.000    4.000 
#
# Total GULP energy -178256.871048 kJ/mol
# GULP energy per Si atom -5570.527220 kJ/mol
# Density = 1.466643 g / cm^3
# Si number density = 14.699885 Si / 1000 Ang^3
#
#
#
# Elastic Constant Matrix: (Units=GPa)
#
#
# Indices 1 2 3 4 5 6 
#
# 1 72.0434 34.2803 59.1027 0.0000 0.1117 0.0000
# 2 34.2803 48.9275 49.9545 0.0000 3.5926 0.0000
# 3 59.1027 49.9545 111.6816 0.0000 -6.0937 0.0000
# 4 0.0000 0.0000 0.0000 22.1466 0.0000 3.6445
# 5 0.1117 3.5926 -6.0937 0.0000 13.8670 0.0000
# 6 0.0000 0.0000 0.0000 3.6445 0.0000 11.3214
#
#
#
# Elastic Compliance Matrix: (Units=1/GPa)
#
#
# Indices 1 2 3 4 5 6 
#
# 1 0.026129 -0.006950 -0.010893 0.000000 -0.003197 0.000000
# 2 -0.006950 0.044161 -0.017106 0.000000 -0.018902 0.000000
# 3 -0.010893 -0.017106 0.023173 0.000000 0.014703 0.000000
# 4 0.000000 0.000000 0.000000 0.047679 0.000000 -0.015348
# 5 -0.003197 -0.018902 0.014703 0.000000 0.083497 0.000000
# 6 0.000000 0.000000 0.000000 -0.015348 0.000000 0.093269
#
#
# Mechanical properties :
#
#
# Convention : Reuss Voigt Hill
#
# Bulk Modulus (GPa) = 42.43893 57.70306 50.07100
# Shear Modulus (GPa) = 12.63699 15.42135 14.02917
#
# Velocity S-wave (km/s) = 2.93519 3.24246 3.09264
# Velocity P-wave (km/s) = 6.35767 7.30461 6.84753
#
# Compressibility (1/GPa) = 0.02356327
#
# Stress axis : x y z
#
# Youngs Moduli (GPa) = 38.27112 22.64425 43.15420
#
# Poissons Ratio (x) = 0.15738 0.47010
# Poissons Ratio (y) = 0.26599 0.73821
# Poissons Ratio (z) = 0.41691 0.38736
#
# Static dielectric constant tensor:
#      x y z
#    x 1.456480 0.000000 -0.004010 
#    y 0.000000 1.491000 0.000000 
#    z -0.004010 0.000000 1.508780 
# 
# From -- ./inp_files/244126.got.cif
#   From: 2010.05.17/outbox.cif.g08.bks.cpg/sg12_123_cif.got.tgz:244126.got - 2010.06.03 13:09:07.
