data_PCOD9169000
_publ_section_title
;
Structure prediction by ZEFSAII (Michael W. Deem and Ramdas Pophale) SiO2 
 PCOD9169000
Probable space group: C 2/M
;
_chemical_formula_sum "Si O2"
_cell_formula_units_Z 52
_cell_length_a 14.458776
_cell_length_b 23.297490
_cell_length_c 12.982165
_cell_angle_alpha 90.000000
_cell_angle_beta 43.799833
_cell_angle_gamma 90.000000
_cell_volume 3026.790821
_symmetry_space_group_name_H-M "C 2/M"
_symmetry_group_IT_number 12
_symmetry_cell_setting 'monoclinic'
loop_
_space_group_symop_operation_xyz
x,y,z
-x,y,-z
-x,-y,-z
x,-y,z
1/2+x,1/2+y,z
1/2-x,1/2+y,-z
1/2-x,1/2-y,-z
1/2+x,1/2-y,z
loop_
_atom_site_type_symbol
_atom_site_label
_atom_site_fract_x
_atom_site_fract_y
_atom_site_fract_z
Si Si1 0.800099 0.674420 0.986571
Si Si2 0.852401 0.934171 0.570629
Si Si3 0.500000 0.250605 0.500000
Si Si4 0.151022 0.432307 0.918159
Si Si5 0.334973 0.323542 0.468246
Si Si6 0.743971 0.768337 0.180255
Si Si7 0.414062 0.760372 0.240400
O O1 0.735445 0.685124 0.926556
O O2 0.942801 0.708651 0.873587
O O3 0.819858 0.610322 0.010925
O O4 0.716578 0.709554 0.139070
O O5 0.748883 0.917767 0.744336
O O6 0.841410 0.890529 0.485449
O O7 0.000000 0.930901 0.500000
O O8 0.825341 0.000000 0.563400
O O9 0.420672 0.291281 0.486393
O O10 0.388428 0.215364 0.650327
O O11 0.168424 0.500000 0.928463
O O12 0.000000 0.423351 0.000000
O O13 0.395536 0.300255 0.313659
O O14 0.185371 0.301061 0.612752
O O15 0.857132 0.751445 0.171784
#
# Coordination Sequence:
#
# PCOD9169000 Si02
#       7
#     8   8   4   8   8   8   8
#     4  11  20  34  50  76 102 135 167 215 251 307
#     4  10  20  32  50  76 102 134 171 210 253 308
#     4  10  16  32  45  70  97 132 156 200 246 306
#     4  10  20  34  52  74 103 136 171 212 260 305
#     4  10  18  30  51  70 102 132 164 204 255 303
#     4  10  21  30  49  72 103 129 167 204 255 301
#     4  10  20  32  48  76 100 134 168 206 258 304
#
# _framework density 17.179912999999999
#
# number of rings (size 3 to 8) (size 9 to 14) (size 15 to 20)
#    0.000    1.846    2.308    4.154    0.000    0.000 
#    0.000    0.000    0.000    0.923    0.000    0.538 
#    0.000    7.692    0.000    0.000    0.000    0.000 
#
# Total GULP energy -144982.662538 kJ/mol
# GULP energy per Si atom -5576.256251 kJ/mol
# Density = 1.714081 g / cm^3
# Si number density = 17.179913 Si / 1000 Ang^3
#
#
#
# Elastic Constant Matrix: (Units=GPa)
#
#
# Indices 1 2 3 4 5 6 
#
# 1 37.2473 5.2182 18.1472 0.0000 6.0639 0.0000
# 2 5.2182 82.1564 17.1738 0.0000 15.2053 0.0000
# 3 18.1472 17.1738 77.1258 0.0000 -1.3703 0.0000
# 4 0.0000 0.0000 0.0000 17.6652 0.0000 19.1239
# 5 6.0639 15.2053 -1.3703 0.0000 36.2015 0.0000
# 6 0.0000 0.0000 0.0000 19.1239 0.0000 11.4885
#
#
#
# Elastic Compliance Matrix: (Units=1/GPa)
#
#
# Indices 1 2 3 4 5 6 
#
# 1 0.031431 0.000684 -0.007652 0.000000 -0.005842 0.000000
# 2 0.000684 0.013965 -0.003379 0.000000 -0.006108 0.000000
# 3 -0.007652 -0.003379 0.015577 0.000000 0.003291 0.000000
# 4 0.000000 0.000000 0.000000 -0.070577 0.000000 0.117484
# 5 -0.005842 -0.006108 0.003291 0.000000 0.031292 0.000000
# 6 0.000000 0.000000 0.000000 0.117484 0.000000 -0.108522
#
#
# Mechanical properties :
#
#
# Convention : Reuss Voigt Hill
#
# Bulk Modulus (GPa) = 24.82615 30.84531 27.83573
# Shear Modulus (GPa) = -94.84995 23.47038 -35.68978
#
# Velocity S-wave (km/s) = -7.43839 3.70016 -4.56281
# Velocity P-wave (km/s) = 7.70005 6.02065 3.39431
#
# Compressibility (1/GPa) = 0.04028012
#
# Stress axis : x y z
#
# Youngs Moduli (GPa) = 31.81607 71.60589 64.19670
#
# Poissons Ratio (x) = -0.04900 0.49121
# Poissons Ratio (y) = -0.02177 0.21694
# Poissons Ratio (z) = 0.24344 0.24197
#
# Static dielectric constant tensor:
#      x y z
#    x 1.616560 0.000000 -0.023340 
#    y 0.000000 1.581300 0.000000 
#    z -0.023340 0.000000 1.636890 
# 
# From -- ./inp_files/148575.got.cif
#   From: 2010.05.17/outbox.cif.g08.bks.cpg/sg12_75_cif.got.tgz:148575.got - 2010.06.03 13:09:07.
