data_PCOD9169355
_publ_section_title
;
Structure prediction by ZEFSAII (Michael W. Deem and Ramdas Pophale) SiO2 
 PCOD9169355
Probable space group: C 2/M
;
_chemical_formula_sum "Si O2"
_cell_formula_units_Z 64
_cell_length_a 32.069055
_cell_length_b 7.652011
_cell_length_c 15.004723
_cell_angle_alpha 90.000000
_cell_angle_beta 89.583246
_cell_angle_gamma 90.000000
_cell_volume 3681.953011
_symmetry_space_group_name_H-M "C 2/M"
_symmetry_group_IT_number 12
_symmetry_cell_setting 'monoclinic'
loop_
_space_group_symop_operation_xyz
x,y,z
-x,y,-z
-x,-y,-z
x,-y,z
1/2+x,1/2+y,z
1/2-x,1/2+y,-z
1/2-x,1/2-y,-z
1/2+x,1/2-y,z
loop_
_atom_site_type_symbol
_atom_site_label
_atom_site_fract_x
_atom_site_fract_y
_atom_site_fract_z
Si Si1 0.754429 0.292353 0.395009
Si Si2 0.549312 0.787283 0.902282
Si Si3 0.082628 0.710488 0.285109
Si Si4 0.451623 0.787143 0.900175
Si Si5 0.423454 0.205558 0.285007
Si Si6 0.664200 0.290894 0.394094
Si Si7 0.346079 0.702090 0.404321
Si Si8 0.502085 0.214296 0.397643
O O1 0.757704 0.500000 0.382107
O O2 0.750000 0.250000 0.500000
O O3 0.709673 0.228012 0.359630
O O4 0.799041 0.216235 0.367640
O O5 0.500553 0.742666 0.887875
O O6 0.574875 0.724536 0.815999
O O7 0.551350 0.000000 0.906211
O O8 0.561570 0.726063 0.001090
O O9 0.080382 0.500000 0.282930
O O10 0.074413 0.774038 0.184622
O O11 0.126431 0.756931 0.328593
O O12 0.044389 0.770485 0.348072
O O13 0.449986 0.000000 0.900338
O O14 0.380433 0.221435 0.338348
O O15 0.461677 0.275794 0.343607
O O16 0.432350 0.000000 0.275935
O O17 0.668877 0.500000 0.404267
O O18 0.654437 0.221617 0.494549
O O19 0.357252 0.500000 0.412912
O O20 0.500000 0.270761 0.500000
O O21 0.501970 0.000000 0.398087
#
# Coordination Sequence:
#
# PCOD9169355 Si02
#       8
#     8   8   8   8   8   8   8   8
#     4   9  17  31  49  67  88 115 148 185 223 264
#     4   8  13  23  41  63  88 114 145 189 231 262
#     4  10  17  26  43  66  88 116 153 186 217 256
#     4   8  13  23  40  64  89 112 145 191 230 257
#     4  10  17  27  44  65  87 118 154 184 222 264
#     4   9  19  32  44  62  90 119 145 176 219 266
#     4  10  20  32  45  64  91 120 150 185 223 265
#     4   9  16  24  35  57  88 117 149 185 211 241
#
# _framework density 17.382079999999998
#
# number of rings (size 3 to 8) (size 9 to 14) (size 15 to 20)
#    0.000    2.875    1.250    3.000    0.000    4.000 
#    0.000    0.625    0.000    3.000    0.000    2.625 
#    0.000    0.000    0.000    0.000    0.000    0.000 
#
# Total GULP energy -178267.322490 kJ/mol
# GULP energy per Si atom -5570.853828 kJ/mol
# Density = 1.734252 g / cm^3
# Si number density = 17.382080 Si / 1000 Ang^3
#
#
#
# Elastic Constant Matrix: (Units=GPa)
#
#
# Indices 1 2 3 4 5 6 
#
# 1 116.3731 -12.0276 69.0767 0.0000 14.5629 0.0000
# 2 -12.0276 26.0452 1.2299 0.0000 0.5339 0.0000
# 3 69.0767 1.2299 136.7780 0.0000 12.0258 0.0000
# 4 0.0000 0.0000 0.0000 1.8640 0.0000 2.7458
# 5 14.5629 0.5339 12.0258 0.0000 10.8128 0.0000
# 6 0.0000 0.0000 0.0000 2.7458 0.0000 12.6826
#
#
#
# Elastic Compliance Matrix: (Units=1/GPa)
#
#
# Indices 1 2 3 4 5 6 
#
# 1 0.014796 0.007405 -0.006379 0.000000 -0.013200 0.000000
# 2 0.007405 0.042144 -0.003390 0.000000 -0.008283 0.000000
# 3 -0.006379 -0.003390 0.010854 0.000000 -0.003314 0.000000
# 4 0.000000 0.000000 0.000000 0.787713 0.000000 -0.170539
# 5 -0.013200 -0.008283 -0.003314 0.000000 0.114355 0.000000
# 6 0.000000 0.000000 0.000000 -0.170539 0.000000 0.115769
#
#
# Mechanical properties :
#
#
# Convention : Reuss Voigt Hill
#
# Bulk Modulus (GPa) = 15.85626 43.97271 29.91448
# Shear Modulus (GPa) = 4.49890 19.79969 12.14929
#
# Velocity S-wave (km/s) = 1.61055 3.37870 2.64664
# Velocity P-wave (km/s) = 3.54971 6.36973 5.15625
#
# Compressibility (1/GPa) = 0.06306658
#
# Stress axis : x y z
#
# Youngs Moduli (GPa) = 67.58419 23.72805 92.12905
#
# Poissons Ratio (x) = -0.17570 0.58766
# Poissons Ratio (y) = -0.50044 0.31234
# Poissons Ratio (z) = 0.43109 0.08044
#
# Static dielectric constant tensor:
#      x y z
#    x 1.586480 0.000000 0.004860 
#    y 0.000000 1.686410 0.000000 
#    z 0.004860 0.000000 1.603200 
# 
# From -- ./inp_files/248392.got.cif
#   From: 2010.05.17/outbox.cif.g08.bks.cpg/sg12_125_cif.got.tgz:248392.got - 2010.06.03 13:09:07.
