data_PCOD9169253
_publ_section_title
;
Structure prediction by ZEFSAII (Michael W. Deem and Ramdas Pophale) SiO2 
 PCOD9169253
Probable space group: C 2/M
;
_chemical_formula_sum "Si O2"
_cell_formula_units_Z 64
_cell_length_a 28.126531
_cell_length_b 8.745185
_cell_length_c 20.052785
_cell_angle_alpha 90.000000
_cell_angle_beta 59.391980
_cell_angle_gamma 90.000000
_cell_volume 4245.187938
_symmetry_space_group_name_H-M "C 2/M"
_symmetry_group_IT_number 12
_symmetry_cell_setting 'monoclinic'
loop_
_space_group_symop_operation_xyz
x,y,z
-x,y,-z
-x,-y,-z
x,-y,z
1/2+x,1/2+y,z
1/2-x,1/2+y,-z
1/2-x,1/2-y,-z
1/2+x,1/2-y,z
loop_
_atom_site_type_symbol
_atom_site_label
_atom_site_fract_x
_atom_site_fract_y
_atom_site_fract_z
Si Si1 0.972915 0.682011 0.175081
Si Si2 0.636275 0.185187 0.669283
Si Si3 0.802908 0.683646 0.500533
Si Si4 0.743332 0.316250 0.670474
Si Si5 0.585090 0.681705 0.909718
Si Si6 0.415181 0.681846 0.934448
Si Si7 0.793940 0.682812 0.172947
Si Si8 0.205602 0.682404 0.981234
O O1 0.978053 0.500000 0.175058
O O2 0.923249 0.731326 0.259776
O O3 0.951985 0.730889 0.116786
O O4 0.032647 0.756059 0.143414
O O5 0.646474 0.225892 0.584147
O O6 0.686299 0.258566 0.676244
O O7 0.640758 0.000000 0.673265
O O8 0.799795 0.500000 0.501883
O O9 0.750000 0.750000 0.500000
O O10 0.792971 0.728812 0.584356
O O11 0.741263 0.500000 0.677711
O O12 0.746725 0.240949 0.740609
O O13 0.578794 0.500000 0.904171
O O14 0.648025 0.733924 0.853950
O O15 0.573304 0.716756 0.995437
O O16 0.411084 0.500000 0.930957
O O17 0.355910 0.754755 0.961001
O O18 0.801354 0.500000 0.172712
O O19 0.779747 0.720748 0.106454
O O20 0.204704 0.500000 0.987284
O O21 0.250000 0.750000 0.000000
#
# Coordination Sequence:
#
# PCOD9169253 Si02
#       8
#     8   8   8   8   8   8   8   8
#     4  11  20  28  42  63  89 121 154 187 221 261
#     4   9  17  28  40  56  85 122 155 187 224 260
#     4   8  15  26  38  55  80 114 153 188 221 256
#     4  10  17  25  41  62  85 115 153 191 221 257
#     4  10  19  30  43  60  85 117 152 188 222 256
#     4  10  21  34  47  64  87 116 149 185 223 262
#     4  10  19  30  45  66  90 117 147 181 223 268
#     4  10  21  37  55  71  89 113 143 181 227 274
#
# _framework density 15.075893000000001
#
# number of rings (size 3 to 8) (size 9 to 14) (size 15 to 20)
#    0.000    2.250    1.250    2.625    0.000    5.500 
#    0.000    0.000    0.000    0.000    0.000    0.000 
#    0.000    1.000    0.000   11.500    0.000    2.875 
#
# Total GULP energy -178309.425218 kJ/mol
# GULP energy per Si atom -5572.169538 kJ/mol
# Density = 1.504158 g / cm^3
# Si number density = 15.075893 Si / 1000 Ang^3
#
#
#
# Elastic Constant Matrix: (Units=GPa)
#
#
# Indices 1 2 3 4 5 6 
#
# 1 66.8828 21.4283 57.0520 0.0000 -3.4886 -0.0001
# 2 21.4283 19.9440 35.8347 0.0000 -5.6744 -0.0004
# 3 57.0520 35.8347 112.0080 0.0000 -11.8306 0.0000
# 4 0.0000 0.0000 0.0000 21.4458 0.0000 -0.4787
# 5 -3.4886 -5.6744 -11.8306 0.0000 12.1189 0.0000
# 6 -0.0001 -0.0004 0.0000 -0.4787 0.0000 21.2024
#
#
#
# Elastic Compliance Matrix: (Units=1/GPa)
#
#
# Indices 1 2 3 4 5 6 
#
# 1 0.028070 -0.012455 -0.011233 0.000000 -0.008718 0.000000
# 2 -0.012455 0.128211 -0.032013 0.000000 0.025195 0.000002
# 3 -0.011233 -0.032013 0.025607 0.000000 0.006775 -0.000001
# 4 0.000000 0.000000 0.000000 0.046653 0.000000 0.001053
# 5 -0.008718 0.025195 0.006775 0.000000 0.098417 0.000000
# 6 0.000000 0.000002 -0.000001 0.001053 0.000000 0.047188
#
#
# Mechanical properties :
#
#
# Convention : Reuss Voigt Hill
#
# Bulk Modulus (GPa) = 14.18751 47.49607 30.84179
# Shear Modulus (GPa) = 9.82232 16.58807 13.20520
#
# Velocity S-wave (km/s) = 2.55527 3.32068 2.96280
# Velocity P-wave (km/s) = 4.25876 6.80262 5.67506
#
# Compressibility (1/GPa) = 0.07048452
#
# Stress axis : x y z
#
# Youngs Moduli (GPa) = 35.62582 7.79964 39.05131
#
# Poissons Ratio (x) = 0.09714 0.43868
# Poissons Ratio (y) = 0.44372 1.25016
# Poissons Ratio (z) = 0.40020 0.24969
#
# Static dielectric constant tensor:
#      x y z
#    x 1.457040 0.000000 -0.001380 
#    y 0.000000 1.504470 0.000000 
#    z -0.001380 0.000000 1.569110 
# 
# From -- ./inp_files/323640.got.cif
#   From: 2010.05.17/outbox.cif.g08.bks.cpg/sg12_162_cif.got.tgz:323640.got - 2010.06.03 13:09:07.
