data_PCOD9169263
_publ_section_title
;
Structure prediction by ZEFSAII (Michael W. Deem and Ramdas Pophale) SiO2 
 PCOD9169263
Probable space group: C 2/M
;
_chemical_formula_sum "Si O2"
_cell_formula_units_Z 48
_cell_length_a 20.749591
_cell_length_b 8.785595
_cell_length_c 17.039532
_cell_angle_alpha 90.000000
_cell_angle_beta 115.297771
_cell_angle_gamma 90.000000
_cell_volume 2808.370841
_symmetry_space_group_name_H-M "C 2/M"
_symmetry_group_IT_number 12
_symmetry_cell_setting 'monoclinic'
loop_
_space_group_symop_operation_xyz
x,y,z
-x,y,-z
-x,-y,-z
x,-y,z
1/2+x,1/2+y,z
1/2-x,1/2+y,-z
1/2-x,1/2-y,-z
1/2+x,1/2-y,z
loop_
_atom_site_type_symbol
_atom_site_label
_atom_site_fract_x
_atom_site_fract_y
_atom_site_fract_z
Si Si1 0.552851 0.318422 0.955605
Si Si2 0.291096 0.819209 0.946612
Si Si3 0.181887 0.681265 0.774122
Si Si4 0.962187 0.818362 0.593932
Si Si5 0.971773 0.318257 0.225305
Si Si6 0.102331 0.682390 0.581239
O O1 0.558711 0.500000 0.948157
O O2 0.630314 0.250349 0.014022
O O3 0.500000 0.287292 0.000000
O O4 0.525142 0.244925 0.860589
O O5 0.245289 0.772542 0.846875
O O6 0.295051 0.000000 0.957136
O O7 0.250000 0.750000 0.000000
O O8 0.194540 0.500000 0.789229
O O9 0.107950 0.715402 0.782203
O O10 0.166970 0.714045 0.674601
O O11 0.899325 0.750564 0.506890
O O12 0.970895 0.757636 0.686614
O O13 0.034081 0.755401 0.589579
O O14 0.960960 0.000000 0.591017
O O15 0.979971 0.500000 0.231729
O O16 0.092790 0.500000 0.573086
#
# Coordination Sequence:
#
# PCOD9169263 Si02
#       6
#     8   8   8   8   8   8
#     4  11  24  40  57  78 106 139 178 224 270 318
#     4  12  23  35  55  79 107 141 179 221 265 317
#     4   9  18  31  49  74 103 136 174 217 263 310
#     4  10  17  25  41  66  99 134 170 211 258 311
#     4  10  19  32  51  73 101 138 176 215 261 314
#     4   9  16  27  42  64  98 134 170 211 259 312
#
# _framework density 17.091761000000002
#
# number of rings (size 3 to 8) (size 9 to 14) (size 15 to 20)
#    0.000    1.833    1.667    6.500    0.000    4.667 
#    0.000    0.000    0.000    0.000    0.000    1.167 
#    0.000    0.000    0.000    0.000    0.000    0.000 
#
# Total GULP energy -133886.972372 kJ/mol
# GULP energy per Si atom -5578.623849 kJ/mol
# Density = 1.705286 g / cm^3
# Si number density = 17.091761 Si / 1000 Ang^3
#
#
#
# Elastic Constant Matrix: (Units=GPa)
#
#
# Indices 1 2 3 4 5 6 
#
# 1 50.8026 42.0559 44.7929 0.0000 2.6539 0.0000
# 2 42.0559 104.7229 81.6232 0.0000 0.8097 0.0000
# 3 44.7929 81.6232 180.8526 0.0000 9.0322 0.0000
# 4 0.0000 0.0000 0.0000 37.3256 0.0000 2.5466
# 5 2.6539 0.8097 9.0322 0.0000 11.6427 0.0000
# 6 0.0000 0.0000 0.0000 2.5466 0.0000 16.2676
#
#
#
# Elastic Compliance Matrix: (Units=1/GPa)
#
#
# Indices 1 2 3 4 5 6 
#
# 1 0.030782 -0.010100 -0.002861 0.000000 -0.004095 0.000000
# 2 -0.010100 0.018255 -0.006022 0.000000 0.005705 0.000000
# 3 -0.002861 -0.006022 0.009261 0.000000 -0.006114 0.000000
# 4 0.000000 0.000000 0.000000 0.027080 0.000000 -0.004239
# 5 -0.004095 0.005705 -0.006114 0.000000 0.091170 0.000000
# 6 0.000000 0.000000 0.000000 -0.004239 0.000000 0.062135
#
#
# Mechanical properties :
#
#
# Convention : Reuss Voigt Hill
#
# Bulk Modulus (GPa) = 49.18554 74.81358 61.99956
# Shear Modulus (GPa) = 17.64120 24.24094 20.94107
#
# Velocity S-wave (km/s) = 3.21619 3.77009 3.50410
# Velocity P-wave (km/s) = 6.52929 7.92579 7.26119
#
# Compressibility (1/GPa) = 0.02033118
#
# Stress axis : x y z
#
# Youngs Moduli (GPa) = 32.48695 54.77997 107.97660
#
# Poissons Ratio (x) = 0.55328 0.30892
# Poissons Ratio (y) = 0.32812 0.65026
# Poissons Ratio (z) = 0.09294 0.32990
#
# Static dielectric constant tensor:
#      x y z
#    x 1.544040 0.000000 0.006320 
#    y 0.000000 1.565580 0.000000 
#    z 0.006320 0.000000 1.637090 
# 
# From -- ./inp_files/230375.got.cif
#   From: 2010.05.17/outbox.cif.g08.bks.cpg/sg12_116_cif.got.tgz:230375.got - 2010.06.03 13:09:07.
