data_PCOD9169316
_publ_section_title
;
Structure prediction by ZEFSAII (Michael W. Deem and Ramdas Pophale) SiO2 
 PCOD9169316
Probable space group: C 2/M
;
_chemical_formula_sum "Si O2"
_cell_formula_units_Z 64
_cell_length_a 33.166480
_cell_length_b 9.230026
_cell_length_c 14.520634
_cell_angle_alpha 90.000000
_cell_angle_beta 82.137645
_cell_angle_gamma 90.000000
_cell_volume 4403.378458
_symmetry_space_group_name_H-M "C 2/M"
_symmetry_group_IT_number 12
_symmetry_cell_setting 'monoclinic'
loop_
_space_group_symop_operation_xyz
x,y,z
-x,y,-z
-x,-y,-z
x,-y,z
1/2+x,1/2+y,z
1/2-x,1/2+y,-z
1/2-x,1/2-y,-z
1/2+x,1/2-y,z
loop_
_atom_site_type_symbol
_atom_site_label
_atom_site_fract_x
_atom_site_fract_y
_atom_site_fract_z
Si Si1 0.541203 0.666747 0.549225
Si Si2 0.617256 0.671135 0.044947
Si Si3 0.306315 0.832824 0.051395
Si Si4 0.505948 0.828985 0.285237
Si Si5 0.153845 0.828462 0.239148
Si Si6 0.087764 0.671596 0.380658
Si Si7 0.531336 0.826880 0.072423
Si Si8 0.769107 0.332650 0.855238
O O1 0.500000 0.668884 0.500000
O O2 0.553676 0.500000 0.555792
O O3 0.527616 0.738705 0.649034
O O4 0.573783 0.758476 0.481297
O O5 0.616695 0.500000 0.026371
O O6 0.631436 0.690341 0.147013
O O7 0.573296 0.742044 0.046951
O O8 0.651052 0.750525 0.972349
O O9 0.273900 0.748883 0.124528
O O10 0.311306 0.000000 0.077440
O O11 0.287051 0.832837 0.954136
O O12 0.549327 0.808254 0.323192
O O13 0.511809 0.788194 0.177247
O O14 0.496321 0.000000 0.294515
O O15 0.125995 0.751975 0.323887
O O16 0.197642 0.752811 0.214847
O O17 0.157734 0.000000 0.254287
O O18 0.094780 0.500000 0.386931
O O19 0.539877 0.000000 0.072378
O O20 0.500000 0.798510 0.000000
O O21 0.764955 0.500000 0.828378
#
# Coordination Sequence:
#
# PCOD9169316 Si02
#       8
#     8   8   8   8   8   8   8   8
#     4   9  17  27  40  58  79 102 131 167 206 248
#     4  10  19  29  42  58  78 105 138 175 213 250
#     4   9  16  26  40  55  75 102 135 170 204 244
#     4   9  17  29  43  58  77 103 136 172 210 251
#     4  10  18  26  38  57  82 110 139 170 205 244
#     4  10  17  26  41  59  80 107 138 171 205 245
#     4  10  20  33  47  62  81 107 141 180 219 255
#     4   9  16  25  37  55  78 104 135 168 202 240
#
# _framework density 14.534295
#
# number of rings (size 3 to 8) (size 9 to 14) (size 15 to 20)
#    0.000    2.500    1.250    2.250    0.000    6.750 
#    0.000    0.000    0.000    0.000    0.000    0.000 
#    0.000    0.000    0.000    1.125    0.000   14.250 
#
# Total GULP energy -178353.405927 kJ/mol
# GULP energy per Si atom -5573.543935 kJ/mol
# Density = 1.450121 g / cm^3
# Si number density = 14.534295 Si / 1000 Ang^3
#
#
#
# Elastic Constant Matrix: (Units=GPa)
#
#
# Indices 1 2 3 4 5 6 
#
# 1 76.1755 72.4690 59.5693 0.0000 -33.2214 0.0000
# 2 72.4690 122.5272 66.0356 0.0000 -35.9516 0.0000
# 3 59.5693 66.0356 79.4110 0.0000 -30.4841 0.0000
# 4 0.0000 0.0000 0.0000 20.4850 0.0000 -11.5752
# 5 -33.2214 -35.9516 -30.4841 0.0000 30.8277 0.0000
# 6 0.0000 0.0000 0.0000 -11.5752 0.0000 23.4145
#
#
#
# Elastic Compliance Matrix: (Units=1/GPa)
#
#
# Indices 1 2 3 4 5 6 
#
# 1 0.047401 -0.013201 -0.017538 0.000000 0.018344 0.000000
# 2 -0.013201 0.019874 -0.005138 0.000000 0.003870 0.000000
# 3 -0.017538 -0.005138 0.032988 0.000000 0.007728 0.000000
# 4 0.000000 0.000000 0.000000 0.067738 0.000000 0.033487
# 5 0.018344 0.003870 0.007728 0.000000 0.064363 0.000000
# 6 0.000000 0.000000 0.000000 0.033487 0.000000 0.059263
#
#
# Mechanical properties :
#
#
# Convention : Reuss Voigt Hill
#
# Bulk Modulus (GPa) = 35.07696 74.91796 54.99746
# Shear Modulus (GPa) = 13.40891 20.28140 16.84516
#
# Velocity S-wave (km/s) = 3.04068 3.73958 3.40809
# Velocity P-wave (km/s) = 6.04268 8.38472 7.30813
#
# Compressibility (1/GPa) = 0.02850874
#
# Stress axis : x y z
#
# Youngs Moduli (GPa) = 21.09651 50.31656 30.31361
#
# Poissons Ratio (x) = 0.66423 0.53164
# Poissons Ratio (y) = 0.27850 0.15576
# Poissons Ratio (z) = 0.36999 0.25855
#
# Static dielectric constant tensor:
#      x y z
#    x 1.451580 0.000000 -0.015600 
#    y 0.000000 1.484960 0.000000 
#    z -0.015600 0.000000 1.460450 
# 
# From -- ./inp_files/248235.got.cif
#   From: 2010.05.17/outbox.cif.g08.bks.cpg/sg12_125_cif.got.tgz:248235.got - 2010.06.03 13:09:07.
