data_PCOD9169349
_publ_section_title
;
Structure prediction by ZEFSAII (Michael W. Deem and Ramdas Pophale) SiO2 
 PCOD9169349
Probable space group: C 2/M
;
_chemical_formula_sum "Si O2"
_cell_formula_units_Z 56
_cell_length_a 15.302927
_cell_length_b 21.080765
_cell_length_c 7.641955
_cell_angle_alpha 90.000000
_cell_angle_beta 116.062461
_cell_angle_gamma 90.000000
_cell_volume 2214.594932
_symmetry_space_group_name_H-M "C 2/M"
_symmetry_group_IT_number 12
_symmetry_cell_setting 'monoclinic'
loop_
_space_group_symop_operation_xyz
x,y,z
-x,y,-z
-x,-y,-z
x,-y,z
1/2+x,1/2+y,z
1/2-x,1/2+y,-z
1/2-x,1/2-y,-z
1/2+x,1/2-y,z
loop_
_atom_site_type_symbol
_atom_site_label
_atom_site_fract_x
_atom_site_fract_y
_atom_site_fract_z
Si Si1 0.611112 0.207809 0.471690
Si Si2 0.754777 0.307808 0.733546
Si Si3 0.115020 0.431160 0.591057
Si Si4 0.293005 0.569375 0.914877
Si Si5 0.532823 0.364555 0.839737
Si Si6 0.565082 0.215160 0.899630
Si Si7 0.344127 0.424481 0.543336
O O1 0.660276 0.261228 0.639887
O O2 0.667450 0.222929 0.337602
O O3 0.641434 0.136559 0.538088
O O4 0.496196 0.199330 0.327222
O O5 0.722466 0.376945 0.631494
O O6 0.823163 0.302984 0.966260
O O7 0.142475 0.500000 0.530706
O O8 0.176755 0.430220 0.825195
O O9 0.000000 0.433442 0.500000
O O10 0.330173 0.500000 0.992418
O O11 0.312723 0.578475 0.722745
O O12 0.356679 0.614527 0.088395
O O13 0.544332 0.290216 0.876379
O O14 0.451279 0.391248 0.639262
O O15 0.500000 0.391489 0.000000
O O16 0.500000 0.185692 0.000000
O O17 0.346696 0.500000 0.498056
#
# Coordination Sequence:
#
# PCOD9169349 Si02
#       7
#     8   8   8   8   8   8   8
#     4  10  18  31  48  68  97 131 165 208 251 295
#     4  10  18  28  47  73  99 135 163 199 253 310
#     4  10  20  33  50  70  94 131 174 211 249 291
#     4   9  16  26  42  64  93 126 156 197 248 290
#     4   9  15  25  40  66  94 124 152 194 246 303
#     4   9  17  26  42  67  95 125 165 194 238 303
#     4  10  17  26  42  69 103 130 156 194 248 307
#
# _framework density 25.286791000000001
#
# number of rings (size 3 to 8) (size 9 to 14) (size 15 to 20)
#    0.000    2.429    2.857    1.286    4.000    1.714 
#    0.000    0.714    0.000    6.000    0.000    0.000 
#    0.000    0.571    0.000    0.429    0.000    0.000 
#
# Total GULP energy -155978.333702 kJ/mol
# GULP energy per Si atom -5570.654775 kJ/mol
# Density = 2.522924 g / cm^3
# Si number density = 25.286791 Si / 1000 Ang^3
#
#
#
# Elastic Constant Matrix: (Units=GPa)
#
#
# Indices 1 2 3 4 5 6 
#
# 1 58.0105 13.0914 30.3909 0.0000 8.8117 0.0000
# 2 13.0914 163.6930 81.1938 0.0000 25.5918 0.0000
# 3 30.3909 81.1938 185.1332 0.0000 40.6030 0.0000
# 4 0.0000 0.0000 0.0000 34.4736 0.0000 11.5622
# 5 8.8117 25.5918 40.6030 0.0000 50.4178 0.0000
# 6 0.0000 0.0000 0.0000 11.5622 0.0000 20.6428
#
#
#
# Elastic Compliance Matrix: (Units=1/GPa)
#
#
# Indices 1 2 3 4 5 6 
#
# 1 0.018901 0.000095 -0.002926 0.000000 -0.000995 0.000000
# 2 0.000095 0.007898 -0.003154 0.000000 -0.001486 0.000000
# 3 -0.002926 -0.003154 0.008261 0.000000 -0.004540 0.000000
# 4 0.000000 0.000000 0.000000 0.035717 0.000000 -0.020006
# 5 -0.000995 -0.001486 -0.004540 0.000000 0.024419 0.000000
# 6 0.000000 0.000000 0.000000 -0.020006 0.000000 0.059648
#
#
# Mechanical properties :
#
#
# Convention : Reuss Voigt Hill
#
# Bulk Modulus (GPa) = 43.30735 72.90988 58.10862
# Shear Modulus (GPa) = 28.65164 39.91754 34.28459
#
# Velocity S-wave (km/s) = 3.36976 3.97746 3.68615
# Velocity P-wave (km/s) = 5.68366 7.07032 6.41457
#
# Compressibility (1/GPa) = 0.02309077
#
# Stress axis : x y z
#
# Youngs Moduli (GPa) = 52.90738 126.61635 121.05433
#
# Poissons Ratio (x) = -0.01209 0.35425
# Poissons Ratio (y) = -0.00505 0.38175
# Poissons Ratio (z) = 0.15483 0.39929
#
# Static dielectric constant tensor:
#      x y z
#    x 2.206290 0.000000 0.003050 
#    y 0.000000 2.080380 0.000000 
#    z 0.003050 0.000000 2.045220 
# 
# From -- ./inp_files/169511.got.cif
#   From: 2010.05.17/outbox.cif.g08.bks.cpg/sg12_85_cif.got.tgz:169511.got - 2010.06.03 13:09:07.
