data_PCOD9169447
_publ_section_title
;
Structure prediction by ZEFSAII (Michael W. Deem and Ramdas Pophale) SiO2 
 PCOD9169447
Probable space group: C 2/M
;
_chemical_formula_sum "Si O2"
_cell_formula_units_Z 64
_cell_length_a 30.626515
_cell_length_b 12.509465
_cell_length_c 12.788820
_cell_angle_alpha 90.000000
_cell_angle_beta 111.987661
_cell_angle_gamma 90.000000
_cell_volume 4543.289685
_symmetry_space_group_name_H-M "C 2/M"
_symmetry_group_IT_number 12
_symmetry_cell_setting 'monoclinic'
loop_
_space_group_symop_operation_xyz
x,y,z
-x,y,-z
-x,-y,-z
x,-y,z
1/2+x,1/2+y,z
1/2-x,1/2+y,-z
1/2-x,1/2-y,-z
1/2+x,1/2-y,z
loop_
_atom_site_type_symbol
_atom_site_label
_atom_site_fract_x
_atom_site_fract_y
_atom_site_fract_z
Si Si1 0.177385 0.261852 0.375294
Si Si2 0.736309 0.227297 0.836285
Si Si3 0.890519 0.798605 0.982701
Si Si4 0.592494 0.373654 0.240154
Si Si5 0.692541 0.379379 0.948929
Si Si6 0.323489 0.125718 0.845305
Si Si7 0.511983 0.377217 0.887100
Si Si8 0.768807 0.627781 0.392006
O O1 0.128753 0.197335 0.337783
O O2 0.173874 0.343844 0.274986
O O3 0.193943 0.322664 0.493455
O O4 0.218186 0.176759 0.380787
O O5 0.695964 0.291238 0.861044
O O6 0.776845 0.314723 0.845774
O O7 0.722176 0.169774 0.717007
O O8 0.762016 0.144682 0.937327
O O9 0.895200 0.851834 0.871509
O O10 0.867770 0.682826 0.941066
O O11 0.852795 0.861282 0.018954
O O12 0.941735 0.805370 0.081300
O O13 0.597899 0.500000 0.263889
O O14 0.537599 0.345020 0.208542
O O15 0.693725 0.500000 0.910184
O O16 0.321688 0.000000 0.859920
O O17 0.523375 0.500000 0.867388
O O18 0.500000 0.379160 0.000000
O O19 0.767943 0.500000 0.395259
#
# Coordination Sequence:
#
# PCOD9169447 Si02
#       8
#     8   8   8   8   8   8   8   8
#     4   9  18  27  42  64  80 104 137 164 199 242
#     4   9  19  28  39  59  78 108 143 166 197 237
#     4   9  16  24  40  62  82 109 140 163 195 242
#     4   9  15  25  41  62  88 110 130 160 199 244
#     4  10  17  27  41  58  83 107 133 168 201 235
#     4   9  16  27  39  54  82 112 136 165 200 235
#     4   8  13  22  38  60  84 107 130 161 200 239
#     4  10  18  30  44  59  83 108 136 170 199 235
#
# _framework density 14.086709000000001
#
# number of rings (size 3 to 8) (size 9 to 14) (size 15 to 20)
#    0.000    2.875    0.000    4.125    0.000    0.000 
#    0.000    2.500    0.000   10.125    0.000    0.875 
#    0.000    4.000    0.000    0.000    0.000    0.000 
#
# Total GULP energy -178157.325517 kJ/mol
# GULP energy per Si atom -5567.416422 kJ/mol
# Density = 1.405465 g / cm^3
# Si number density = 14.086709 Si / 1000 Ang^3
#
#
#
# Elastic Constant Matrix: (Units=GPa)
#
#
# Indices 1 2 3 4 5 6 
#
# 1 57.0384 26.9391 23.1896 0.0000 13.1320 0.0000
# 2 26.9391 85.4562 29.8127 0.0000 9.2922 0.0000
# 3 23.1896 29.8127 60.1226 0.0000 6.8377 0.0000
# 4 0.0000 0.0000 0.0000 13.0902 0.0000 2.8085
# 5 13.1320 9.2922 6.8377 0.0000 21.7766 0.0000
# 6 0.0000 0.0000 0.0000 2.8085 0.0000 12.3809
#
#
#
# Elastic Compliance Matrix: (Units=1/GPa)
#
#
# Indices 1 2 3 4 5 6 
#
# 1 0.024638 -0.004459 -0.006034 0.000000 -0.011060 0.000000
# 2 -0.004459 0.015297 -0.005630 0.000000 -0.002071 0.000000
# 3 -0.006034 -0.005630 0.021845 0.000000 -0.000818 0.000000
# 4 0.000000 0.000000 0.000000 0.080301 0.000000 -0.018215
# 5 -0.011060 -0.002071 -0.000818 0.000000 0.053731 0.000000
# 6 0.000000 0.000000 0.000000 -0.018215 0.000000 0.084901
#
#
# Mechanical properties :
#
#
# Convention : Reuss Voigt Hill
#
# Bulk Modulus (GPa) = 33.85989 40.27776 37.06883
# Shear Modulus (GPa) = 15.48937 17.62794 16.55866
#
# Velocity S-wave (km/s) = 3.31958 3.54133 3.43225
# Velocity P-wave (km/s) = 6.22750 6.73619 6.48683
#
# Compressibility (1/GPa) = 0.02953347
#
# Stress axis : x y z
#
# Youngs Moduli (GPa) = 40.58852 65.37346 45.77789
#
# Poissons Ratio (x) = 0.29150 0.27622
# Poissons Ratio (y) = 0.18099 0.25772
# Poissons Ratio (z) = 0.24491 0.36804
#
# Static dielectric constant tensor:
#      x y z
#    x 1.471310 0.000000 0.007250 
#    y 0.000000 1.452110 0.000000 
#    z 0.007250 0.000000 1.465170 
# 
# From -- ./inp_files/188368.got.cif
#   From: 2010.05.17/outbox.cif.g08.bks.cpg/sg12_95_cif.got.tgz:188368.got - 2010.06.03 13:09:07.
