data_PCOD9169462
_publ_section_title
;
Structure prediction by ZEFSAII (Michael W. Deem and Ramdas Pophale) SiO2 
 PCOD9169462
Probable space group: C 2/M
;
_chemical_formula_sum "Si O2"
_cell_formula_units_Z 56
_cell_length_a 24.918006
_cell_length_b 9.159136
_cell_length_c 18.191250
_cell_angle_alpha 90.000000
_cell_angle_beta 63.495439
_cell_angle_gamma 90.000000
_cell_volume 3715.388915
_symmetry_space_group_name_H-M "C 2/M"
_symmetry_group_IT_number 12
_symmetry_cell_setting 'monoclinic'
loop_
_space_group_symop_operation_xyz
x,y,z
-x,y,-z
-x,-y,-z
x,-y,z
1/2+x,1/2+y,z
1/2-x,1/2+y,-z
1/2-x,1/2-y,-z
1/2+x,1/2-y,z
loop_
_atom_site_type_symbol
_atom_site_label
_atom_site_fract_x
_atom_site_fract_y
_atom_site_fract_z
Si Si1 0.353648 0.324161 0.725441
Si Si2 0.205245 0.825680 0.627551
Si Si3 0.692264 0.167574 0.943033
Si Si4 0.665951 0.332408 0.100543
Si Si5 0.275345 0.324714 0.220012
Si Si6 0.337383 0.174525 0.486118
Si Si7 0.070023 0.674670 0.444488
O O1 0.347765 0.500000 0.723878
O O2 0.365600 0.288341 0.804037
O O3 0.290458 0.248874 0.743009
O O4 0.403347 0.261958 0.640540
O O5 0.196181 0.787958 0.718347
O O6 0.274211 0.787188 0.564302
O O7 0.163969 0.748709 0.592570
O O8 0.199563 0.000000 0.623434
O O9 0.763040 0.170416 0.922052
O O10 0.688538 0.263250 0.871750
O O11 0.676156 0.000000 0.938878
O O12 0.658060 0.233029 0.034106
O O13 0.650812 0.500000 0.092181
O O14 0.268761 0.500000 0.219219
O O15 0.391204 0.216062 0.507314
O O16 0.338455 0.000000 0.476418
O O17 0.078912 0.500000 0.427214
O O18 0.000000 0.701184 0.500000
#
# Coordination Sequence:
#
# PCOD9169462 Si02
#       7
#     8   8   8   8   8   8   8
#     4  10  19  29  43  62  84 111 148 185 218 256
#     4   9  17  28  43  63  85 113 146 178 215 259
#     4   9  16  24  36  58  83 110 144 176 210 251
#     4   8  15  26  37  53  79 112 143 173 211 254
#     4  10  17  27  42  60  87 117 146 176 213 262
#     4   9  17  30  44  62  84 110 145 181 218 256
#     4  10  20  34  49  64  86 116 149 183 221 264
#
# _framework density 15.072445999999999
#
# number of rings (size 3 to 8) (size 9 to 14) (size 15 to 20)
#    0.000    2.714    1.429    2.143    0.000    6.000 
#    0.000    0.000    0.000    0.000    0.000    0.000 
#    0.000    1.143    0.000   12.857    0.000    6.000 
#
# Total GULP energy -155938.347746 kJ/mol
# GULP energy per Si atom -5569.226705 kJ/mol
# Density = 1.503814 g / cm^3
# Si number density = 15.072446 Si / 1000 Ang^3
#
#
#
# Elastic Constant Matrix: (Units=GPa)
#
#
# Indices 1 2 3 4 5 6 
#
# 1 54.9139 29.4050 50.2030 0.0000 11.8833 0.0000
# 2 29.4050 58.7436 64.5186 0.0000 15.6247 0.0000
# 3 50.2030 64.5186 131.1877 0.0000 31.8241 0.0000
# 4 0.0000 0.0000 0.0000 28.4495 0.0000 7.0596
# 5 11.8833 15.6247 31.8241 0.0000 19.5075 0.0000
# 6 0.0000 0.0000 0.0000 7.0596 0.0000 14.4631
#
#
#
# Elastic Compliance Matrix: (Units=1/GPa)
#
#
# Indices 1 2 3 4 5 6 
#
# 1 0.028676 -0.005005 -0.008684 0.000000 0.000707 0.000000
# 2 -0.005005 0.037893 -0.016711 0.000000 -0.000040 0.000000
# 3 -0.008684 -0.016711 0.024219 0.000000 -0.020835 0.000000
# 4 0.000000 0.000000 0.000000 0.039994 0.000000 -0.019522
# 5 0.000707 -0.000040 -0.020835 0.000000 0.084854 0.000000
# 6 0.000000 0.000000 0.000000 -0.019522 0.000000 0.078670
#
#
# Mechanical properties :
#
#
# Convention : Reuss Voigt Hill
#
# Bulk Modulus (GPa) = 33.34605 59.23316 46.28961
# Shear Modulus (GPa) = 13.69485 19.19858 16.44672
#
# Velocity S-wave (km/s) = 3.01757 3.57284 3.30688
# Velocity P-wave (km/s) = 5.85772 7.51030 6.73489
#
# Compressibility (1/GPa) = 0.02998856
#
# Stress axis : x y z
#
# Youngs Moduli (GPa) = 34.87209 26.39040 41.29065
#
# Poissons Ratio (x) = 0.13207 0.35857
# Poissons Ratio (y) = 0.17452 0.69000
# Poissons Ratio (z) = 0.30283 0.44101
#
# Static dielectric constant tensor:
#      x y z
#    x 1.470280 0.000000 0.018490 
#    y 0.000000 1.508030 0.000000 
#    z 0.018490 0.000000 1.515080 
# 
# From -- ./inp_files/287328.got.cif
#   From: 2010.05.17/outbox.cif.g08.bks.cpg/sg12_144_cif.got.tgz:287328.got - 2010.06.03 13:09:07.
