data_PCOD9169135
_publ_section_title
;
Structure prediction by ZEFSAII (Michael W. Deem and Ramdas Pophale) SiO2 
 PCOD9169135
Probable space group: C 2/M
;
_chemical_formula_sum "Si O2"
_cell_formula_units_Z 48
_cell_length_a 13.779798
_cell_length_b 7.900196
_cell_length_c 16.880395
_cell_angle_alpha 90.000000
_cell_angle_beta 87.139178
_cell_angle_gamma 90.000000
_cell_volume 1835.361982
_symmetry_space_group_name_H-M "C 2/M"
_symmetry_group_IT_number 12
_symmetry_cell_setting 'monoclinic'
loop_
_space_group_symop_operation_xyz
x,y,z
-x,y,-z
-x,-y,-z
x,-y,z
1/2+x,1/2+y,z
1/2-x,1/2+y,-z
1/2-x,1/2-y,-z
1/2+x,1/2-y,z
loop_
_atom_site_type_symbol
_atom_site_label
_atom_site_fract_x
_atom_site_fract_y
_atom_site_fract_z
Si Si1 0.501379 0.310085 0.584035
Si Si2 0.641524 0.705536 0.930537
Si Si3 0.912726 0.797739 0.902404
Si Si4 0.988886 0.690516 0.747751
Si Si5 0.730822 0.311836 0.591172
Si Si6 0.297181 0.303107 0.236214
O O1 0.500000 0.220547 0.500000
O O2 0.457997 0.500000 0.577962
O O3 0.455531 0.218336 0.659734
O O4 0.614662 0.325243 0.595609
O O5 0.651716 0.500000 0.930648
O O6 0.526989 0.739596 0.916887
O O7 0.704725 0.772418 0.853718
O O8 0.649555 0.769950 0.020992
O O9 0.905216 0.727871 0.814188
O O10 0.903050 0.000000 0.900920
O O11 0.023056 0.500000 0.756660
O O12 0.084126 0.804299 0.757450
O O13 0.773938 0.500000 0.593115
O O14 0.750000 0.250000 0.500000
O O15 0.744096 0.227153 0.678878
O O16 0.266694 0.500000 0.234947
#
# Coordination Sequence:
#
# PCOD9169135 Si02
#       6
#     8   8   8   8   8   8
#     4   9  18  33  49  61  77 108 148 180 203 235
#     4   7  10  18  34  50  65  94 137 173 193 222
#     4   8  12  20  33  48  69 100 134 164 196 237
#     4  10  17  23  34  55  81 105 129 163 208 251
#     4   9  17  28  44  64  85 109 136 170 209 248
#     4   8  14  26  39  51  72 106 143 170 196 235
#
# _framework density 26.15288
#
# number of rings (size 3 to 8) (size 9 to 14) (size 15 to 20)
#    0.000    3.500    0.000    4.500    0.000    3.000 
#    0.000    6.667    0.000    0.000    0.000    0.000 
#    0.000    1.333    0.000    2.667    0.000    8.333 
#
# Total GULP energy -133724.426537 kJ/mol
# GULP energy per Si atom -5571.851106 kJ/mol
# Density = 2.609336 g / cm^3
# Si number density = 26.152880 Si / 1000 Ang^3
#
#
#
# Elastic Constant Matrix: (Units=GPa)
#
#
# Indices 1 2 3 4 5 6 
#
# 1 78.7878 0.8539 18.1795 0.0000 -25.7979 0.0000
# 2 0.8539 53.5481 36.6521 0.0000 -4.8584 0.0000
# 3 18.1795 36.6521 361.5984 0.0000 -25.1425 0.0000
# 4 0.0000 0.0000 0.0000 9.4259 0.0000 -6.1608
# 5 -25.7979 -4.8584 -25.1425 0.0000 36.6511 0.0000
# 6 0.0000 0.0000 0.0000 -6.1608 0.0000 5.7489
#
#
#
# Elastic Compliance Matrix: (Units=1/GPa)
#
#
# Indices 1 2 3 4 5 6 
#
# 1 0.016531 0.000869 -0.000107 0.000000 0.011678 0.000000
# 2 0.000869 0.020175 -0.001953 0.000000 0.001946 0.000000
# 3 -0.000107 -0.001953 0.003093 0.000000 0.001787 0.000000
# 4 0.000000 0.000000 0.000000 0.354147 0.000000 0.379519
# 5 0.011678 0.001946 0.001787 0.000000 0.036988 0.000000
# 6 0.000000 0.000000 0.000000 0.379519 0.000000 0.580654
#
#
# Mechanical properties :
#
#
# Convention : Reuss Voigt Hill
#
# Bulk Modulus (GPa) = 26.72619 67.25615 46.99117
# Shear Modulus (GPa) = 4.87119 39.58176 22.22648
#
# Velocity S-wave (km/s) = 1.36625 3.89456 2.91841
# Velocity P-wave (km/s) = 3.56795 6.78202 5.41877
#
# Compressibility (1/GPa) = 0.03741648
#
# Stress axis : x y z
#
# Youngs Moduli (GPa) = 60.49123 49.56751 323.29332
#
# Poissons Ratio (x) = -0.04309 0.03468
# Poissons Ratio (y) = -0.05259 0.63149
# Poissons Ratio (z) = 0.00649 0.09682
#
# Static dielectric constant tensor:
#      x y z
#    x 2.184280 0.000000 0.107400 
#    y 0.000000 1.991880 0.000000 
#    z 0.107400 0.000000 2.244750 
# 
# From -- ./inp_files/236589.got.cif
#   From: 2010.05.17/outbox.cif.g08.bks.cpg/sg12_119_cif.got.tgz:236589.got - 2010.06.03 13:09:07.
