data_PCOD9169824
_publ_section_title
;
Structure prediction by ZEFSAII (Michael W. Deem and Ramdas Pophale) SiO2 
 PCOD9169824
Probable space group: C 2/M
;
_chemical_formula_sum "Si O2"
_cell_formula_units_Z 64
_cell_length_a 17.543709
_cell_length_b 14.205713
_cell_length_c 23.320695
_cell_angle_alpha 90.000000
_cell_angle_beta 147.734300
_cell_angle_gamma 90.000000
_cell_volume 3102.716735
_symmetry_space_group_name_H-M "C 2/M"
_symmetry_group_IT_number 12
_symmetry_cell_setting 'monoclinic'
loop_
_space_group_symop_operation_xyz
x,y,z
-x,y,-z
-x,-y,-z
x,-y,z
1/2+x,1/2+y,z
1/2-x,1/2+y,-z
1/2-x,1/2-y,-z
1/2+x,1/2-y,z
loop_
_atom_site_type_symbol
_atom_site_label
_atom_site_fract_x
_atom_site_fract_y
_atom_site_fract_z
Si Si1 0.754089 0.138764 0.006891
Si Si2 0.473029 0.609101 0.414118
Si Si3 0.478298 0.105603 0.053705
Si Si4 0.408539 0.890525 0.215446
Si Si5 0.645606 0.608754 0.113998
Si Si6 0.801345 0.702379 0.729960
Si Si7 0.216435 0.389148 0.399379
Si Si8 0.907282 0.102473 0.785251
O O1 0.919951 0.109331 0.107726
O O2 0.750000 0.250000 0.000000
O O3 0.679695 0.109551 0.019204
O O4 0.655222 0.108255 0.889901
O O5 0.500000 0.604890 0.500000
O O6 0.442259 0.500000 0.376456
O O7 0.342376 0.681592 0.325800
O O8 0.623894 0.644466 0.483939
O O9 0.567262 0.182799 0.144808
O O10 0.534147 0.000000 0.102412
O O11 0.500000 0.118402 0.000000
O O12 0.285555 0.846011 0.176307
O O13 0.565591 0.847730 0.324447
O O14 0.425283 0.000000 0.242776
O O15 0.644287 0.500000 0.090518
O O16 0.639240 0.603075 0.177704
O O17 0.500000 0.654388 0.000000
O O18 0.801047 0.624760 0.680013
O O19 0.828115 0.802203 0.715304
O O20 0.221106 0.500000 0.414997
O O21 0.866356 0.000000 0.734475
#
# Coordination Sequence:
#
# PCOD9169824 Si02
#       8
#     8   8   8   8   8   8   8   8
#     4  12  21  34  50  73 103 144 187 219 259 309
#     4   8  15  28  51  80 104 126 162 218 278 326
#     4  11  23  36  51  75 111 151 184 215 260 325
#     4  10  17  28  50  74 102 134 166 214 270 317
#     4   9  17  29  46  70  98 134 175 216 263 304
#     4  11  19  32  51  73 103 140 174 217 261 318
#     4   9  16  29  53  84 107 127 163 216 277 330
#     4  11  22  34  49  71 104 143 182 222 264 314
#
# _framework density 20.627085000000001
#
# number of rings (size 3 to 8) (size 9 to 14) (size 15 to 20)
#    0.000    1.875    3.750    3.000    0.000    1.500 
#    0.000    0.000    0.000    4.125    0.000    1.750 
#    0.000    8.000    0.000    0.000    0.000    0.750 
#
# Total GULP energy -178152.458447 kJ/mol
# GULP energy per Si atom -5567.264326 kJ/mol
# Density = 2.058014 g / cm^3
# Si number density = 20.627085 Si / 1000 Ang^3
#
#
#
# Elastic Constant Matrix: (Units=GPa)
#
#
# Indices 1 2 3 4 5 6 
#
# 1 119.2136 1.3504 36.8298 0.0000 44.8194 0.0000
# 2 1.3504 79.4316 11.6819 -0.0004 11.7114 -0.0001
# 3 36.8298 11.6819 56.1250 -0.0009 48.3317 -0.0003
# 4 0.0000 -0.0004 -0.0009 20.0549 -0.0002 6.9180
# 5 44.8194 11.7114 48.3317 -0.0002 49.1888 0.0000
# 6 0.0000 -0.0001 -0.0003 6.9180 0.0000 10.0490
#
#
#
# Elastic Compliance Matrix: (Units=1/GPa)
#
#
# Indices 1 2 3 4 5 6 
#
# 1 0.014033 0.001680 0.011680 0.000000 -0.024663 0.000000
# 2 0.001680 0.013249 0.001135 0.000000 -0.005800 0.000000
# 3 0.011680 0.001135 0.125528 0.000004 -0.134253 0.000000
# 4 0.000000 0.000000 0.000004 0.065392 -0.000005 -0.045018
# 5 -0.024663 -0.005800 -0.134253 -0.000005 0.176097 0.000000
# 6 0.000000 0.000000 0.000000 -0.045018 0.000000 0.130505
#
#
# Mechanical properties :
#
#
# Convention : Reuss Voigt Hill
#
# Bulk Modulus (GPa) = 5.50055 39.38826 22.44440
# Shear Modulus (GPa) = 8.98611 29.51909 19.25260
#
# Velocity S-wave (km/s) = 2.08948 3.78707 3.05842
# Velocity P-wave (km/s) = 2.91439 6.18542 4.83493
#
# Compressibility (1/GPa) = 0.18180014
#
# Stress axis : x y z
#
# Youngs Moduli (GPa) = 71.25963 75.47630 7.96636
#
# Poissons Ratio (x) = -0.12680 -0.09305
# Poissons Ratio (y) = -0.11972 -0.00904
# Poissons Ratio (z) = -0.83234 -0.08563
#
# Static dielectric constant tensor:
#      x y z
#    x 1.811350 0.000000 0.091900 
#    y 0.000000 1.843450 0.000000 
#    z 0.091900 0.000000 1.769510 
# 
# From -- ./inp_files/344060.got.cif
#   From: 2010.05.17/outbox.cif.g08.bks.cpg/sg12_173_cif.got.tgz:344060.got - 2010.06.03 13:09:07.
