data_PCOD9169804
_publ_section_title
;
Structure prediction by ZEFSAII (Michael W. Deem and Ramdas Pophale) SiO2 
 PCOD9169804
Probable space group: C 2/M
;
_chemical_formula_sum "Si O2"
_cell_formula_units_Z 56
_cell_length_a 14.158805
_cell_length_b 13.862424
_cell_length_c 22.565836
_cell_angle_alpha 90.000000
_cell_angle_beta 35.596684
_cell_angle_gamma 90.000000
_cell_volume 2578.082629
_symmetry_space_group_name_H-M "C 2/M"
_symmetry_group_IT_number 12
_symmetry_cell_setting 'monoclinic'
loop_
_space_group_symop_operation_xyz
x,y,z
-x,y,-z
-x,-y,-z
x,-y,z
1/2+x,1/2+y,z
1/2-x,1/2+y,-z
1/2-x,1/2-y,-z
1/2+x,1/2-y,z
loop_
_atom_site_type_symbol
_atom_site_label
_atom_site_fract_x
_atom_site_fract_y
_atom_site_fract_z
Si Si1 0.561424 0.892176 0.367388
Si Si2 0.400540 0.116472 0.873980
Si Si3 0.865474 0.815645 0.678680
Si Si4 0.707489 0.391438 0.858704
Si Si5 0.806358 0.113992 0.471615
Si Si6 0.722434 0.110988 0.643396
Si Si7 0.958061 0.299675 0.087574
O O1 0.641324 0.791998 0.346669
O O2 0.628448 0.891941 0.265175
O O3 0.367951 0.880335 0.470907
O O4 0.604158 0.000000 0.369030
O O5 0.258226 0.133995 0.899650
O O6 0.562371 0.151260 0.756718
O O7 0.407296 0.168989 0.933561
O O8 0.410376 0.000000 0.877931
O O9 0.857007 0.883820 0.625846
O O10 0.713407 0.838260 0.798567
O O11 0.032007 0.830044 0.629483
O O12 0.644799 0.500000 0.887362
O O13 0.584906 0.313720 0.895250
O O14 0.772552 0.153233 0.555328
O O15 0.847178 0.000000 0.451464
O O16 0.683989 0.000000 0.649261
O O17 0.000000 0.333308 0.000000
#
# Coordination Sequence:
#
# PCOD9169804 Si02
#       7
#     8   8   8   8   8   8   8
#     4   9  17  30  48  71  98 128 160 199 244 296
#     4   9  17  33  56  78 103 137 172 209 259 313
#     4  10  19  29  45  72 100 129 159 198 249 302
#     4   9  17  34  58  79 101 134 175 215 258 308
#     4  10  17  28  49  75 100 121 154 202 249 297
#     4   9  16  28  48  75 101 121 153 203 254 297
#     4  10  22  35  50  77 109 137 172 220 259 299
#
# _framework density 21.721568999999999
#
# number of rings (size 3 to 8) (size 9 to 14) (size 15 to 20)
#    0.000    2.571    1.429    1.286    0.000    2.857 
#    0.000    0.000    0.000    2.571    0.000    0.000 
#    0.000    0.000    0.000    0.000    0.000    0.000 
#
# Total GULP energy -156009.274634 kJ/mol
# GULP energy per Si atom -5571.759808 kJ/mol
# Density = 2.167213 g / cm^3
# Si number density = 21.721569 Si / 1000 Ang^3
#
#
#
# Elastic Constant Matrix: (Units=GPa)
#
#
# Indices 1 2 3 4 5 6 
#
# 1 30.6843 27.6101 -3.3406 -0.0001 1.2223 0.0000
# 2 27.6101 76.1840 -0.2225 -0.0004 3.1858 0.0001
# 3 -3.3406 -0.2225 67.2618 -0.0018 -5.5671 0.0004
# 4 -0.0001 -0.0004 -0.0018 8.0020 0.0004 6.8313
# 5 1.2223 3.1858 -5.5671 0.0004 24.2328 -0.0001
# 6 0.0000 0.0001 0.0004 6.8313 -0.0001 17.4783
#
#
#
# Elastic Compliance Matrix: (Units=1/GPa)
#
#
# Indices 1 2 3 4 5 6 
#
# 1 0.048737 -0.017673 0.002396 0.000000 0.000416 0.000000
# 2 -0.017673 0.019608 -0.000971 0.000001 -0.001909 -0.000001
# 3 0.002396 -0.000971 0.015274 0.000005 0.003516 -0.000002
# 4 0.000000 0.000001 0.000005 0.187546 -0.000003 -0.073301
# 5 0.000416 -0.001909 0.003516 -0.000003 0.042304 0.000001
# 6 0.000000 -0.000001 -0.000002 -0.073301 0.000001 0.085863
#
#
# Mechanical properties :
#
#
# Convention : Reuss Voigt Hill
#
# Bulk Modulus (GPa) = 19.56041 24.69158 22.12599
# Shear Modulus (GPa) = 11.13911 19.94816 15.54363
#
# Velocity S-wave (km/s) = 2.26699 3.03373 2.67794
# Velocity P-wave (km/s) = 3.98459 4.86450 4.44636
#
# Compressibility (1/GPa) = 0.05112368
#
# Stress axis : x y z
#
# Youngs Moduli (GPa) = 20.51834 50.99924 65.47036
#
# Poissons Ratio (x) = 0.90132 -0.15690
# Poissons Ratio (y) = 0.36263 0.06357
# Poissons Ratio (z) = -0.04917 0.04952
#
# Static dielectric constant tensor:
#      x y z
#    x 1.811790 0.000000 -0.027740 
#    y 0.000000 1.832080 0.000000 
#    z -0.027740 0.000000 1.849820 
# 
# From -- ./inp_files/339909.got.cif
#   From: 2010.05.17/outbox.cif.g08.bks.cpg/sg12_170_cif.got.tgz:339909.got - 2010.06.03 13:09:07.
