data_PCOD9169670
_publ_section_title
;
Structure prediction by ZEFSAII (Michael W. Deem and Ramdas Pophale) SiO2 
 PCOD9169670
Probable space group: C 2/M
;
_chemical_formula_sum "Si O2"
_cell_formula_units_Z 60
_cell_length_a 20.047125
_cell_length_b 7.870279
_cell_length_c 18.851734
_cell_angle_alpha 90.000000
_cell_angle_beta 51.088259
_cell_angle_gamma 90.000000
_cell_volume 2314.392486
_symmetry_space_group_name_H-M "C 2/M"
_symmetry_group_IT_number 12
_symmetry_cell_setting 'monoclinic'
loop_
_space_group_symop_operation_xyz
x,y,z
-x,y,-z
-x,-y,-z
x,-y,z
1/2+x,1/2+y,z
1/2-x,1/2+y,-z
1/2-x,1/2-y,-z
1/2+x,1/2-y,z
loop_
_atom_site_type_symbol
_atom_site_label
_atom_site_fract_x
_atom_site_fract_y
_atom_site_fract_z
Si Si1 0.683741 0.316365 0.445324
Si Si2 0.290517 0.500000 0.721042
Si Si3 0.503123 0.194028 0.574735
Si Si4 0.286251 0.311468 0.133254
Si Si5 0.435396 0.196173 0.124860
Si Si6 0.448201 0.696751 0.754896
Si Si7 0.622566 0.197759 0.057111
Si Si8 0.867375 0.202490 0.313888
O O1 0.664376 0.500000 0.492507
O O2 0.689511 0.354845 0.356570
O O3 0.605109 0.199207 0.519251
O O4 0.776711 0.252391 0.405653
O O5 0.262109 0.652455 0.797970
O O6 0.500000 0.280147 0.500000
O O7 0.446316 0.283600 0.671901
O O8 0.473430 0.000000 0.590307
O O9 0.250761 0.500000 0.172391
O O10 0.382859 0.299400 0.102322
O O11 0.305286 0.290918 0.036487
O O12 0.527965 0.254475 0.091184
O O13 0.375037 0.203703 0.233790
O O14 0.440972 0.000000 0.098514
O O15 0.440479 0.500000 0.777193
O O16 0.385828 0.785073 0.852247
O O17 0.545448 0.756077 0.705711
O O18 0.630786 0.000000 0.034287
O O19 0.870472 0.000000 0.300758
#
# Coordination Sequence:
#
# PCOD9169670 Si02
#       8
#     8   4   8   8   8   8   8   8
#     4  10  21  37  60  86 120 159 201 244 313 362
#     4  10  22  38  52  90 124 160 214 258 303 365
#     4  11  25  45  68  92 116 147 204 263 316 380
#     4  12  20  30  51  78 120 168 210 253 299 361
#     4  10  17  28  43  70 112 162 208 253 291 351
#     4  10  22  38  58  89 125 162 205 253 309 373
#     4  10  20  32  50  76 119 165 207 250 303 358
#     4  10  18  31  53  83 123 162 202 244 297 368
#
# _framework density 25.924728000000002
#
# number of rings (size 3 to 8) (size 9 to 14) (size 15 to 20)
#    0.400    1.200    2.667    2.800    0.000    6.933 
#    0.000    0.000    0.000    0.000    0.000    0.933 
#    0.000    0.000    0.000    0.000    0.000    0.000 
#
# Total GULP energy -167271.014907 kJ/mol
# GULP energy per Si atom -5575.700497 kJ/mol
# Density = 2.586572 g / cm^3
# Si number density = 25.924728 Si / 1000 Ang^3
#
#
#
# Elastic Constant Matrix: (Units=GPa)
#
#
# Indices 1 2 3 4 5 6 
#
# 1 87.8615 -1.5835 35.8275 -0.0008 -21.7277 0.0016
# 2 -1.5835 113.0452 42.6810 -0.0019 -1.8877 0.0035
# 3 35.8275 42.6810 186.0674 0.0001 1.7701 -0.0002
# 4 -0.0008 -0.0019 0.0001 36.5359 0.0002 -20.9856
# 5 -21.7277 -1.8877 1.7701 0.0002 35.3944 -0.0005
# 6 0.0016 0.0035 -0.0002 -20.9856 -0.0005 66.3950
#
#
#
# Elastic Compliance Matrix: (Units=1/GPa)
#
#
# Indices 1 2 3 4 5 6 
#
# 1 0.015158 0.001651 -0.003388 0.000000 0.009562 0.000000
# 2 0.001651 0.009879 -0.002600 0.000000 0.001671 0.000000
# 3 -0.003388 -0.002600 0.006647 0.000000 -0.002551 0.000000
# 4 0.000000 0.000000 0.000000 0.033442 0.000000 0.010570
# 5 0.009562 0.001671 -0.002551 0.000000 0.034340 0.000000
# 6 0.000000 0.000000 0.000000 0.010570 0.000000 0.018402
#
#
# Mechanical properties :
#
#
# Convention : Reuss Voigt Hill
#
# Bulk Modulus (GPa) = 43.45938 60.09158 51.77548
# Shear Modulus (GPa) = 37.25464 48.33500 42.79482
#
# Velocity S-wave (km/s) = 3.79493 4.32260 4.06733
# Velocity P-wave (km/s) = 6.00017 6.93849 6.48632
#
# Compressibility (1/GPa) = 0.02300999
#
# Stress axis : x y z
#
# Youngs Moduli (GPa) = 65.97277 101.22851 150.43303
#
# Poissons Ratio (x) = -0.16716 0.50973
# Poissons Ratio (y) = -0.10894 0.39111
# Poissons Ratio (z) = 0.22354 0.26318
#
# Static dielectric constant tensor:
#      x y z
#    x 2.189160 0.000000 0.061800 
#    y 0.000000 1.940540 0.000000 
#    z 0.061800 0.000000 2.033940 
# 
# From -- ./inp_files/294795.got.cif
#   From: 2010.05.17/outbox.cif.g08.bks.cpg/sg12_148_cif.got.tgz:294795.got - 2010.06.03 13:09:07.
