data_PCOD9169482
_publ_section_title
;
Structure prediction by ZEFSAII (Michael W. Deem and Ramdas Pophale) SiO2 
 PCOD9169482
Probable space group: C 2/M
;
_chemical_formula_sum "Si O2"
_cell_formula_units_Z 56
_cell_length_a 28.288910
_cell_length_b 16.196027
_cell_length_c 27.650467
_cell_angle_alpha 90.000000
_cell_angle_beta 163.393922
_cell_angle_gamma 90.000000
_cell_volume 3620.547456
_symmetry_space_group_name_H-M "C 2/M"
_symmetry_group_IT_number 12
_symmetry_cell_setting 'monoclinic'
loop_
_space_group_symop_operation_xyz
x,y,z
-x,y,-z
-x,-y,-z
x,-y,z
1/2+x,1/2+y,z
1/2-x,1/2+y,-z
1/2-x,1/2-y,-z
1/2+x,1/2-y,z
loop_
_atom_site_type_symbol
_atom_site_label
_atom_site_fract_x
_atom_site_fract_y
_atom_site_fract_z
Si Si1 0.385315 0.664242 0.038189
Si Si2 0.436093 0.904068 0.487331
Si Si3 0.704792 0.183874 0.997659
Si Si4 0.969877 0.596850 0.317473
Si Si5 0.386614 0.900065 0.641589
Si Si6 0.041609 0.904456 0.095085
Si Si7 0.981419 0.098509 0.731702
O O1 0.465274 0.644605 0.065080
O O2 0.497882 0.640142 0.194856
O O3 0.325492 0.758536 0.985764
O O4 0.221237 0.608593 0.882550
O O5 0.500000 0.866071 0.500000
O O6 0.497388 0.865986 0.597676
O O7 0.238828 0.904827 0.293828
O O8 0.496814 0.000000 0.546655
O O9 0.863164 0.124363 0.149225
O O10 0.750000 0.250000 0.000000
O O11 0.533489 0.138544 0.817063
O O12 0.011701 0.500000 0.361734
O O13 0.075334 0.629220 0.376037
O O14 0.196261 0.878074 0.465129
O O15 0.401755 0.000000 0.658273
O O16 0.981607 0.000000 0.039645
O O17 0.000000 0.875159 0.000000
O O18 0.982267 0.000000 0.739916
#
# Coordination Sequence:
#
# PCOD9169482 Si02
#       7
#     8   8   8   8   8   8   8
#     4  11  20  30  44  68  94 124 155 190 241 278
#     4   9  17  28  41  61  84 112 155 201 233 255
#     4  10  20  32  44  67  97 124 155 195 238 282
#     4  10  17  27  43  61  87 120 158 194 226 269
#     4  10  19  32  49  67  88 123 163 198 232 275
#     4  10  19  31  47  65  88 122 163 198 225 265
#     4  10  19  32  50  67  91 125 163 198 232 276
#
# _framework density 15.467273
#
# number of rings (size 3 to 8) (size 9 to 14) (size 15 to 20)
#    0.000    2.000    2.857    3.429    0.000    6.857 
#    2.571    0.000    0.000    0.000    0.000    0.000 
#    0.000    2.286    0.000    3.143    0.000    0.000 
#
# Total GULP energy -155957.042764 kJ/mol
# GULP energy per Si atom -5569.894384 kJ/mol
# Density = 1.543207 g / cm^3
# Si number density = 15.467273 Si / 1000 Ang^3
#
#
#
# Elastic Constant Matrix: (Units=GPa)
#
#
# Indices 1 2 3 4 5 6 
#
# 1 87.8412 25.5301 21.7096 -0.0083 9.6903 0.0024
# 2 25.5301 27.3847 12.7510 0.0085 5.7850 -0.0069
# 3 21.7096 12.7510 70.4436 0.0199 16.5401 0.0068
# 4 -0.0083 0.0085 0.0199 -2.3912 0.0030 1.1139
# 5 9.6903 5.7850 16.5401 0.0030 15.4471 -0.0079
# 6 0.0024 -0.0069 0.0068 1.1139 -0.0079 20.9046
#
#
#
# Elastic Compliance Matrix: (Units=1/GPa)
#
#
# Indices 1 2 3 4 5 6 
#
# 1 0.016098 -0.013518 -0.001779 -0.000123 -0.003131 0.000000
# 2 -0.013518 0.052330 -0.003601 0.000197 -0.007261 0.000007
# 3 -0.001779 -0.003601 0.019794 0.000124 -0.018729 -0.000021
# 4 -0.000123 0.000197 0.000124 -0.408076 -0.000040 0.021744
# 5 -0.003131 -0.007261 -0.018729 -0.000040 0.089475 0.000040
# 6 0.000000 0.000007 -0.000021 0.021744 0.000040 0.046678
#
#
# Mechanical properties :
#
#
# Convention : Reuss Voigt Hill
#
# Bulk Modulus (GPa) = 19.83148 33.96122 26.89635
# Shear Modulus (GPa) = -38.73079 15.17071 -11.78004
#
# Velocity S-wave (km/s) = -5.00948 3.13521 -2.76272
# Velocity P-wave (km/s) = 4.53987 5.92542 2.69260
#
# Compressibility (1/GPa) = 0.05042488
#
# Stress axis : x y z
#
# Youngs Moduli (GPa) = 62.11902 19.10952 50.52163
#
# Poissons Ratio (x) = 0.25832 0.08988
# Poissons Ratio (y) = 0.83972 0.18194
# Poissons Ratio (z) = 0.11051 0.06882
#
# Static dielectric constant tensor:
#      x y z
#    x 1.533920 0.000000 0.000110 
#    y 0.000000 1.525460 0.000000 
#    z 0.000110 0.000000 1.552980 
# 
# From -- ./inp_files/105406.got.cif
#   From: 2010.05.17/outbox.cif.g08.bks.cpg/sg12_53_cif.got.tgz:105406.got - 2010.06.03 13:09:07.
