data_PCOD9169002
_publ_section_title
;
Structure prediction by ZEFSAII (Michael W. Deem and Ramdas Pophale) SiO2 
 PCOD9169002
Probable space group: C 2/M
;
_chemical_formula_sum "Si O2"
_cell_formula_units_Z 52
_cell_length_a 18.894398
_cell_length_b 29.429907
_cell_length_c 5.130698
_cell_angle_alpha 90.000000
_cell_angle_beta 81.714659
_cell_angle_gamma 90.000000
_cell_volume 2823.200444
_symmetry_space_group_name_H-M "C 2/M"
_symmetry_group_IT_number 12
_symmetry_cell_setting 'monoclinic'
loop_
_space_group_symop_operation_xyz
x,y,z
-x,y,-z
-x,-y,-z
x,-y,z
1/2+x,1/2+y,z
1/2-x,1/2+y,-z
1/2-x,1/2-y,-z
1/2+x,1/2-y,z
loop_
_atom_site_type_symbol
_atom_site_label
_atom_site_fract_x
_atom_site_fract_y
_atom_site_fract_z
Si Si1 0.429120 0.329271 0.639168
Si Si2 0.867277 0.248360 0.340202
Si Si3 0.328859 0.551894 0.636099
Si Si4 0.266669 0.802369 0.732479
Si Si5 0.576407 0.447735 0.894312
Si Si6 0.000000 0.758303 0.000000
Si Si7 0.727027 0.641150 0.236653
O O1 0.500000 0.355221 0.500000
O O2 0.398619 0.299803 0.416756
O O3 0.458118 0.291689 0.824654
O O4 0.358410 0.353413 0.781870
O O5 0.797367 0.235026 0.209505
O O6 0.837183 0.275830 0.602627
O O7 0.936038 0.269927 0.166745
O O8 0.306488 0.500000 0.588529
O O9 0.374966 0.570767 0.365780
O O10 0.265915 0.587323 0.728807
O O11 0.378865 0.549982 0.864433
O O12 0.246463 0.833242 0.492512
O O13 0.268434 0.834075 0.982544
O O14 0.560551 0.500000 0.814738
O O15 0.500000 0.425455 0.000000
#
# Coordination Sequence:
#
# PCOD9169002 Si02
#       7
#     8   8   8   8   8   4   8
#     4   9  19  30  45  68  95 125 162 196 236 279
#     4   9  19  31  50  71  96 128 161 197 236 289
#     4  10  20  33  48  65  89 123 163 206 252 290
#     4  10  21  33  52  70  96 126 164 199 240 288
#     4   9  17  30  46  63  84 112 153 201 248 297
#     4  10  16  32  48  68  97 128 159 196 234 284
#     4  11  21  35  47  69  94 127 165 208 241 286
#
# _framework density 18.418811999999999
#
# number of rings (size 3 to 8) (size 9 to 14) (size 15 to 20)
#    0.000    2.308    1.538    1.385    2.154    4.923 
#    1.385    0.000    0.000    0.000    0.000    0.000 
#    0.000    0.000    0.000    4.154    0.000    0.000 
#
# Total GULP energy -144986.223584 kJ/mol
# GULP energy per Si atom -5576.393215 kJ/mol
# Density = 1.837689 g / cm^3
# Si number density = 18.418812 Si / 1000 Ang^3
#
#
#
# Elastic Constant Matrix: (Units=GPa)
#
#
# Indices 1 2 3 4 5 6 
#
# 1 43.9600 11.8137 20.0050 0.0000 -16.4787 0.0000
# 2 11.8137 66.5093 22.2227 0.0000 -17.8315 0.0000
# 3 20.0050 22.2227 109.5934 0.0000 -14.8426 0.0000
# 4 0.0000 0.0000 0.0000 23.9470 0.0000 -6.1848
# 5 -16.4787 -17.8315 -14.8426 0.0000 36.2334 0.0000
# 6 0.0000 0.0000 0.0000 -6.1848 0.0000 12.3593
#
#
#
# Elastic Compliance Matrix: (Units=1/GPa)
#
#
# Indices 1 2 3 4 5 6 
#
# 1 0.028810 -0.000930 -0.003555 0.000000 0.011189 0.000000
# 2 -0.000930 0.018021 -0.002478 0.000000 0.007431 0.000000
# 3 -0.003555 -0.002478 0.010473 0.000000 0.001454 0.000000
# 4 0.000000 0.000000 0.000000 0.047957 0.000000 0.023998
# 5 0.011189 0.007431 0.001454 0.000000 0.036940 0.000000
# 6 0.000000 0.000000 0.000000 0.023998 0.000000 0.092920
#
#
# Mechanical properties :
#
#
# Convention : Reuss Voigt Hill
#
# Bulk Modulus (GPa) = 23.05332 36.46062 29.75697
# Shear Modulus (GPa) = 18.97497 25.57602 22.27550
#
# Velocity S-wave (km/s) = 3.21315 3.73041 3.48140
# Velocity P-wave (km/s) = 5.12924 6.19620 5.68779
#
# Compressibility (1/GPa) = 0.04337771
#
# Stress axis : x y z
#
# Youngs Moduli (GPa) = 34.71048 55.49141 95.48407
#
# Poissons Ratio (x) = 0.05159 0.33945
# Poissons Ratio (y) = 0.03227 0.23662
# Poissons Ratio (z) = 0.12340 0.13751
#
# Static dielectric constant tensor:
#      x y z
#    x 1.673750 0.000000 -0.014940 
#    y 0.000000 1.698050 0.000000 
#    z -0.014940 0.000000 1.747740 
# 
# From -- ./inp_files/22155.got.cif
#   From: 2010.05.17/outbox.cif.g08.bks.cpg/sg12_12_cif.got.tgz:22155.got - 2010.06.03 13:09:07.
