data_PCOD9169249
_publ_section_title
;
Structure prediction by ZEFSAII (Michael W. Deem and Ramdas Pophale) SiO2 
 PCOD9169249
Probable space group: C 2/M
;
_chemical_formula_sum "Si O2"
_cell_formula_units_Z 48
_cell_length_a 24.791659
_cell_length_b 13.475852
_cell_length_c 25.480025
_cell_angle_alpha 90.000000
_cell_angle_beta 157.295568
_cell_angle_gamma 90.000000
_cell_volume 3285.667039
_symmetry_space_group_name_H-M "C 2/M"
_symmetry_group_IT_number 12
_symmetry_cell_setting 'monoclinic'
loop_
_space_group_symop_operation_xyz
x,y,z
-x,y,-z
-x,-y,-z
x,-y,z
1/2+x,1/2+y,z
1/2-x,1/2+y,-z
1/2-x,1/2-y,-z
1/2+x,1/2-y,z
loop_
_atom_site_type_symbol
_atom_site_label
_atom_site_fract_x
_atom_site_fract_y
_atom_site_fract_z
Si Si1 0.106734 0.304112 0.437224
Si Si2 0.242032 0.119802 0.329146
Si Si3 0.533995 0.619739 0.852841
Si Si4 0.203160 0.620432 0.846790
Si Si5 0.661568 0.379514 0.142740
Si Si6 0.638538 0.616250 0.401566
O O1 0.145868 0.330209 0.532125
O O2 0.216553 0.365143 0.499636
O O3 0.131264 0.189723 0.443991
O O4 0.949913 0.335936 0.284080
O O5 0.240498 0.149596 0.266983
O O6 0.089611 0.144282 0.216974
O O7 0.259321 0.000000 0.348045
O O8 0.538781 0.500000 0.856406
O O9 0.480417 0.649138 0.747285
O O10 0.683207 0.653848 0.007983
O O11 0.194721 0.500000 0.840580
O O12 0.264424 0.649450 0.844727
O O13 0.657771 0.500000 0.139573
O O14 0.500000 0.346407 0.000000
O O15 0.623766 0.500000 0.400094
#
# Coordination Sequence:
#
# PCOD9169249 Si02
#       6
#     8   8   8   8   8   8
#     4  10  19  28  43  65  85 110 140 179 212 241
#     4   9  15  26  41  60  90 120 140 160 202 258
#     4   8  14  25  42  59  82 115 141 163 199 248
#     4  10  17  25  40  66  92 111 138 172 202 242
#     4   9  15  24  40  62  89 120 141 157 197 259
#     4   9  18  33  46  57  81 117 145 170 211 256
#
# _framework density 14.608905999999999
#
# number of rings (size 3 to 8) (size 9 to 14) (size 15 to 20)
#    0.000    2.833    1.667    2.500    0.000    1.333 
#    0.000    2.500    0.000    0.000    0.000    2.333 
#    0.000    1.333    0.000    0.000    0.000    0.000 
#
# Total GULP energy -133605.554907 kJ/mol
# GULP energy per Si atom -5566.898121 kJ/mol
# Density = 1.457566 g / cm^3
# Si number density = 14.608906 Si / 1000 Ang^3
#
#
#
# Elastic Constant Matrix: (Units=GPa)
#
#
# Indices 1 2 3 4 5 6 
#
# 1 38.1839 19.8851 29.1100 0.0001 -7.0091 0.0000
# 2 19.8851 41.5732 21.4321 0.0009 -7.2333 0.0004
# 3 29.1100 21.4321 111.1659 0.0001 -0.6461 -0.0001
# 4 0.0001 0.0009 0.0001 3.3271 0.0002 3.5546
# 5 -7.0091 -7.2333 -0.6461 0.0002 19.4106 0.0002
# 6 0.0000 0.0004 -0.0001 3.5546 0.0002 9.5648
#
#
#
# Elastic Compliance Matrix: (Units=1/GPa)
#
#
# Indices 1 2 3 4 5 6 
#
# 1 0.041364 -0.013972 -0.008083 0.000003 0.009461 -0.000001
# 2 -0.013972 0.033424 -0.002743 -0.000012 0.007319 0.000003
# 3 -0.008083 -0.002743 0.011620 0.000001 -0.003554 0.000000
# 4 0.000003 -0.000012 0.000001 0.498475 -0.000007 -0.185249
# 5 0.009461 0.007319 -0.003554 -0.000007 0.057544 0.000001
# 6 -0.000001 0.000003 0.000000 -0.185249 0.000001 0.173394
#
#
# Mechanical properties :
#
#
# Convention : Reuss Voigt Hill
#
# Bulk Modulus (GPa) = 27.16406 36.86416 32.01411
# Shear Modulus (GPa) = 5.69679 14.49356 10.09518
#
# Velocity S-wave (km/s) = 1.97687 3.15319 2.63159
# Velocity P-wave (km/s) = 4.88316 6.20851 5.58528
#
# Compressibility (1/GPa) = 0.03681334
#
# Stress axis : x y z
#
# Youngs Moduli (GPa) = 24.17557 29.91836 86.05625
#
# Poissons Ratio (x) = 0.41802 0.69559
# Poissons Ratio (y) = 0.33778 0.23603
# Poissons Ratio (z) = 0.19541 0.08206
#
# Static dielectric constant tensor:
#      x y z
#    x 1.482900 0.000000 -0.013920 
#    y 0.000000 1.452490 0.000000 
#    z -0.013920 0.000000 1.512660 
# 
# From -- ./inp_files/85154.got.cif
#   From: 2010.05.17/outbox.cif.g08.bks.cpg/sg12_43_cif.got.tgz:85154.got - 2010.06.03 13:09:07.
