data_PCOD9169874
_publ_section_title
;
Structure prediction by ZEFSAII (Michael W. Deem and Ramdas Pophale) SiO2 
 PCOD9169874
Probable space group: C 2/M
;
_chemical_formula_sum "Si O2"
_cell_formula_units_Z 40
_cell_length_a 20.779194
_cell_length_b 19.475851
_cell_length_c 17.865490
_cell_angle_alpha 90.000000
_cell_angle_beta 160.841070
_cell_angle_gamma 90.000000
_cell_volume 2372.820706
_symmetry_space_group_name_H-M "C 2/M"
_symmetry_group_IT_number 12
_symmetry_cell_setting 'monoclinic'
loop_
_space_group_symop_operation_xyz
x,y,z
-x,y,-z
-x,-y,-z
x,-y,z
1/2+x,1/2+y,z
1/2-x,1/2+y,-z
1/2-x,1/2-y,-z
1/2+x,1/2-y,z
loop_
_atom_site_type_symbol
_atom_site_label
_atom_site_fract_x
_atom_site_fract_y
_atom_site_fract_z
Si Si1 0.632413 0.663093 0.506545
Si Si2 0.429266 0.288844 0.841731
Si Si3 0.197791 0.669657 0.458558
Si Si4 0.305851 0.811360 0.957847
Si Si5 0.712869 0.922191 0.194315
O O1 0.783146 0.723823 0.694926
O O2 0.710436 0.633261 0.513477
O O3 0.641480 0.608276 0.582975
O O4 0.416205 0.694042 0.258706
O O5 0.306513 0.342141 0.656017
O O6 0.607037 0.256122 0.987978
O O7 0.500000 0.313667 0.000000
O O8 0.250000 0.750000 0.500000
O O9 0.963819 0.666813 0.194385
O O10 0.303062 0.870866 0.892400
O O11 0.760167 0.000000 0.224852
O O12 0.500000 0.922109 0.000000
#
# Coordination Sequence:
#
# PCOD9169874 Si02
#       5
#     8   8   8   8   8
#     4  10  17  29  43  58  85 114 143 172 208 249
#     4  10  18  30  41  61  82 109 146 180 214 244
#     4   8  18  29  40  58  81 107 147 176 213 244
#     4  10  17  29  43  58  85 114 143 172 208 249
#     4  11  19  29  45  64  91 119 144 173 207 252
#
# _framework density 16.857575000000001
#
# number of rings (size 3 to 8) (size 9 to 14) (size 15 to 20)
#    0.000    2.600    6.000    0.600    0.000    8.800 
#    0.000    0.000    0.000    0.000    0.000    0.000 
#    0.000    3.200    0.000    3.600    0.000    0.000 
#
# Total GULP energy -111360.613999 kJ/mol
# GULP energy per Si atom -5568.030700 kJ/mol
# Density = 1.681921 g / cm^3
# Si number density = 16.857575 Si / 1000 Ang^3
#
#
#
# Elastic Constant Matrix: (Units=GPa)
#
#
# Indices 1 2 3 4 5 6 
#
# 1 45.5412 1.6837 32.6799 0.0001 -26.2676 0.0001
# 2 1.6837 22.4661 -1.6984 0.0001 -9.7432 0.0000
# 3 32.6799 -1.6984 127.9503 -0.0003 -10.4182 -0.0003
# 4 0.0001 0.0001 -0.0003 9.9804 -0.0001 1.5875
# 5 -26.2676 -9.7432 -10.4182 -0.0001 49.5183 -0.0001
# 6 0.0001 0.0000 -0.0003 1.5875 -0.0001 7.0189
#
#
#
# Elastic Compliance Matrix: (Units=1/GPa)
#
#
# Indices 1 2 3 4 5 6 
#
# 1 0.039379 0.005155 -0.008349 0.000000 0.020147 0.000000
# 2 0.005155 0.049605 0.000365 0.000000 0.012572 0.000000
# 3 -0.008349 0.000365 0.009765 0.000000 -0.002302 0.000000
# 4 0.000000 0.000000 0.000000 0.103936 0.000000 -0.023508
# 5 0.020147 0.012572 -0.002302 0.000000 0.032871 0.000000
# 6 0.000000 0.000000 0.000000 -0.023508 0.000000 0.147789
#
#
# Mechanical properties :
#
#
# Convention : Reuss Voigt Hill
#
# Bulk Modulus (GPa) = 10.74202 29.03200 19.88701
# Shear Modulus (GPa) = 11.90383 24.18967 18.04675
#
# Velocity S-wave (km/s) = 2.66022 3.79217 3.27546
# Velocity P-wave (km/s) = 3.97765 6.03601 5.11151
#
# Compressibility (1/GPa) = 0.09309240
#
# Stress axis : x y z
#
# Youngs Moduli (GPa) = 25.39408 20.15928 102.40295
#
# Poissons Ratio (x) = -0.10392 0.85496
# Poissons Ratio (y) = -0.13091 -0.03742
# Poissons Ratio (z) = 0.21202 -0.00737
#
# Static dielectric constant tensor:
#      x y z
#    x 1.658690 0.000000 -0.004770 
#    y 0.000000 1.547580 0.000000 
#    z -0.004770 0.000000 1.646800 
# 
# From -- ./inp_files/285685.got.cif
#   From: 2010.05.17/outbox.cif.g08.bks.cpg/sg12_143_cif.got.tgz:285685.got - 2010.06.03 13:09:07.
