data_PCOD9169321
_publ_section_title
;
Structure prediction by ZEFSAII (Michael W. Deem and Ramdas Pophale) SiO2 
 PCOD9169321
Probable space group: C 2/M
;
_chemical_formula_sum "Si O2"
_cell_formula_units_Z 64
_cell_length_a 24.746915
_cell_length_b 9.016195
_cell_length_c 20.978957
_cell_angle_alpha 90.000000
_cell_angle_beta 114.406175
_cell_angle_gamma 90.000000
_cell_volume 4262.599847
_symmetry_space_group_name_H-M "C 2/M"
_symmetry_group_IT_number 12
_symmetry_cell_setting 'monoclinic'
loop_
_space_group_symop_operation_xyz
x,y,z
-x,y,-z
-x,-y,-z
x,-y,z
1/2+x,1/2+y,z
1/2-x,1/2+y,-z
1/2-x,1/2-y,-z
1/2+x,1/2-y,z
loop_
_atom_site_type_symbol
_atom_site_label
_atom_site_fract_x
_atom_site_fract_y
_atom_site_fract_z
Si Si1 0.291027 0.676597 0.612247
Si Si2 0.721696 0.822104 0.260240
Si Si3 0.569301 0.678937 0.539156
Si Si4 0.814135 0.679175 0.015792
Si Si5 0.140233 0.822882 0.697938
Si Si6 0.838789 0.676503 0.511182
Si Si7 0.842910 0.672196 0.165667
Si Si8 0.200127 0.826159 0.119622
O O1 0.299488 0.500000 0.620098
O O2 0.300826 0.752586 0.685050
O O3 0.222700 0.704650 0.557296
O O4 0.330618 0.746658 0.575646
O O5 0.792082 0.783690 0.288665
O O6 0.690970 0.753442 0.182723
O O7 0.716562 0.000000 0.257937
O O8 0.500000 0.713900 0.500000
O O9 0.576320 0.500000 0.537695
O O10 0.596325 0.726417 0.620587
O O11 0.607840 0.754913 0.503043
O O12 0.809287 0.500000 0.010708
O O13 0.853120 0.718549 0.097213
O O14 0.750000 0.750000 0.000000
O O15 0.830739 0.745401 0.955284
O O16 0.128164 0.759447 0.762143
O O17 0.137673 0.000000 0.700499
O O18 0.845043 0.500000 0.521423
O O19 0.858555 0.500000 0.179070
O O20 0.771474 0.684276 0.141685
O O21 0.185260 0.000000 0.114546
#
# Coordination Sequence:
#
# PCOD9169321 Si02
#       8
#     8   8   8   8   8   8   8   8
#     4  10  19  30  46  65  87 113 141 179 221 262
#     4  10  17  26  41  60  83 110 142 178 213 253
#     4  10  20  34  49  64  86 115 146 183 225 267
#     4   9  15  23  33  48  70 100 136 170 206 247
#     4   9  17  27  40  58  78 104 140 177 213 257
#     4  10  20  32  47  66  86 110 142 181 221 264
#     4   8  15  24  35  50  71 100 133 172 210 245
#     4   9  16  24  34  51  76 105 137 170 207 249
#
# _framework density 15.014310999999999
#
# number of rings (size 3 to 8) (size 9 to 14) (size 15 to 20)
#    0.000    2.625    1.250    2.625    0.000    5.750 
#    0.000    0.000    0.000    0.000    0.000    0.000 
#    0.000    0.000    0.000    1.125    0.000   21.875 
#
# Total GULP energy -178206.045839 kJ/mol
# GULP energy per Si atom -5568.938932 kJ/mol
# Density = 1.498014 g / cm^3
# Si number density = 15.014311 Si / 1000 Ang^3
#
#
#
# Elastic Constant Matrix: (Units=GPa)
#
#
# Indices 1 2 3 4 5 6 
#
# 1 53.9890 35.2722 53.8660 0.0000 -13.8690 0.0000
# 2 35.2722 51.6921 56.8020 0.0000 -18.0070 0.0000
# 3 53.8660 56.8020 145.0528 0.0000 -41.4294 0.0000
# 4 0.0000 0.0000 0.0000 28.5919 0.0000 -9.4750
# 5 -13.8690 -18.0070 -41.4294 0.0000 22.3309 0.0000
# 6 0.0000 0.0000 0.0000 -9.4750 0.0000 15.8376
#
#
#
# Elastic Compliance Matrix: (Units=1/GPa)
#
#
# Indices 1 2 3 4 5 6 
#
# 1 0.037571 -0.018609 -0.009117 0.000000 -0.008587 0.000000
# 2 -0.018609 0.043527 -0.007255 0.000000 0.010082 0.000000
# 3 -0.009117 -0.007255 0.020916 0.000000 0.027291 0.000000
# 4 0.000000 0.000000 0.000000 0.043624 0.000000 0.026098
# 5 -0.008587 0.010082 0.027291 0.000000 0.098209 0.000000
# 6 0.000000 0.000000 0.000000 0.026098 0.000000 0.078755
#
#
# Mechanical properties :
#
#
# Convention : Reuss Voigt Hill
#
# Bulk Modulus (GPa) = 31.20045 60.29047 45.74546
# Shear Modulus (GPa) = 12.39932 20.33832 16.36882
#
# Velocity S-wave (km/s) = 2.87685 3.68448 3.30542
# Velocity P-wave (km/s) = 5.64452 7.63826 6.71579
#
# Compressibility (1/GPa) = 0.03205082
#
# Stress axis : x y z
#
# Youngs Moduli (GPa) = 26.61639 22.97398 47.81127
#
# Poissons Ratio (x) = 0.42752 0.43592
# Poissons Ratio (y) = 0.49531 0.34687
# Poissons Ratio (z) = 0.24267 0.16668
#
# Static dielectric constant tensor:
#      x y z
#    x 1.463800 0.000000 -0.018980 
#    y 0.000000 1.500260 0.000000 
#    z -0.018980 0.000000 1.522630 
# 
# From -- ./inp_files/326623.got.cif
#   From: 2010.05.17/outbox.cif.g08.bks.cpg/sg12_164_cif.got.tgz:326623.got - 2010.06.03 13:09:07.
