data_PCOD9169252
_publ_section_title
;
Structure prediction by ZEFSAII (Michael W. Deem and Ramdas Pophale) SiO2 
 PCOD9169252
Probable space group: C 2/M
;
_chemical_formula_sum "Si O2"
_cell_formula_units_Z 56
_cell_length_a 28.886060
_cell_length_b 9.193454
_cell_length_c 29.320710
_cell_angle_alpha 90.000000
_cell_angle_beta 28.900945
_cell_angle_gamma 90.000000
_cell_volume 3763.183872
_symmetry_space_group_name_H-M "C 2/M"
_symmetry_group_IT_number 12
_symmetry_cell_setting 'monoclinic'
loop_
_space_group_symop_operation_xyz
x,y,z
-x,y,-z
-x,-y,-z
x,-y,z
1/2+x,1/2+y,z
1/2-x,1/2+y,-z
1/2-x,1/2-y,-z
1/2+x,1/2-y,z
loop_
_atom_site_type_symbol
_atom_site_label
_atom_site_fract_x
_atom_site_fract_y
_atom_site_fract_z
Si Si1 0.602195 0.173512 0.935032
Si Si2 0.910034 0.667715 0.542322
Si Si3 0.386714 0.171933 0.790197
Si Si4 0.033015 0.172512 0.364666
Si Si5 0.147574 0.674300 0.079622
Si Si6 0.342170 0.673578 0.020195
Si Si7 0.291760 0.327227 0.716955
O O1 0.615799 0.262281 0.969663
O O2 0.688611 0.211883 0.826120
O O3 0.610998 0.000000 0.937167
O O4 0.500000 0.199403 0.000000
O O5 0.889994 0.500000 0.549374
O O6 0.824152 0.742435 0.643999
O O7 0.000000 0.672919 0.500000
O O8 0.946272 0.752680 0.466652
O O9 0.447353 0.262366 0.701886
O O10 0.408518 0.200968 0.824712
O O11 0.273025 0.202843 0.880801
O O12 0.399870 0.000000 0.770431
O O13 0.128820 0.201823 0.312293
O O14 0.019634 0.000000 0.374574
O O15 0.158747 0.500000 0.065154
O O16 0.250000 0.750000 0.000000
O O17 0.113236 0.746107 0.062333
O O18 0.354268 0.500000 0.006274
O O19 0.294356 0.500000 0.705543
#
# Coordination Sequence:
#
# PCOD9169252 Si02
#       7
#     8   8   8   8   8   8   8
#     4  10  20  33  48  65  86 116 153 190 226 262
#     4   9  17  27  40  58  81 111 142 175 214 260
#     4   9  17  27  40  61  87 115 144 176 213 259
#     4  10  17  25  41  62  85 114 144 177 212 255
#     4   9  17  28  42  61  85 114 147 180 217 262
#     4  10  19  30  44  61  85 116 149 186 224 260
#     4   9  17  29  42  59  82 111 146 182 218 257
#
# _framework density 14.881016000000001
#
# number of rings (size 3 to 8) (size 9 to 14) (size 15 to 20)
#    0.000    2.571    1.429    2.571    0.000    6.000 
#    0.000    0.000    0.000    0.000    0.000    0.000 
#    0.000    1.143    0.000    3.429    0.000    4.571 
#
# Total GULP energy -155981.930054 kJ/mol
# GULP energy per Si atom -5570.783216 kJ/mol
# Density = 1.484715 g / cm^3
# Si number density = 14.881016 Si / 1000 Ang^3
#
#
#
# Elastic Constant Matrix: (Units=GPa)
#
#
# Indices 1 2 3 4 5 6 
#
# 1 64.7564 50.8376 57.4512 -0.0007 24.8913 0.0008
# 2 50.8376 70.8603 64.6330 0.0009 28.3163 0.0002
# 3 57.4512 64.6330 102.5043 -0.0021 33.3594 0.0007
# 4 -0.0007 0.0009 -0.0021 24.6391 0.0020 10.9866
# 5 24.8913 28.3163 33.3594 0.0020 28.7989 -0.0011
# 6 0.0008 0.0002 0.0007 10.9866 -0.0011 21.1894
#
#
#
# Elastic Compliance Matrix: (Units=1/GPa)
#
#
# Indices 1 2 3 4 5 6 
#
# 1 0.039957 -0.017805 -0.009031 0.000003 -0.006568 -0.000003
# 2 -0.017805 0.044764 -0.014334 -0.000003 -0.012021 0.000002
# 3 -0.009031 -0.014334 0.026851 0.000005 -0.009203 -0.000003
# 4 0.000003 -0.000003 0.000005 0.052791 -0.000010 -0.027372
# 5 -0.006568 -0.012021 -0.009203 -0.000010 0.062881 0.000009
# 6 -0.000003 0.000002 -0.000003 -0.027372 0.000009 0.061385
#
#
# Mechanical properties :
#
#
# Convention : Reuss Voigt Hill
#
# Bulk Modulus (GPa) = 34.20879 64.88492 49.54685
# Shear Modulus (GPa) = 13.13327 19.27209 16.20268
#
# Velocity S-wave (km/s) = 2.97400 3.60262 3.30330
# Velocity P-wave (km/s) = 5.90178 7.81040 6.92219
#
# Compressibility (1/GPa) = 0.02923225
#
# Stress axis : x y z
#
# Youngs Moduli (GPa) = 25.02700 22.33927 37.24287
#
# Poissons Ratio (x) = 0.39774 0.33633
# Poissons Ratio (y) = 0.44559 0.53386
# Poissons Ratio (z) = 0.22602 0.32022
#
# Static dielectric constant tensor:
#      x y z
#    x 1.482120 0.000000 0.023300 
#    y 0.000000 1.494670 0.000000 
#    z 0.023300 0.000000 1.484910 
# 
# From -- ./inp_files/247729.got.cif
#   From: 2010.05.17/outbox.cif.g08.bks.cpg/sg12_124_cif.got.tgz:247729.got - 2010.06.03 13:09:07.
