data_PCOD9169168
_publ_section_title
;
Structure prediction by ZEFSAII (Michael W. Deem and Ramdas Pophale) SiO2 
 PCOD9169168
Probable space group: C 2/M
;
_chemical_formula_sum "Si O2"
_cell_formula_units_Z 56
_cell_length_a 25.255260
_cell_length_b 8.585846
_cell_length_c 18.476618
_cell_angle_alpha 90.000000
_cell_angle_beta 62.744467
_cell_angle_gamma 90.000000
_cell_volume 3561.606624
_symmetry_space_group_name_H-M "C 2/M"
_symmetry_group_IT_number 12
_symmetry_cell_setting 'monoclinic'
loop_
_space_group_symop_operation_xyz
x,y,z
-x,y,-z
-x,-y,-z
x,-y,z
1/2+x,1/2+y,z
1/2-x,1/2+y,-z
1/2-x,1/2-y,-z
1/2+x,1/2-y,z
loop_
_atom_site_type_symbol
_atom_site_label
_atom_site_fract_x
_atom_site_fract_y
_atom_site_fract_z
Si Si1 0.579654 0.185278 0.395416
Si Si2 0.103519 0.687909 0.223134
Si Si3 0.587278 0.689148 0.990673
Si Si4 0.042211 0.811726 0.866430
Si Si5 0.551487 0.315912 0.556986
Si Si6 0.965297 0.314143 0.283879
Si Si7 0.183534 0.186491 0.044889
O O1 0.614139 0.231728 0.300631
O O2 0.592705 0.266581 0.463682
O O3 0.511286 0.228987 0.418739
O O4 0.584002 0.000000 0.401594
O O5 0.106402 0.500000 0.216764
O O6 0.149305 0.760693 0.138570
O O7 0.035478 0.733876 0.245235
O O8 0.587742 0.500000 0.990012
O O9 0.582318 0.736983 0.909982
O O10 0.525519 0.733433 0.068956
O O11 0.643241 0.743110 0.002321
O O12 0.057398 0.738738 0.780023
O O13 0.043824 0.000000 0.859677
O O14 0.541687 0.500000 0.560840
O O15 0.568188 0.262939 0.627114
O O16 0.962944 0.500000 0.292853
O O17 0.185046 0.000000 0.041618
O O18 0.250000 0.250000 0.000000
#
# Coordination Sequence:
#
# PCOD9169168 Si02
#       7
#     8   8   8   8   8   8   8
#     4   9  16  27  40  56  83 113 142 181 224 260
#     4   9  18  30  43  60  84 115 149 182 220 266
#     4   8  16  29  46  65  85 112 146 185 226 264
#     4   9  15  28  47  65  85 112 149 184 218 268
#     4  10  17  24  37  58  83 115 151 178 208 258
#     4  10  18  27  40  62  91 118 145 180 223 263
#     4  11  21  33  48  65  87 117 151 189 227 262
#
# _framework density 15.723242000000001
#
# number of rings (size 3 to 8) (size 9 to 14) (size 15 to 20)
#    0.000    2.571    1.429    5.143    0.000    2.857 
#    0.000    2.857    0.000    0.000    0.000    0.000 
#    0.000    1.143    0.000    3.429    0.000    4.857 
#
# Total GULP energy -155937.304573 kJ/mol
# GULP energy per Si atom -5569.189449 kJ/mol
# Density = 1.568746 g / cm^3
# Si number density = 15.723242 Si / 1000 Ang^3
#
#
#
# Elastic Constant Matrix: (Units=GPa)
#
#
# Indices 1 2 3 4 5 6 
#
# 1 68.9222 13.3103 56.4812 0.0000 13.8582 0.0000
# 2 13.3103 14.2513 25.4203 -0.0001 4.7768 0.0000
# 3 56.4812 25.4203 130.1681 0.0000 36.2157 0.0000
# 4 0.0000 -0.0001 0.0000 31.0322 0.0000 6.6442
# 5 13.8582 4.7768 36.2157 0.0000 24.1532 0.0000
# 6 0.0000 0.0000 0.0000 6.6442 0.0000 15.5874
#
#
#
# Elastic Compliance Matrix: (Units=1/GPa)
#
#
# Indices 1 2 3 4 5 6 
#
# 1 0.022867 -0.005074 -0.009540 0.000000 0.002188 0.000000
# 2 -0.005074 0.113326 -0.024885 0.000000 0.017812 0.000000
# 3 -0.009540 -0.024885 0.023660 0.000000 -0.025080 0.000000
# 4 0.000000 0.000000 0.000000 0.035461 0.000000 -0.015115
# 5 0.002188 0.017812 -0.025080 0.000000 0.074230 0.000000
# 6 0.000000 0.000000 0.000000 -0.015115 0.000000 0.070597
#
#
# Mechanical properties :
#
#
# Convention : Reuss Voigt Hill
#
# Bulk Modulus (GPa) = 12.36794 44.86279 28.61537
# Shear Modulus (GPa) = 11.20849 22.02990 16.61919
#
# Velocity S-wave (km/s) = 2.67284 3.74719 3.25465
# Velocity P-wave (km/s) = 4.17236 6.87871 5.68881
#
# Compressibility (1/GPa) = 0.08085419
#
# Stress axis : x y z
#
# Youngs Moduli (GPa) = 43.73096 8.82412 42.26611
#
# Poissons Ratio (x) = 0.04477 0.40322
# Poissons Ratio (y) = 0.22188 1.05181
# Poissons Ratio (z) = 0.41720 0.21959
#
# Static dielectric constant tensor:
#      x y z
#    x 1.508830 0.000000 0.040220 
#    y 0.000000 1.530520 0.000000 
#    z 0.040220 0.000000 1.562530 
# 
# From -- ./inp_files/291474.got.cif
#   From: 2010.05.17/outbox.cif.g08.bks.cpg/sg12_146_cif.got.tgz:291474.got - 2010.06.03 13:09:07.
