data_PCOD9169259
_publ_section_title
;
Structure prediction by ZEFSAII (Michael W. Deem and Ramdas Pophale) SiO2 
 PCOD9169259
Probable space group: C 2/M
;
_chemical_formula_sum "Si O2"
_cell_formula_units_Z 48
_cell_length_a 25.229836
_cell_length_b 8.633526
_cell_length_c 22.393626
_cell_angle_alpha 90.000000
_cell_angle_beta 141.766789
_cell_angle_gamma 90.000000
_cell_volume 3018.715146
_symmetry_space_group_name_H-M "C 2/M"
_symmetry_group_IT_number 12
_symmetry_cell_setting 'monoclinic'
loop_
_space_group_symop_operation_xyz
x,y,z
-x,y,-z
-x,-y,-z
x,-y,z
1/2+x,1/2+y,z
1/2-x,1/2+y,-z
1/2-x,1/2-y,-z
1/2+x,1/2-y,z
loop_
_atom_site_type_symbol
_atom_site_label
_atom_site_fract_x
_atom_site_fract_y
_atom_site_fract_z
Si Si1 0.670227 0.185378 0.506965
Si Si2 0.960641 0.685622 0.168252
Si Si3 0.138357 0.814869 0.346985
Si Si4 0.714847 0.186544 0.031713
Si Si5 0.390205 0.687537 0.232063
Si Si6 0.019407 0.812825 0.450009
O O1 0.770384 0.229405 0.601042
O O2 0.639754 0.248301 0.415565
O O3 0.608700 0.252050 0.502978
O O4 0.664366 0.000000 0.500967
O O5 0.965552 0.500000 0.173376
O O6 0.931041 0.743156 0.207830
O O7 0.054233 0.753462 0.239789
O O8 0.884619 0.734981 0.055419
O O9 0.134425 0.000000 0.347520
O O10 0.789339 0.231809 0.144075
O O11 0.714474 0.000000 0.029375
O O12 0.750000 0.250000 0.000000
O O13 0.395454 0.500000 0.232108
O O14 0.445166 0.736040 0.337837
O O15 0.000000 0.760692 0.500000
O O16 0.021813 0.000000 0.451945
#
# Coordination Sequence:
#
# PCOD9169259 Si02
#       6
#     8   8   8   8   8   8
#     4  10  20  32  46  65  88 117 152 187 222 263
#     4  10  17  25  41  66  91 115 146 180 218 266
#     4  10  19  30  45  65  91 120 146 179 227 275
#     4   8  15  25  38  59  86 115 145 177 215 263
#     4   9  16  28  43  59  87 122 149 179 221 263
#     4  10  20  32  47  67  91 121 154 185 220 263
#
# _framework density 15.900804000000001
#
# number of rings (size 3 to 8) (size 9 to 14) (size 15 to 20)
#    0.000    2.500    1.667    1.500    0.000    3.000 
#    0.000    0.000    0.000    0.000    0.000    1.167 
#    0.000    9.333    0.000    0.000    0.000    0.000 
#
# Total GULP energy -133647.331508 kJ/mol
# GULP energy per Si atom -5568.638813 kJ/mol
# Density = 1.586461 g / cm^3
# Si number density = 15.900804 Si / 1000 Ang^3
#
#
#
# Elastic Constant Matrix: (Units=GPa)
#
#
# Indices 1 2 3 4 5 6 
#
# 1 92.8675 19.3193 61.6893 0.0000 17.3016 0.0000
# 2 19.3193 13.3782 23.4968 0.0000 5.6511 0.0000
# 3 61.6893 23.4968 118.0919 0.0000 35.2811 0.0000
# 4 0.0000 0.0000 0.0000 18.7516 0.0000 7.1432
# 5 17.3016 5.6511 35.2811 0.0000 28.5199 0.0000
# 6 0.0000 0.0000 0.0000 7.1432 0.0000 19.5498
#
#
#
# Elastic Compliance Matrix: (Units=1/GPa)
#
#
# Indices 1 2 3 4 5 6 
#
# 1 0.018202 -0.014731 -0.006584 0.000000 0.000021 0.000000
# 2 -0.014731 0.128217 -0.020456 0.000000 0.008837 0.000000
# 3 -0.006584 -0.020456 0.021531 0.000000 -0.018588 0.000000
# 4 0.000000 0.000000 0.000000 0.061952 0.000000 -0.022636
# 5 0.000021 0.008837 -0.018588 0.000000 0.056294 0.000000
# 6 0.000000 0.000000 0.000000 -0.022636 0.000000 0.059423
#
#
# Mechanical properties :
#
#
# Convention : Reuss Voigt Hill
#
# Bulk Modulus (GPa) = 11.84722 48.14983 29.99853
# Shear Modulus (GPa) = 10.93385 21.35305 16.14345
#
# Velocity S-wave (km/s) = 2.62511 3.66852 3.18977
# Velocity P-wave (km/s) = 4.08107 6.94919 5.69852
#
# Compressibility (1/GPa) = 0.08440797
#
# Stress axis : x y z
#
# Youngs Moduli (GPa) = 54.93915 7.79927 46.44545
#
# Poissons Ratio (x) = 0.11489 0.30579
# Poissons Ratio (y) = 0.80930 0.95010
# Poissons Ratio (z) = 0.36171 0.15954
#
# Static dielectric constant tensor:
#      x y z
#    x 1.500590 0.000000 0.044600 
#    y 0.000000 1.535730 0.000000 
#    z 0.044600 0.000000 1.581700 
# 
# From -- ./inp_files/236876.got.cif
#   From: 2010.05.17/outbox.cif.g08.bks.cpg/sg12_119_cif.got.tgz:236876.got - 2010.06.03 13:09:07.
