data_PCOD9169161
_publ_section_title
;
Structure prediction by ZEFSAII (Michael W. Deem and Ramdas Pophale) SiO2 
 PCOD9169161
Probable space group: C 2/M
;
_chemical_formula_sum "Si O2"
_cell_formula_units_Z 40
_cell_length_a 25.762353
_cell_length_b 15.216058
_cell_length_c 8.363880
_cell_angle_alpha 90.000000
_cell_angle_beta 39.455008
_cell_angle_gamma 90.000000
_cell_volume 2083.492601
_symmetry_space_group_name_H-M "C 2/M"
_symmetry_group_IT_number 12
_symmetry_cell_setting 'monoclinic'
loop_
_space_group_symop_operation_xyz
x,y,z
-x,y,-z
-x,-y,-z
x,-y,z
1/2+x,1/2+y,z
1/2-x,1/2+y,-z
1/2-x,1/2-y,-z
1/2+x,1/2-y,z
loop_
_atom_site_type_symbol
_atom_site_label
_atom_site_fract_x
_atom_site_fract_y
_atom_site_fract_z
Si Si1 0.552045 0.101078 0.519826
Si Si2 0.806430 0.098467 0.099065
Si Si3 0.620730 0.898286 0.684400
Si Si4 0.181359 0.274052 0.790963
Si Si5 0.767668 0.597427 0.061208
O O1 0.500000 0.143915 0.500000
O O2 0.565218 0.135136 0.668872
O O3 0.521641 0.000000 0.610765
O O4 0.643124 0.096400 0.231687
O O5 0.714440 0.100446 0.393636
O O6 0.852520 0.182220 0.061514
O O7 0.794365 0.110664 0.937568
O O8 0.838760 0.000000 0.052363
O O9 0.620698 0.839358 0.842808
O O10 0.600557 0.000000 0.766716
O O11 0.250000 0.250000 0.500000
O O12 0.227490 0.326836 0.820836
O O13 0.753762 0.500000 0.165726
#
# Coordination Sequence:
#
# PCOD9169161 Si02
#       5
#     8   8   8   8   8
#     4   8  14  26  42  57  78 109 137 160 187 223
#     4   8  15  26  38  53  76 106 135 161 189 225
#     4   8  14  24  37  56  81 105 130 159 192 229
#     4  10  17  24  37  56  80 108 132 157 195 234
#     4   9  16  26  40  58  80 107 136 159 185 229
#
# _framework density 19.198532
#
# number of rings (size 3 to 8) (size 9 to 14) (size 15 to 20)
#    0.000    3.400    0.000    3.600    0.000    0.800 
#    0.000    1.000    0.000    4.800    0.000    0.000 
#    0.000    4.800    0.000    0.000    0.000    0.000 
#
# Total GULP energy -111339.950730 kJ/mol
# GULP energy per Si atom -5566.997537 kJ/mol
# Density = 1.915484 g / cm^3
# Si number density = 19.198532 Si / 1000 Ang^3
#
#
#
# Elastic Constant Matrix: (Units=GPa)
#
#
# Indices 1 2 3 4 5 6 
#
# 1 90.7451 68.0964 0.7866 0.0000 23.6318 0.0000
# 2 68.0964 127.7979 15.7775 0.0000 35.6775 0.0000
# 3 0.7866 15.7775 19.7110 0.0000 7.1830 0.0000
# 4 0.0000 0.0000 0.0000 7.9478 0.0000 17.3977
# 5 23.6318 35.6775 7.1830 0.0000 23.3590 0.0000
# 6 0.0000 0.0000 0.0000 17.3977 0.0000 22.5650
#
#
#
# Elastic Compliance Matrix: (Units=1/GPa)
#
#
# Indices 1 2 3 4 5 6 
#
# 1 0.020583 -0.009659 0.010274 0.000000 -0.009229 0.000000
# 2 -0.009659 0.018425 -0.008636 0.000000 -0.015713 0.000000
# 3 0.010274 -0.008636 0.063311 0.000000 -0.016672 0.000000
# 4 0.000000 0.000000 0.000000 -0.182950 0.000000 0.141055
# 5 -0.009229 -0.015713 -0.016672 0.000000 0.081273 0.000000
# 6 0.000000 0.000000 0.000000 0.141055 0.000000 -0.064438
#
#
# Mechanical properties :
#
#
# Convention : Reuss Voigt Hill
#
# Bulk Modulus (GPa) = 11.59085 45.28611 28.43848
# Shear Modulus (GPa) = -263.23686 21.01393 -121.11146
#
# Velocity S-wave (km/s) = -11.72223 3.31200 -7.95114
# Velocity P-wave (km/s) = 13.31029 6.18590 8.33362
#
# Compressibility (1/GPa) = 0.08627492
#
# Stress axis : x y z
#
# Youngs Moduli (GPa) = 48.58449 54.27547 15.79496
#
# Poissons Ratio (x) = 0.52426 -0.16227
# Poissons Ratio (y) = 0.46929 0.13641
# Poissons Ratio (z) = -0.49914 0.46873
#
# Static dielectric constant tensor:
#      x y z
#    x 1.713120 0.000000 0.019340 
#    y 0.000000 1.712690 0.000000 
#    z 0.019340 0.000000 1.688110 
# 
# From -- ./inp_files/187876.got.cif
#   From: 2010.05.17/outbox.cif.g08.bks.cpg/sg12_94_cif.got.tgz:187876.got - 2010.06.03 13:09:07.
