data_PCOD9169075
_publ_section_title
;
Structure prediction by ZEFSAII (Michael W. Deem and Ramdas Pophale) SiO2 
 PCOD9169075
Probable space group: C 2/M
;
_chemical_formula_sum "Si O2"
_cell_formula_units_Z 48
_cell_length_a 24.197186
_cell_length_b 15.278865
_cell_length_c 13.964628
_cell_angle_alpha 90.000000
_cell_angle_beta 25.573451
_cell_angle_gamma 90.000000
_cell_volume 2228.614769
_symmetry_space_group_name_H-M "C 2/M"
_symmetry_group_IT_number 12
_symmetry_cell_setting 'monoclinic'
loop_
_space_group_symop_operation_xyz
x,y,z
-x,y,-z
-x,-y,-z
x,-y,z
1/2+x,1/2+y,z
1/2-x,1/2+y,-z
1/2-x,1/2-y,-z
1/2+x,1/2-y,z
loop_
_atom_site_type_symbol
_atom_site_label
_atom_site_fract_x
_atom_site_fract_y
_atom_site_fract_z
Si Si1 0.755689 0.903746 0.247451
Si Si2 0.378677 0.500000 0.758469
Si Si3 0.634760 0.230807 0.304613
Si Si4 0.526726 0.367477 0.238508
Si Si5 0.606484 0.825268 0.140609
Si Si6 0.871460 0.500000 0.983681
Si Si7 0.848678 0.000000 0.268704
Si Si8 0.195148 0.000000 0.436769
O O1 0.662122 0.831040 0.352143
O O2 0.709538 0.000000 0.287301
O O3 0.784540 0.916920 0.314167
O O4 0.893982 0.888462 0.981566
O O5 0.500000 0.500000 0.500000
O O6 0.391049 0.416368 0.808542
O O7 0.253666 0.500000 0.889383
O O8 0.500000 0.278785 0.500000
O O9 0.752378 0.296847 0.117443
O O10 0.627469 0.167992 0.222143
O O11 0.390432 0.414710 0.455427
O O12 0.527130 0.263778 0.247645
O O13 0.560115 0.910611 0.156774
O O14 0.820311 0.500000 0.173234
O O15 0.808479 0.000000 0.441949
O O16 0.000000 0.000000 0.000000
#
# Coordination Sequence:
#
# PCOD9169075 Si02
#       8
#     8   4   8   8   8   4   4   4
#     4   9  17  31  55  84 122 142 195 250 309 355
#     4  11  17  26  52  84 114 144 194 238 303 359
#     4  10  21  37  57  85 124 164 198 244 299 383
#     4  10  18  34  52  87 118 155 192 252 298 377
#     4  10  24  36  54  85 134 162 203 243 306 373
#     4  12  23  35  51  84 122 165 200 256 303 367
#     4  10  16  33  58  94 114 149 200 283 318 340
#     4  11  20  33  66  92 112 155 215 258 325 340
#
# _framework density 21.538042999999998
#
# number of rings (size 3 to 8) (size 9 to 14) (size 15 to 20)
#    0.500    1.333    5.000    3.000    3.500    1.667 
#    0.000    0.000    0.000    4.000   13.000    1.167 
#    0.000    0.000    0.000    0.000    0.000    0.000 
#
# Total GULP energy -133844.792178 kJ/mol
# GULP energy per Si atom -5576.866341 kJ/mol
# Density = 2.148902 g / cm^3
# Si number density = 21.538043 Si / 1000 Ang^3
#
#
#
# Elastic Constant Matrix: (Units=GPa)
#
#
# Indices 1 2 3 4 5 6 
#
# 1 80.1492 36.1869 18.0773 0.0000 30.2723 0.0000
# 2 36.1869 145.2946 39.2781 0.0000 10.2063 0.0000
# 3 18.0773 39.2781 56.6675 0.0000 19.8254 0.0000
# 4 0.0000 0.0000 0.0000 33.0679 0.0000 -0.5801
# 5 30.2723 10.2063 19.8254 0.0000 39.1210 0.0000
# 6 0.0000 0.0000 0.0000 -0.5801 0.0000 20.5649
#
#
#
# Elastic Compliance Matrix: (Units=1/GPa)
#
#
# Indices 1 2 3 4 5 6 
#
# 1 0.019727 -0.004407 0.002066 0.000000 -0.015162 0.000000
# 2 -0.004407 0.009482 -0.006678 0.000000 0.004320 0.000000
# 3 0.002066 -0.006678 0.026214 0.000000 -0.013141 0.000000
# 4 0.000000 0.000000 0.000000 0.030256 0.000000 0.000853
# 5 -0.015162 0.004320 -0.013141 0.000000 0.042827 0.000000
# 6 0.000000 0.000000 0.000000 0.000853 0.000000 0.048651
#
#
# Mechanical properties :
#
#
# Convention : Reuss Voigt Hill
#
# Bulk Modulus (GPa) = 26.74831 52.13286 39.44058
# Shear Modulus (GPa) = 24.07838 31.12204 27.60021
#
# Velocity S-wave (km/s) = 3.34720 3.80541 3.58364
# Velocity P-wave (km/s) = 5.23301 6.60044 5.95610
#
# Compressibility (1/GPa) = 0.03738554
#
# Stress axis : x y z
#
# Youngs Moduli (GPa) = 50.69148 105.46454 38.14783
#
# Poissons Ratio (x) = 0.46474 -0.07881
# Poissons Ratio (y) = 0.22338 0.25475
# Poissons Ratio (z) = -0.10472 0.70428
#
# Static dielectric constant tensor:
#      x y z
#    x 1.784110 0.000000 0.012000 
#    y 0.000000 1.803460 0.000000 
#    z 0.012000 0.000000 1.925880 
# 
# From -- ./inp_files/251064.got.cif
#   From: 2010.05.17/outbox.cif.g08.bks.cpg/sg12_126_cif.got.tgz:251064.got - 2010.06.03 13:09:07.
