data_PCOD9169648
_publ_section_title
;
Structure prediction by ZEFSAII (Michael W. Deem and Ramdas Pophale) SiO2 
 PCOD9169648
Probable space group: C 2/M
;
_chemical_formula_sum "Si O2"
_cell_formula_units_Z 48
_cell_length_a 18.652090
_cell_length_b 18.638323
_cell_length_c 8.764819
_cell_angle_alpha 90.000000
_cell_angle_beta 49.056488
_cell_angle_gamma 90.000000
_cell_volume 2301.595420
_symmetry_space_group_name_H-M "C 2/M"
_symmetry_group_IT_number 12
_symmetry_cell_setting 'monoclinic'
loop_
_space_group_symop_operation_xyz
x,y,z
-x,y,-z
-x,-y,-z
x,-y,z
1/2+x,1/2+y,z
1/2-x,1/2+y,-z
1/2-x,1/2-y,-z
1/2+x,1/2-y,z
loop_
_atom_site_type_symbol
_atom_site_label
_atom_site_fract_x
_atom_site_fract_y
_atom_site_fract_z
Si Si1 0.727182 0.171455 0.298065
Si Si2 0.626913 0.078624 0.937172
Si Si3 0.694545 0.580720 0.082737
Si Si4 0.395108 0.763868 0.087844
Si Si5 0.900596 0.774558 0.722074
Si Si6 0.449027 0.918210 0.409590
O O1 0.681440 0.232459 0.253286
O O2 0.637124 0.134951 0.501796
O O3 0.770957 0.109961 0.128679
O O4 0.813895 0.210205 0.262248
O O5 0.630857 0.153495 0.844224
O O6 0.529296 0.082444 0.168880
O O7 0.629451 0.000000 0.854408
O O8 0.713438 0.079703 0.936284
O O9 0.656724 0.500000 0.127388
O O10 0.623288 0.641140 0.242198
O O11 0.399519 0.753155 0.897685
O O12 0.500000 0.747582 0.000000
O O13 0.000000 0.762267 0.500000
O O14 0.500000 0.899900 0.500000
O O15 0.414111 0.000000 0.475777
#
# Coordination Sequence:
#
# PCOD9169648 Si02
#       6
#     8   8   8   8   8   8
#     4  11  18  33  55  81 109 144 180 231 271 323
#     4  10  18  32  52  79 110 141 179 225 275 328
#     4  10  18  31  54  80 106 140 184 226 265 317
#     4  11  22  37  55  83 111 149 184 221 277 330
#     4  11  21  36  57  81 111 142 184 229 269 320
#     4  10  17  27  52  85 110 133 173 232 281 314
#
# _framework density 20.855097000000001
#
# number of rings (size 3 to 8) (size 9 to 14) (size 15 to 20)
#    0.000    1.500    5.000    3.000    0.000    0.667 
#    0.000    3.333    0.000   12.500    0.000    0.000 
#    0.000    0.000    0.000    0.000    0.000    0.000 
#
# Total GULP energy -134181.841882 kJ/mol
# GULP energy per Si atom -5590.910078 kJ/mol
# Density = 2.080763 g / cm^3
# Si number density = 20.855097 Si / 1000 Ang^3
#
#
#
# Elastic Constant Matrix: (Units=GPa)
#
#
# Indices 1 2 3 4 5 6 
#
# 1 78.2787 49.9173 18.2322 0.0000 -22.6273 0.0000
# 2 49.9173 183.4184 38.9520 0.0000 -15.1931 0.0000
# 3 18.2322 38.9520 56.4844 0.0000 -8.0309 0.0000
# 4 0.0000 0.0000 0.0000 17.8584 0.0000 -16.8382
# 5 -22.6273 -15.1931 -8.0309 0.0000 27.5143 0.0000
# 6 0.0000 0.0000 0.0000 -16.8382 0.0000 10.7411
#
#
#
# Elastic Compliance Matrix: (Units=1/GPa)
#
#
# Indices 1 2 3 4 5 6 
#
# 1 0.019498 -0.003824 -0.001750 0.000000 0.013412 0.000000
# 2 -0.003824 0.007285 -0.003823 0.000000 -0.000238 0.000000
# 3 -0.001750 -0.003823 0.021284 0.000000 0.002662 0.000000
# 4 0.000000 0.000000 0.000000 -0.117126 0.000000 -0.183611
# 5 0.013412 -0.000238 0.002662 0.000000 0.048021 0.000000
# 6 0.000000 0.000000 0.000000 -0.183611 0.000000 -0.194736
#
#
# Mechanical properties :
#
#
# Convention : Reuss Voigt Hill
#
# Bulk Modulus (GPa) = 34.16108 59.15382 46.65745
# Shear Modulus (GPa) = -26.70607 25.29477 -0.70565
#
# Velocity S-wave (km/s) = -3.58236 3.48642 -0.58232
# Velocity P-wave (km/s) = 0.83388 6.68077 4.68707
#
# Compressibility (1/GPa) = 0.02927308
#
# Stress axis : x y z
#
# Youngs Moduli (GPa) = 51.28797 137.27056 46.98394
#
# Poissons Ratio (x) = 0.52489 0.08221
# Poissons Ratio (y) = 0.19611 0.17963
# Poissons Ratio (z) = 0.08974 0.52482
#
# Static dielectric constant tensor:
#      x y z
#    x 1.757560 0.000000 0.024610 
#    y 0.000000 1.784800 0.000000 
#    z 0.024610 0.000000 1.756970 
# 
# From -- ./inp_files/158020.got.cif
#   From: 2010.05.17/outbox.cif.g08.bks.cpg/sg12_80_cif.got.tgz:158020.got - 2010.06.03 13:09:07.
