data_PCOD9169074
_publ_section_title
;
Structure prediction by ZEFSAII (Michael W. Deem and Ramdas Pophale) SiO2 
 PCOD9169074
Probable space group: C 2/M
;
_chemical_formula_sum "Si O2"
_cell_formula_units_Z 40
_cell_length_a 5.229916
_cell_length_b 17.377334
_cell_length_c 21.528059
_cell_angle_alpha 90.000000
_cell_angle_beta 66.612124
_cell_angle_gamma 90.000000
_cell_volume 1795.763234
_symmetry_space_group_name_H-M "C 2/M"
_symmetry_group_IT_number 12
_symmetry_cell_setting 'monoclinic'
loop_
_space_group_symop_operation_xyz
x,y,z
-x,y,-z
-x,-y,-z
x,-y,z
1/2+x,1/2+y,z
1/2-x,1/2+y,-z
1/2-x,1/2-y,-z
1/2+x,1/2-y,z
loop_
_atom_site_type_symbol
_atom_site_label
_atom_site_fract_x
_atom_site_fract_y
_atom_site_fract_z
Si Si1 0.461343 0.911302 0.798551
Si Si2 0.923536 0.301441 0.687376
Si Si3 0.209823 0.304497 0.864517
Si Si4 0.799569 0.337826 0.469689
Si Si5 0.912767 0.089415 0.940066
O O1 0.394998 0.866593 0.741878
O O2 0.713637 0.867728 0.809302
O O3 0.191314 0.907931 0.870083
O O4 0.528901 0.000000 0.781502
O O5 0.135626 0.238576 0.695802
O O6 0.067584 0.331761 0.610673
O O7 0.465228 0.250514 0.861829
O O8 0.184371 0.358856 0.927393
O O9 0.500000 0.375754 0.500000
O O10 0.750000 0.250000 0.500000
O O11 0.000000 0.375846 0.500000
O O12 0.827131 0.000000 0.952467
O O13 0.000000 0.117119 0.000000
#
# Coordination Sequence:
#
# PCOD9169074 Si02
#       5
#     8   8   8   8   8
#     4  11  26  46  66  96 138 178 224 272 338 408
#     4  12  23  38  66  99 131 167 221 274 326 383
#     4  12  24  45  69  98 131 164 219 280 334 388
#     4  10  16  33  57  94 125 163 209 270 313 376
#     4  10  24  48  73  96 132 182 228 273 335 407
#
# _framework density 22.274650999999999
#
# number of rings (size 3 to 8) (size 9 to 14) (size 15 to 20)
#    0.000    1.000    6.000    1.800    2.800    1.600 
#    0.000    3.000    0.000    1.200    0.000    0.000 
#    0.000    0.000    0.000    0.000    0.000    0.000 
#
# Total GULP energy -111788.298441 kJ/mol
# GULP energy per Si atom -5589.414922 kJ/mol
# Density = 2.222395 g / cm^3
# Si number density = 22.274651 Si / 1000 Ang^3
#
#
#
# Elastic Constant Matrix: (Units=GPa)
#
#
# Indices 1 2 3 4 5 6 
#
# 1 168.0361 47.2932 51.5056 0.0000 32.0700 0.0000
# 2 47.2932 98.4654 47.9075 0.0000 22.4434 0.0000
# 3 51.5056 47.9075 188.6075 0.0000 23.2299 0.0000
# 4 0.0000 0.0000 0.0000 11.6530 0.0000 -14.6259
# 5 32.0700 22.4434 23.2299 0.0000 42.7741 0.0000
# 6 0.0000 0.0000 0.0000 -14.6259 0.0000 -28.9138
#
#
#
# Elastic Compliance Matrix: (Units=1/GPa)
#
#
# Indices 1 2 3 4 5 6 
#
# 1 0.007668 -0.002273 -0.001024 0.000000 -0.004001 0.000000
# 2 -0.002273 0.013262 -0.002251 0.000000 -0.004032 0.000000
# 3 -0.001024 -0.002251 0.006337 0.000000 -0.001493 0.000000
# 4 0.000000 0.000000 0.000000 0.052489 0.000000 -0.026551
# 5 -0.004001 -0.004032 -0.001493 0.000000 0.029304 0.000000
# 6 0.000000 0.000000 0.000000 -0.026551 0.000000 -0.021155
#
#
# Mechanical properties :
#
#
# Convention : Reuss Voigt Hill
#
# Bulk Modulus (GPa) = 61.83981 83.16907 72.50444
# Shear Modulus (GPa) = 47.89584 25.66284 36.77934
#
# Velocity S-wave (km/s) = 4.64210 3.39796 4.06787
# Velocity P-wave (km/s) = 7.52029 7.26731 7.39488
#
# Compressibility (1/GPa) = 0.01617081
#
# Stress axis : x y z
#
# Youngs Moduli (GPa) = 130.40869 75.40412 157.79472
#
# Poissons Ratio (x) = 0.17139 0.16158
# Poissons Ratio (y) = 0.29642 0.35525
# Poissons Ratio (z) = 0.13354 0.16976
#
# Static dielectric constant tensor:
#      x y z
#    x 1.885200 0.000000 -0.044550 
#    y 0.000000 1.807630 0.000000 
#    z -0.044550 0.000000 1.815710 
# 
# From -- ./inp_files/252819.got.cif
#   From: 2010.05.17/outbox.cif.g08.bks.cpg/sg12_127_cif.got.tgz:252819.got - 2010.06.03 13:09:07.
