data_PCOD9169337
_publ_section_title
;
Structure prediction by ZEFSAII (Michael W. Deem and Ramdas Pophale) SiO2 
 PCOD9169337
Probable space group: C 2/M
;
_chemical_formula_sum "Si O2"
_cell_formula_units_Z 56
_cell_length_a 29.362534
_cell_length_b 8.944958
_cell_length_c 14.365519
_cell_angle_alpha 90.000000
_cell_angle_beta 78.106870
_cell_angle_gamma 90.000000
_cell_volume 3692.061678
_symmetry_space_group_name_H-M "C 2/M"
_symmetry_group_IT_number 12
_symmetry_cell_setting 'monoclinic'
loop_
_space_group_symop_operation_xyz
x,y,z
-x,y,-z
-x,-y,-z
x,-y,z
1/2+x,1/2+y,z
1/2-x,1/2+y,-z
1/2-x,1/2-y,-z
1/2+x,1/2-y,z
loop_
_atom_site_type_symbol
_atom_site_label
_atom_site_fract_x
_atom_site_fract_y
_atom_site_fract_z
Si Si1 0.230575 0.678958 0.413558
Si Si2 0.963761 0.821728 0.432999
Si Si3 0.512466 0.177303 0.772803
Si Si4 0.045567 0.172558 0.047841
Si Si5 0.635973 0.820154 0.530425
Si Si6 0.897475 0.322688 0.132812
Si Si7 0.675454 0.679737 0.705874
O O1 0.232448 0.500000 0.421529
O O2 0.250000 0.750000 0.500000
O O3 0.176010 0.718224 0.437440
O O4 0.269373 0.718776 0.320558
O O5 0.982497 0.758358 0.327488
O O6 0.914049 0.745540 0.472303
O O7 0.000000 0.789714 0.500000
O O8 0.957625 0.000000 0.428269
O O9 0.470753 0.242404 0.852848
O O10 0.560163 0.202249 0.811407
O O11 0.507289 0.000000 0.762519
O O12 0.056879 0.000000 0.062006
O O13 0.085518 0.252598 0.971396
O O14 0.000000 0.175036 0.000000
O O15 0.652668 0.750310 0.621981
O O16 0.633314 0.000000 0.541680
O O17 0.891141 0.500000 0.126723
O O18 0.852368 0.245526 0.195566
O O19 0.670335 0.500000 0.704774
#
# Coordination Sequence:
#
# PCOD9169337 Si02
#       7
#     8   8   8   8   8   8   8
#     4   8  16  27  40  60  84 112 145 178 215 261
#     4  11  23  35  47  64  86 115 154 194 227 263
#     4  10  19  31  46  62  85 115 147 186 225 262
#     4   9  17  28  43  62  85 115 148 179 215 264
#     4  10  18  30  45  61  84 114 148 186 225 263
#     4  10  18  27  41  64  91 118 149 182 215 259
#     4  10  17  26  42  63  89 119 148 178 215 262
#
# _framework density 15.167676999999999
#
# number of rings (size 3 to 8) (size 9 to 14) (size 15 to 20)
#    0.000    2.286    1.429    2.571    0.000    5.143 
#    0.000    0.000    0.000    0.000    0.000    0.000 
#    0.000    1.143    0.000    3.429    0.000    5.286 
#
# Total GULP energy -156002.070461 kJ/mol
# GULP energy per Si atom -5571.502516 kJ/mol
# Density = 1.513315 g / cm^3
# Si number density = 15.167677 Si / 1000 Ang^3
#
#
#
# Elastic Constant Matrix: (Units=GPa)
#
#
# Indices 1 2 3 4 5 6 
#
# 1 89.2142 47.5345 67.6969 0.0000 -34.2201 0.0000
# 2 47.5345 65.9927 53.4148 0.0000 -18.1474 0.0000
# 3 67.6969 53.4148 87.5612 0.0000 -38.9060 0.0000
# 4 0.0000 0.0000 0.0000 23.7139 0.0000 -7.5184
# 5 -34.2201 -18.1474 -38.9060 0.0000 34.2068 0.0000
# 6 0.0000 0.0000 0.0000 -7.5184 0.0000 18.0800
#
#
#
# Elastic Compliance Matrix: (Units=1/GPa)
#
#
# Indices 1 2 3 4 5 6 
#
# 1 0.029386 -0.007080 -0.014167 0.000000 0.009528 0.000000
# 2 -0.007080 0.033388 -0.020561 0.000000 -0.012756 0.000000
# 3 -0.014167 -0.020561 0.048061 0.000000 0.029583 0.000000
# 4 0.000000 0.000000 0.000000 0.048573 0.000000 0.020199
# 5 0.009528 -0.012756 0.029583 0.000000 0.065646 0.000000
# 6 0.000000 0.000000 0.000000 0.020199 0.000000 0.063709
#
#
# Mechanical properties :
#
#
# Convention : Reuss Voigt Hill
#
# Bulk Modulus (GPa) = 36.73972 64.45116 50.59544
# Shear Modulus (GPa) = 13.10782 20.14160 16.62471
#
# Velocity S-wave (km/s) = 2.94291 3.64803 3.31427
# Velocity P-wave (km/s) = 5.98520 7.76716 6.93366
#
# Compressibility (1/GPa) = 0.02721850
#
# Stress axis : x y z
#
# Youngs Moduli (GPa) = 34.02985 29.95127 20.80689
#
# Poissons Ratio (x) = 0.21205 0.29477
# Poissons Ratio (y) = 0.24092 0.42782
# Poissons Ratio (z) = 0.48209 0.61584
#
# Static dielectric constant tensor:
#      x y z
#    x 1.508360 0.000000 -0.041820 
#    y 0.000000 1.504680 0.000000 
#    z -0.041820 0.000000 1.490930 
# 
# From -- ./inp_files/247770.got.cif
#   From: 2010.05.17/outbox.cif.g08.bks.cpg/sg12_124_cif.got.tgz:247770.got - 2010.06.03 13:09:07.
