data_PCOD9169227
_publ_section_title
;
Structure prediction by ZEFSAII (Michael W. Deem and Ramdas Pophale) SiO2 
 PCOD9169227
Probable space group: C 2/M
;
_chemical_formula_sum "Si O2"
_cell_formula_units_Z 64
_cell_length_a 25.615189
_cell_length_b 7.503361
_cell_length_c 19.815828
_cell_angle_alpha 90.000000
_cell_angle_beta 114.377249
_cell_angle_gamma 90.000000
_cell_volume 3469.056396
_symmetry_space_group_name_H-M "C 2/M"
_symmetry_group_IT_number 12
_symmetry_cell_setting 'monoclinic'
loop_
_space_group_symop_operation_xyz
x,y,z
-x,y,-z
-x,-y,-z
x,-y,z
1/2+x,1/2+y,z
1/2-x,1/2+y,-z
1/2-x,1/2-y,-z
1/2+x,1/2-y,z
loop_
_atom_site_type_symbol
_atom_site_label
_atom_site_fract_x
_atom_site_fract_y
_atom_site_fract_z
Si Si1 0.170795 0.281576 0.575436
Si Si2 0.559085 0.285047 0.996140
Si Si3 0.638412 0.214888 0.410033
Si Si4 0.707522 0.710837 0.311022
Si Si5 0.051353 0.282470 0.577349
Si Si6 0.121687 0.207126 0.154788
Si Si7 0.507108 0.217563 0.319031
Si Si8 0.003364 0.290498 0.165270
O O1 0.171547 0.500000 0.575606
O O2 0.166989 0.224992 0.495152
O O3 0.228910 0.218040 0.641663
O O4 0.112851 0.225534 0.582297
O O5 0.559964 0.500000 0.998933
O O6 0.608525 0.218360 0.072967
O O7 0.500000 0.223914 0.000000
O O8 0.550094 0.235199 0.913709
O O9 0.671732 0.270414 0.360942
O O10 0.572148 0.272196 0.371133
O O11 0.638031 0.000000 0.410613
O O12 0.713682 0.500000 0.301819
O O13 0.670062 0.786789 0.229229
O O14 0.051752 0.500000 0.576789
O O15 0.035210 0.224458 0.644175
O O16 0.000000 0.227909 0.500000
O O17 0.060998 0.210988 0.162742
O O18 0.136345 0.000000 0.152623
O O19 0.493617 0.276515 0.235783
O O20 0.506193 0.000000 0.319057
O O21 0.015386 0.500000 0.176041
#
# Coordination Sequence:
#
# PCOD9169227 Si02
#       8
#     8   8   8   8   8   8   8   8
#     4   9  17  27  42  62  84 111 147 181 207 242
#     4   8  15  27  40  55  78 111 141 164 199 250
#     4  10  17  28  43  62  87 114 142 172 207 251
#     4  10  19  29  41  63  89 113 142 175 207 246
#     4   9  14  24  41  60  83 111 140 175 215 245
#     4   9  17  28  40  55  83 116 139 163 202 249
#     4   9  16  24  38  62  88 110 136 171 211 248
#     4  10  17  25  39  62  87 106 132 172 209 246
#
# _framework density 18.448820999999999
#
# number of rings (size 3 to 8) (size 9 to 14) (size 15 to 20)
#    0.000    2.750    2.500    1.500    0.000    2.250 
#    0.000    0.000    0.000    0.000    0.000    7.000 
#    0.000    0.000    0.000    0.000    0.000    0.000 
#
# Total GULP energy -178384.801643 kJ/mol
# GULP energy per Si atom -5574.525051 kJ/mol
# Density = 1.840683 g / cm^3
# Si number density = 18.448821 Si / 1000 Ang^3
#
#
#
# Elastic Constant Matrix: (Units=GPa)
#
#
# Indices 1 2 3 4 5 6 
#
# 1 57.2219 -4.6156 50.0262 0.0000 17.1293 0.0000
# 2 -4.6156 48.5353 3.9426 0.0000 3.5838 0.0000
# 3 50.0262 3.9426 192.3048 0.0000 15.9967 0.0000
# 4 0.0000 0.0000 0.0000 19.6451 0.0000 -6.4501
# 5 17.1293 3.5838 15.9967 0.0000 21.3283 0.0000
# 6 0.0000 0.0000 0.0000 -6.4501 0.0000 6.0330
#
#
#
# Elastic Compliance Matrix: (Units=1/GPa)
#
#
# Indices 1 2 3 4 5 6 
#
# 1 0.028948 0.004683 -0.006002 0.000000 -0.019535 0.000000
# 2 0.004683 0.021624 -0.001116 0.000000 -0.006557 0.000000
# 3 -0.006002 -0.001116 0.006791 0.000000 -0.000086 0.000000
# 4 0.000000 0.000000 0.000000 0.078438 0.000000 0.083862
# 5 -0.019535 -0.006557 -0.000086 0.000000 0.063741 0.000000
# 6 0.000000 0.000000 0.000000 0.083862 0.000000 0.255417
#
#
# Mechanical properties :
#
#
# Convention : Reuss Voigt Hill
#
# Bulk Modulus (GPa) = 19.04996 44.08538 31.56767
# Shear Modulus (GPa) = 10.47500 25.98183 18.22841
#
# Velocity S-wave (km/s) = 2.38541 3.75683 3.14674
# Velocity P-wave (km/s) = 4.23500 6.53959 5.50915
#
# Compressibility (1/GPa) = 0.05249355
#
# Stress axis : x y z
#
# Youngs Moduli (GPa) = 34.54459 46.24545 147.24544
#
# Poissons Ratio (x) = -0.21656 0.88371
# Poissons Ratio (y) = -0.16177 0.16433
# Poissons Ratio (z) = 0.20732 0.05161
#
# Static dielectric constant tensor:
#      x y z
#    x 1.589360 0.000000 0.007810 
#    y 0.000000 1.704390 0.000000 
#    z 0.007810 0.000000 1.688030 
# 
# From -- ./inp_files/326620.got.cif
#   From: 2010.05.17/outbox.cif.g08.bks.cpg/sg12_164_cif.got.tgz:326620.got - 2010.06.03 13:09:07.
