data_PCOD9169896
_publ_section_title
;
Structure prediction by ZEFSAII (Michael W. Deem and Ramdas Pophale) SiO2 
 PCOD9169896
Probable space group: C 2/M
;
_chemical_formula_sum "Si O2"
_cell_formula_units_Z 64
_cell_length_a 14.271026
_cell_length_b 25.499534
_cell_length_c 10.092348
_cell_angle_alpha 90.000000
_cell_angle_beta 73.426918
_cell_angle_gamma 90.000000
_cell_volume 3520.076893
_symmetry_space_group_name_H-M "C 2/M"
_symmetry_group_IT_number 12
_symmetry_cell_setting 'monoclinic'
loop_
_space_group_symop_operation_xyz
x,y,z
-x,y,-z
-x,-y,-z
x,-y,z
1/2+x,1/2+y,z
1/2-x,1/2+y,-z
1/2-x,1/2-y,-z
1/2+x,1/2-y,z
loop_
_atom_site_type_symbol
_atom_site_label
_atom_site_fract_x
_atom_site_fract_y
_atom_site_fract_z
Si Si1 0.139301 0.254126 0.341722
Si Si2 0.283427 0.127833 0.698761
Si Si3 0.970345 0.440169 0.667236
Si Si4 0.611653 0.765385 0.929991
Si Si5 0.836006 0.385964 0.381119
Si Si6 0.085101 0.269586 0.639540
Si Si7 0.883333 0.144645 0.028447
Si Si8 0.766783 0.154268 0.833513
O O1 0.190690 0.310259 0.307542
O O2 0.137347 0.240403 0.498347
O O3 0.180978 0.205074 0.249087
O O4 0.029257 0.261840 0.334873
O O5 0.376729 0.097276 0.724668
O O6 0.281509 0.107083 0.545661
O O7 0.183373 0.123596 0.823464
O O8 0.943851 0.500000 0.708226
O O9 0.000000 0.436032 0.500000
O O10 0.074216 0.424557 0.688823
O O11 0.620050 0.754683 0.769630
O O12 0.630812 0.708169 0.981685
O O13 0.675810 0.815777 0.941797
O O14 0.500000 0.779448 0.000000
O O15 0.890871 0.330641 0.383085
O O16 0.769526 0.379055 0.278012
O O17 0.835393 0.124988 0.910481
O O18 0.000000 0.135975 0.000000
#
# Coordination Sequence:
#
# PCOD9169896 Si02
#       8
#     8   8   8   8   8   8   8   8
#     4  10  17  29  46  68 101 141 182 214 253 307
#     4  10  19  32  56  74 105 139 176 214 266 319
#     4   9  17  34  61  91 113 131 165 222 282 335
#     4  10  20  29  44  65  98 136 182 215 263 305
#     4   9  19  33  51  82 105 135 171 220 271 329
#     4   9  18  28  45  68 100 138 179 216 256 304
#     4  11  23  35  46  67 103 144 188 222 254 300
#     4  11  22  32  48  70 105 145 184 220 261 304
#
# _framework density 18.181419999999999
#
# number of rings (size 3 to 8) (size 9 to 14) (size 15 to 20)
#    0.000    2.125    2.500    1.875    3.500    1.500 
#    0.000    0.000    0.000    1.875    0.000    0.000 
#    0.000    4.000    0.000    0.000    0.000    0.000 
#
# Total GULP energy -178312.565265 kJ/mol
# GULP energy per Si atom -5572.267665 kJ/mol
# Density = 1.814004 g / cm^3
# Si number density = 18.181420 Si / 1000 Ang^3
#
#
#
# Elastic Constant Matrix: (Units=GPa)
#
#
# Indices 1 2 3 4 5 6 
#
# 1 127.5706 21.7833 71.1971 0.0000 3.0761 0.0000
# 2 21.7833 29.9333 22.0785 0.0000 -4.3843 0.0000
# 3 71.1971 22.0785 72.0646 0.0000 -5.6774 0.0000
# 4 0.0000 0.0000 0.0000 3.2439 0.0000 -1.6235
# 5 3.0761 -4.3843 -5.6774 0.0000 32.3723 0.0000
# 6 0.0000 0.0000 0.0000 -1.6235 0.0000 16.3391
#
#
#
# Elastic Compliance Matrix: (Units=1/GPa)
#
#
# Indices 1 2 3 4 5 6 
#
# 1 0.018233 -0.000548 -0.018239 0.000000 -0.005006 0.000000
# 2 -0.000548 0.043590 -0.012517 0.000000 0.003760 0.000000
# 3 -0.018239 -0.012517 0.036235 0.000000 0.006393 0.000000
# 4 0.000000 0.000000 0.000000 0.324401 0.000000 0.032234
# 5 -0.005006 0.003760 0.006393 0.000000 0.032997 0.000000
# 6 0.000000 0.000000 0.000000 0.032234 0.000000 0.064406
#
#
# Mechanical properties :
#
#
# Convention : Reuss Voigt Hill
#
# Bulk Modulus (GPa) = 28.21026 51.07626 39.64326
# Shear Modulus (GPa) = 8.41348 18.02504 13.21926
#
# Velocity S-wave (km/s) = 2.15350 3.15206 2.69936
# Velocity P-wave (km/s) = 4.66188 6.43435 5.61845
#
# Compressibility (1/GPa) = 0.03544810
#
# Stress axis : x y z
#
# Youngs Moduli (GPa) = 54.84700 22.94126 27.59792
#
# Poissons Ratio (x) = 0.01258 0.50337
# Poissons Ratio (y) = 0.03007 0.34543
# Poissons Ratio (z) = 1.00038 0.28715
#
# Static dielectric constant tensor:
#      x y z
#    x 1.708640 0.000000 -0.021100 
#    y 0.000000 1.594350 0.000000 
#    z -0.021100 0.000000 1.715860 
# 
# From -- ./inp_files/66901.got.cif
#   From: 2010.05.17/outbox.cif.g08.bks.cpg/sg12_34_cif.got.tgz:66901.got - 2010.06.03 13:09:07.
