data_PCOD9169557
_publ_section_title
;
Structure prediction by ZEFSAII (Michael W. Deem and Ramdas Pophale) SiO2 
 PCOD9169557
Probable space group: C 2/M
;
_chemical_formula_sum "Si O2"
_cell_formula_units_Z 64
_cell_length_a 28.033576
_cell_length_b 13.796047
_cell_length_c 14.934927
_cell_angle_alpha 90.000000
_cell_angle_beta 135.767026
_cell_angle_gamma 90.000000
_cell_volume 4029.292352
_symmetry_space_group_name_H-M "C 2/M"
_symmetry_group_IT_number 12
_symmetry_cell_setting 'monoclinic'
loop_
_space_group_symop_operation_xyz
x,y,z
-x,y,-z
-x,-y,-z
x,-y,z
1/2+x,1/2+y,z
1/2-x,1/2+y,-z
1/2-x,1/2-y,-z
1/2+x,1/2-y,z
loop_
_atom_site_type_symbol
_atom_site_label
_atom_site_fract_x
_atom_site_fract_y
_atom_site_fract_z
Si Si1 0.508522 0.386894 0.739216
Si Si2 0.312619 0.617207 0.760329
Si Si3 0.050965 0.882490 0.149087
Si Si4 0.480868 0.789318 0.579603
Si Si5 0.664486 0.887170 0.602072
Si Si6 0.400925 0.889433 0.147099
Si Si7 0.855645 0.801778 0.010334
Si Si8 0.276474 0.108785 0.118017
O O1 0.494038 0.500000 0.704870
O O2 0.472491 0.352821 0.783525
O O3 0.488501 0.318364 0.630194
O O4 0.588243 0.369376 0.867329
O O5 0.312391 0.500000 0.768914
O O6 0.370572 0.643801 0.766534
O O7 0.233061 0.645385 0.641099
O O8 0.339817 0.660938 0.889921
O O9 0.046666 0.000000 0.142547
O O10 0.000000 0.849642 0.000000
O O11 0.500000 0.793894 0.500000
O O12 0.404578 0.826723 0.496934
O O13 0.534481 0.855501 0.706982
O O14 0.687776 0.882938 0.737170
O O15 0.650513 0.000000 0.561347
O O16 0.334991 0.885017 0.123179
O O17 0.409225 0.000000 0.126807
O O18 0.385575 0.806603 0.053660
O O19 0.784516 0.814770 0.967169
O O20 0.246001 0.000000 0.072876
#
# Coordination Sequence:
#
# PCOD9169557 Si02
#       8
#     8   8   8   8   8   8   8   8
#     4  10  20  32  48  72  98 123 151 191 240 288
#     4   9  16  28  50  76  97 118 147 191 244 286
#     4   9  15  27  49  75 100 118 142 187 243 293
#     4  11  21  33  48  65  91 130 169 198 225 267
#     4   9  17  29  47  68  91 121 158 199 233 264
#     4  10  20  30  43  65  92 125 163 199 233 267
#     4  10  17  27  45  70  97 120 145 189 240 292
#     4   9  16  27  45  66  91 121 154 194 239 276
#
# _framework density 15.883682
#
# number of rings (size 3 to 8) (size 9 to 14) (size 15 to 20)
#    0.000    2.375    2.500    2.625    0.000    0.750 
#    0.000    0.625    0.000    3.000    0.000    7.875 
#    0.000    0.000    0.000    0.000    0.000    0.000 
#
# Total GULP energy -178165.974804 kJ/mol
# GULP energy per Si atom -5567.686713 kJ/mol
# Density = 1.584753 g / cm^3
# Si number density = 15.883682 Si / 1000 Ang^3
#
#
#
# Elastic Constant Matrix: (Units=GPa)
#
#
# Indices 1 2 3 4 5 6 
#
# 1 63.9207 12.0068 30.1503 0.0000 25.0471 0.0000
# 2 12.0068 72.5985 34.3641 0.0000 13.0546 0.0000
# 3 30.1503 34.3641 64.2203 0.0000 23.8006 0.0000
# 4 0.0000 0.0000 0.0000 13.2331 0.0000 1.4136
# 5 25.0471 13.0546 23.8006 0.0000 20.5605 0.0000
# 6 0.0000 0.0000 0.0000 1.4136 0.0000 14.7987
#
#
#
# Elastic Compliance Matrix: (Units=1/GPa)
#
#
# Indices 1 2 3 4 5 6 
#
# 1 0.030305 0.002518 -0.002277 0.000000 -0.035881 0.000000
# 2 0.002518 0.018659 -0.009876 0.000000 -0.003483 0.000000
# 3 -0.002277 -0.009876 0.032528 0.000000 -0.028609 0.000000
# 4 0.000000 0.000000 0.000000 0.076347 0.000000 -0.007293
# 5 -0.035881 -0.003483 -0.028609 0.000000 0.127676 0.000000
# 6 0.000000 0.000000 0.000000 -0.007293 0.000000 0.068270
#
#
# Mechanical properties :
#
#
# Convention : Reuss Voigt Hill
#
# Bulk Modulus (GPa) = 16.07158 39.30910 27.69034
# Shear Modulus (GPa) = 12.69691 17.99968 15.34830
#
# Velocity S-wave (km/s) = 2.83038 3.36998 3.11190
# Velocity P-wave (km/s) = 4.56307 6.32014 5.51207
#
# Compressibility (1/GPa) = 0.06222162
#
# Stress axis : x y z
#
# Youngs Moduli (GPa) = 32.99742 53.59398 30.74290
#
# Poissons Ratio (x) = -0.13495 0.07001
# Poissons Ratio (y) = -0.08309 0.30361
# Poissons Ratio (z) = 0.07515 0.52928
#
# Static dielectric constant tensor:
#      x y z
#    x 1.564220 0.000000 0.018210 
#    y 0.000000 1.538530 0.000000 
#    z 0.018210 0.000000 1.514540 
# 
# From -- ./inp_files/250843.got.cif
#   From: 2010.05.17/outbox.cif.g08.bks.cpg/sg12_126_cif.got.tgz:250843.got - 2010.06.03 13:09:07.
