data_PCOD9169868
_publ_section_title
;
Structure prediction by ZEFSAII (Michael W. Deem and Ramdas Pophale) SiO2 
 PCOD9169868
Probable space group: C 2/M
;
_chemical_formula_sum "Si O2"
_cell_formula_units_Z 56
_cell_length_a 20.115897
_cell_length_b 23.429958
_cell_length_c 11.599342
_cell_angle_alpha 90.000000
_cell_angle_beta 41.794945
_cell_angle_gamma 90.000000
_cell_volume 3643.533103
_symmetry_space_group_name_H-M "C 2/M"
_symmetry_group_IT_number 12
_symmetry_cell_setting 'monoclinic'
loop_
_space_group_symop_operation_xyz
x,y,z
-x,y,-z
-x,-y,-z
x,-y,z
1/2+x,1/2+y,z
1/2-x,1/2+y,-z
1/2-x,1/2-y,-z
1/2+x,1/2-y,z
loop_
_atom_site_type_symbol
_atom_site_label
_atom_site_fract_x
_atom_site_fract_y
_atom_site_fract_z
Si Si1 0.561309 0.751022 0.033274
Si Si2 0.386360 0.821741 0.638168
Si Si3 0.209880 0.310849 0.004697
Si Si4 0.559735 0.435117 0.044816
Si Si5 0.612790 0.316559 0.381936
Si Si6 0.582853 0.656811 0.675106
Si Si7 0.297566 0.348588 0.247535
O O1 0.484818 0.712557 0.207366
O O2 0.500000 0.771259 0.000000
O O3 0.618469 0.796996 0.036598
O O4 0.646430 0.707056 0.878100
O O5 0.500000 0.840436 0.500000
O O6 0.386384 0.752554 0.628216
O O7 0.319636 0.843216 0.618907
O O8 0.330149 0.839851 0.828217
O O9 0.302557 0.337450 0.815896
O O10 0.250000 0.250000 0.000000
O O11 0.573777 0.500000 0.064600
O O12 0.493325 0.396383 0.215631
O O13 0.500000 0.435483 0.000000
O O14 0.659291 0.401364 0.881593
O O15 0.500000 0.335128 0.500000
O O16 0.631751 0.335035 0.488257
O O17 0.663285 0.648935 0.672689
#
# Coordination Sequence:
#
# PCOD9169868 Si02
#       7
#     8   8   8   8   8   8   8
#     4   9  15  26  39  58  83 113 146 187 215 244
#     4  10  19  29  42  61  85 119 157 181 212 253
#     4  10  17  29  41  55  85 119 158 181 204 258
#     4   8  15  28  48  70  88 110 143 186 234 273
#     4  10  19  27  41  62  87 125 152 174 206 266
#     4   9  17  27  43  65  88 111 146 183 228 264
#     4   9  16  27  44  63  86 111 142 191 223 257
#
# _framework density 15.369697
#
# number of rings (size 3 to 8) (size 9 to 14) (size 15 to 20)
#    0.000    2.714    2.857    4.286    2.000    0.571 
#    2.571    0.000    0.000    0.857    0.000    0.000 
#    0.000    0.000    0.000    7.143    0.000    0.000 
#
# Total GULP energy -155881.219814 kJ/mol
# GULP energy per Si atom -5567.186422 kJ/mol
# Density = 1.533471 g / cm^3
# Si number density = 15.369697 Si / 1000 Ang^3
#
#
#
# Elastic Constant Matrix: (Units=GPa)
#
#
# Indices 1 2 3 4 5 6 
#
# 1 90.6735 13.8871 40.8952 0.0000 -12.2357 0.0000
# 2 13.8871 21.0636 10.8748 0.0000 -0.6374 0.0000
# 3 40.8952 10.8748 103.5747 0.0000 4.6542 0.0000
# 4 0.0000 0.0000 0.0000 4.8165 0.0000 1.9282
# 5 -12.2357 -0.6374 4.6542 0.0000 31.0112 0.0000
# 6 0.0000 0.0000 0.0000 1.9282 0.0000 5.9179
#
#
#
# Elastic Compliance Matrix: (Units=1/GPa)
#
#
# Indices 1 2 3 4 5 6 
#
# 1 0.015637 -0.007141 -0.005734 0.000000 0.006883 0.000000
# 2 -0.007141 0.053561 -0.002746 0.000000 -0.001305 0.000000
# 3 -0.005734 -0.002746 0.012395 0.000000 -0.004179 0.000000
# 4 0.000000 0.000000 0.000000 0.238762 0.000000 -0.077795
# 5 0.006883 -0.001305 -0.004179 0.000000 0.035563 0.000000
# 6 0.000000 0.000000 0.000000 -0.077795 0.000000 0.194325
#
#
# Mechanical properties :
#
#
# Convention : Reuss Voigt Hill
#
# Bulk Modulus (GPa) = 19.85985 38.51399 29.18692
# Shear Modulus (GPa) = 8.35746 18.32612 13.34179
#
# Velocity S-wave (km/s) = 2.33440 3.45679 2.94948
# Velocity P-wave (km/s) = 4.49615 6.40667 5.53447
#
# Compressibility (1/GPa) = 0.05035285
#
# Stress axis : x y z
#
# Youngs Moduli (GPa) = 63.95052 18.67023 80.67907
#
# Poissons Ratio (x) = 0.13332 0.46259
# Poissons Ratio (y) = 0.45666 0.22151
# Poissons Ratio (z) = 0.36667 0.05126
#
# Static dielectric constant tensor:
#      x y z
#    x 1.553010 0.000000 -0.001330 
#    y 0.000000 1.488610 0.000000 
#    z -0.001330 0.000000 1.535670 
# 
# From -- ./inp_files/169412.got.cif
#   From: 2010.05.17/outbox.cif.g08.bks.cpg/sg12_85_cif.got.tgz:169412.got - 2010.06.03 13:09:07.
