data_PCOD9169419
_publ_section_title
;
Structure prediction by ZEFSAII (Michael W. Deem and Ramdas Pophale) SiO2 
 PCOD9169419
Probable space group: C 2/M
;
_chemical_formula_sum "Si O2"
_cell_formula_units_Z 64
_cell_length_a 19.510465
_cell_length_b 8.345426
_cell_length_c 21.325416
_cell_angle_alpha 90.000000
_cell_angle_beta 87.368334
_cell_angle_gamma 90.000000
_cell_volume 3468.609191
_symmetry_space_group_name_H-M "C 2/M"
_symmetry_group_IT_number 12
_symmetry_cell_setting 'monoclinic'
loop_
_space_group_symop_operation_xyz
x,y,z
-x,y,-z
-x,-y,-z
x,-y,z
1/2+x,1/2+y,z
1/2-x,1/2+y,-z
1/2-x,1/2-y,-z
1/2+x,1/2-y,z
loop_
_atom_site_type_symbol
_atom_site_label
_atom_site_fract_x
_atom_site_fract_y
_atom_site_fract_z
Si Si1 0.546745 0.191081 0.939075
Si Si2 0.123408 0.306137 0.258143
Si Si3 0.577853 0.309226 0.125111
Si Si4 0.144079 0.304802 0.461678
Si Si5 0.129142 0.306633 0.602609
Si Si6 0.525575 0.194999 0.376311
Si Si7 0.671611 0.308766 0.004636
Si Si8 0.759483 0.692907 0.655904
O O1 0.498944 0.242024 0.883174
O O2 0.551012 0.000000 0.940563
O O3 0.500000 0.248373 0.000000
O O4 0.622803 0.257674 0.948407
O O5 0.122782 0.500000 0.254373
O O6 0.106901 0.237512 0.191286
O O7 0.066362 0.257754 0.312041
O O8 0.195928 0.256243 0.286001
O O9 0.573946 0.500000 0.119468
O O10 0.630127 0.249052 0.068369
O O11 0.146241 0.500000 0.462581
O O12 0.151915 0.248455 0.532349
O O13 0.070946 0.258393 0.434620
O O14 0.200249 0.251120 0.408640
O O15 0.128245 0.500000 0.601077
O O16 0.182720 0.252599 0.652433
O O17 0.052089 0.248800 0.617832
O O18 0.524574 0.000000 0.376726
O O19 0.673230 0.500000 0.006635
O O20 0.750000 0.250000 0.000000
O O21 0.760337 0.500000 0.655134
#
# Coordination Sequence:
#
# PCOD9169419 Si02
#       8
#     8   8   8   8   8   8   8   8
#     4   9  17  31  53  79 105 134 166 197 234 284
#     4   9  18  34  52  66  87 128 173 202 232 283
#     4  10  20  34  54  78 102 130 166 207 244 284
#     4   8  14  26  45  67  90 119 155 193 237 292
#     4  10  17  26  46  72  92 114 150 199 250 293
#     4   8  15  28  46  68  91 117 156 203 241 279
#     4  10  20  34  53  80 112 138 162 199 246 289
#     4   9  18  31  45  64  94 127 157 193 239 293
#
# _framework density 18.451198999999999
#
# number of rings (size 3 to 8) (size 9 to 14) (size 15 to 20)
#    0.000    2.875    0.000    3.375    0.000    5.000 
#    0.000    1.875    0.000    7.500    0.000    0.000 
#    0.000    0.000    0.000    0.000    0.000    0.000 
#
# Total GULP energy -178320.425840 kJ/mol
# GULP energy per Si atom -5572.513308 kJ/mol
# Density = 1.840920 g / cm^3
# Si number density = 18.451199 Si / 1000 Ang^3
#
#
#
# Elastic Constant Matrix: (Units=GPa)
#
#
# Indices 1 2 3 4 5 6 
#
# 1 143.8353 18.7198 42.8029 0.0000 38.3153 0.0000
# 2 18.7198 16.1567 9.1827 0.0000 4.7118 0.0000
# 3 42.8029 9.1827 79.4750 0.0000 30.3684 0.0000
# 4 0.0000 0.0000 0.0000 16.4233 0.0000 8.9880
# 5 38.3153 4.7118 30.3684 0.0000 22.4968 0.0000
# 6 0.0000 0.0000 0.0000 8.9880 0.0000 27.3138
#
#
#
# Elastic Compliance Matrix: (Units=1/GPa)
#
#
# Indices 1 2 3 4 5 6 
#
# 1 0.014727 -0.011170 0.004233 0.000000 -0.028456 0.000000
# 2 -0.011170 0.075304 -0.008112 0.000000 0.014202 0.000000
# 3 0.004233 -0.008112 0.027563 0.000000 -0.042717 0.000000
# 4 0.000000 0.000000 0.000000 0.074263 0.000000 -0.024437
# 5 -0.028456 0.014202 -0.042717 0.000000 0.147604 0.000000
# 6 0.000000 0.000000 0.000000 -0.024437 0.000000 0.044653
#
#
# Mechanical properties :
#
#
# Convention : Reuss Voigt Hill
#
# Bulk Modulus (GPa) = 11.42917 42.31976 26.87447
# Shear Modulus (GPa) = 11.27706 24.49754 17.88730
#
# Velocity S-wave (km/s) = 2.47489 3.64771 3.11696
# Velocity P-wave (km/s) = 3.79137 6.38176 5.24887
#
# Compressibility (1/GPa) = 0.08749538
#
# Stress axis : x y z
#
# Youngs Moduli (GPa) = 67.90362 13.27946 36.28056
#
# Poissons Ratio (x) = 0.14833 -0.15356
# Poissons Ratio (y) = 0.75848 0.29430
# Poissons Ratio (z) = -0.28740 0.10772
#
# Static dielectric constant tensor:
#      x y z
#    x 1.651830 0.000000 0.000590 
#    y 0.000000 1.643650 0.000000 
#    z 0.000590 0.000000 1.634480 
# 
# From -- ./inp_files/314115.got.cif
#   From: 2010.05.17/outbox.cif.g08.bks.cpg/sg12_158_cif.got.tgz:314115.got - 2010.06.03 13:09:07.
