data_PCOD9169392
_publ_section_title
;
Structure prediction by ZEFSAII (Michael W. Deem and Ramdas Pophale) SiO2 
 PCOD9169392
Probable space group: C 2/M
;
_chemical_formula_sum "Si O2"
_cell_formula_units_Z 48
_cell_length_a 19.703568
_cell_length_b 14.519601
_cell_length_c 14.241950
_cell_angle_alpha 90.000000
_cell_angle_beta 26.900706
_cell_angle_gamma 90.000000
_cell_volume 1843.467473
_symmetry_space_group_name_H-M "C 2/M"
_symmetry_group_IT_number 12
_symmetry_cell_setting 'monoclinic'
loop_
_space_group_symop_operation_xyz
x,y,z
-x,y,-z
-x,-y,-z
x,-y,z
1/2+x,1/2+y,z
1/2-x,1/2+y,-z
1/2-x,1/2-y,-z
1/2+x,1/2-y,z
loop_
_atom_site_type_symbol
_atom_site_label
_atom_site_fract_x
_atom_site_fract_y
_atom_site_fract_z
Si Si1 0.772165 0.827202 0.159402
Si Si2 0.595053 0.664139 0.759899
Si Si3 0.036978 0.893378 0.629883
Si Si4 0.713871 0.109102 0.018694
Si Si5 0.156591 0.662358 0.820214
Si Si6 0.100895 0.604405 0.542532
O O1 0.820222 0.720358 0.112272
O O2 0.642572 0.842776 0.395367
O O3 0.732982 0.865747 0.106597
O O4 0.931191 0.873750 0.993550
O O5 0.570753 0.668793 0.678730
O O6 0.633327 0.757823 0.769048
O O7 0.744698 0.605883 0.590410
O O8 0.188730 0.889627 0.383758
O O9 0.879963 0.860663 0.778253
O O10 0.014651 0.000000 0.687518
O O11 0.710900 0.000000 0.000569
O O12 0.540364 0.138675 0.223113
O O13 0.000000 0.609304 0.000000
O O14 0.066600 0.500000 0.556176
#
# Coordination Sequence:
#
# PCOD9169392 Si02
#       6
#     8   8   8   8   8   8
#     4   9  17  29  45  67  96 127 157 188 228 277
#     4   9  18  31  47  69  96 124 155 192 234 279
#     4  10  19  32  50  70  94 124 159 195 233 279
#     4   9  18  30  46  71 101 128 151 186 235 282
#     4   9  18  32  50  70  93 122 156 198 238 273
#     4  10  17  26  44  71 101 127 153 188 231 281
#
# _framework density 26.037890000000001
#
# number of rings (size 3 to 8) (size 9 to 14) (size 15 to 20)
#    0.000    2.667    0.000    3.500    0.000    4.333 
#    0.000    3.333    0.000    8.000    0.000    0.000 
#    0.000   16.000    0.000    0.000    0.000    0.000 
#
# Total GULP energy -133814.424709 kJ/mol
# GULP energy per Si atom -5575.601030 kJ/mol
# Density = 2.597863 g / cm^3
# Si number density = 26.037890 Si / 1000 Ang^3
#
#
#
# Elastic Constant Matrix: (Units=GPa)
#
#
# Indices 1 2 3 4 5 6 
#
# 1 46.6501 8.1631 15.5394 0.0000 -23.0646 0.0000
# 2 8.1631 57.5272 21.0938 0.0000 -1.5831 0.0001
# 3 15.5394 21.0938 240.0946 0.0000 -32.5713 0.0001
# 4 0.0000 0.0000 0.0000 33.9248 0.0001 -5.1763
# 5 -23.0646 -1.5831 -32.5713 0.0001 39.8568 0.0000
# 6 0.0000 0.0001 0.0001 -5.1763 0.0000 5.3912
#
#
#
# Elastic Compliance Matrix: (Units=1/GPa)
#
#
# Indices 1 2 3 4 5 6 
#
# 1 0.031031 -0.004214 0.000872 0.000000 0.018502 0.000000
# 2 -0.004214 0.018549 -0.001786 0.000000 -0.003161 0.000000
# 3 0.000872 -0.001786 0.004863 0.000000 0.004408 0.000000
# 4 0.000000 0.000000 0.000000 0.034537 0.000000 0.033161
# 5 0.018502 -0.003161 0.004408 0.000000 0.039274 0.000000
# 6 0.000000 0.000000 0.000000 0.033161 0.000000 0.217328
#
#
# Mechanical properties :
#
#
# Convention : Reuss Voigt Hill
#
# Bulk Modulus (GPa) = 22.63059 48.20716 35.41888
# Shear Modulus (GPa) = 13.49286 35.79960 24.64623
#
# Velocity S-wave (km/s) = 2.27887 3.71199 3.07995
# Velocity P-wave (km/s) = 3.95406 6.07670 5.12645
#
# Compressibility (1/GPa) = 0.04418797
#
# Stress axis : x y z
#
# Youngs Moduli (GPa) = 32.22579 53.91183 205.61376
#
# Poissons Ratio (x) = 0.22717 -0.17927
# Poissons Ratio (y) = 0.13579 0.36717
# Poissons Ratio (z) = -0.02810 0.09627
#
# Static dielectric constant tensor:
#      x y z
#    x 2.075530 0.000000 0.029770 
#    y 0.000000 2.101510 0.000000 
#    z 0.029770 0.000000 2.152850 
# 
# From -- ./inp_files/74599.got.cif
#   From: 2010.05.17/outbox.cif.g08.bks.cpg/sg12_38_cif.got.tgz:74599.got - 2010.06.03 13:09:07.
