data_PCOD9169792
_publ_section_title
;
Structure prediction by ZEFSAII (Michael W. Deem and Ramdas Pophale) SiO2 
 PCOD9169792
Probable space group: C 2/M
;
_chemical_formula_sum "Si O2"
_cell_formula_units_Z 64
_cell_length_a 19.805321
_cell_length_b 20.431735
_cell_length_c 30.474184
_cell_angle_alpha 90.000000
_cell_angle_beta 161.579878
_cell_angle_gamma 90.000000
_cell_volume 3896.564924
_symmetry_space_group_name_H-M "C 2/M"
_symmetry_group_IT_number 12
_symmetry_cell_setting 'monoclinic'
loop_
_space_group_symop_operation_xyz
x,y,z
-x,y,-z
-x,-y,-z
x,-y,z
1/2+x,1/2+y,z
1/2-x,1/2+y,-z
1/2-x,1/2-y,-z
1/2+x,1/2-y,z
loop_
_atom_site_type_symbol
_atom_site_label
_atom_site_fract_x
_atom_site_fract_y
_atom_site_fract_z
Si Si1 0.161586 0.304859 0.912360
Si Si2 0.829678 0.215213 0.592224
Si Si3 0.516861 0.576395 0.586739
Si Si4 0.993577 0.427532 0.134166
Si Si5 0.184976 0.251019 0.080807
Si Si6 0.689739 0.700317 0.583637
Si Si7 0.354327 0.097103 0.951331
Si Si8 0.932974 0.926854 0.638491
O O1 0.288168 0.295500 0.944716
O O2 0.149648 0.375068 0.928563
O O3 0.915055 0.294268 0.747026
O O4 0.250000 0.250000 0.000000
O O5 0.750000 0.250000 0.500000
O O6 0.699697 0.245214 0.552238
O O7 0.799729 0.137711 0.567503
O O8 0.079796 0.235632 0.753300
O O9 0.466193 0.500000 0.545505
O O10 0.753913 0.590450 0.713760
O O11 0.354770 0.629193 0.466200
O O12 0.518459 0.582283 0.640976
O O13 0.979944 0.500000 0.145563
O O14 0.917128 0.430854 0.036679
O O15 0.120891 0.324633 0.027115
O O16 0.000000 0.228521 0.000000
O O17 0.500000 0.712024 0.500000
O O18 0.121766 0.077783 0.790657
O O19 0.500000 0.077617 0.000000
O O20 0.837785 0.000000 0.581527
#
# Coordination Sequence:
#
# PCOD9169792 Si02
#       8
#     8   8   8   8   8   8   8   8
#     4  11  22  37  54  78 111 144 188 224 268 326
#     4  10  20  34  54  79 106 136 180 222 268 322
#     4  10  20  33  53  81 113 149 175 209 279 348
#     4  11  21  32  51  81 115 148 178 217 275 336
#     4   9  20  34  55  78 103 139 181 225 268 311
#     4  11  22  36  54  79 113 144 179 224 276 325
#     4  10  17  28  48  77 109 141 176 213 266 328
#     4  10  19  31  49  74 108 142 177 223 269 321
#
# _framework density 16.424723
#
# number of rings (size 3 to 8) (size 9 to 14) (size 15 to 20)
#    0.000    1.750    5.000    0.375    0.000    2.250 
#    0.000    0.000    0.000    0.750    0.000    1.750 
#    0.000    0.000    0.000    0.000    0.000    0.000 
#
# Total GULP energy -178311.868510 kJ/mol
# GULP energy per Si atom -5572.245891 kJ/mol
# Density = 1.638734 g / cm^3
# Si number density = 16.424723 Si / 1000 Ang^3
#
#
#
# Elastic Constant Matrix: (Units=GPa)
#
#
# Indices 1 2 3 4 5 6 
#
# 1 104.9881 60.4312 33.5089 0.0061 11.1336 -0.0002
# 2 60.4312 136.1588 32.9112 0.0074 5.5003 -0.0002
# 3 33.5089 32.9112 50.3144 0.0206 -4.6079 0.0097
# 4 0.0061 0.0074 0.0206 20.6115 0.0059 0.5434
# 5 11.1336 5.5003 -4.6079 0.0059 25.3644 -0.0033
# 6 -0.0002 -0.0002 0.0097 0.5434 -0.0033 20.9273
#
#
#
# Elastic Compliance Matrix: (Units=1/GPa)
#
#
# Indices 1 2 3 4 5 6 
#
# 1 0.015518 -0.004676 -0.007939 0.000007 -0.007240 0.000002
# 2 -0.004676 0.010359 -0.003742 0.000002 -0.000874 0.000002
# 3 -0.007939 -0.003742 0.028478 -0.000027 0.009470 -0.000011
# 4 0.000007 0.000002 -0.000027 0.048550 -0.000020 -0.001261
# 5 -0.007240 -0.000874 0.009470 -0.000020 0.044513 0.000003
# 6 0.000002 0.000002 -0.000011 -0.001261 0.000003 0.047817
#
#
# Mechanical properties :
#
#
# Convention : Reuss Voigt Hill
#
# Bulk Modulus (GPa) = 46.21006 60.57377 53.39191
# Shear Modulus (GPa) = 21.26178 24.35465 22.80821
#
# Velocity S-wave (km/s) = 3.60182 3.85490 3.73050
# Velocity P-wave (km/s) = 6.74485 7.53481 7.15075
#
# Compressibility (1/GPa) = 0.02164031
#
# Stress axis : x y z
#
# Youngs Moduli (GPa) = 64.44083 96.52995 35.11524
#
# Poissons Ratio (x) = 0.45136 0.27879
# Poissons Ratio (y) = 0.30132 0.13141
# Poissons Ratio (z) = 0.51162 0.36123
#
# Static dielectric constant tensor:
#      x y z
#    x 1.584370 0.000130 0.012810 
#    y 0.000130 1.621800 0.000120 
#    z 0.012810 0.000120 1.588290 
# 
# From -- ./inp_files/379870.got.cif
#   From: 2010.05.17/outbox.cif.g08.bks.cpg/sg12_190_cif.got.tgz:379870.got - 2010.06.03 13:09:07.
