data_PCOD9169170
_publ_section_title
;
Structure prediction by ZEFSAII (Michael W. Deem and Ramdas Pophale) SiO2 
 PCOD9169170
Probable space group: C 2/M
;
_chemical_formula_sum "Si O2"
_cell_formula_units_Z 64
_cell_length_a 22.554794
_cell_length_b 8.978330
_cell_length_c 23.578996
_cell_angle_alpha 90.000000
_cell_angle_beta 55.611471
_cell_angle_gamma 90.000000
_cell_volume 3940.333235
_symmetry_space_group_name_H-M "C 2/M"
_symmetry_group_IT_number 12
_symmetry_cell_setting 'monoclinic'
loop_
_space_group_symop_operation_xyz
x,y,z
-x,y,-z
-x,-y,-z
x,-y,z
1/2+x,1/2+y,z
1/2-x,1/2+y,-z
1/2-x,1/2-y,-z
1/2+x,1/2-y,z
loop_
_atom_site_type_symbol
_atom_site_label
_atom_site_fract_x
_atom_site_fract_y
_atom_site_fract_z
Si Si1 0.341953 0.821567 0.127005
Si Si2 0.851071 0.323409 0.296227
Si Si3 0.564425 0.677687 0.532166
Si Si4 0.048679 0.175890 0.843705
Si Si5 0.680533 0.323003 0.566157
Si Si6 0.557161 0.827269 0.021546
Si Si7 0.722608 0.324906 0.274577
Si Si8 0.911233 0.677496 0.599142
O O1 0.393468 0.727155 0.140068
O O2 0.261946 0.795625 0.193208
O O3 0.356424 0.000000 0.128637
O O4 0.367182 0.789108 0.049389
O O5 0.859206 0.500000 0.298542
O O6 0.921955 0.255755 0.228385
O O7 0.834194 0.247337 0.364795
O O8 0.784119 0.299480 0.289167
O O9 0.557007 0.500000 0.527343
O O10 0.613671 0.702774 0.560082
O O11 0.600103 0.750420 0.457035
O O12 0.486436 0.752812 0.579379
O O13 0.973272 0.230755 0.910631
O O14 0.049409 0.000000 0.836084
O O15 0.691248 0.500000 0.565685
O O16 0.750000 0.250000 0.500000
O O17 0.557713 0.000000 0.038495
O O18 0.500000 0.815271 0.000000
O O19 0.703000 0.500000 0.287735
O O20 0.654289 0.226174 0.325788
O O21 0.916956 0.500000 0.591435
#
# Coordination Sequence:
#
# PCOD9169170 Si02
#       8
#     8   8   8   8   8   8   8   8
#     4   8  15  26  39  56  82 118 155 187 222 270
#     4  10  20  33  48  65  90 125 159 191 228 272
#     4  10  21  37  53  68  90 121 152 183 225 275
#     4  10  17  24  37  58  85 116 151 190 228 268
#     4  11  23  36  52  73  95 121 152 187 228 272
#     4   8  13  23  37  53  78 114 153 187 221 266
#     4   9  17  30  46  65  91 124 157 186 226 275
#     4  11  21  32  50  73  93 116 150 192 230 264
#
# _framework density 16.242280000000001
#
# number of rings (size 3 to 8) (size 9 to 14) (size 15 to 20)
#    0.000    2.375    0.000    6.375    0.000    9.750 
#    0.000    0.000    0.000    0.000    0.000    0.000 
#    0.000    1.000    0.000    3.000    0.000    5.375 
#
# Total GULP energy -178346.308452 kJ/mol
# GULP energy per Si atom -5573.322139 kJ/mol
# Density = 1.620531 g / cm^3
# Si number density = 16.242280 Si / 1000 Ang^3
#
#
#
# Elastic Constant Matrix: (Units=GPa)
#
#
# Indices 1 2 3 4 5 6 
#
# 1 22.2799 29.1594 30.6919 -0.0002 -6.7517 -0.0004
# 2 29.1594 92.2212 65.7753 -0.0003 -10.4412 -0.0004
# 3 30.6919 65.7753 142.8725 0.0000 -22.8830 0.0000
# 4 -0.0002 -0.0003 0.0000 28.0114 0.0000 -1.3576
# 5 -6.7517 -10.4412 -22.8830 0.0000 19.0866 0.0000
# 6 -0.0004 -0.0004 0.0000 -1.3576 0.0000 15.7971
#
#
#
# Elastic Compliance Matrix: (Units=1/GPa)
#
#
# Indices 1 2 3 4 5 6 
#
# 1 0.084633 -0.020551 -0.007086 0.000001 0.010200 0.000002
# 2 -0.020551 0.021135 -0.005728 0.000000 -0.002575 0.000000
# 3 -0.007086 -0.005728 0.012692 0.000000 0.009577 0.000000
# 4 0.000001 0.000000 0.000000 0.035849 0.000000 0.003081
# 5 0.010200 -0.002575 0.009577 0.000000 0.066074 0.000000
# 6 0.000002 0.000000 0.000000 0.003081 0.000000 0.063567
#
#
# Mechanical properties :
#
#
# Convention : Reuss Voigt Hill
#
# Bulk Modulus (GPa) = 19.33095 56.51408 37.92251
# Shear Modulus (GPa) = 13.58977 21.36216 17.47596
#
# Velocity S-wave (km/s) = 2.89570 3.63053 3.28373
# Velocity P-wave (km/s) = 4.80703 7.24184 6.14621
#
# Compressibility (1/GPa) = 0.05173053
#
# Stress axis : x y z
#
# Youngs Moduli (GPa) = 11.81578 47.31415 78.78817
#
# Poissons Ratio (x) = 0.97237 0.55827
# Poissons Ratio (y) = 0.24283 0.45128
# Poissons Ratio (z) = 0.08372 0.27101
#
# Static dielectric constant tensor:
#      x y z
#    x 1.532760 0.000000 -0.023830 
#    y 0.000000 1.539130 0.000000 
#    z -0.023830 0.000000 1.578020 
# 
# From -- ./inp_files/323633.got.cif
#   From: 2010.05.17/outbox.cif.g08.bks.cpg/sg12_162_cif.got.tgz:323633.got - 2010.06.03 13:09:07.
