data_PCOD9169833
_publ_section_title
;
Structure prediction by ZEFSAII (Michael W. Deem and Ramdas Pophale) SiO2 
 PCOD9169833
Probable space group: C 2/M
;
_chemical_formula_sum "Si O2"
_cell_formula_units_Z 56
_cell_length_a 14.979506
_cell_length_b 13.373600
_cell_length_c 27.246692
_cell_angle_alpha 90.000000
_cell_angle_beta 149.725052
_cell_angle_gamma 90.000000
_cell_volume 2751.816247
_symmetry_space_group_name_H-M "C 2/M"
_symmetry_group_IT_number 12
_symmetry_cell_setting 'monoclinic'
loop_
_space_group_symop_operation_xyz
x,y,z
-x,y,-z
-x,-y,-z
x,-y,z
1/2+x,1/2+y,z
1/2-x,1/2+y,-z
1/2-x,1/2-y,-z
1/2+x,1/2-y,z
loop_
_atom_site_type_symbol
_atom_site_label
_atom_site_fract_x
_atom_site_fract_y
_atom_site_fract_z
Si Si1 0.397117 0.818702 0.661089
Si Si2 0.302210 0.618283 0.345412
Si Si3 0.576719 0.186075 0.087972
Si Si4 0.257160 0.614153 0.871615
Si Si5 0.435920 0.879256 0.120125
Si Si6 0.474936 0.609669 0.280094
Si Si7 0.840238 0.883987 0.527260
O O1 0.238332 0.862551 0.617527
O O2 0.570597 0.882656 0.754189
O O3 0.447959 0.709970 0.706957
O O4 0.330810 0.824982 0.573718
O O5 0.316401 0.500000 0.342838
O O6 0.126517 0.651175 0.233310
O O7 0.485175 0.662860 0.414859
O O8 0.625188 0.301890 0.099123
O O9 0.441489 0.168807 0.068696
O O10 0.766042 0.132597 0.189956
O O11 0.500000 0.145526 0.000000
O O12 0.320550 0.500000 0.900233
O O13 0.206641 0.642469 0.904345
O O14 0.432695 0.000000 0.112905
O O15 0.488875 0.500000 0.263169
O O16 0.594210 0.607921 0.385783
O O17 0.808183 0.000000 0.496743
#
# Coordination Sequence:
#
# PCOD9169833 Si02
#       7
#     8   8   8   8   8   8   8
#     4  10  18  29  50  79 101 133 169 207 251 315
#     4   9  16  28  50  77 103 129 166 215 260 300
#     4  11  22  35  58  83 103 137 183 226 267 317
#     4   9  20  37  56  81 112 141 172 217 272 323
#     4   9  17  34  56  78 108 142 175 220 269 311
#     4  10  21  35  48  71 104 136 168 212 263 306
#     4  10  17  28  50  78 103 127 165 212 257 303
#
# _framework density 20.350197000000001
#
# number of rings (size 3 to 8) (size 9 to 14) (size 15 to 20)
#    0.000    2.286    1.429    3.429    0.000    3.143 
#    0.000    0.000    0.000   10.286    0.000    0.000 
#    0.000    0.000    0.000    0.000    0.000    0.000 
#
# Total GULP energy -155898.382304 kJ/mol
# GULP energy per Si atom -5567.799368 kJ/mol
# Density = 2.030388 g / cm^3
# Si number density = 20.350197 Si / 1000 Ang^3
#
#
#
# Elastic Constant Matrix: (Units=GPa)
#
#
# Indices 1 2 3 4 5 6 
#
# 1 57.8626 21.2827 25.0074 0.0000 -8.2537 0.0000
# 2 21.2827 99.3151 29.5884 -0.0001 3.0328 0.0000
# 3 25.0074 29.5884 66.1001 -0.0002 -10.1472 0.0000
# 4 0.0000 -0.0001 -0.0002 4.7888 0.0000 -13.4106
# 5 -8.2537 3.0328 -10.1472 0.0000 29.8738 0.0000
# 6 0.0000 0.0000 0.0000 -13.4106 0.0000 21.9169
#
#
#
# Elastic Compliance Matrix: (Units=1/GPa)
#
#
# Indices 1 2 3 4 5 6 
#
# 1 0.021644 -0.002902 -0.006252 0.000000 0.004151 0.000000
# 2 -0.002902 0.012288 -0.004976 0.000000 -0.003740 0.000000
# 3 -0.006252 -0.004976 0.020608 -0.000001 0.005778 -0.000001
# 4 0.000000 0.000000 -0.000001 -0.292661 -0.000001 -0.179074
# 5 0.004151 -0.003740 0.005778 -0.000001 0.036963 0.000000
# 6 0.000000 0.000000 -0.000001 -0.179074 0.000000 -0.063946
#
#
# Mechanical properties :
#
#
# Convention : Reuss Voigt Hill
#
# Bulk Modulus (GPa) = 38.05389 41.67055 39.86222
# Shear Modulus (GPa) = -21.92192 21.14253 -0.38970
#
# Velocity S-wave (km/s) = -3.28568 3.22675 -0.43808
# Velocity P-wave (km/s) = 2.08466 5.86547 4.40168
#
# Compressibility (1/GPa) = 0.02627852
#
# Stress axis : x y z
#
# Youngs Moduli (GPa) = 46.20213 81.38218 48.52374
#
# Poissons Ratio (x) = 0.23619 0.30338
# Poissons Ratio (y) = 0.13409 0.24147
# Poissons Ratio (z) = 0.28886 0.40499
#
# Static dielectric constant tensor:
#      x y z
#    x 1.747830 0.000000 -0.025520 
#    y 0.000000 1.792560 0.000000 
#    z -0.025520 0.000000 1.782450 
# 
# From -- ./inp_files/339934.got.cif
#   From: 2010.05.17/outbox.cif.g08.bks.cpg/sg12_170_cif.got.tgz:339934.got - 2010.06.03 13:09:07.
