data_PCOD9169385
_publ_section_title
;
Structure prediction by ZEFSAII (Michael W. Deem and Ramdas Pophale) SiO2 
 PCOD9169385
Probable space group: C 2/M
;
_chemical_formula_sum "Si O2"
_cell_formula_units_Z 64
_cell_length_a 21.001584
_cell_length_b 7.522826
_cell_length_c 20.590208
_cell_angle_alpha 90.000000
_cell_angle_beta 100.955094
_cell_angle_gamma 90.000000
_cell_volume 3193.790347
_symmetry_space_group_name_H-M "C 2/M"
_symmetry_group_IT_number 12
_symmetry_cell_setting 'monoclinic'
loop_
_space_group_symop_operation_xyz
x,y,z
-x,y,-z
-x,-y,-z
x,-y,z
1/2+x,1/2+y,z
1/2-x,1/2+y,-z
1/2-x,1/2-y,-z
1/2+x,1/2-y,z
loop_
_atom_site_type_symbol
_atom_site_label
_atom_site_fract_x
_atom_site_fract_y
_atom_site_fract_z
Si Si1 0.408317 0.288392 0.130665
Si Si2 0.324110 0.286726 0.994847
Si Si3 0.123064 0.704710 0.630023
Si Si4 0.480714 0.708757 0.651126
Si Si5 0.571423 0.214641 0.490448
Si Si6 0.829652 0.217657 0.848429
Si Si7 0.954288 0.782317 0.791509
Si Si8 0.689470 0.214907 0.770591
O O1 0.414590 0.500000 0.122820
O O2 0.480208 0.221179 0.159944
O O3 0.362861 0.260655 0.184441
O O4 0.371960 0.216363 0.059951
O O5 0.331459 0.500000 0.994852
O O6 0.336457 0.222329 0.924264
O O7 0.250000 0.250000 0.000000
O O8 0.143752 0.500000 0.626995
O O9 0.119612 0.780710 0.556201
O O10 0.166142 0.784115 0.695929
O O11 0.048608 0.705484 0.641702
O O12 0.495109 0.500000 0.659341
O O13 0.427118 0.733175 0.584418
O O14 0.458532 0.773567 0.717174
O O15 0.500000 0.274961 0.500000
O O16 0.572341 0.000000 0.492805
O O17 0.889756 0.274624 0.816024
O O18 0.760372 0.275385 0.806578
O O19 0.828992 0.000000 0.848834
O O20 0.954120 0.000000 0.791647
O O21 0.690753 0.000000 0.767443
#
# Coordination Sequence:
#
# PCOD9169385 Si02
#       8
#     8   8   8   8   8   8   8   8
#     4  10  19  31  49  73  98 125 155 196 244 281
#     4  10  19  31  51  74  96 124 158 197 240 281
#     4   9  17  28  44  68  94 121 155 195 235 276
#     4  10  17  26  44  68  93 124 156 191 236 279
#     4   8  15  27  41  62  94 124 152 191 234 276
#     4   9  18  32  49  71  96 126 162 197 233 280
#     4   9  18  31  46  69 101 128 157 196 237 281
#     4  10  18  30  51  73  93 123 163 199 232 278
#
# _framework density 20.038886999999999
#
# number of rings (size 3 to 8) (size 9 to 14) (size 15 to 20)
#    0.000    2.625    2.500    1.125    0.000    2.750 
#    0.000    2.500    0.000    5.250    0.000    1.750 
#    0.000    0.000    0.000    0.000    0.000    1.250 
#
# Total GULP energy -178457.292016 kJ/mol
# GULP energy per Si atom -5576.790375 kJ/mol
# Density = 1.999328 g / cm^3
# Si number density = 20.038887 Si / 1000 Ang^3
#
#
#
# Elastic Constant Matrix: (Units=GPa)
#
#
# Indices 1 2 3 4 5 6 
#
# 1 91.4847 -8.8942 53.8428 0.0000 6.4729 0.0000
# 2 -8.8942 51.7666 -1.2265 0.0000 3.0241 0.0000
# 3 53.8428 -1.2265 186.4340 0.0000 24.8660 0.0000
# 4 0.0000 0.0000 0.0000 31.8008 0.0000 -4.2000
# 5 6.4729 3.0241 24.8660 0.0000 27.0733 0.0000
# 6 0.0000 0.0000 0.0000 -4.2000 0.0000 11.2842
#
#
#
# Elastic Compliance Matrix: (Units=1/GPa)
#
#
# Indices 1 2 3 4 5 6 
#
# 1 0.013418 0.002208 -0.003875 0.000000 0.000104 0.000000
# 2 0.002208 0.019845 -0.000161 0.000000 -0.002597 0.000000
# 3 -0.003875 -0.000161 0.007243 0.000000 -0.005708 0.000000
# 4 0.000000 0.000000 0.000000 0.033071 0.000000 0.012309
# 5 0.000104 -0.002597 -0.005708 0.000000 0.042445 0.000000
# 6 0.000000 0.000000 0.000000 0.012309 0.000000 0.093201
#
#
# Mechanical properties :
#
#
# Convention : Reuss Voigt Hill
#
# Bulk Modulus (GPa) = 27.13639 46.34772 36.74205
# Shear Modulus (GPa) = 22.20618 33.09586 27.65102
#
# Velocity S-wave (km/s) = 3.33251 4.06837 3.71869
# Velocity P-wave (km/s) = 5.32717 6.72666 6.06740
#
# Compressibility (1/GPa) = 0.03685089
#
# Stress axis : x y z
#
# Youngs Moduli (GPa) = 74.52426 50.39135 138.06182
#
# Poissons Ratio (x) = -0.11124 0.53494
# Poissons Ratio (y) = -0.16452 0.02218
# Poissons Ratio (z) = 0.28875 0.00809
#
# Static dielectric constant tensor:
#      x y z
#    x 1.650600 0.000000 0.029540 
#    y 0.000000 -1.865730 0.000000 
#    z 0.029540 0.000000 1.751120 
# 
# From -- ./inp_files/319223.got.cif
#   From: 2010.05.17/outbox.cif.g08.bks.cpg/sg12_160_cif.got.tgz:319223.got - 2010.06.03 13:09:07.
