data_PCOD9169654
_publ_section_title
;
Structure prediction by ZEFSAII (Michael W. Deem and Ramdas Pophale) SiO2 
 PCOD9169654
Probable space group: C 2/M
;
_chemical_formula_sum "Si O2"
_cell_formula_units_Z 44
_cell_length_a 10.270300
_cell_length_b 28.963570
_cell_length_c 8.790525
_cell_angle_alpha 90.000000
_cell_angle_beta 136.807576
_cell_angle_gamma 90.000000
_cell_volume 1789.749350
_symmetry_space_group_name_H-M "C 2/M"
_symmetry_group_IT_number 12
_symmetry_cell_setting 'monoclinic'
loop_
_space_group_symop_operation_xyz
x,y,z
-x,y,-z
-x,-y,-z
x,-y,z
1/2+x,1/2+y,z
1/2-x,1/2+y,-z
1/2-x,1/2-y,-z
1/2+x,1/2-y,z
loop_
_atom_site_type_symbol
_atom_site_label
_atom_site_fract_x
_atom_site_fract_y
_atom_site_fract_z
Si Si1 0.228742 0.287627 0.683255
Si Si2 0.707455 0.689161 0.612837
Si Si3 0.457214 0.948745 0.140686
Si Si4 0.500000 0.603286 0.500000
Si Si5 0.797491 0.619178 0.236840
Si Si6 0.863076 0.948222 0.658834
O O1 0.275489 0.306670 0.554032
O O2 0.311800 0.235521 0.763439
O O3 0.279832 0.328460 0.844093
O O4 0.000000 0.285346 0.500000
O O5 0.500000 0.698886 0.500000
O O6 0.694025 0.635062 0.647208
O O7 0.342236 0.907445 0.120853
O O8 0.657820 0.950390 0.400838
O O9 0.368944 0.000000 0.088950
O O10 0.500000 0.943326 0.000000
O O11 0.496665 0.571601 0.349364
O O12 0.665923 0.587865 0.230972
O O13 0.000000 0.621792 0.500000
O O14 0.910082 0.000000 0.748140
#
# Coordination Sequence:
#
# PCOD9169654 Si02
#       6
#     8   8   8   4   8   8
#     4   9  14  23  39  63  92 115 145 186 233 270
#     4   8  15  24  37  59  97 119 142 179 235 272
#     4   9  18  31  46  65  91 123 156 192 233 277
#     4  10  17  28  40  66  98 122 149 184 236 282
#     4   9  15  25  44  68  92 109 146 192 236 267
#     4  10  18  28  44  67  95 122 149 188 231 279
#
# _framework density 24.584447000000001
#
# number of rings (size 3 to 8) (size 9 to 14) (size 15 to 20)
#    0.545    2.364    1.818    0.818    0.000    2.182 
#    0.000    0.000    0.000    1.091    0.000    6.364 
#    0.000    0.000    0.000    0.000    0.000    0.000 
#
# Total GULP energy -122554.336465 kJ/mol
# GULP energy per Si atom -5570.651657 kJ/mol
# Density = 2.452849 g / cm^3
# Si number density = 24.584447 Si / 1000 Ang^3
#
#
#
# Elastic Constant Matrix: (Units=GPa)
#
#
# Indices 1 2 3 4 5 6 
#
# 1 76.2660 -2.8294 24.3202 0.0000 -21.3200 0.0000
# 2 -2.8294 189.5257 9.0823 0.0000 -12.7348 0.0000
# 3 24.3202 9.0823 61.5188 0.0000 8.5689 0.0000
# 4 0.0000 0.0000 0.0000 64.1362 0.0000 -104.2296
# 5 -21.3200 -12.7348 8.5689 0.0000 36.7634 0.0000
# 6 0.0000 0.0000 0.0000 -104.2296 0.0000 148.2902
#
#
#
# Elastic Compliance Matrix: (Units=1/GPa)
#
#
# Indices 1 2 3 4 5 6 
#
# 1 0.020806 0.001839 -0.010611 0.000000 0.015176 0.000000
# 2 0.001839 0.005637 -0.002046 0.000000 0.003496 0.000000
# 3 -0.010611 -0.002046 0.022436 0.000000 -0.012092 0.000000
# 4 0.000000 0.000000 0.000000 -0.109598 0.000000 -0.077034
# 5 0.015176 0.003496 -0.012092 0.000000 0.040031 0.000000
# 6 0.000000 0.000000 0.000000 -0.077034 0.000000 -0.047402
#
#
# Mechanical properties :
#
#
# Convention : Reuss Voigt Hill
#
# Bulk Modulus (GPa) = 36.70615 43.16187 39.93401
# Shear Modulus (GPa) = -133.78860 69.62045 -32.08408
#
# Velocity S-wave (km/s) = -7.38500 5.32732 -3.61647
# Velocity P-wave (km/s) = 7.59964 7.44548 1.07687
#
# Compressibility (1/GPa) = 0.02724339
#
# Stress axis : x y z
#
# Youngs Moduli (GPa) = 48.06236 177.40798 44.57082
#
# Poissons Ratio (x) = -0.32622 0.47293
# Poissons Ratio (y) = -0.08838 0.09119
# Poissons Ratio (z) = 0.50998 0.36299
#
# Static dielectric constant tensor:
#      x y z
#    x 1.939370 0.000000 0.076760 
#    y 0.000000 2.143410 0.000000 
#    z 0.076760 0.000000 1.938970 
# 
# From -- ./inp_files/53565.got.cif
#   From: 2010.05.17/outbox.cif.g08.bks.cpg/sg12_27_cif.got.tgz:53565.got - 2010.06.03 13:09:07.
