data_PCOD9169052
_publ_section_title
;
Structure prediction by ZEFSAII (Michael W. Deem and Ramdas Pophale) SiO2 
 PCOD9169052
Probable space group: C 2/M
;
_chemical_formula_sum "Si O2"
_cell_formula_units_Z 44
_cell_length_a 14.246463
_cell_length_b 16.524761
_cell_length_c 15.329389
_cell_angle_alpha 90.000000
_cell_angle_beta 38.989372
_cell_angle_gamma 90.000000
_cell_volume 2270.593496
_symmetry_space_group_name_H-M "C 2/M"
_symmetry_group_IT_number 12
_symmetry_cell_setting 'monoclinic'
loop_
_space_group_symop_operation_xyz
x,y,z
-x,y,-z
-x,-y,-z
x,-y,z
1/2+x,1/2+y,z
1/2-x,1/2+y,-z
1/2-x,1/2-y,-z
1/2+x,1/2-y,z
loop_
_atom_site_type_symbol
_atom_site_label
_atom_site_fract_x
_atom_site_fract_y
_atom_site_fract_z
Si Si1 0.271731 0.303010 0.570984
Si Si2 0.061443 0.313775 0.192353
Si Si3 0.373639 0.631364 0.917184
Si Si4 0.443390 0.410009 0.676186
Si Si5 0.500000 0.656593 0.000000
Si Si6 0.700504 0.751414 0.264324
O O1 0.250000 0.250000 0.500000
O O2 0.400514 0.369108 0.464711
O O3 0.316748 0.244961 0.619251
O O4 0.106777 0.339647 0.705764
O O5 0.085471 0.226286 0.129066
O O6 0.090097 0.295553 0.275072
O O7 0.195405 0.369887 0.061085
O O8 0.430676 0.588251 0.790030
O O9 0.454830 0.606903 0.947251
O O10 0.424900 0.500000 0.654428
O O11 0.319620 0.344237 0.738407
O O12 0.359714 0.713091 0.123692
#
# Coordination Sequence:
#
# PCOD9169052 Si02
#       6
#     8   8   8   8   4   8
#     4  12  20  34  56  84 110 146 187 230 276 324
#     4   9  18  32  55  82 108 137 181 241 273 313
#     4   9  17  34  55  81 108 139 185 233 279 316
#     4  11  24  38  52  77 121 157 181 220 277 343
#     4  10  16  32  62  90 104 132 182 258 274 310
#     4  10  20  32  56  83 114 138 185 229 280 323
#
# _framework density 19.378195000000002
#
# number of rings (size 3 to 8) (size 9 to 14) (size 15 to 20)
#    0.000    1.818    5.455    1.636    0.000    1.455 
#    0.000    1.818    0.000    0.000    0.000   12.727 
#    0.000    0.000    0.000    0.000    0.000    0.000 
#
# Total GULP energy -122660.971945 kJ/mol
# GULP energy per Si atom -5575.498725 kJ/mol
# Density = 1.933409 g / cm^3
# Si number density = 19.378195 Si / 1000 Ang^3
#
#
#
# Elastic Constant Matrix: (Units=GPa)
#
#
# Indices 1 2 3 4 5 6 
#
# 1 84.1387 -17.5020 32.1075 0.0001 12.0224 0.0000
# 2 -17.5020 35.6851 3.3876 0.0000 -6.0943 0.0000
# 3 32.1075 3.3876 99.9901 0.0002 0.9968 -0.0001
# 4 0.0001 0.0000 0.0002 0.7236 -0.0001 -2.5515
# 5 12.0224 -6.0943 0.9968 -0.0001 52.2286 0.0001
# 6 0.0000 0.0000 -0.0001 -2.5515 0.0001 2.1959
#
#
#
# Elastic Compliance Matrix: (Units=1/GPa)
#
#
# Indices 1 2 3 4 5 6 
#
# 1 0.015949 0.007879 -0.005362 0.000000 -0.002650 0.000000
# 2 0.007879 0.032585 -0.003654 0.000000 0.002058 0.000000
# 3 -0.005362 -0.003654 0.011841 0.000000 0.000582 0.000001
# 4 0.000000 0.000000 0.000000 -0.446208 0.000000 -0.518468
# 5 -0.002650 0.002058 0.000582 0.000000 0.019986 -0.000001
# 6 0.000000 0.000000 0.000001 -0.518468 -0.000001 -0.147036
#
#
# Mechanical properties :
#
#
# Convention : Reuss Voigt Hill
#
# Bulk Modulus (GPa) = 17.21176 28.42223 22.81700
# Shear Modulus (GPa) = -10.17829 24.48435 7.15303
#
# Velocity S-wave (km/s) = -2.29431 3.55843 1.92335
# Velocity P-wave (km/s) = 1.37217 5.61980 4.09054
#
# Compressibility (1/GPa) = 0.05809980
#
# Stress axis : x y z
#
# Youngs Moduli (GPa) = 62.70135 30.68856 84.45466
#
# Poissons Ratio (x) = -0.24178 0.45282
# Poissons Ratio (y) = -0.49400 0.30863
# Poissons Ratio (z) = 0.33619 0.11215
#
# Static dielectric constant tensor:
#      x y z
#    x 1.741940 0.000000 0.027390 
#    y 0.000000 1.658370 0.000000 
#    z 0.027390 0.000000 1.725980 
# 
# From -- ./inp_files/215779.got.cif
#   From: 2010.05.17/outbox.cif.g08.bks.cpg/sg12_108_cif.got.tgz:215779.got - 2010.06.03 13:09:07.
