data_PCOD9169791
_publ_section_title
;
Structure prediction by ZEFSAII (Michael W. Deem and Ramdas Pophale) SiO2 
 PCOD9169791
Probable space group: C 2/M
;
_chemical_formula_sum "Si O2"
_cell_formula_units_Z 64
_cell_length_a 17.724899
_cell_length_b 14.680294
_cell_length_c 10.771545
_cell_angle_alpha 90.000000
_cell_angle_beta 101.809931
_cell_angle_gamma 90.000000
_cell_volume 2743.498012
_symmetry_space_group_name_H-M "C 2/M"
_symmetry_group_IT_number 12
_symmetry_cell_setting 'monoclinic'
loop_
_space_group_symop_operation_xyz
x,y,z
-x,y,-z
-x,-y,-z
x,-y,z
1/2+x,1/2+y,z
1/2-x,1/2+y,-z
1/2-x,1/2-y,-z
1/2+x,1/2-y,z
loop_
_atom_site_type_symbol
_atom_site_label
_atom_site_fract_x
_atom_site_fract_y
_atom_site_fract_z
Si Si1 0.676679 0.358693 0.265564
Si Si2 0.995247 0.095317 0.849923
Si Si3 0.684082 0.798336 0.819406
Si Si4 0.377008 0.848779 0.715849
Si Si5 0.967766 0.295103 0.127493
Si Si6 0.265727 0.597487 0.196317
Si Si7 0.358080 0.401332 0.486732
Si Si8 0.910896 0.702593 0.470853
O O1 0.595302 0.402938 0.207753
O O2 0.743021 0.362203 0.185216
O O3 0.655427 0.252449 0.268051
O O4 0.696527 0.392166 0.410416
O O5 0.031340 0.190799 0.818864
O O6 0.028870 0.000000 0.811858
O O7 0.000000 0.094811 0.000000
O O8 0.619886 0.827708 0.896472
O O9 0.712590 0.694629 0.858133
O O10 0.635266 0.801697 0.673377
O O11 0.467515 0.851190 0.777798
O O12 0.322706 0.904433 0.787954
O O13 0.370560 0.856145 0.565578
O O14 0.000000 0.290359 0.000000
O O15 0.283769 0.500000 0.139588
O O16 0.311815 0.600917 0.342979
O O17 0.397997 0.500000 0.508289
O O18 0.408675 0.310029 0.508309
O O19 0.000000 0.675361 0.500000
#
# Coordination Sequence:
#
# PCOD9169791 Si02
#       8
#     8   8   8   8   8   8   8   8
#     4   9  17  30  49  73 100 135 170 205 245 299
#     4   9  18  33  51  72 100 132 162 199 254 309
#     4  10  19  32  51  78 103 131 173 211 252 304
#     4   9  17  32  51  73 101 134 173 205 253 303
#     4  10  20  34  52  75 102 133 171 215 256 296
#     4   9  18  32  51  74 102 134 167 209 254 304
#     4   9  17  28  45  74 109 137 163 199 252 310
#     4  10  17  28  48  77 107 137 167 205 249 304
#
# _framework density 23.327884000000001
#
# number of rings (size 3 to 8) (size 9 to 14) (size 15 to 20)
#    0.000    2.625    1.250    1.125    0.000    3.750 
#    0.000   10.000    0.000    2.250    0.000    0.000 
#    0.000    0.000    0.000    0.000    0.000    0.000 
#
# Total GULP energy -178453.942023 kJ/mol
# GULP energy per Si atom -5576.685688 kJ/mol
# Density = 2.327479 g / cm^3
# Si number density = 23.327884 Si / 1000 Ang^3
#
#
#
# Elastic Constant Matrix: (Units=GPa)
#
#
# Indices 1 2 3 4 5 6 
#
# 1 94.1964 -11.4138 -5.5164 0.0000 -20.6572 0.0000
# 2 -11.4138 25.2481 1.6688 0.0000 1.8925 0.0000
# 3 -5.5164 1.6688 42.7205 0.0000 -6.5258 0.0000
# 4 0.0000 0.0000 0.0000 4.8555 0.0000 -4.2436
# 5 -20.6572 1.8925 -6.5258 0.0000 25.6826 0.0000
# 6 0.0000 0.0000 0.0000 -4.2436 0.0000 5.4813
#
#
#
# Elastic Compliance Matrix: (Units=1/GPa)
#
#
# Indices 1 2 3 4 5 6 
#
# 1 0.014030 0.005236 0.003404 0.000000 0.011764 0.000000
# 2 0.005236 0.041960 -0.000824 0.000000 0.000910 0.000000
# 3 0.003404 -0.000824 0.025289 0.000000 0.009224 0.000000
# 4 0.000000 0.000000 0.000000 0.636901 0.000000 0.493092
# 5 0.011764 0.000910 0.009224 0.000000 0.050675 0.000000
# 6 0.000000 0.000000 0.000000 0.493092 0.000000 0.564194
#
#
# Mechanical properties :
#
#
# Convention : Reuss Voigt Hill
#
# Bulk Modulus (GPa) = 10.31893 14.62693 12.47293
# Shear Modulus (GPa) = 3.70447 19.03230 11.36838
#
# Velocity S-wave (km/s) = 1.26153 2.85943 2.20995
# Velocity P-wave (km/s) = 2.56027 4.14554 3.44532
#
# Compressibility (1/GPa) = 0.09690926
#
# Stress axis : x y z
#
# Youngs Moduli (GPa) = 71.27795 23.83220 39.54326
#
# Poissons Ratio (x) = -0.12477 -0.13461
# Poissons Ratio (y) = -0.37318 0.03259
# Poissons Ratio (z) = -0.24263 0.01964
#
# Static dielectric constant tensor:
#      x y z
#    x 1.891500 0.000000 -0.008330 
#    y 0.000000 1.930300 0.000000 
#    z -0.008330 0.000000 1.938420 
# 
# From -- ./inp_files/157900.got.cif
#   From: 2010.05.17/outbox.cif.g08.bks.cpg/sg12_79_cif.got.tgz:157900.got - 2010.06.03 13:09:07.
