data_PCOD9169617
_publ_section_title
;
Structure prediction by ZEFSAII (Michael W. Deem and Ramdas Pophale) SiO2 
 PCOD9169617
Probable space group: C 2/M
;
_chemical_formula_sum "Si O2"
_cell_formula_units_Z 48
_cell_length_a 8.127250
_cell_length_b 32.043444
_cell_length_c 17.078853
_cell_angle_alpha 90.000000
_cell_angle_beta 147.750145
_cell_angle_gamma 90.000000
_cell_volume 2373.380667
_symmetry_space_group_name_H-M "C 2/M"
_symmetry_group_IT_number 12
_symmetry_cell_setting 'monoclinic'
loop_
_space_group_symop_operation_xyz
x,y,z
-x,y,-z
-x,-y,-z
x,-y,z
1/2+x,1/2+y,z
1/2-x,1/2+y,-z
1/2-x,1/2-y,-z
1/2+x,1/2-y,z
loop_
_atom_site_type_symbol
_atom_site_label
_atom_site_fract_x
_atom_site_fract_y
_atom_site_fract_z
Si Si1 0.154350 0.176634 0.847993
Si Si2 0.441542 0.421196 0.159917
Si Si3 0.671393 0.102742 0.820094
Si Si4 0.167160 0.228382 0.386063
Si Si5 0.372383 0.951940 0.824134
Si Si6 0.743725 0.801981 0.829533
O O1 0.140640 0.127407 0.858520
O O2 0.060360 0.190286 0.722935
O O3 0.925459 0.197143 0.819643
O O4 0.500000 0.191283 0.000000
O O5 0.747524 0.419183 0.229989
O O6 0.414100 0.442286 0.233665
O O7 0.175813 0.442582 0.999975
O O8 0.420745 0.078596 0.770359
O O9 0.603395 0.151692 0.782586
O O10 0.000000 0.101922 0.000000
O O11 0.500000 0.210555 0.500000
O O12 0.250000 0.250000 0.500000
O O13 0.012778 0.266112 0.274408
O O14 0.373737 0.000000 0.800967
O O15 0.000000 0.795912 0.000000
#
# Coordination Sequence:
#
# PCOD9169617 Si02
#       6
#     8   8   8   8   8   8
#     4  11  22  38  61  81 111 157 202 238 289 359
#     4   9  17  30  47  75 107 149 183 230 280 347
#     4   8  17  30  47  73 107 148 186 231 276 348
#     4  12  26  41  55  83 118 152 194 257 296 337
#     4  10  17  27  47  79 117 146 179 229 301 350
#     4  10  22  39  59  82 111 155 205 237 291 356
#
# _framework density 20.224316000000002
#
# number of rings (size 3 to 8) (size 9 to 14) (size 15 to 20)
#    0.000    2.000    3.333    2.500    2.333    5.000 
#    0.000    0.000    0.000    0.000    0.000    0.000 
#    0.000   10.000    0.000    0.167    0.000    0.000 
#
# Total GULP energy -133712.341146 kJ/mol
# GULP energy per Si atom -5571.347548 kJ/mol
# Density = 2.017828 g / cm^3
# Si number density = 20.224316 Si / 1000 Ang^3
#
#
#
# Elastic Constant Matrix: (Units=GPa)
#
#
# Indices 1 2 3 4 5 6 
#
# 1 88.3601 38.2237 8.4544 0.0000 -10.4435 0.0000
# 2 38.2237 94.5805 17.0104 0.0000 -1.7155 0.0000
# 3 8.4544 17.0104 62.7554 0.0000 -4.0051 0.0000
# 4 0.0000 0.0000 0.0000 -10.4240 0.0000 -4.7005
# 5 -10.4435 -1.7155 -4.0051 0.0000 17.2690 0.0000
# 6 0.0000 0.0000 0.0000 -4.7005 0.0000 21.8632
#
#
#
# Elastic Compliance Matrix: (Units=1/GPa)
#
#
# Indices 1 2 3 4 5 6 
#
# 1 0.014838 -0.005867 0.000129 0.000000 0.008421 0.000000
# 2 -0.005867 0.013438 -0.003038 0.000000 -0.002918 0.000000
# 3 0.000129 -0.003038 0.016978 0.000000 0.003714 0.000000
# 4 0.000000 0.000000 0.000000 -0.087454 0.000000 -0.018802
# 5 0.008421 -0.002918 0.003714 0.000000 0.063571 0.000000
# 6 0.000000 0.000000 0.000000 -0.018802 0.000000 0.041696
#
#
# Mechanical properties :
#
#
# Convention : Reuss Voigt Hill
#
# Bulk Modulus (GPa) = 36.10002 41.45256 38.77629
# Shear Modulus (GPa) = 55.64556 17.87548 36.76052
#
# Velocity S-wave (km/s) = 5.25109 2.97621 4.26800
# Velocity P-wave (km/s) = 7.39282 5.68782 6.59565
#
# Compressibility (1/GPa) = 0.02770081
#
# Stress axis : x y z
#
# Youngs Moduli (GPa) = 67.39306 74.41775 58.89949
#
# Poissons Ratio (x) = 0.43662 -0.00758
# Poissons Ratio (y) = 0.39541 0.17895
# Poissons Ratio (z) = -0.00868 0.22610
#
# Static dielectric constant tensor:
#      x y z
#    x 1.831520 0.000000 -0.034800 
#    y 0.000000 1.608960 0.000000 
#    z -0.034800 0.000000 1.700050 
# 
# From -- ./inp_files/260433.got.cif
#   From: 2010.05.17/outbox.cif.g08.bks.cpg/sg12_131_cif.got.tgz:260433.got - 2010.06.03 13:09:07.
