data_PCOD9169200
_publ_section_title
;
Structure prediction by ZEFSAII (Michael W. Deem and Ramdas Pophale) SiO2 
 PCOD9169200
Probable space group: C 2/M
;
_chemical_formula_sum "Si O2"
_cell_formula_units_Z 64
_cell_length_a 28.917526
_cell_length_b 7.407356
_cell_length_c 17.674430
_cell_angle_alpha 90.000000
_cell_angle_beta 77.630093
_cell_angle_gamma 90.000000
_cell_volume 3698.015425
_symmetry_space_group_name_H-M "C 2/M"
_symmetry_group_IT_number 12
_symmetry_cell_setting 'monoclinic'
loop_
_space_group_symop_operation_xyz
x,y,z
-x,y,-z
-x,-y,-z
x,-y,z
1/2+x,1/2+y,z
1/2-x,1/2+y,-z
1/2-x,1/2-y,-z
1/2+x,1/2-y,z
loop_
_atom_site_type_symbol
_atom_site_label
_atom_site_fract_x
_atom_site_fract_y
_atom_site_fract_z
Si Si1 0.445666 0.220962 0.519002
Si Si2 0.167079 0.287738 0.164000
Si Si3 0.628598 0.781103 0.330377
Si Si4 0.698323 0.778155 0.669027
Si Si5 0.724300 0.218588 0.828168
Si Si6 0.296552 0.290806 0.569738
Si Si7 0.373278 0.796168 0.421859
Si Si8 0.195413 0.715602 0.996531
O O1 0.500000 0.277187 0.500000
O O2 0.416542 0.275751 0.604098
O O3 0.415844 0.284925 0.456215
O O4 0.444501 0.000000 0.517804
O O5 0.156462 0.500000 0.161220
O O6 0.134080 0.215206 0.242627
O O7 0.221274 0.272179 0.175005
O O8 0.166252 0.212115 0.078814
O O9 0.674501 0.722097 0.361966
O O10 0.628974 0.000000 0.329416
O O11 0.706245 0.721498 0.752650
O O12 0.744176 0.720639 0.604261
O O13 0.650443 0.715961 0.644715
O O14 0.698501 0.000000 0.667754
O O15 0.692956 0.281375 0.910998
O O16 0.723992 0.000000 0.828175
O O17 0.293497 0.500000 0.548793
O O18 0.329426 0.196826 0.496538
O O19 0.388011 0.000000 0.397531
O O20 0.188027 0.500000 0.996935
O O21 0.250000 0.750000 0.000000
#
# Coordination Sequence:
#
# PCOD9169200 Si02
#       8
#     8   8   8   8   8   8   8   8
#     4   8  14  25  40  54  66  84 113 149 185 214
#     4   9  15  23  34  51  71  91 118 146 171 199
#     4   9  16  25  38  54  72  93 117 147 178 207
#     4   9  16  24  35  51  71  94 119 144 168 200
#     4   9  15  24  35  48  69  97 121 140 166 197
#     4  10  17  25  36  51  72  94 118 144 169 205
#     4   9  17  28  39  51  68  90 116 147 179 207
#     4   8  14  22  33  47  66  92 119 143 165 195
#
# _framework density 17.30658
#
# number of rings (size 3 to 8) (size 9 to 14) (size 15 to 20)
#    0.000    3.125    1.250    1.500    0.000    0.000 
#    0.000    1.250    0.000    6.000    0.000    0.000 
#    0.000    1.000    0.000   14.000    0.000    0.000 
#
# Total GULP energy -178206.484941 kJ/mol
# GULP energy per Si atom -5568.952654 kJ/mol
# Density = 1.726719 g / cm^3
# Si number density = 17.306580 Si / 1000 Ang^3
#
#
#
# Elastic Constant Matrix: (Units=GPa)
#
#
# Indices 1 2 3 4 5 6 
#
# 1 93.8566 -0.0705 47.8222 0.0000 0.6298 0.0000
# 2 -0.0705 61.9782 -1.8171 0.0000 -0.7358 0.0000
# 3 47.8222 -1.8171 76.8344 0.0000 7.2623 0.0000
# 4 0.0000 0.0000 0.0000 3.8510 0.0000 1.0826
# 5 0.6298 -0.7358 7.2623 0.0000 17.5810 0.0000
# 6 0.0000 0.0000 0.0000 1.0826 0.0000 4.8139
#
#
#
# Elastic Compliance Matrix: (Units=1/GPa)
#
#
# Indices 1 2 3 4 5 6 
#
# 1 0.015827 -0.000238 -0.010200 0.000000 0.003637 0.000000
# 2 -0.000238 0.016154 0.000484 0.000000 0.000485 0.000000
# 3 -0.010200 0.000484 0.020125 0.000000 -0.007927 0.000000
# 4 0.000000 0.000000 0.000000 0.277198 0.000000 -0.062339
# 5 0.003637 0.000485 -0.007927 0.000000 0.060044 0.000000
# 6 0.000000 0.000000 0.000000 -0.062339 0.000000 0.221749
#
#
# Mechanical properties :
#
#
# Convention : Reuss Voigt Hill
#
# Bulk Modulus (GPa) = 31.05753 36.05981 33.55867
# Shear Modulus (GPa) = 7.79134 17.69816 12.74475
#
# Velocity S-wave (km/s) = 2.12408 3.20132 2.71663
# Velocity P-wave (km/s) = 4.89899 5.87756 5.41045
#
# Compressibility (1/GPa) = 0.03219831
#
# Stress axis : x y z
#
# Youngs Moduli (GPa) = 63.18193 61.90266 49.69062
#
# Poissons Ratio (x) = 0.01472 0.50686
# Poissons Ratio (y) = 0.01503 -0.02406
# Poissons Ratio (z) = 0.64448 -0.02998
#
# Static dielectric constant tensor:
#      x y z
#    x 1.551560 0.000000 0.021640 
#    y 0.000000 1.564400 0.000000 
#    z 0.021640 0.000000 1.651880 
# 
# From -- ./inp_files/294557.got.cif
#   From: 2010.05.17/outbox.cif.g08.bks.cpg/sg12_148_cif.got.tgz:294557.got - 2010.06.03 13:09:07.
