data_PCOD9169725
_publ_section_title
;
Structure prediction by ZEFSAII (Michael W. Deem and Ramdas Pophale) SiO2 
 PCOD9169725
Probable space group: C 2/M
;
_chemical_formula_sum "Si O2"
_cell_formula_units_Z 48
_cell_length_a 26.404936
_cell_length_b 7.677294
_cell_length_c 12.148264
_cell_angle_alpha 90.000000
_cell_angle_beta 87.352273
_cell_angle_gamma 90.000000
_cell_volume 2460.048265
_symmetry_space_group_name_H-M "C 2/M"
_symmetry_group_IT_number 12
_symmetry_cell_setting 'monoclinic'
loop_
_space_group_symop_operation_xyz
x,y,z
-x,y,-z
-x,-y,-z
x,-y,z
1/2+x,1/2+y,z
1/2-x,1/2+y,-z
1/2-x,1/2-y,-z
1/2+x,1/2-y,z
loop_
_atom_site_type_symbol
_atom_site_label
_atom_site_fract_x
_atom_site_fract_y
_atom_site_fract_z
Si Si1 0.812167 0.789625 0.375287
Si Si2 0.940205 0.698406 0.496608
Si Si3 0.989624 0.294351 0.880120
Si Si4 0.911746 0.194993 0.265393
Si Si5 0.197797 0.290506 0.368763
Si Si6 0.100696 0.286859 0.264388
O O1 0.855523 0.724223 0.286731
O O2 0.820957 0.750422 0.504444
O O3 0.755453 0.724789 0.355020
O O4 0.812889 0.000000 0.366301
O O5 0.920572 0.500000 0.481574
O O6 0.927393 0.808231 0.391748
O O7 0.921878 0.764391 0.615277
O O8 0.000000 0.686621 0.500000
O O9 0.979711 0.500000 0.894461
O O10 0.041140 0.278902 0.803290
O O11 0.939303 0.224057 0.823184
O O12 0.000000 0.219206 0.000000
O O13 0.906887 0.000000 0.220791
O O14 0.199730 0.500000 0.362590
O O15 0.159193 0.231947 0.276483
O O16 0.100205 0.500000 0.259235
#
# Coordination Sequence:
#
# PCOD9169725 Si02
#       6
#     8   8   8   8   8   8
#     4   9  18  29  42  68 101 129 155 183 222 277
#     4  10  17  28  46  69  98 126 157 191 230 283
#     4  10  21  37  54  70  89 119 164 210 243 277
#     4  11  21  31  46  70 103 130 154 188 235 293
#     4   9  16  28  47  68  95 128 157 187 225 273
#     4   9  16  28  49  73  93 119 156 197 237 274
#
# _framework density 19.511811999999999
#
# number of rings (size 3 to 8) (size 9 to 14) (size 15 to 20)
#    0.000    2.333    3.333    0.500    0.000    1.333 
#    0.000    0.833    0.000    1.000    0.000    0.000 
#    0.000    0.000    0.000    0.000    0.000    0.167 
#
# Total GULP energy -133606.614535 kJ/mol
# GULP energy per Si atom -5566.942272 kJ/mol
# Density = 1.946740 g / cm^3
# Si number density = 19.511812 Si / 1000 Ang^3
#
#
#
# Elastic Constant Matrix: (Units=GPa)
#
#
# Indices 1 2 3 4 5 6 
#
# 1 155.4919 -0.2575 61.3523 0.0000 26.3273 0.0000
# 2 -0.2575 33.0990 3.8642 0.0000 3.1056 0.0000
# 3 61.3523 3.8642 94.0978 0.0000 24.7269 0.0000
# 4 0.0000 0.0000 0.0000 0.4294 0.0000 2.8767
# 5 26.3273 3.1056 24.7269 0.0000 17.8635 0.0000
# 6 0.0000 0.0000 0.0000 2.8767 0.0000 11.8133
#
#
#
# Elastic Compliance Matrix: (Units=1/GPa)
#
#
# Indices 1 2 3 4 5 6 
#
# 1 0.009464 0.001353 -0.003928 0.000000 -0.008747 0.000000
# 2 0.001353 0.030910 -0.000339 0.000000 -0.006899 0.000000
# 3 -0.003928 -0.000339 0.018335 0.000000 -0.019531 0.000000
# 4 0.000000 0.000000 0.000000 -3.687737 0.000000 0.898030
# 5 -0.008747 -0.006899 -0.019531 0.000000 0.097106 0.000000
# 6 0.000000 0.000000 0.000000 0.898030 0.000000 -0.134036
#
#
# Mechanical properties :
#
#
# Convention : Reuss Voigt Hill
#
# Bulk Modulus (GPa) = 18.91022 45.84519 32.37771
# Shear Modulus (GPa) = -1.37268 20.53654 9.58193
#
# Velocity S-wave (km/s) = -0.83967 3.24777 2.21844
# Velocity P-wave (km/s) = 2.96187 6.13279 4.81580
#
# Compressibility (1/GPa) = 0.05288145
#
# Stress axis : x y z
#
# Youngs Moduli (GPa) = 105.66149 32.35228 54.54190
#
# Poissons Ratio (x) = -0.04377 0.21423
# Poissons Ratio (y) = -0.14295 0.01846
# Poissons Ratio (z) = 0.41502 0.01095
#
# Static dielectric constant tensor:
#      x y z
#    x 1.788770 0.000000 0.017770 
#    y 0.000000 1.752940 0.000000 
#    z 0.017770 0.000000 1.649770 
# 
# From -- ./inp_files/179259.got.cif
#   From: 2010.05.17/outbox.cif.g08.bks.cpg/sg12_90_cif.got.tgz:179259.got - 2010.06.03 13:09:07.
