data_PCOD9169763
_publ_section_title
;
Structure prediction by ZEFSAII (Michael W. Deem and Ramdas Pophale) SiO2 
 PCOD9169763
Probable space group: C 2/M
;
_chemical_formula_sum "Si O2"
_cell_formula_units_Z 48
_cell_length_a 9.431256
_cell_length_b 18.464333
_cell_length_c 19.905129
_cell_angle_alpha 90.000000
_cell_angle_beta 136.910553
_cell_angle_gamma 90.000000
_cell_volume 2367.976619
_symmetry_space_group_name_H-M "C 2/M"
_symmetry_group_IT_number 12
_symmetry_cell_setting 'monoclinic'
loop_
_space_group_symop_operation_xyz
x,y,z
-x,y,-z
-x,-y,-z
x,-y,z
1/2+x,1/2+y,z
1/2-x,1/2+y,-z
1/2-x,1/2-y,-z
1/2+x,1/2-y,z
loop_
_atom_site_type_symbol
_atom_site_label
_atom_site_fract_x
_atom_site_fract_y
_atom_site_fract_z
Si Si1 0.809681 0.082717 0.149327
Si Si2 0.185701 0.580173 0.691547
Si Si3 0.641689 0.703033 0.732323
Si Si4 0.267521 0.848688 0.158465
Si Si5 0.776219 0.163341 0.003375
Si Si6 0.680261 0.778399 0.609982
O O1 0.719481 0.122818 0.052313
O O2 0.062458 0.082246 0.227976
O O3 0.779404 0.130348 0.205430
O O4 0.739784 0.000000 0.129801
O O5 0.113995 0.500000 0.648186
O O6 0.137484 0.599003 0.752407
O O7 0.106910 0.646137 0.618839
O O8 0.694755 0.767216 0.802810
O O9 0.725254 0.725263 0.688365
O O10 0.391085 0.704891 0.643180
O O11 0.018640 0.855275 0.077374
O O12 0.329910 0.859517 0.103167
O O13 0.750000 0.250000 0.000000
O O14 0.500000 0.749842 0.500000
#
# Coordination Sequence:
#
# PCOD9169763 Si02
#       6
#     8   8   8   8   8   8
#     4   9  17  30  48  71  98 132 169 201 241 291
#     4   8  16  30  47  71 102 129 159 202 254 300
#     4  10  19  34  53  74 101 133 164 206 252 297
#     4   9  18  28  47  74  97 136 168 202 246 290
#     4  10  17  28  47  73 101 132 172 208 238 283
#     4  10  20  33  54  80  99 125 166 209 254 301
#
# _framework density 20.27047
#
# number of rings (size 3 to 8) (size 9 to 14) (size 15 to 20)
#    0.000    2.667    1.667    1.500    0.000    1.000 
#    0.000    3.333    0.000    6.500    0.000    0.000 
#    0.000    0.000    0.000    0.000    0.000    0.000 
#
# Total GULP energy -133899.675387 kJ/mol
# GULP energy per Si atom -5579.153141 kJ/mol
# Density = 2.022433 g / cm^3
# Si number density = 20.270470 Si / 1000 Ang^3
#
#
#
# Elastic Constant Matrix: (Units=GPa)
#
#
# Indices 1 2 3 4 5 6 
#
# 1 65.3241 11.9360 19.7620 0.0000 -4.0990 0.0000
# 2 11.9360 107.6681 12.9947 0.0000 -22.5033 0.0000
# 3 19.7620 12.9947 59.8072 0.0000 -14.4685 0.0000
# 4 0.0000 0.0000 0.0000 12.3027 0.0000 1.2846
# 5 -4.0990 -22.5033 -14.4685 0.0000 20.4960 0.0000
# 6 0.0000 0.0000 0.0000 1.2846 0.0000 16.7317
#
#
#
# Elastic Compliance Matrix: (Units=1/GPa)
#
#
# Indices 1 2 3 4 5 6 
#
# 1 0.017268 -0.001756 -0.005976 0.000000 -0.002693 0.000000
# 2 -0.001756 0.012257 0.001312 0.000000 0.014032 0.000000
# 3 -0.005976 0.001312 0.022273 0.000000 0.015968 0.000000
# 4 0.000000 0.000000 0.000000 0.081940 0.000000 -0.006291
# 5 -0.002693 0.014032 0.015968 0.000000 0.074930 0.000000
# 6 0.000000 0.000000 0.000000 -0.006291 0.000000 0.060250
#
#
# Mechanical properties :
#
#
# Convention : Reuss Voigt Hill
#
# Bulk Modulus (GPa) = 25.66872 35.79831 30.73352
# Shear Modulus (GPa) = 16.96389 22.44651 19.70520
#
# Velocity S-wave (km/s) = 2.89602 3.33130 3.12126
# Velocity P-wave (km/s) = 4.88602 5.70047 5.30889
#
# Compressibility (1/GPa) = 0.03895792
#
# Stress axis : x y z
#
# Youngs Moduli (GPa) = 57.91069 81.58629 44.89757
#
# Poissons Ratio (x) = 0.14326 0.26830
# Poissons Ratio (y) = 0.10169 -0.05889
# Poissons Ratio (z) = 0.34606 -0.10702
#
# Static dielectric constant tensor:
#      x y z
#    x 1.957910 0.000000 0.019010 
#    y 0.000000 1.707030 0.000000 
#    z 0.019010 0.000000 1.732770 
# 
# From -- ./inp_files/205332.got.cif
#   From: 2010.05.17/outbox.cif.g08.bks.cpg/sg12_103_cif.got.tgz:205332.got - 2010.06.03 13:09:07.
