data_PCOD9169038
_publ_section_title
;
Structure prediction by ZEFSAII (Michael W. Deem and Ramdas Pophale) SiO2 
 PCOD9169038
Probable space group: C 2/M
;
_chemical_formula_sum "Si O2"
_cell_formula_units_Z 24
_cell_length_a 20.689515
_cell_length_b 8.114801
_cell_length_c 10.536868
_cell_angle_alpha 90.000000
_cell_angle_beta 129.716971
_cell_angle_gamma 90.000000
_cell_volume 1360.770310
_symmetry_space_group_name_H-M "C 2/M"
_symmetry_group_IT_number 12
_symmetry_cell_setting 'monoclinic'
loop_
_space_group_symop_operation_xyz
x,y,z
-x,y,-z
-x,-y,-z
x,-y,z
1/2+x,1/2+y,z
1/2-x,1/2+y,-z
1/2-x,1/2-y,-z
1/2+x,1/2-y,z
loop_
_atom_site_type_symbol
_atom_site_label
_atom_site_fract_x
_atom_site_fract_y
_atom_site_fract_z
Si Si1 0.543276 0.000000 0.189741
Si Si2 0.155446 0.806652 0.409537
Si Si3 0.601960 0.677542 0.635089
Si Si4 0.430280 0.000000 0.297353
O O1 0.597098 0.832156 0.272551
O O2 0.477909 0.000000 0.224586
O O3 0.500000 0.000000 0.000000
O O4 0.250000 0.750000 0.500000
O O5 0.135931 0.797889 0.535662
O O6 0.142521 0.000000 0.356372
O O7 0.500000 0.668852 0.500000
O O8 0.631741 0.500000 0.720494
O O9 0.621541 0.833946 0.745714
O O10 0.500000 0.000000 0.500000
#
# Coordination Sequence:
#
# PCOD9169038 Si02
#       4
#     4   8   8   4
#     4  12  24  38  56  92 124 148 185 248 297 336
#     4  11  21  35  59  90 115 151 195 243 284 344
#     4   9  16  28  52  84 104 135 201 241 259 324
#     4  10  16  32  58  78 104 150 197 227 265 343
#
# _framework density 17.637070000000001
#
# number of rings (size 3 to 8) (size 9 to 14) (size 15 to 20)
#    0.000    1.667    8.333    0.000    0.000    0.667 
#    0.000    0.000    0.000    2.000    0.000    0.000 
#    0.000    0.000    0.000    0.000    0.000    0.000 
#
# Total GULP energy -66826.636677 kJ/mol
# GULP energy per Si atom -5568.886390 kJ/mol
# Density = 1.759693 g / cm^3
# Si number density = 17.637070 Si / 1000 Ang^3
#
#
#
# Elastic Constant Matrix: (Units=GPa)
#
#
# Indices 1 2 3 4 5 6 
#
# 1 135.1492 63.2074 42.6618 0.0000 -18.4118 0.0000
# 2 63.2074 241.7015 66.4734 0.0000 -5.3666 0.0000
# 3 42.6618 66.4734 58.5223 0.0000 -19.1714 0.0000
# 4 0.0000 0.0000 0.0000 12.6272 0.0000 -3.0042
# 5 -18.4118 -5.3666 -19.1714 0.0000 12.8289 0.0000
# 6 0.0000 0.0000 0.0000 -3.0042 0.0000 30.6160
#
#
#
# Elastic Compliance Matrix: (Units=1/GPa)
#
#
# Indices 1 2 3 4 5 6 
#
# 1 0.010450 -0.002161 -0.001070 0.000000 0.012494 0.000000
# 2 -0.002161 0.008442 -0.015423 0.000000 -0.022619 0.000000
# 3 -0.001070 -0.015423 0.064198 0.000000 0.087950 0.000000
# 4 0.000000 0.000000 0.000000 0.081087 0.000000 0.007957
# 5 0.012494 -0.022619 0.087950 0.000000 0.217852 0.000000
# 6 0.000000 0.000000 0.000000 0.007957 0.000000 0.033443
#
#
# Mechanical properties :
#
#
# Convention : Reuss Voigt Hill
#
# Bulk Modulus (GPa) = 21.84302 86.67312 54.25807
# Shear Modulus (GPa) = 10.68279 28.74978 19.71628
#
# Velocity S-wave (km/s) = 2.46377 4.04180 3.34711
# Velocity P-wave (km/s) = 4.52826 8.42798 6.76520
#
# Compressibility (1/GPa) = 0.04578122
#
# Stress axis : x y z
#
# Youngs Moduli (GPa) = 95.69521 118.45497 15.57676
#
# Poissons Ratio (x) = 0.25599 0.01667
# Poissons Ratio (y) = 0.20680 0.24025
# Poissons Ratio (z) = 0.10240 1.82697
#
# Static dielectric constant tensor:
#      x y z
#    x 1.587450 0.000000 -0.005800 
#    y 0.000000 1.762930 0.000000 
#    z -0.005800 0.000000 1.508470 
# 
# From -- ./inp_files/69324.got.cif
#   From: 2010.05.17/outbox.cif.g08.bks.cpg/sg12_35_cif.got.tgz:69324.got - 2010.06.03 13:09:07.
