data_PCOD9169472
_publ_section_title
;
Structure prediction by ZEFSAII (Michael W. Deem and Ramdas Pophale) SiO2 
 PCOD9169472
Probable space group: C 2/M
;
_chemical_formula_sum "Si O2"
_cell_formula_units_Z 64
_cell_length_a 26.169555
_cell_length_b 7.543958
_cell_length_c 23.840985
_cell_angle_alpha 90.000000
_cell_angle_beta 132.959793
_cell_angle_gamma 90.000000
_cell_volume 3444.540179
_symmetry_space_group_name_H-M "C 2/M"
_symmetry_group_IT_number 12
_symmetry_cell_setting 'monoclinic'
loop_
_space_group_symop_operation_xyz
x,y,z
-x,y,-z
-x,-y,-z
x,-y,z
1/2+x,1/2+y,z
1/2-x,1/2+y,-z
1/2-x,1/2-y,-z
1/2+x,1/2-y,z
loop_
_atom_site_type_symbol
_atom_site_label
_atom_site_fract_x
_atom_site_fract_y
_atom_site_fract_z
Si Si1 0.210906 0.207607 0.072807
Si Si2 0.928009 0.296337 0.093085
Si Si3 0.863823 0.282381 0.159188
Si Si4 0.463108 0.782965 0.914447
Si Si5 0.826622 0.796368 0.355072
Si Si6 0.422468 0.792017 0.322501
Si Si7 0.048842 0.785765 0.484690
Si Si8 0.803726 0.284689 0.808025
O O1 0.282928 0.274627 0.099688
O O2 0.215605 0.229291 0.143307
O O3 0.204273 0.000000 0.054954
O O4 0.141205 0.295901 0.997323
O O5 0.947798 0.500000 0.119330
O O6 0.904900 0.218247 0.135285
O O7 0.990704 0.218666 0.103244
O O8 0.862762 0.500000 0.157224
O O9 0.899538 0.228437 0.244246
O O10 0.382567 0.728287 0.853879
O O11 0.464487 0.000000 0.915134
O O12 0.500000 0.727998 0.000000
O O13 0.877161 0.796235 0.338029
O O14 0.873988 0.720264 0.440919
O O15 0.754139 0.717533 0.279140
O O16 0.811944 0.000000 0.359446
O O17 0.504459 0.768182 0.397420
O O18 0.405870 0.000000 0.313458
O O19 0.000000 0.726109 0.500000
O O20 0.050895 0.000000 0.486953
O O21 0.801942 0.500000 0.806262
#
# Coordination Sequence:
#
# PCOD9169472 Si02
#       8
#     8   8   8   8   8   8   8   8
#     4  11  20  31  44  65  93 117 146 183 218 263
#     4  10  19  34  50  62  84 119 152 187 224 255
#     4   9  19  31  44  64  91 119 148 182 218 258
#     4   9  16  28  48  70  84 104 150 196 220 253
#     4   9  17  28  43  63  89 116 144 177 215 260
#     4  10  17  27  42  63  90 117 145 174 211 262
#     4   8  15  27  40  60  88 116 144 174 211 257
#     4  10  18  30  48  68  87 116 151 181 221 264
#
# _framework density 18.580128999999999
#
# number of rings (size 3 to 8) (size 9 to 14) (size 15 to 20)
#    0.000    2.500    2.500    1.875    0.000    2.250 
#    0.000    3.125    0.000    0.000    0.000    0.875 
#    0.000    0.000    0.000    0.000    0.000    0.000 
#
# Total GULP energy -178425.947137 kJ/mol
# GULP energy per Si atom -5575.810848 kJ/mol
# Density = 1.853784 g / cm^3
# Si number density = 18.580129 Si / 1000 Ang^3
#
#
#
# Elastic Constant Matrix: (Units=GPa)
#
#
# Indices 1 2 3 4 5 6 
#
# 1 110.0706 -1.9733 31.4392 0.0000 14.6297 0.0000
# 2 -1.9733 48.9520 -7.0303 0.0001 0.9259 -0.0001
# 3 31.4392 -7.0303 95.2125 0.0000 29.8455 0.0000
# 4 0.0000 0.0001 0.0000 9.2650 0.0000 -1.1826
# 5 14.6297 0.9259 29.8455 0.0000 20.4592 0.0000
# 6 0.0000 -0.0001 0.0000 -1.1826 0.0000 1.0045
#
#
#
# Elastic Compliance Matrix: (Units=1/GPa)
#
#
# Indices 1 2 3 4 5 6 
#
# 1 0.010244 0.000215 -0.001967 0.000000 -0.004466 0.000000
# 2 0.000215 0.021035 0.003370 0.000000 -0.006021 0.000002
# 3 -0.001967 0.003370 0.020283 0.000000 -0.028334 0.000000
# 4 0.000000 0.000000 0.000000 0.127023 0.000000 0.149549
# 5 -0.004466 -0.006021 -0.028334 0.000000 0.093677 0.000000
# 6 0.000000 0.000002 0.000000 0.149549 0.000000 1.171580
#
#
# Mechanical properties :
#
#
# Convention : Reuss Voigt Hill
#
# Bulk Modulus (GPa) = 18.24923 33.23402 25.74163
# Shear Modulus (GPa) = 3.42731 21.59903 12.51317
#
# Velocity S-wave (km/s) = 1.35964 3.41322 2.59795
# Velocity P-wave (km/s) = 3.50828 5.78438 4.78368
#
# Compressibility (1/GPa) = 0.05479682
#
# Stress axis : x y z
#
# Youngs Moduli (GPa) = 97.61528 47.54064 49.30280
#
# Poissons Ratio (x) = -0.01022 0.09698
# Poissons Ratio (y) = -0.02098 -0.16613
# Poissons Ratio (z) = 0.19201 -0.16019
#
# Static dielectric constant tensor:
#      x y z
#    x 1.619440 0.000000 0.017700 
#    y 0.000000 1.694480 0.000000 
#    z 0.017700 0.000000 1.673450 
# 
# From -- ./inp_files/348585.got.cif
#   From: 2010.05.17/outbox.cif.g08.bks.cpg/sg12_175_cif.got.tgz:348585.got - 2010.06.03 13:09:07.
