data_PCOD9169641
_publ_section_title
;
Structure prediction by ZEFSAII (Michael W. Deem and Ramdas Pophale) SiO2 
 PCOD9169641
Probable space group: C 2/M
;
_chemical_formula_sum "Si O2"
_cell_formula_units_Z 64
_cell_length_a 30.243744
_cell_length_b 13.502422
_cell_length_c 18.032472
_cell_angle_alpha 90.000000
_cell_angle_beta 30.519746
_cell_angle_gamma 90.000000
_cell_volume 3739.601835
_symmetry_space_group_name_H-M "C 2/M"
_symmetry_group_IT_number 12
_symmetry_cell_setting 'monoclinic'
loop_
_space_group_symop_operation_xyz
x,y,z
-x,y,-z
-x,-y,-z
x,-y,z
1/2+x,1/2+y,z
1/2-x,1/2+y,-z
1/2-x,1/2-y,-z
1/2+x,1/2-y,z
loop_
_atom_site_type_symbol
_atom_site_label
_atom_site_fract_x
_atom_site_fract_y
_atom_site_fract_z
Si Si1 0.038196 0.297427 0.141885
Si Si2 0.909799 0.616466 0.775700
Si Si3 0.450846 0.381393 0.337873
Si Si4 0.716771 0.382152 0.100295
Si Si5 0.430845 0.120149 0.165094
Si Si6 0.525706 0.693201 0.379128
Si Si7 0.759176 0.117244 0.608598
Si Si8 0.711704 0.883122 0.844462
O O1 0.052535 0.360473 0.196539
O O2 0.019246 0.185636 0.194357
O O3 0.964234 0.338948 0.194924
O O4 0.127320 0.314850 0.969226
O O5 0.915709 0.500000 0.751250
O O6 0.963757 0.688300 0.644263
O O7 0.806460 0.645884 0.928631
O O8 0.460610 0.500000 0.316542
O O9 0.462903 0.351520 0.406989
O O10 0.355105 0.348443 0.447570
O O11 0.713522 0.500000 0.098654
O O12 0.622043 0.344007 0.216814
O O13 0.731679 0.357945 0.165561
O O14 0.332629 0.156057 0.289488
O O15 0.430751 0.000000 0.167084
O O16 0.500000 0.147428 0.000000
O O17 0.500000 0.664945 0.500000
O O18 0.756559 0.127877 0.701201
O O19 0.758038 0.000000 0.594032
O O20 0.685407 0.000000 0.889289
#
# Coordination Sequence:
#
# PCOD9169641 Si02
#       8
#     8   8   8   8   8   8   8   8
#     4  10  18  30  50  74  98 126 159 193 238 290
#     4   9  19  34  50  70  99 129 157 195 245 289
#     4  10  22  36  47  66  99 135 163 192 237 286
#     4   9  17  29  48  70  95 127 162 201 237 276
#     4  10  17  27  50  82 104 116 150 202 244 283
#     4  11  21  32  50  73  95 125 167 201 237 284
#     4   9  17  29  46  71 103 127 150 194 244 283
#     4   9  15  27  49  76 100 122 152 199 253 285
#
# _framework density 17.114121999999998
#
# number of rings (size 3 to 8) (size 9 to 14) (size 15 to 20)
#    0.000    2.375    1.250    3.375    0.000    2.750 
#    0.000    0.000    0.000    0.375    0.000    5.250 
#    0.000    0.000    0.000    0.000    0.000    0.000 
#
# Total GULP energy -178165.622225 kJ/mol
# GULP energy per Si atom -5567.675695 kJ/mol
# Density = 1.707517 g / cm^3
# Si number density = 17.114122 Si / 1000 Ang^3
#
#
#
# Elastic Constant Matrix: (Units=GPa)
#
#
# Indices 1 2 3 4 5 6 
#
# 1 55.3979 -2.5583 21.4340 0.0000 -22.5094 0.0000
# 2 -2.5583 26.7686 18.7661 0.0000 -10.3835 0.0000
# 3 21.4340 18.7661 49.3634 0.0000 -17.3582 0.0000
# 4 0.0000 0.0000 0.0000 14.1721 0.0000 -2.3112
# 5 -22.5094 -10.3835 -17.3582 0.0000 25.9773 0.0000
# 6 0.0000 0.0000 0.0000 -2.3112 0.0000 14.2847
#
#
#
# Elastic Compliance Matrix: (Units=1/GPa)
#
#
# Indices 1 2 3 4 5 6 
#
# 1 0.039853 0.028568 -0.015694 0.000000 0.035465 0.000000
# 2 0.028568 0.073350 -0.027809 0.000000 0.035491 0.000000
# 3 -0.015694 -0.027809 0.037847 0.000000 0.000575 0.000000
# 4 0.000000 0.000000 0.000000 0.072473 0.000000 0.011726
# 5 0.035465 0.035491 0.000575 0.000000 0.083796 0.000000
# 6 0.000000 0.000000 0.000000 0.011726 0.000000 0.071902
#
#
# Mechanical properties :
#
#
# Convention : Reuss Voigt Hill
#
# Bulk Modulus (GPa) = 8.25227 22.97927 15.61577
# Shear Modulus (GPa) = 11.12385 17.14602 14.13493
#
# Velocity S-wave (km/s) = 2.55224 3.16866 2.87700
# Velocity P-wave (km/s) = 3.67663 5.18106 4.49227
#
# Compressibility (1/GPa) = 0.12117880
#
# Stress axis : x y z
#
# Youngs Moduli (GPa) = 25.09236 13.63321 26.42250
#
# Poissons Ratio (x) = -0.38947 0.41467
# Poissons Ratio (y) = -0.71684 0.73479
# Poissons Ratio (z) = 0.39380 0.37913
#
# Static dielectric constant tensor:
#      x y z
#    x 1.605250 0.000000 -0.027100 
#    y 0.000000 1.572320 0.000000 
#    z -0.027100 0.000000 1.599050 
# 
# From -- ./inp_files/296680.got.cif
#   From: 2010.05.17/outbox.cif.g08.bks.cpg/sg12_149_cif.got.tgz:296680.got - 2010.06.03 13:09:07.
