data_PCOD9169037
_publ_section_title
;
Structure prediction by ZEFSAII (Michael W. Deem and Ramdas Pophale) SiO2 
 PCOD9169037
Probable space group: C 2/M
;
_chemical_formula_sum "Si O2"
_cell_formula_units_Z 40
_cell_length_a 9.212643
_cell_length_b 24.589718
_cell_length_c 15.772305
_cell_angle_alpha 90.000000
_cell_angle_beta 145.186367
_cell_angle_gamma 90.000000
_cell_volume 2039.857352
_symmetry_space_group_name_H-M "C 2/M"
_symmetry_group_IT_number 12
_symmetry_cell_setting 'monoclinic'
loop_
_space_group_symop_operation_xyz
x,y,z
-x,y,-z
-x,-y,-z
x,-y,z
1/2+x,1/2+y,z
1/2-x,1/2+y,-z
1/2-x,1/2-y,-z
1/2+x,1/2-y,z
loop_
_atom_site_type_symbol
_atom_site_label
_atom_site_fract_x
_atom_site_fract_y
_atom_site_fract_z
Si Si1 0.726982 0.208115 0.337639
Si Si2 0.280586 0.000000 0.963828
Si Si3 0.897128 0.880581 0.090527
Si Si4 0.262459 0.287662 0.154998
Si Si5 0.885200 0.618983 0.227789
Si Si6 0.311542 0.000000 0.165153
O O1 0.502038 0.249930 0.250405
O O2 0.743507 0.199525 0.244924
O O3 0.640256 0.153343 0.344829
O O4 0.000000 0.227451 0.500000
O O5 0.122731 0.056583 0.888042
O O6 0.500000 0.000000 0.000000
O O7 0.416530 0.000000 0.120481
O O8 0.788793 0.841105 0.109706
O O9 0.179593 0.861955 0.198436
O O10 0.739858 0.876908 0.926705
O O11 0.000000 0.259299 0.000000
O O12 0.901013 0.554758 0.251497
O O13 0.000000 0.000000 0.000000
#
# Coordination Sequence:
#
# PCOD9169037 Si02
#       6
#     8   4   8   8   8   4
#     4  12  27  43  60  87 126 164 200 250 315 370
#     4  10  18  28  52  91 136 146 185 248 317 336
#     4  10  19  34  59  94 120 153 196 258 293 350
#     4  12  24  40  64  91 116 156 212 257 302 354
#     4  10  19  36  60  87 126 157 200 242 308 355
#     4  10  16  32  57  91 124 157 195 250 301 350
#
# _framework density 19.609214999999999
#
# number of rings (size 3 to 8) (size 9 to 14) (size 15 to 20)
#    0.000    1.200    6.000    3.000    5.600    0.000 
#    0.000    0.500    0.000    0.000    0.000    3.500 
#    0.000    0.000    0.000    0.000    0.000    0.000 
#
# Total GULP energy -111655.648700 kJ/mol
# GULP energy per Si atom -5582.782435 kJ/mol
# Density = 1.956458 g / cm^3
# Si number density = 19.609215 Si / 1000 Ang^3
#
#
#
# Elastic Constant Matrix: (Units=GPa)
#
#
# Indices 1 2 3 4 5 6 
#
# 1 138.7539 29.0137 31.5083 0.0000 27.5496 0.0000
# 2 29.0137 101.3288 26.9775 0.0000 21.3452 0.0000
# 3 31.5083 26.9775 86.5703 0.0003 22.8101 0.0002
# 4 0.0000 0.0000 0.0003 -10.4634 0.0001 4.6856
# 5 27.5496 21.3452 22.8101 0.0001 23.1371 0.0001
# 6 0.0000 0.0000 0.0002 4.6856 0.0001 18.9242
#
#
#
# Elastic Compliance Matrix: (Units=1/GPa)
#
#
# Indices 1 2 3 4 5 6 
#
# 1 0.009476 -0.000373 -0.000608 0.000000 -0.010339 0.000000
# 2 -0.000373 0.012347 -0.001118 0.000000 -0.009844 0.000000
# 3 -0.000608 -0.001118 0.015750 0.000000 -0.013771 0.000000
# 4 0.000000 0.000000 0.000000 -0.086032 0.000000 0.021301
# 5 -0.010339 -0.009844 -0.013771 0.000000 0.078189 0.000000
# 6 0.000000 0.000000 0.000000 0.021301 0.000000 0.047568
#
#
# Mechanical properties :
#
#
# Convention : Reuss Voigt Hill
#
# Bulk Modulus (GPa) = 29.96409 55.73910 42.85159
# Shear Modulus (GPa) = 53.98260 22.26315 38.12288
#
# Velocity S-wave (km/s) = 5.25252 3.37314 4.41401
# Velocity P-wave (km/s) = 7.21797 6.60738 6.91941
#
# Compressibility (1/GPa) = 0.03337329
#
# Stress axis : x y z
#
# Youngs Moduli (GPa) = 105.52941 80.99064 63.49339
#
# Poissons Ratio (x) = 0.03024 0.03863
# Poissons Ratio (y) = 0.03940 0.07098
# Poissons Ratio (z) = 0.06420 0.09055
#
# Static dielectric constant tensor:
#      x y z
#    x 1.684640 0.000000 0.028850 
#    y 0.000000 1.754220 0.000000 
#    z 0.028850 0.000000 1.689570 
# 
# From -- ./inp_files/259783.got.cif
#   From: 2010.05.17/outbox.cif.g08.bks.cpg/sg12_130_cif.got.tgz:259783.got - 2010.06.03 13:09:07.
