data_PCOD9169087
_publ_section_title
;
Structure prediction by ZEFSAII (Michael W. Deem and Ramdas Pophale) SiO2 
 PCOD9169087
Probable space group: C 2/M
;
_chemical_formula_sum "Si O2"
_cell_formula_units_Z 40
_cell_length_a 28.546131
_cell_length_b 16.486954
_cell_length_c 9.796192
_cell_angle_alpha 90.000000
_cell_angle_beta 153.455777
_cell_angle_gamma 90.000000
_cell_volume 2060.364573
_symmetry_space_group_name_H-M "C 2/M"
_symmetry_group_IT_number 12
_symmetry_cell_setting 'monoclinic'
loop_
_space_group_symop_operation_xyz
x,y,z
-x,y,-z
-x,-y,-z
x,-y,z
1/2+x,1/2+y,z
1/2-x,1/2+y,-z
1/2-x,1/2-y,-z
1/2+x,1/2-y,z
loop_
_atom_site_type_symbol
_atom_site_label
_atom_site_fract_x
_atom_site_fract_y
_atom_site_fract_z
Si Si1 0.280605 0.000000 0.176907
Si Si2 0.594298 0.171721 0.856160
Si Si3 0.799378 0.867833 0.246052
Si Si4 0.020688 0.500000 0.718447
Si Si5 0.625961 0.500000 0.346044
Si Si6 0.860088 0.000000 0.919797
Si Si7 0.515884 0.334067 0.703296
O O1 0.407500 0.000000 0.497991
O O2 0.225691 0.000000 0.182166
O O3 0.239253 0.923257 0.981182
O O4 0.500000 0.172049 0.500000
O O5 0.582281 0.253953 0.910016
O O6 0.582256 0.084850 0.900519
O O7 0.700312 0.178102 0.046757
O O8 0.901230 0.820127 0.466050
O O9 0.838670 0.924586 0.471287
O O10 0.000000 0.500000 0.500000
O O11 0.679869 0.500000 0.339106
O O12 0.500000 0.500000 0.000000
O O13 0.931606 0.081031 0.117530
O O14 0.500000 0.341707 0.500000
#
# Coordination Sequence:
#
# PCOD9169087 Si02
#       7
#     4   8   8   4   4   4   8
#     4  11  19  32  64  87 114 157 191 249 303 337
#     4  10  21  35  59  94 122 150 197 247 296 357
#     4  11  20  37  62  88 114 159 201 242 298 354
#     4  10  16  34  55  88 121 151 190 238 295 353
#     4  11  22  38  66  83 114 166 206 240 297 359
#     4  12  22  39  55  91 127 151 198 256 296 341
#     4  11  22  33  58  91 125 148 194 253 301 349
#
# _framework density 19.41404
#
# number of rings (size 3 to 8) (size 9 to 14) (size 15 to 20)
#    0.000    1.200    8.000    1.500    0.000    4.800 
#    0.000    1.000    0.000    2.400    0.000    0.000 
#    0.000    0.000    0.000    0.000    0.000    0.000 
#
# Total GULP energy -111567.104040 kJ/mol
# GULP energy per Si atom -5578.355202 kJ/mol
# Density = 1.936985 g / cm^3
# Si number density = 19.414040 Si / 1000 Ang^3
#
#
#
# Elastic Constant Matrix: (Units=GPa)
#
#
# Indices 1 2 3 4 5 6 
#
# 1 155.8463 35.2370 53.3990 0.0000 38.5040 0.0000
# 2 35.2370 126.4085 13.0292 0.0000 16.1307 0.0000
# 3 53.3990 13.0292 45.1271 0.0000 18.2874 0.0000
# 4 0.0000 0.0000 0.0000 36.3157 0.0000 22.2526
# 5 38.5040 16.1307 18.2874 0.0000 49.9173 0.0000
# 6 0.0000 0.0000 0.0000 22.2526 0.0000 26.8873
#
#
#
# Elastic Compliance Matrix: (Units=1/GPa)
#
#
# Indices 1 2 3 4 5 6 
#
# 1 0.011910 -0.001541 -0.011893 0.000000 -0.004332 0.000000
# 2 -0.001541 0.008541 -0.000006 0.000000 -0.001569 0.000000
# 3 -0.011893 -0.000006 0.038185 0.000000 -0.004813 0.000000
# 4 0.000000 0.000000 0.000000 0.055869 0.000000 -0.046239
# 5 -0.004332 -0.001569 -0.004813 0.000000 0.025645 0.000000
# 6 0.000000 0.000000 0.000000 -0.046239 0.000000 0.075461
#
#
# Mechanical properties :
#
#
# Convention : Reuss Voigt Hill
#
# Bulk Modulus (GPa) = 31.49085 58.96803 45.22944
# Shear Modulus (GPa) = 19.75669 37.67184 28.71426
#
# Velocity S-wave (km/s) = 3.19352 4.40983 3.85001
# Velocity P-wave (km/s) = 5.46388 7.50790 6.56592
#
# Compressibility (1/GPa) = 0.03175525
#
# Stress axis : x y z
#
# Youngs Moduli (GPa) = 83.96030 117.07693 26.18823
#
# Poissons Ratio (x) = 0.18047 0.31146
# Poissons Ratio (y) = 0.12942 0.00017
# Poissons Ratio (z) = 0.99854 0.00074
#
# Static dielectric constant tensor:
#      x y z
#    x 1.678000 0.000000 0.031840 
#    y 0.000000 1.763090 0.000000 
#    z 0.031840 0.000000 1.670940 
# 
# From -- ./inp_files/105914.got.cif
#   From: 2010.05.17/outbox.cif.g08.bks.cpg/sg12_53_cif.got.tgz:105914.got - 2010.06.03 13:09:07.
