data_PCOD9169719
_publ_section_title
;
Structure prediction by ZEFSAII (Michael W. Deem and Ramdas Pophale) SiO2 
 PCOD9169719
Probable space group: C 2/M
;
_chemical_formula_sum "Si O2"
_cell_formula_units_Z 64
_cell_length_a 28.442315
_cell_length_b 21.188896
_cell_length_c 19.682485
_cell_angle_alpha 90.000000
_cell_angle_beta 18.710068
_cell_angle_gamma 90.000000
_cell_volume 3805.044241
_symmetry_space_group_name_H-M "C 2/M"
_symmetry_group_IT_number 12
_symmetry_cell_setting 'monoclinic'
loop_
_space_group_symop_operation_xyz
x,y,z
-x,y,-z
-x,-y,-z
x,-y,z
1/2+x,1/2+y,z
1/2-x,1/2+y,-z
1/2-x,1/2-y,-z
1/2+x,1/2-y,z
loop_
_atom_site_type_symbol
_atom_site_label
_atom_site_fract_x
_atom_site_fract_y
_atom_site_fract_z
Si Si1 0.828955 0.299766 0.441338
Si Si2 0.325530 0.736578 0.586285
Si Si3 0.063519 0.071601 0.335846
Si Si4 0.384047 0.932062 0.049151
Si Si5 0.224782 0.431812 0.544405
Si Si6 0.186542 0.093498 0.432959
Si Si7 0.848714 0.787126 0.809592
Si Si8 0.335061 0.796269 0.066368
O O1 0.750000 0.250000 0.500000
O O2 0.814837 0.285784 0.540384
O O3 0.764479 0.368860 0.513932
O O4 0.000827 0.293165 0.186527
O O5 0.314031 0.668892 0.565195
O O6 0.483844 0.734031 0.406686
O O7 0.198688 0.738012 0.816430
O O8 0.151785 0.135270 0.192236
O O9 0.000000 0.080629 0.500000
O O10 0.934316 0.071808 0.455995
O O11 0.128144 0.000000 0.244865
O O12 0.556731 0.928898 0.801128
O O13 0.312241 0.871004 0.112712
O O14 0.332618 0.000000 0.092787
O O15 0.337048 0.927780 0.191585
O O16 0.245291 0.500000 0.482255
O O17 0.324251 0.429067 0.475603
O O18 0.750000 0.750000 0.000000
O O19 0.779376 0.771057 0.831837
#
# Coordination Sequence:
#
# PCOD9169719 Si02
#       8
#     8   8   8   8   8   8   8   8
#     4  11  21  36  53  76 108 138 177 219 263 312
#     4  10  20  35  53  75 106 140 177 219 259 314
#     4  10  20  32  49  75 107 141 176 216 269 333
#     4   9  17  27  43  70 105 137 166 197 247 319
#     4  10  19  29  45  70 102 135 172 212 256 311
#     4  10  17  28  46  68 100 139 169 203 254 310
#     4  11  20  34  54  77 110 146 178 218 260 317
#     4  10  21  34  53  78 104 141 177 213 264 312
#
# _framework density 16.819777999999999
#
# number of rings (size 3 to 8) (size 9 to 14) (size 15 to 20)
#    0.000    1.875    2.500    4.125    0.000    3.000 
#    0.000    0.000    0.000    0.000    0.000    2.625 
#    0.000    4.500    0.000    0.000    0.000    0.000 
#
# Total GULP energy -178205.798305 kJ/mol
# GULP energy per Si atom -5568.931197 kJ/mol
# Density = 1.678150 g / cm^3
# Si number density = 16.819778 Si / 1000 Ang^3
#
#
#
# Elastic Constant Matrix: (Units=GPa)
#
#
# Indices 1 2 3 4 5 6 
#
# 1 111.9110 52.8870 20.6640 -0.0012 8.4108 0.0011
# 2 52.8870 111.2006 22.8065 -0.0029 14.7409 0.0013
# 3 20.6640 22.8065 34.3193 -0.0035 9.7643 0.0023
# 4 -0.0012 -0.0029 -0.0035 21.4577 0.0021 3.1746
# 5 8.4108 14.7409 9.7643 0.0021 23.5695 -0.0015
# 6 0.0011 0.0013 0.0023 3.1746 -0.0015 5.5301
#
#
#
# Elastic Compliance Matrix: (Units=1/GPa)
#
#
# Indices 1 2 3 4 5 6 
#
# 1 0.011980 -0.004927 -0.004081 -0.000001 0.000497 0.000001
# 2 -0.004927 0.012805 -0.004268 0.000002 -0.004483 -0.000002
# 3 -0.004081 -0.004268 0.037701 0.000010 -0.011493 -0.000023
# 4 -0.000001 0.000002 0.000010 0.050929 -0.000011 -0.029236
# 5 0.000497 -0.004483 -0.011493 -0.000011 0.049815 0.000026
# 6 0.000001 -0.000002 -0.000023 -0.029236 0.000026 0.197610
#
#
# Mechanical properties :
#
#
# Convention : Reuss Voigt Hill
#
# Bulk Modulus (GPa) = 27.82696 50.01622 38.92159
# Shear Modulus (GPa) = 12.51969 20.84969 16.68469
#
# Velocity S-wave (km/s) = 2.73123 3.52461 3.15297
# Velocity P-wave (km/s) = 5.15036 6.80918 6.03702
#
# Compressibility (1/GPa) = 0.03593637
#
# Stress axis : x y z
#
# Youngs Moduli (GPa) = 83.47203 78.09196 26.52418
#
# Poissons Ratio (x) = 0.38473 0.10824
# Poissons Ratio (y) = 0.41124 0.11320
# Poissons Ratio (z) = 0.34062 0.33329
#
# Static dielectric constant tensor:
#      x y z
#    x 1.595330 0.000000 -0.028600 
#    y 0.000000 1.611420 0.000000 
#    z -0.028600 0.000000 1.580700 
# 
# From -- ./inp_files/294132.got.cif
#   From: 2010.05.17/outbox.cif.g08.bks.cpg/sg12_148_cif.got.tgz:294132.got - 2010.06.03 13:09:07.
