data_PCOD9169519
_publ_section_title
;
Structure prediction by ZEFSAII (Michael W. Deem and Ramdas Pophale) SiO2 
 PCOD9169519
Probable space group: C 2/M
;
_chemical_formula_sum "Si O2"
_cell_formula_units_Z 64
_cell_length_a 19.968190
_cell_length_b 8.717392
_cell_length_c 22.566341
_cell_angle_alpha 90.000000
_cell_angle_beta 68.918722
_cell_angle_gamma 90.000000
_cell_volume 3665.229463
_symmetry_space_group_name_H-M "C 2/M"
_symmetry_group_IT_number 12
_symmetry_cell_setting 'monoclinic'
loop_
_space_group_symop_operation_xyz
x,y,z
-x,y,-z
-x,-y,-z
x,-y,z
1/2+x,1/2+y,z
1/2-x,1/2+y,-z
1/2-x,1/2-y,-z
1/2+x,1/2-y,z
loop_
_atom_site_type_symbol
_atom_site_label
_atom_site_fract_x
_atom_site_fract_y
_atom_site_fract_z
Si Si1 0.912645 0.821906 0.525623
Si Si2 0.413063 0.182714 0.648080
Si Si3 0.072986 0.815838 0.608590
Si Si4 0.665112 0.685507 0.819067
Si Si5 0.449464 0.184725 0.835660
Si Si6 0.823891 0.313277 0.791130
Si Si7 0.482031 0.685123 0.071959
Si Si8 0.400726 0.816688 0.275783
O O1 0.887254 0.729062 0.590749
O O2 0.893822 0.766643 0.465463
O O3 0.000000 0.816334 0.500000
O O4 0.891948 0.000000 0.538749
O O5 0.490514 0.258699 0.634770
O O6 0.358917 0.230610 0.717095
O O7 0.422631 0.000000 0.648305
O O8 0.109542 0.751103 0.655728
O O9 0.073071 0.000000 0.609228
O O10 0.664867 0.500000 0.815879
O O11 0.741644 0.736880 0.819926
O O12 0.597430 0.732812 0.880920
O O13 0.651417 0.750093 0.757763
O O14 0.377353 0.238342 0.826009
O O15 0.463778 0.253623 0.895520
O O16 0.518623 0.224207 0.772843
O O17 0.448027 0.000000 0.840459
O O18 0.824050 0.500000 0.792887
O O19 0.484313 0.500000 0.071850
O O20 0.500000 0.737674 0.000000
O O21 0.395753 0.000000 0.279276
#
# Coordination Sequence:
#
# PCOD9169519 Si02
#       8
#     8   8   8   8   8   8   8   8
#     4   8  16  28  39  60  93 125 158 198 241 290
#     4  10  17  27  44  67  94 124 159 201 246 284
#     4  10  18  28  44  66  94 126 162 199 241 293
#     4   9  18  33  52  70  95 132 164 189 235 295
#     4   9  17  31  50  72  97 125 159 196 235 282
#     4   9  17  31  49  71  98 128 161 197 239 289
#     4   9  18  33  52  75 100 126 160 198 232 273
#     4  10  18  30  48  71  98 122 157 209 248 278
#
# _framework density 17.461390000000002
#
# number of rings (size 3 to 8) (size 9 to 14) (size 15 to 20)
#    0.000    2.750    1.250    1.875    0.000    3.500 
#    0.000    2.500    0.000    0.750    0.000    0.000 
#    0.000    0.000    0.000    0.000    0.000    0.000 
#
# Total GULP energy -178330.179788 kJ/mol
# GULP energy per Si atom -5572.818118 kJ/mol
# Density = 1.742165 g / cm^3
# Si number density = 17.461390 Si / 1000 Ang^3
#
#
#
# Elastic Constant Matrix: (Units=GPa)
#
#
# Indices 1 2 3 4 5 6 
#
# 1 105.7732 15.3331 57.3229 0.0000 18.1378 0.0000
# 2 15.3331 16.3800 23.0772 0.0000 4.5827 0.0001
# 3 57.3229 23.0772 141.4372 0.0000 26.1955 0.0000
# 4 0.0000 0.0000 0.0000 12.9924 0.0000 15.7992
# 5 18.1378 4.5827 26.1955 0.0000 18.5481 0.0000
# 6 0.0000 0.0001 0.0000 15.7992 0.0000 9.1795
#
#
#
# Elastic Compliance Matrix: (Units=1/GPa)
#
#
# Indices 1 2 3 4 5 6 
#
# 1 0.013204 -0.006086 -0.003041 0.000000 -0.007114 0.000000
# 2 -0.006086 0.082122 -0.011209 -0.000001 0.001492 0.000001
# 3 -0.003041 -0.011209 0.012280 0.000000 -0.011600 0.000000
# 4 0.000000 -0.000001 0.000000 -0.070422 0.000000 0.121206
# 5 -0.007114 0.001492 -0.011600 0.000000 0.076884 0.000000
# 6 0.000000 0.000001 0.000000 0.121206 0.000000 -0.099673
#
#
# Mechanical properties :
#
#
# Convention : Reuss Voigt Hill
#
# Bulk Modulus (GPa) = 14.93999 50.56187 32.75093
# Shear Modulus (GPa) = 64.61812 19.33449 41.97630
#
# Velocity S-wave (km/s) = 6.08988 3.33118 4.90833
# Velocity P-wave (km/s) = 7.61731 6.61928 7.13577
#
# Compressibility (1/GPa) = 0.06693444
#
# Stress axis : x y z
#
# Youngs Moduli (GPa) = 75.73272 12.17707 81.43266
#
# Poissons Ratio (x) = 0.07411 0.24764
# Poissons Ratio (y) = 0.46089 0.91277
# Poissons Ratio (z) = 0.23031 0.13649
#
# Static dielectric constant tensor:
#      x y z
#    x 1.590990 0.000000 0.007020 
#    y 0.000000 1.587050 0.000000 
#    z 0.007020 0.000000 1.601480 
# 
# From -- ./inp_files/319105.got.cif
#   From: 2010.05.17/outbox.cif.g08.bks.cpg/sg12_160_cif.got.tgz:319105.got - 2010.06.03 13:09:07.
