data_PCOD9169497
_publ_section_title
;
Structure prediction by ZEFSAII (Michael W. Deem and Ramdas Pophale) SiO2 
 PCOD9169497
Probable space group: C 2/M
;
_chemical_formula_sum "Si O2"
_cell_formula_units_Z 48
_cell_length_a 25.086984
_cell_length_b 8.671678
_cell_length_c 14.713202
_cell_angle_alpha 90.000000
_cell_angle_beta 70.113723
_cell_angle_gamma 90.000000
_cell_volume 3009.936863
_symmetry_space_group_name_H-M "C 2/M"
_symmetry_group_IT_number 12
_symmetry_cell_setting 'monoclinic'
loop_
_space_group_symop_operation_xyz
x,y,z
-x,y,-z
-x,-y,-z
x,-y,z
1/2+x,1/2+y,z
1/2-x,1/2+y,-z
1/2-x,1/2-y,-z
1/2+x,1/2-y,z
loop_
_atom_site_type_symbol
_atom_site_label
_atom_site_fract_x
_atom_site_fract_y
_atom_site_fract_z
Si Si1 0.084776 0.813988 0.509496
Si Si2 0.230051 0.687146 0.231002
Si Si3 0.302753 0.684972 0.027691
Si Si4 0.291499 0.184877 0.552011
Si Si5 0.124989 0.315801 0.163171
Si Si6 0.466039 0.314433 0.657570
O O1 0.144050 0.738835 0.500114
O O2 0.066703 0.770949 0.416862
O O3 0.031507 0.770368 0.603837
O O4 0.089849 0.000000 0.508973
O O5 0.228447 0.500000 0.233513
O O6 0.285721 0.730456 0.140360
O O7 0.226552 0.740795 0.336396
O O8 0.174501 0.736347 0.205616
O O9 0.303257 0.500000 0.021940
O O10 0.250000 0.750000 0.000000
O O11 0.357682 0.750165 0.945177
O O12 0.250000 0.250000 0.500000
O O13 0.289123 0.000000 0.552574
O O14 0.126532 0.500000 0.158589
O O15 0.066275 0.258677 0.239179
O O16 0.463675 0.500000 0.665612
#
# Coordination Sequence:
#
# PCOD9169497 Si02
#       6
#     8   8   8   8   8   8
#     4   9  18  32  47  68  94 123 158 195 235 278
#     4   8  16  29  43  61  90 122 154 191 229 272
#     4   9  16  27  42  63  90 121 153 188 232 280
#     4  11  21  34  49  68  93 126 163 199 233 273
#     4  10  17  27  43  68  96 124 155 186 228 282
#     4   9  17  29  47  69  96 125 154 190 234 282
#
# _framework density 15.947179
#
# number of rings (size 3 to 8) (size 9 to 14) (size 15 to 20)
#    0.000    2.667    1.667    3.500    0.000    0.667 
#    0.000    4.167    0.000    0.000    0.000    1.167 
#    0.000    9.333    0.000    0.000    0.000    0.000 
#
# Total GULP energy -133672.182881 kJ/mol
# GULP energy per Si atom -5569.674287 kJ/mol
# Density = 1.591088 g / cm^3
# Si number density = 15.947179 Si / 1000 Ang^3
#
#
#
# Elastic Constant Matrix: (Units=GPa)
#
#
# Indices 1 2 3 4 5 6 
#
# 1 86.4032 28.9886 62.7920 0.0000 -14.7364 0.0000
# 2 28.9886 35.4637 32.5465 0.0000 -11.0950 0.0000
# 3 62.7920 32.5465 132.2030 0.0000 -34.0311 0.0000
# 4 0.0000 0.0000 0.0000 22.8775 0.0000 -6.0406
# 5 -14.7364 -11.0950 -34.0311 0.0000 27.1445 0.0000
# 6 0.0000 0.0000 0.0000 -6.0406 0.0000 21.6932
#
#
#
# Elastic Compliance Matrix: (Units=1/GPa)
#
#
# Indices 1 2 3 4 5 6 
#
# 1 0.020207 -0.010265 -0.007865 0.000000 -0.003086 0.000000
# 2 -0.010265 0.042184 -0.003700 0.000000 0.007031 0.000000
# 3 -0.007865 -0.003700 0.015831 0.000000 0.014066 0.000000
# 4 0.000000 0.000000 0.000000 0.047180 0.000000 0.013138
# 5 -0.003086 0.007031 0.014066 0.000000 0.055673 0.000000
# 6 0.000000 0.000000 0.000000 0.013138 0.000000 0.049756
#
#
# Mechanical properties :
#
#
# Convention : Reuss Voigt Hill
#
# Bulk Modulus (GPa) = 28.93273 55.85825 42.39549
# Shear Modulus (GPa) = 17.48191 22.99255 20.23723
#
# Velocity S-wave (km/s) = 3.31454 3.80122 3.56619
# Velocity P-wave (km/s) = 5.72979 7.37352 6.60300
#
# Compressibility (1/GPa) = 0.03456294
#
# Stress axis : x y z
#
# Youngs Moduli (GPa) = 49.48798 23.70589 63.16654
#
# Poissons Ratio (x) = 0.24334 0.49680
# Poissons Ratio (y) = 0.50799 0.23369
# Poissons Ratio (z) = 0.38922 0.08770
#
# Static dielectric constant tensor:
#      x y z
#    x 1.506790 0.000000 -0.027220 
#    y 0.000000 1.538530 0.000000 
#    z -0.027220 0.000000 1.570190 
# 
# From -- ./inp_files/229963.got.cif
#   From: 2010.05.17/outbox.cif.g08.bks.cpg/sg12_115_cif.got.tgz:229963.got - 2010.06.03 13:09:07.
