data_PCOD9169251
_publ_section_title
;
Structure prediction by ZEFSAII (Michael W. Deem and Ramdas Pophale) SiO2 
 PCOD9169251
Probable space group: C 2/M
;
_chemical_formula_sum "Si O2"
_cell_formula_units_Z 64
_cell_length_a 19.665839
_cell_length_b 7.367758
_cell_length_c 23.947679
_cell_angle_alpha 90.000000
_cell_angle_beta 66.452508
_cell_angle_gamma 90.000000
_cell_volume 3180.917049
_symmetry_space_group_name_H-M "C 2/M"
_symmetry_group_IT_number 12
_symmetry_cell_setting 'monoclinic'
loop_
_space_group_symop_operation_xyz
x,y,z
-x,y,-z
-x,-y,-z
x,-y,z
1/2+x,1/2+y,z
1/2-x,1/2+y,-z
1/2-x,1/2-y,-z
1/2+x,1/2-y,z
loop_
_atom_site_type_symbol
_atom_site_label
_atom_site_fract_x
_atom_site_fract_y
_atom_site_fract_z
Si Si1 0.149606 0.277355 0.873030
Si Si2 0.826164 0.282855 0.008063
Si Si3 0.337454 0.279500 0.538044
Si Si4 0.486904 0.789913 0.937110
Si Si5 0.247912 0.721372 0.737372
Si Si6 0.599999 0.720718 0.361262
Si Si7 0.313087 0.781711 0.361916
Si Si8 0.435425 0.287825 0.403912
O O1 0.147828 0.500000 0.873908
O O2 0.064904 0.214929 0.889024
O O3 0.206068 0.219092 0.806575
O O4 0.174443 0.220314 0.927126
O O5 0.834844 0.500000 0.007700
O O6 0.903973 0.213440 0.955607
O O7 0.750000 0.250000 0.000000
O O8 0.334852 0.500000 0.535866
O O9 0.379181 0.232399 0.581873
O O10 0.252904 0.217475 0.575069
O O11 0.382570 0.211159 0.470015
O O12 0.484466 0.000000 0.919573
O O13 0.500000 0.787599 0.000000
O O14 0.247629 0.500000 0.738197
O O15 0.332913 0.780192 0.700645
O O16 0.205569 0.777570 0.694599
O O17 0.600644 0.500000 0.358508
O O18 0.518081 0.787561 0.374563
O O19 0.391290 0.726613 0.360975
O O20 0.310268 0.000000 0.362478
O O21 0.444270 0.500000 0.414985
#
# Coordination Sequence:
#
# PCOD9169251 Si02
#       8
#     8   8   8   8   8   8   8   8
#     4   8  13  24  44  63  77 103 143 173 190 222
#     4   9  16  26  42  65  90 109 128 162 203 237
#     4   8  14  25  41  59  77 102 136 167 196 235
#     4   7  11  21  38  59  79 101 133 167 190 214
#     4   8  14  26  43  60  77 103 140 172 195 226
#     4   8  14  24  39  59  80 102 133 171 201 230
#     4   9  17  28  41  58  81 104 129 167 205 235
#     4  10  17  25  41  62  81 102 129 164 206 246
#
# _framework density 20.119983999999999
#
# number of rings (size 3 to 8) (size 9 to 14) (size 15 to 20)
#    0.000    3.625    0.000    3.750    0.000    1.500 
#    0.000    1.250    0.000    8.625    0.000    0.000 
#    0.000    0.000    0.000    0.000    0.000    0.000 
#
# Total GULP energy -178296.168624 kJ/mol
# GULP energy per Si atom -5571.755269 kJ/mol
# Density = 2.007419 g / cm^3
# Si number density = 20.119984 Si / 1000 Ang^3
#
#
#
# Elastic Constant Matrix: (Units=GPa)
#
#
# Indices 1 2 3 4 5 6 
#
# 1 171.1634 -2.4231 68.4398 0.0011 -23.5810 0.0015
# 2 -2.4231 69.7733 4.8536 0.0018 -2.8093 0.0026
# 3 68.4398 4.8536 124.6868 0.0003 -14.0637 0.0004
# 4 0.0011 0.0018 0.0003 -11.6472 0.0002 5.3048
# 5 -23.5810 -2.8093 -14.0637 0.0002 11.2793 0.0007
# 6 0.0015 0.0026 0.0004 5.3048 0.0007 14.5526
#
#
#
# Elastic Compliance Matrix: (Units=1/GPa)
#
#
# Indices 1 2 3 4 5 6 
#
# 1 0.009388 0.001195 -0.003435 0.000000 0.015641 -0.000002
# 2 0.001195 0.014633 -0.000620 0.000001 0.005370 -0.000003
# 3 -0.003435 -0.000620 0.010592 0.000000 0.005870 0.000000
# 4 0.000000 0.000001 0.000000 -0.073633 0.000001 0.026841
# 5 0.015641 0.005370 0.005870 0.000001 0.130014 -0.000009
# 6 -0.000002 -0.000003 0.000000 0.026841 -0.000009 0.058932
#
#
# Mechanical properties :
#
#
# Convention : Reuss Voigt Hill
#
# Bulk Modulus (GPa) = 34.61159 56.37380 45.49270
# Shear Modulus (GPa) = 30.25226 22.48716 26.36971
#
# Velocity S-wave (km/s) = 3.88183 3.34676 3.62418
# Velocity P-wave (km/s) = 6.10994 6.55851 6.33819
#
# Compressibility (1/GPa) = 0.02889205
#
# Stress axis : x y z
#
# Youngs Moduli (GPa) = 106.52316 68.33903 94.41171
#
# Poissons Ratio (x) = -0.08165 0.32432
# Poissons Ratio (y) = -0.12726 0.05851
# Poissons Ratio (z) = 0.36593 0.04235
#
# Static dielectric constant tensor:
#      x y z
#    x 1.712210 0.000000 -0.038330 
#    y 0.000000 1.785930 0.000000 
#    z -0.038330 0.000000 1.693950 
# 
# From -- ./inp_files/342871.got.cif
#   From: 2010.05.17/outbox.cif.g08.bks.cpg/sg12_172_cif.got.tgz:342871.got - 2010.06.03 13:09:07.
