data_PCOD9169707
_publ_section_title
;
Structure prediction by ZEFSAII (Michael W. Deem and Ramdas Pophale) SiO2 
 PCOD9169707
Probable space group: C 2/M
;
_chemical_formula_sum "Si O2"
_cell_formula_units_Z 64
_cell_length_a 12.187665
_cell_length_b 31.009507
_cell_length_c 13.621716
_cell_angle_alpha 90.000000
_cell_angle_beta 147.992210
_cell_angle_gamma 90.000000
_cell_volume 2728.672287
_symmetry_space_group_name_H-M "C 2/M"
_symmetry_group_IT_number 12
_symmetry_cell_setting 'monoclinic'
loop_
_space_group_symop_operation_xyz
x,y,z
-x,y,-z
-x,-y,-z
x,-y,z
1/2+x,1/2+y,z
1/2-x,1/2+y,-z
1/2-x,1/2-y,-z
1/2+x,1/2-y,z
loop_
_atom_site_type_symbol
_atom_site_label
_atom_site_fract_x
_atom_site_fract_y
_atom_site_fract_z
Si Si1 0.366979 0.225080 0.487859
Si Si2 0.017376 0.180751 0.117741
Si Si3 0.247078 0.107932 0.708953
Si Si4 0.423775 0.452846 0.740213
Si Si5 0.453393 0.050795 0.702745
Si Si6 0.141909 0.871184 0.841646
Si Si7 0.722956 0.320642 0.542271
Si Si8 0.305417 0.097876 0.281399
O O1 0.500000 0.209685 0.500000
O O2 0.135268 0.214056 0.277985
O O3 0.392575 0.275688 0.523122
O O4 0.406176 0.195872 0.611869
O O5 0.159796 0.139486 0.190966
O O6 0.834046 0.160819 0.046486
O O7 0.000000 0.204126 0.000000
O O8 0.381926 0.072770 0.751368
O O9 0.273572 0.118314 0.844404
O O10 0.288134 0.153377 0.686099
O O11 0.000000 0.097805 0.500000
O O12 0.512665 0.500000 0.806070
O O13 0.249151 0.449455 0.522756
O O14 0.593123 0.417443 0.848249
O O15 0.316130 0.441910 0.761390
O O16 0.610219 0.081629 0.759573
O O17 0.513092 0.000000 0.757473
O O18 0.927574 0.852239 0.632086
O O19 0.500000 0.105477 0.500000
#
# Coordination Sequence:
#
# PCOD9169707 Si02
#       8
#     8   8   8   8   8   8   8   8
#     4  10  19  31  56  83 103 134 177 225 258 319
#     4  10  21  35  55  80 106 137 177 226 275 315
#     4  10  17  28  45  70 109 145 171 212 259 325
#     4   9  15  25  43  72 107 138 170 215 268 308
#     4  10  18  26  44  77 110 140 173 222 273 312
#     4   9  17  31  48  70 106 146 176 207 259 324
#     4   9  18  31  48  78 109 134 176 209 268 312
#     4   9  18  31  50  75 109 141 175 220 267 324
#
# _framework density 23.454630999999999
#
# number of rings (size 3 to 8) (size 9 to 14) (size 15 to 20)
#    0.000    2.500    2.500    1.875    3.500    2.250 
#    0.000    0.000    0.000   22.125    0.000    0.875 
#    0.000    0.000    0.000    0.000    0.000    0.125 
#
# Total GULP energy -178413.955440 kJ/mol
# GULP energy per Si atom -5575.436108 kJ/mol
# Density = 2.340125 g / cm^3
# Si number density = 23.454631 Si / 1000 Ang^3
#
#
#
# Elastic Constant Matrix: (Units=GPa)
#
#
# Indices 1 2 3 4 5 6 
#
# 1 177.0885 24.2746 17.9954 0.0001 -8.5556 0.0002
# 2 24.2746 110.4137 17.1264 0.0000 0.9040 0.0000
# 3 17.9954 17.1264 55.7192 0.0004 -12.2946 0.0006
# 4 0.0001 0.0000 0.0004 394.6062 0.0003 610.6052
# 5 -8.5556 0.9040 -12.2946 0.0003 20.8221 0.0004
# 6 0.0002 0.0000 0.0006 610.6052 0.0004 976.8010
#
#
#
# Elastic Compliance Matrix: (Units=1/GPa)
#
#
# Indices 1 2 3 4 5 6 
#
# 1 0.006013 -0.001153 -0.001186 0.000000 0.001821 0.000000
# 2 -0.001153 0.009842 -0.003279 0.000000 -0.002837 0.000000
# 3 -0.001186 -0.003279 0.022147 0.000000 0.012732 0.000000
# 4 0.000000 0.000000 0.000000 0.077444 0.000000 -0.048411
# 5 0.001821 -0.002837 0.012732 0.000000 0.056415 0.000000
# 6 0.000000 0.000000 0.000000 -0.048411 0.000000 0.031286
#
#
# Mechanical properties :
#
#
# Convention : Reuss Voigt Hill
#
# Bulk Modulus (GPa) = 37.35902 51.33493 44.34698
# Shear Modulus (GPa) = 22.39079 297.36753 159.87916
#
# Velocity S-wave (km/s) = 3.09308 11.27206 8.26518
# Velocity P-wave (km/s) = 5.35901 13.83282 10.48966
#
# Compressibility (1/GPa) = 0.02676730
#
# Stress axis : x y z
#
# Youngs Moduli (GPa) = 166.29461 101.60391 45.15213
#
# Poissons Ratio (x) = 0.11715 0.05355
# Poissons Ratio (y) = 0.19174 0.14804
# Poissons Ratio (z) = 0.19723 0.33314
#
# Static dielectric constant tensor:
#      x y z
#    x 1.960110 0.000000 -0.006330 
#    y 0.000000 1.841310 0.000000 
#    z -0.006330 0.000000 2.012290 
# 
# From -- ./inp_files/209873.got.cif
#   From: 2010.05.17/outbox.cif.g08.bks.cpg/sg12_105_cif.got.tgz:209873.got - 2010.06.03 13:09:07.
