data_PCOD9169400
_publ_section_title
;
Structure prediction by ZEFSAII (Michael W. Deem and Ramdas Pophale) SiO2 
 PCOD9169400
Probable space group: C 2/M
;
_chemical_formula_sum "Si O2"
_cell_formula_units_Z 48
_cell_length_a 18.105001
_cell_length_b 14.834898
_cell_length_c 6.908485
_cell_angle_alpha 90.000000
_cell_angle_beta 95.122711
_cell_angle_gamma 90.000000
_cell_volume 1848.109855
_symmetry_space_group_name_H-M "C 2/M"
_symmetry_group_IT_number 12
_symmetry_cell_setting 'monoclinic'
loop_
_space_group_symop_operation_xyz
x,y,z
-x,y,-z
-x,-y,-z
x,-y,z
1/2+x,1/2+y,z
1/2-x,1/2+y,-z
1/2-x,1/2-y,-z
1/2+x,1/2-y,z
loop_
_atom_site_type_symbol
_atom_site_label
_atom_site_fract_x
_atom_site_fract_y
_atom_site_fract_z
Si Si1 0.776043 0.398371 0.179965
Si Si2 0.021174 0.203526 0.723184
Si Si3 0.844551 0.896400 0.341420
Si Si4 0.558557 0.900284 0.838909
Si Si5 0.137560 0.204733 0.245469
Si Si6 0.821921 0.400657 0.646708
O O1 0.746303 0.500000 0.143538
O O2 0.854152 0.389013 0.086757
O O3 0.709443 0.327454 0.142966
O O4 0.803953 0.394798 0.411932
O O5 0.097455 0.152324 0.783311
O O6 0.038797 0.309789 0.721338
O O7 0.000000 0.174516 0.500000
O O8 0.947333 0.183888 0.828786
O O9 0.848077 0.844548 0.546023
O O10 0.758188 0.895996 0.267173
O O11 0.866257 0.000000 0.373455
O O12 0.553857 0.000000 0.743285
O O13 0.500000 0.901394 0.000000
O O14 0.136144 0.310796 0.288916
O O15 0.855338 0.500000 0.690164
#
# Coordination Sequence:
#
# PCOD9169400 Si02
#       6
#     8   8   8   8   8   8
#     4   9  16  28  47  67  90 125 166 199 230 283
#     4  10  20  31  49  78 104 126 155 201 250 285
#     4   9  17  29  46  70 102 135 163 192 234 292
#     4  10  21  37  54  70  94 132 170 200 238 293
#     4  10  17  26  44  72 102 125 154 199 248 286
#     4   9  16  26  43  68  98 130 159 193 238 287
#
# _framework density 25.972481999999999
#
# number of rings (size 3 to 8) (size 9 to 14) (size 15 to 20)
#    0.000    2.500    0.000    6.500    0.000    4.667 
#    0.000    0.833    0.000    0.500    0.000    0.000 
#    0.000    0.000    0.000    0.000    0.000    0.000 
#
# Total GULP energy -134281.254199 kJ/mol
# GULP energy per Si atom -5595.052258 kJ/mol
# Density = 2.591337 g / cm^3
# Si number density = 25.972482 Si / 1000 Ang^3
#
#
#
# Elastic Constant Matrix: (Units=GPa)
#
#
# Indices 1 2 3 4 5 6 
#
# 1 194.3436 63.5296 34.1559 0.0000 -24.2283 0.0000
# 2 63.5296 133.6113 30.6790 0.0000 -20.7488 0.0000
# 3 34.1559 30.6790 76.7365 0.0000 -17.1862 0.0000
# 4 0.0000 0.0000 0.0000 26.7957 0.0000 -24.8602
# 5 -24.2283 -20.7488 -17.1862 0.0000 34.2188 0.0000
# 6 0.0000 0.0000 0.0000 -24.8602 0.0000 55.6226
#
#
#
# Elastic Compliance Matrix: (Units=1/GPa)
#
#
# Indices 1 2 3 4 5 6 
#
# 1 0.006471 -0.002380 -0.001381 0.000000 0.002445 0.000000
# 2 -0.002380 0.009571 -0.002078 0.000000 0.003074 0.000000
# 3 -0.001381 -0.002078 0.015747 0.000000 0.005671 0.000000
# 4 0.000000 0.000000 0.000000 0.063757 0.000000 0.028496
# 5 0.002445 0.003074 0.005671 0.000000 0.035667 0.000000
# 6 0.000000 0.000000 0.000000 0.028496 0.000000 0.030714
#
#
# Mechanical properties :
#
#
# Convention : Reuss Voigt Hill
#
# Bulk Modulus (GPa) = 49.72709 73.49118 61.60914
# Shear Modulus (GPa) = 27.72994 41.74920 34.73957
#
# Velocity S-wave (km/s) = 3.27106 4.01364 3.66122
# Velocity P-wave (km/s) = 5.78395 7.05948 6.45331
#
# Compressibility (1/GPa) = 0.02010976
#
# Stress axis : x y z
#
# Youngs Moduli (GPa) = 154.53311 104.48552 63.50251
#
# Poissons Ratio (x) = 0.24868 0.08771
# Poissons Ratio (y) = 0.36780 0.13199
# Poissons Ratio (z) = 0.21344 0.21717
#
# Static dielectric constant tensor:
#      x y z
#    x 2.076220 0.000000 -0.037620 
#    y 0.000000 1.958390 0.000000 
#    z -0.037620 0.000000 2.133340 
# 
# From -- ./inp_files/73585.got.cif
#   From: 2010.05.17/outbox.cif.g08.bks.cpg/sg12_37_cif.got.tgz:73585.got - 2010.06.03 13:09:07.
