data_PCOD9169952
_publ_section_title
;
Structure prediction by ZEFSAII (Michael W. Deem and Ramdas Pophale) SiO2 
 PCOD9169952
Probable space group: C 2/M
;
_chemical_formula_sum "Si O2"
_cell_formula_units_Z 48
_cell_length_a 8.072064
_cell_length_b 30.345069
_cell_length_c 10.406741
_cell_angle_alpha 90.000000
_cell_angle_beta 91.842874
_cell_angle_gamma 90.000000
_cell_volume 2547.785059
_symmetry_space_group_name_H-M "C 2/M"
_symmetry_group_IT_number 12
_symmetry_cell_setting 'monoclinic'
loop_
_space_group_symop_operation_xyz
x,y,z
-x,y,-z
-x,-y,-z
x,-y,z
1/2+x,1/2+y,z
1/2-x,1/2+y,-z
1/2-x,1/2-y,-z
1/2+x,1/2-y,z
loop_
_atom_site_type_symbol
_atom_site_label
_atom_site_fract_x
_atom_site_fract_y
_atom_site_fract_z
Si Si1 0.091067 0.361910 0.638616
Si Si2 0.347297 0.688939 0.265308
Si Si3 0.482946 0.767072 0.643474
Si Si4 0.373197 0.127222 0.883909
Si Si5 0.961278 0.103123 0.640325
Si Si6 0.117817 0.949082 0.879008
O O1 0.106551 0.308851 0.654174
O O2 0.268297 0.384888 0.647689
O O3 0.000000 0.369479 0.500000
O O4 0.973546 0.376587 0.752671
O O5 0.475861 0.728808 0.255191
O O6 0.261286 0.666184 0.140510
O O7 0.433830 0.648414 0.340271
O O8 0.195982 0.711231 0.339319
O O9 0.500000 0.748450 0.500000
O O10 0.274978 0.082276 0.905805
O O11 0.500000 0.137348 0.000000
O O12 0.022167 0.070741 0.753619
O O13 0.000000 0.085184 0.500000
O O14 0.162589 0.000000 0.859698
O O15 0.000000 0.946142 0.000000
#
# Coordination Sequence:
#
# PCOD9169952 Si02
#       6
#     8   8   8   8   8   8
#     4  10  20  35  56  83 113 149 189 228 270 320
#     4  10  20  31  50  78 109 148 190 229 271 318
#     4  10  17  29  48  76 110 145 191 233 265 311
#     4  10  21  38  57  81 111 144 182 229 281 329
#     4  11  20  35  58  83 114 147 182 228 280 326
#     4  10  22  40  62  86 109 140 181 222 272 337
#
# _framework density 18.839896
#
# number of rings (size 3 to 8) (size 9 to 14) (size 15 to 20)
#    0.000    1.833    0.000    7.000    0.000    0.667 
#    0.000    4.167    0.000   12.000    0.000    0.000 
#    0.000    0.000    0.000    0.000    0.000    0.000 
#
# Total GULP energy -133985.214164 kJ/mol
# GULP energy per Si atom -5582.717257 kJ/mol
# Density = 1.879702 g / cm^3
# Si number density = 18.839896 Si / 1000 Ang^3
#
#
#
# Elastic Constant Matrix: (Units=GPa)
#
#
# Indices 1 2 3 4 5 6 
#
# 1 72.1799 33.1325 16.5956 0.0000 11.2050 0.0000
# 2 33.1325 98.8374 31.2536 0.0000 5.3309 0.0000
# 3 16.5956 31.2536 74.8710 0.0000 10.2627 0.0000
# 4 0.0000 0.0000 0.0000 14.7809 0.0000 -7.8977
# 5 11.2050 5.3309 10.2627 0.0000 29.5877 0.0000
# 6 0.0000 0.0000 0.0000 -7.8977 0.0000 19.6677
#
#
#
# Elastic Compliance Matrix: (Units=1/GPa)
#
#
# Indices 1 2 3 4 5 6 
#
# 1 0.017282 -0.005214 -0.000930 0.000000 -0.005283 0.000000
# 2 -0.005214 0.013235 -0.004528 0.000000 0.001161 0.000000
# 3 -0.000930 -0.004528 0.016056 0.000000 -0.004401 0.000000
# 4 0.000000 0.000000 0.000000 0.086136 0.000000 0.034589
# 5 -0.005283 0.001161 -0.004401 0.000000 0.037116 0.000000
# 6 0.000000 0.000000 0.000000 0.034589 0.000000 0.064734
#
#
# Mechanical properties :
#
#
# Convention : Reuss Voigt Hill
#
# Bulk Modulus (GPa) = 39.63840 45.31685 42.47762
# Shear Modulus (GPa) = 18.91707 23.80103 21.35905
#
# Velocity S-wave (km/s) = 3.17219 3.55819 3.37072
# Velocity P-wave (km/s) = 5.87387 6.40210 6.14366
#
# Compressibility (1/GPa) = 0.02522806
#
# Stress axis : x y z
#
# Youngs Moduli (GPa) = 57.86498 75.55873 62.28277
#
# Poissons Ratio (x) = 0.39398 0.05792
# Poissons Ratio (y) = 0.30172 0.28201
# Poissons Ratio (z) = 0.05381 0.34213
#
# Static dielectric constant tensor:
#      x y z
#    x 1.688470 0.000000 0.011940 
#    y 0.000000 1.650750 0.000000 
#    z 0.011940 0.000000 1.652530 
# 
# From -- ./inp_files/42171.got.cif
#   From: 2010.05.17/outbox.cif.g08.bks.cpg/sg12_22_cif.got.tgz:42171.got - 2010.06.03 13:09:07.
