data_PCOD9169213
_publ_section_title
;
Structure prediction by ZEFSAII (Michael W. Deem and Ramdas Pophale) SiO2 
 PCOD9169213
Probable space group: C 2/M
;
_chemical_formula_sum "Si O2"
_cell_formula_units_Z 64
_cell_length_a 9.730592
_cell_length_b 19.699117
_cell_length_c 22.292797
_cell_angle_alpha 90.000000
_cell_angle_beta 135.441388
_cell_angle_gamma 90.000000
_cell_volume 2998.223583
_symmetry_space_group_name_H-M "C 2/M"
_symmetry_group_IT_number 12
_symmetry_cell_setting 'monoclinic'
loop_
_space_group_symop_operation_xyz
x,y,z
-x,y,-z
-x,-y,-z
x,-y,z
1/2+x,1/2+y,z
1/2-x,1/2+y,-z
1/2-x,1/2-y,-z
1/2+x,1/2-y,z
loop_
_atom_site_type_symbol
_atom_site_label
_atom_site_fract_x
_atom_site_fract_y
_atom_site_fract_z
Si Si1 0.207164 0.179044 0.954098
Si Si2 0.258560 0.331693 0.556480
Si Si3 0.776250 0.814323 0.304862
Si Si4 0.758996 0.847800 0.685504
Si Si5 0.776239 0.830477 0.433441
Si Si6 0.198664 0.813001 0.816799
Si Si7 0.266403 0.842958 0.193455
Si Si8 0.237795 0.076872 0.066471
O O1 0.285510 0.178996 0.910120
O O2 0.970254 0.170904 0.878046
O O3 0.250000 0.250000 0.000000
O O4 0.282956 0.120320 0.021396
O O5 0.494953 0.335175 0.626713
O O6 0.192365 0.366373 0.597658
O O7 0.216392 0.251416 0.553907
O O8 0.185495 0.354386 0.468100
O O9 0.778903 0.732965 0.315517
O O10 0.692435 0.843774 0.341057
O O11 0.694958 0.829847 0.213118
O O12 0.689630 0.875878 0.727853
O O13 0.994945 0.853667 0.755560
O O14 0.000000 0.854821 0.500000
O O15 0.151147 0.732676 0.793909
O O16 0.310529 0.889096 0.150319
O O17 0.305923 0.000000 0.081637
O O18 0.000000 0.076659 0.000000
#
# Coordination Sequence:
#
# PCOD9169213 Si02
#       8
#     8   8   8   8   8   8   8   8
#     4  10  17  25  39  57  74  94 125 157 189 227
#     4   8  12  18  27  40  61  92 121 151 176 210
#     4   8  13  20  28  42  65  89 119 151 184 217
#     4   8  14  21  31  47  69  91 118 152 185 217
#     4   8  12  17  26  39  58  90 128 147 173 217
#     4   9  15  23  34  50  72  91 119 158 187 220
#     4   9  16  25  37  54  75  94 121 152 191 224
#     4   9  17  28  40  55  77  98 120 153 194 233
#
# _framework density 21.345972
#
# number of rings (size 3 to 8) (size 9 to 14) (size 15 to 20)
#    0.000    3.375    1.250    0.000    0.000    0.000 
#    0.000    0.000    0.000    0.000    0.000    1.750 
#    0.000    0.000    0.000    1.125    0.000  797.500 
#
# Total GULP energy -178208.232721 kJ/mol
# GULP energy per Si atom -5569.007273 kJ/mol
# Density = 2.129739 g / cm^3
# Si number density = 21.345972 Si / 1000 Ang^3
#
#
#
# Elastic Constant Matrix: (Units=GPa)
#
#
# Indices 1 2 3 4 5 6 
#
# 1 98.9493 10.2313 67.0203 0.0001 -35.4690 0.0001
# 2 10.2313 31.1208 25.1228 0.0000 -13.5379 0.0000
# 3 67.0203 25.1228 190.8712 0.0001 -72.5609 0.0001
# 4 0.0001 0.0000 0.0001 6.8396 0.0001 -4.1544
# 5 -35.4690 -13.5379 -72.5609 0.0001 57.6430 0.0001
# 6 0.0001 0.0000 0.0001 -4.1544 0.0001 9.1779
#
#
#
# Elastic Compliance Matrix: (Units=1/GPa)
#
#
# Indices 1 2 3 4 5 6 
#
# 1 0.013870 -0.000043 -0.003114 0.000000 0.004605 0.000000
# 2 -0.000043 0.036650 -0.002966 0.000000 0.004847 0.000000
# 3 -0.003114 -0.002966 0.010988 0.000000 0.011219 0.000000
# 4 0.000000 0.000000 0.000000 0.201649 -0.000001 0.091276
# 5 0.004605 0.004847 0.011219 -0.000001 0.035442 -0.000001
# 6 0.000000 0.000000 0.000000 0.091276 -0.000001 0.150274
#
#
# Mechanical properties :
#
#
# Convention : Reuss Voigt Hill
#
# Bulk Modulus (GPa) = 20.29976 58.41003 39.35490
# Shear Modulus (GPa) = 10.47032 29.30321 19.88676
#
# Velocity S-wave (km/s) = 2.21714 3.70912 3.05559
# Velocity P-wave (km/s) = 4.01059 6.76508 5.56107
#
# Compressibility (1/GPa) = 0.04926167
#
# Stress axis : x y z
#
# Youngs Moduli (GPa) = 72.09553 27.28509 91.00946
#
# Poissons Ratio (x) = 0.00117 0.28342
# Poissons Ratio (y) = 0.00310 0.26994
# Poissons Ratio (z) = 0.22452 0.08093
#
# Static dielectric constant tensor:
#      x y z
#    x 1.887220 0.000000 0.055070 
#    y 0.000000 1.688440 0.000000 
#    z 0.055070 0.000000 1.983370 
# 
# From -- ./inp_files/264621.got.cif
#   From: 2010.05.17/outbox.cif.g08.bks.cpg/sg12_133_cif.got.tgz:264621.got - 2010.06.03 13:09:07.
