data_PCOD9169632
_publ_section_title
;
Structure prediction by ZEFSAII (Michael W. Deem and Ramdas Pophale) SiO2 
 PCOD9169632
Probable space group: C 2/M
;
_chemical_formula_sum "Si O2"
_cell_formula_units_Z 64
_cell_length_a 30.682418
_cell_length_b 7.848283
_cell_length_c 15.916129
_cell_angle_alpha 90.000000
_cell_angle_beta 118.485812
_cell_angle_gamma 90.000000
_cell_volume 3368.670757
_symmetry_space_group_name_H-M "C 2/M"
_symmetry_group_IT_number 12
_symmetry_cell_setting 'monoclinic'
loop_
_space_group_symop_operation_xyz
x,y,z
-x,y,-z
-x,-y,-z
x,-y,z
1/2+x,1/2+y,z
1/2-x,1/2+y,-z
1/2-x,1/2-y,-z
1/2+x,1/2-y,z
loop_
_atom_site_type_symbol
_atom_site_label
_atom_site_fract_x
_atom_site_fract_y
_atom_site_fract_z
Si Si1 0.704906 0.197778 0.779103
Si Si2 0.925889 0.793452 0.765344
Si Si3 0.322813 0.797660 0.593067
Si Si4 0.266024 0.698035 0.376902
Si Si5 0.192642 0.791503 0.055766
Si Si6 0.463779 0.291738 0.153736
Si Si7 0.903687 0.207169 0.933635
Si Si8 0.631410 0.701900 0.840144
O O1 0.714353 0.216417 0.689120
O O2 0.753217 0.273785 0.870464
O O3 0.654206 0.269971 0.769964
O O4 0.703239 0.000000 0.798435
O O5 0.879322 0.736917 0.667617
O O6 0.917446 0.733907 0.853597
O O7 0.979844 0.734353 0.784192
O O8 0.925931 0.000000 0.766283
O O9 0.304093 0.717236 0.489175
O O10 0.286200 0.733925 0.633979
O O11 0.314381 0.000000 0.578145
O O12 0.259438 0.500000 0.350254
O O13 0.151288 0.742262 0.086740
O O14 0.194414 0.000000 0.057460
O O15 0.170763 0.733563 0.946247
O O16 0.464999 0.500000 0.155749
O O17 0.423091 0.233225 0.184628
O O18 0.441770 0.241947 0.042246
O O19 0.904567 0.000000 0.933128
O O20 0.628901 0.500000 0.851358
#
# Coordination Sequence:
#
# PCOD9169632 Si02
#       8
#     8   8   8   8   8   8   8   8
#     4  11  20  30  48  74 100 126 161 203 248 291
#     4  10  17  27  49  76  99 128 166 203 240 283
#     4  10  21  36  53  75 102 127 152 189 239 292
#     4  10  21  37  55  74  97 126 158 191 234 290
#     4   8  15  26  42  67  99 132 163 198 239 283
#     4   8  15  27  45  70  98 131 172 210 236 268
#     4   8  13  23  42  70 100 128 163 204 238 272
#     4   9  17  31  47  65  96 136 174 206 235 273
#
# _framework density 18.998591999999999
#
# number of rings (size 3 to 8) (size 9 to 14) (size 15 to 20)
#    0.000    2.750    0.000    4.125    0.000    4.000 
#    0.000    1.250    0.000    5.250    0.000    5.250 
#    0.000    0.000    0.000    0.000    0.000    0.000 
#
# Total GULP energy -178480.982198 kJ/mol
# GULP energy per Si atom -5577.530694 kJ/mol
# Density = 1.895535 g / cm^3
# Si number density = 18.998592 Si / 1000 Ang^3
#
#
#
# Elastic Constant Matrix: (Units=GPa)
#
#
# Indices 1 2 3 4 5 6 
#
# 1 134.6274 1.0068 54.9665 0.0000 6.9429 0.0000
# 2 1.0068 20.2144 -5.9675 0.0000 0.0385 0.0000
# 3 54.9665 -5.9675 43.1775 0.0000 7.5081 0.0000
# 4 0.0000 0.0000 0.0000 5.6848 0.0000 6.2279
# 5 6.9429 0.0385 7.5081 0.0000 29.7373 0.0000
# 6 0.0000 0.0000 0.0000 6.2279 0.0000 9.3289
#
#
#
# Elastic Compliance Matrix: (Units=1/GPa)
#
#
# Indices 1 2 3 4 5 6 
#
# 1 0.016529 -0.007435 -0.022383 0.000000 0.001802 0.000000
# 2 -0.007435 0.055026 0.017551 0.000000 -0.002767 0.000000
# 3 -0.022383 0.017551 0.055618 0.000000 -0.008839 0.000000
# 4 0.000000 0.000000 0.000000 0.654819 0.000000 -0.437152
# 5 0.001802 -0.002767 -0.008839 0.000000 0.035442 0.000000
# 6 0.000000 0.000000 0.000000 -0.437152 0.000000 0.399033
#
#
# Mechanical properties :
#
#
# Convention : Reuss Voigt Hill
#
# Bulk Modulus (GPa) = 9.74288 33.11456 21.42872
# Shear Modulus (GPa) = 3.92091 18.81777 11.36934
#
# Velocity S-wave (km/s) = 1.43815 3.15061 2.44894
# Velocity P-wave (km/s) = 2.81017 5.54102 4.39318
#
# Compressibility (1/GPa) = 0.10263908
#
# Stress axis : x y z
#
# Youngs Moduli (GPa) = 60.49827 18.17309 17.97990
#
# Poissons Ratio (x) = 0.13511 0.40245
# Poissons Ratio (y) = 0.44978 -0.31556
# Poissons Ratio (z) = 1.35415 -0.31895
#
# Static dielectric constant tensor:
#      x y z
#    x 1.686310 0.000000 0.000470 
#    y 0.000000 1.701100 0.000000 
#    z 0.000470 0.000000 1.629800 
# 
# From -- ./inp_files/249210.got.cif
#   From: 2010.05.17/outbox.cif.g08.bks.cpg/sg12_125_cif.got.tgz:249210.got - 2010.06.03 13:09:07.
