data_PCOD9169566
_publ_section_title
;
Structure prediction by ZEFSAII (Michael W. Deem and Ramdas Pophale) SiO2 
 PCOD9169566
Probable space group: C 2/M
;
_chemical_formula_sum "Si O2"
_cell_formula_units_Z 56
_cell_length_a 8.487801
_cell_length_b 16.204610
_cell_length_c 31.314551
_cell_angle_alpha 90.000000
_cell_angle_beta 36.373431
_cell_angle_gamma 90.000000
_cell_volume 2554.277246
_symmetry_space_group_name_H-M "C 2/M"
_symmetry_group_IT_number 12
_symmetry_cell_setting 'monoclinic'
loop_
_space_group_symop_operation_xyz
x,y,z
-x,y,-z
-x,-y,-z
x,-y,z
1/2+x,1/2+y,z
1/2-x,1/2+y,-z
1/2-x,1/2-y,-z
1/2+x,1/2-y,z
loop_
_atom_site_type_symbol
_atom_site_label
_atom_site_fract_x
_atom_site_fract_y
_atom_site_fract_z
Si Si1 0.186552 0.310025 0.159523
Si Si2 0.476021 0.181746 0.332674
Si Si3 0.885022 0.871574 0.713163
Si Si4 0.465147 0.631972 0.788802
Si Si5 0.966363 0.907039 0.409472
Si Si6 0.768691 0.170115 0.915584
Si Si7 0.195154 0.405200 0.549038
O O1 0.109294 0.228541 0.203864
O O2 0.211232 0.264393 0.107919
O O3 0.937498 0.370693 0.218670
O O4 0.469472 0.342632 0.113081
O O5 0.529345 0.276412 0.311995
O O6 0.211642 0.151277 0.367576
O O7 0.454206 0.158395 0.387682
O O8 0.733164 0.131526 0.260863
O O9 0.945685 0.906462 0.746724
O O10 0.041872 0.910843 0.639537
O O11 0.285262 0.613731 0.869162
O O12 0.719365 0.882861 0.493628
O O13 0.031086 0.000000 0.410368
O O14 0.500000 0.159720 0.000000
O O15 0.500000 0.402629 0.500000
O O16 0.100071 0.500000 0.574691
#
# Coordination Sequence:
#
# PCOD9169566 Si02
#       7
#     8   8   8   8   8   8   8
#     4   9  16  28  44  70 106 144 169 220 263 318
#     4  10  17  31  56  74 100 142 181 228 268 321
#     4  11  19  32  51  74 112 148 178 226 278 321
#     4   9  18  29  43  72 102 137 170 222 267 318
#     4  10  21  36  55  77 107 144 186 229 276 329
#     4  10  17  27  45  72 111 147 176 211 276 330
#     4   8  16  32  51  75 104 136 181 232 274 320
#
# _framework density 21.924009000000002
#
# number of rings (size 3 to 8) (size 9 to 14) (size 15 to 20)
#    0.857    1.571    1.429    4.286    0.000    0.571 
#    0.000    3.571    0.000    1.714    0.000    0.000 
#    0.000   30.286    0.000    0.000    0.000    0.000 
#
# Total GULP energy -155987.249822 kJ/mol
# GULP energy per Si atom -5570.973208 kJ/mol
# Density = 2.187411 g / cm^3
# Si number density = 21.924009 Si / 1000 Ang^3
#
#
#
# Elastic Constant Matrix: (Units=GPa)
#
#
# Indices 1 2 3 4 5 6 
#
# 1 62.8141 12.5737 27.7945 -0.0491 2.3715 0.0072
# 2 12.5737 37.5858 22.9809 -0.0116 0.3405 0.0019
# 3 27.7945 22.9809 153.2219 0.0096 16.7967 -0.0054
# 4 -0.0491 -0.0116 0.0096 -58.0482 0.0010 14.0267
# 5 2.3715 0.3405 16.7967 0.0010 36.5295 0.0019
# 6 0.0072 0.0019 -0.0054 14.0267 0.0019 2.4124
#
#
#
# Elastic Compliance Matrix: (Units=1/GPa)
#
#
# Indices 1 2 3 4 5 6 
#
# 1 0.017953 -0.004415 -0.002602 -0.000012 0.000072 0.000012
# 2 -0.004415 0.030496 -0.003973 -0.000003 0.001829 -0.000001
# 3 -0.002602 -0.003973 0.007974 0.000005 -0.003460 0.000003
# 4 -0.000012 -0.000003 0.000005 -0.007163 -0.000003 0.041649
# 5 0.000072 0.001829 -0.003460 -0.000003 0.028945 -0.000012
# 6 0.000012 -0.000001 0.000003 0.041649 -0.000012 0.172359
#
#
# Mechanical properties :
#
#
# Convention : Reuss Voigt Hill
#
# Bulk Modulus (GPa) = 29.03600 42.25779 35.64689
# Shear Modulus (GPa) = 17.60409 8.86360 13.23384
#
# Velocity S-wave (km/s) = 2.83673 2.01287 2.45954
# Velocity P-wave (km/s) = 4.89919 4.97179 4.93562
#
# Compressibility (1/GPa) = 0.03444001
#
# Stress axis : x y z
#
# Youngs Moduli (GPa) = 55.70239 32.79144 125.40992
#
# Poissons Ratio (x) = 0.14478 0.32635
# Poissons Ratio (y) = 0.24594 0.49832
# Poissons Ratio (z) = 0.14495 0.13030
#
# Static dielectric constant tensor:
#      x y z
#    x 1.871780 0.000000 0.065030 
#    y 0.000000 1.810770 0.000010 
#    z 0.065030 0.000010 1.832210 
# 
# From -- ./inp_files/356683.got.cif
#   From: 2010.05.17/outbox.cif.g08.bks.cpg/sg12_179_cif.got.tgz:356683.got - 2010.06.03 13:09:07.
