data_PCOD9169262
_publ_section_title
;
Structure prediction by ZEFSAII (Michael W. Deem and Ramdas Pophale) SiO2 
 PCOD9169262
Probable space group: C 2/M
;
_chemical_formula_sum "Si O2"
_cell_formula_units_Z 48
_cell_length_a 20.979378
_cell_length_b 8.575513
_cell_length_c 15.883737
_cell_angle_alpha 90.000000
_cell_angle_beta 78.016448
_cell_angle_gamma 90.000000
_cell_volume 2795.350566
_symmetry_space_group_name_H-M "C 2/M"
_symmetry_group_IT_number 12
_symmetry_cell_setting 'monoclinic'
loop_
_space_group_symop_operation_xyz
x,y,z
-x,y,-z
-x,-y,-z
x,-y,z
1/2+x,1/2+y,z
1/2-x,1/2+y,-z
1/2-x,1/2-y,-z
1/2+x,1/2-y,z
loop_
_atom_site_type_symbol
_atom_site_label
_atom_site_fract_x
_atom_site_fract_y
_atom_site_fract_z
Si Si1 0.893755 0.687104 0.275937
Si Si2 0.420494 0.684808 0.096405
Si Si3 0.544294 0.812264 0.267937
Si Si4 0.179406 0.187568 0.543547
Si Si5 0.931269 0.187852 0.558234
Si Si6 0.066583 0.685787 0.078906
O O1 0.892722 0.500000 0.270453
O O2 0.879721 0.759204 0.187977
O O3 0.845562 0.746050 0.360907
O O4 0.967878 0.735831 0.281686
O O5 0.430488 0.500000 0.096544
O O6 0.490094 0.770892 0.089518
O O7 0.397717 0.733383 0.009268
O O8 0.573675 0.746982 0.345329
O O9 0.580322 0.764854 0.171332
O O10 0.544891 0.000000 0.270421
O O11 0.250000 0.250000 0.500000
O O12 0.127213 0.237005 0.486589
O O13 0.179788 0.000000 0.547228
O O14 0.000000 0.242719 0.500000
O O15 0.932547 0.000000 0.559326
O O16 0.073944 0.500000 0.069782
#
# Coordination Sequence:
#
# PCOD9169262 Si02
#       6
#     8   8   8   8   8   8
#     4  10  19  32  49  71  99 134 170 210 256 303
#     4  10  17  25  41  66  95 131 168 205 251 303
#     4   9  18  29  47  73 100 132 169 208 252 301
#     4  11  23  38  54  75 103 136 173 214 258 304
#     4  10  20  34  52  75 102 133 169 213 258 302
#     4   9  16  27  40  63  98 132 165 205 252 301
#
# _framework density 17.17137
#
# number of rings (size 3 to 8) (size 9 to 14) (size 15 to 20)
#    0.000    2.167    1.667    5.000    0.000    5.000 
#    0.000    0.000    0.000    0.000    0.000    1.167 
#    0.000    0.000    0.000    0.000    0.000    0.000 
#
# Total GULP energy -133793.372553 kJ/mol
# GULP energy per Si atom -5574.723856 kJ/mol
# Density = 1.713229 g / cm^3
# Si number density = 17.171370 Si / 1000 Ang^3
#
#
#
# Elastic Constant Matrix: (Units=GPa)
#
#
# Indices 1 2 3 4 5 6 
#
# 1 61.3168 13.7416 52.4970 0.0000 -0.6808 0.0000
# 2 13.7416 23.4244 28.7934 0.0000 -0.8614 0.0000
# 3 52.4970 28.7934 196.3554 0.0000 11.6188 0.0000
# 4 0.0000 0.0000 0.0000 35.8156 0.0000 2.7709
# 5 -0.6808 -0.8614 11.6188 0.0000 15.7531 0.0000
# 6 0.0000 0.0000 0.0000 2.7709 0.0000 16.7316
#
#
#
# Elastic Compliance Matrix: (Units=1/GPa)
#
#
# Indices 1 2 3 4 5 6 
#
# 1 0.022333 -0.006425 -0.005296 0.000000 0.004520 0.000000
# 2 -0.006425 0.055138 -0.006827 0.000000 0.007773 0.000000
# 3 -0.005296 -0.006827 0.007890 0.000000 -0.006421 0.000000
# 4 0.000000 0.000000 0.000000 0.028283 0.000000 -0.004684
# 5 0.004520 0.007773 -0.006421 0.000000 0.068836 0.000000
# 6 0.000000 0.000000 0.000000 -0.004684 0.000000 0.060543
#
#
# Mechanical properties :
#
#
# Convention : Reuss Voigt Hill
#
# Bulk Modulus (GPa) = 20.71966 52.35117 36.53542
# Shear Modulus (GPa) = 16.88001 26.06439 21.47220
#
# Velocity S-wave (km/s) = 3.13874 3.90025 3.54003
# Velocity P-wave (km/s) = 5.02276 7.12995 6.16702
#
# Compressibility (1/GPa) = 0.04826333
#
# Stress axis : x y z
#
# Youngs Moduli (GPa) = 44.77617 18.13638 126.74357
#
# Poissons Ratio (x) = 0.11653 0.67127
# Poissons Ratio (y) = 0.28769 0.86534
# Poissons Ratio (z) = 0.23715 0.12383
#
# Static dielectric constant tensor:
#      x y z
#    x 1.554170 0.000000 0.012360 
#    y 0.000000 1.577260 0.000000 
#    z 0.012360 0.000000 1.635920 
# 
# From -- ./inp_files/229902.got.cif
#   From: 2010.05.17/outbox.cif.g08.bks.cpg/sg12_115_cif.got.tgz:229902.got - 2010.06.03 13:09:07.
