data_PCOD9169956
_publ_section_title
;
Structure prediction by ZEFSAII (Michael W. Deem and Ramdas Pophale) SiO2 
 PCOD9169956
Probable space group: C 2/M
;
_chemical_formula_sum "Si O2"
_cell_formula_units_Z 56
_cell_length_a 25.727788
_cell_length_b 7.275134
_cell_length_c 12.172149
_cell_angle_alpha 90.000000
_cell_angle_beta 97.527211
_cell_angle_gamma 90.000000
_cell_volume 2258.666277
_symmetry_space_group_name_H-M "C 2/M"
_symmetry_group_IT_number 12
_symmetry_cell_setting 'monoclinic'
loop_
_space_group_symop_operation_xyz
x,y,z
-x,y,-z
-x,-y,-z
x,-y,z
1/2+x,1/2+y,z
1/2-x,1/2+y,-z
1/2-x,1/2-y,-z
1/2+x,1/2-y,z
loop_
_atom_site_type_symbol
_atom_site_label
_atom_site_fract_x
_atom_site_fract_y
_atom_site_fract_z
Si Si1 0.515565 0.276610 0.131228
Si Si2 0.370967 0.723972 0.527351
Si Si3 0.218434 0.222100 0.338340
Si Si4 0.634113 0.276939 0.134962
Si Si5 0.833214 0.207252 0.300836
Si Si6 0.308882 0.719674 0.058458
Si Si7 0.485121 0.722606 0.622842
O O1 0.510346 0.500000 0.129153
O O2 0.576561 0.221523 0.152745
O O3 0.493304 0.220817 0.248174
O O4 0.500000 0.221126 0.000000
O O5 0.369494 0.500000 0.525697
O O6 0.317436 0.783345 0.570529
O O7 0.371310 0.789547 0.402075
O O8 0.423227 0.770790 0.606063
O O9 0.182327 0.276247 0.225291
O O10 0.275943 0.300426 0.341258
O O11 0.223241 0.000000 0.341825
O O12 0.633512 0.500000 0.137738
O O13 0.649315 0.215372 0.018122
O O14 0.821865 0.295876 0.181300
O O15 0.852777 0.000000 0.287121
O O16 0.313225 0.500000 0.066424
O O17 0.250000 0.750000 0.000000
O O18 0.500000 0.780151 0.500000
O O19 0.491366 0.500000 0.623236
#
# Coordination Sequence:
#
# PCOD9169956 Si02
#       7
#     8   8   8   8   8   8   8
#     4   9  16  26  41  62  86 115 154 192 224 272
#     4   9  17  29  43  62  90 124 155 185 228 277
#     4  10  17  29  49  65  88 127 160 181 217 277
#     4   9  16  27  43  61  83 119 156 181 219 272
#     4  10  20  30  43  68  97 120 152 196 230 261
#     4  10  19  30  44  63  90 122 154 188 225 266
#     4   9  16  26  41  61  87 120 152 184 231 283
#
# _framework density 24.793393999999999
#
# number of rings (size 3 to 8) (size 9 to 14) (size 15 to 20)
#    0.000    2.571    2.857    0.429    0.000    1.143 
#    0.000    5.714    0.000    0.000    0.000    0.000 
#    0.000    4.571    0.000    0.000    0.000    0.000 
#
# Total GULP energy -156123.203502 kJ/mol
# GULP energy per Si atom -5575.828697 kJ/mol
# Density = 2.473696 g / cm^3
# Si number density = 24.793394 Si / 1000 Ang^3
#
#
#
# Elastic Constant Matrix: (Units=GPa)
#
#
# Indices 1 2 3 4 5 6 
#
# 1 27.1982 -9.6169 40.4146 0.0000 0.8714 0.0000
# 2 -9.6169 109.4873 5.5944 0.0000 1.2592 0.0000
# 3 40.4146 5.5944 254.8747 0.0000 4.1104 0.0000
# 4 0.0000 0.0000 0.0000 -12.5618 0.0000 0.4983
# 5 0.8714 1.2592 4.1104 0.0000 43.1108 0.0000
# 6 0.0000 0.0000 0.0000 0.4983 0.0000 1.9407
#
#
#
# Elastic Compliance Matrix: (Units=1/GPa)
#
#
# Indices 1 2 3 4 5 6 
#
# 1 0.050560 0.004860 -0.008118 0.000000 -0.000390 0.000000
# 2 0.004860 0.009614 -0.000977 0.000000 -0.000286 0.000000
# 3 -0.008118 -0.000977 0.005237 0.000000 -0.000307 0.000000
# 4 0.000000 0.000000 0.000000 -0.078804 0.000000 0.020233
# 5 -0.000390 -0.000286 -0.000307 0.000000 0.023242 0.000000
# 6 0.000000 0.000000 0.000000 0.020233 0.000000 0.510081
#
#
# Mechanical properties :
#
#
# Convention : Reuss Voigt Hill
#
# Bulk Modulus (GPa) = 17.56166 51.59383 34.57775
# Shear Modulus (GPa) = 9.13444 30.17582 19.65513
#
# Velocity S-wave (km/s) = 1.92151 3.49247 2.81865
# Velocity P-wave (km/s) = 3.46721 6.09244 4.95678
#
# Compressibility (1/GPa) = 0.05694222
#
# Stress axis : x y z
#
# Youngs Moduli (GPa) = 19.77837 104.01929 190.94660
#
# Poissons Ratio (x) = -0.50556 1.55002
# Poissons Ratio (y) = -0.09613 0.18657
# Poissons Ratio (z) = 0.16055 0.10164
#
# Static dielectric constant tensor:
#      x y z
#    x 1.900910 0.000000 -0.017890 
#    y 0.000000 1.992440 0.000000 
#    z -0.017890 0.000000 2.063020 
# 
# From -- ./inp_files/181604.got.cif
#   From: 2010.05.17/outbox.cif.g08.bks.cpg/sg12_91_cif.got.tgz:181604.got - 2010.06.03 13:09:07.
