data_PCOD9169070
_publ_section_title
;
Structure prediction by ZEFSAII (Michael W. Deem and Ramdas Pophale) SiO2 
 PCOD9169070
Probable space group: C 2/M
;
_chemical_formula_sum "Si O2"
_cell_formula_units_Z 64
_cell_length_a 11.303300
_cell_length_b 14.719471
_cell_length_c 23.493454
_cell_angle_alpha 90.000000
_cell_angle_beta 37.639409
_cell_angle_gamma 90.000000
_cell_volume 2387.069781
_symmetry_space_group_name_H-M "C 2/M"
_symmetry_group_IT_number 12
_symmetry_cell_setting 'monoclinic'
loop_
_space_group_symop_operation_xyz
x,y,z
-x,y,-z
-x,-y,-z
x,-y,z
1/2+x,1/2+y,z
1/2-x,1/2+y,-z
1/2-x,1/2-y,-z
1/2+x,1/2-y,z
loop_
_atom_site_type_symbol
_atom_site_label
_atom_site_fract_x
_atom_site_fract_y
_atom_site_fract_z
Si Si1 0.470299 0.392783 0.875707
Si Si2 0.687745 0.889375 0.891119
Si Si3 0.790556 0.851722 0.568236
Si Si4 0.793946 0.107691 0.060732
Si Si5 0.979441 0.847901 0.378507
Si Si6 0.115161 0.394470 0.791394
Si Si7 0.802768 0.641094 0.605122
Si Si8 0.616515 0.853894 0.297170
O O1 0.502635 0.500000 0.857279
O O2 0.376881 0.356343 0.853225
O O3 0.310188 0.384187 0.986044
O O4 0.681244 0.356568 0.812806
O O5 0.662632 0.857338 0.836246
O O6 0.700089 0.000000 0.885325
O O7 0.500000 0.866845 0.000000
O O8 0.797133 0.752058 0.596907
O O9 0.578005 0.895548 0.656092
O O10 0.000000 0.896232 0.500000
O O11 0.818831 0.843630 0.488640
O O12 0.802399 0.000000 0.074420
O O13 0.583689 0.145685 0.157307
O O14 0.000000 0.148551 0.000000
O O15 0.184368 0.890198 0.318755
O O16 0.044004 0.747289 0.336988
O O17 0.881308 0.892644 0.360638
O O18 0.069242 0.500000 0.817274
O O19 0.819729 0.613330 0.664080
O O20 0.000000 0.611102 0.500000
#
# Coordination Sequence:
#
# PCOD9169070 Si02
#       8
#     8   8   8   8   8   8   8   8
#     4  10  20  34  56  82 107 135 174 218 264 311
#     4   9  15  30  57  79  99 135 175 210 255 314
#     4  10  19  33  55  77 100 139 184 210 246 313
#     4   9  18  35  55  73 102 149 186 207 243 313
#     4  11  20  33  55  81 103 136 178 219 258 309
#     4  10  20  34  55  80 106 135 175 221 264 308
#     4  10  16  33  56  78 100 137 181 211 246 314
#     4  11  20  34  56  81 105 136 175 220 260 309
#
# _framework density 26.811114
#
# number of rings (size 3 to 8) (size 9 to 14) (size 15 to 20)
#    0.000    2.000    5.000    1.500    0.000    1.000 
#    0.000    1.250    0.000    1.500    0.000    0.000 
#    0.000    0.000    0.000    0.000    0.000    0.000 
#
# Total GULP energy -178791.836696 kJ/mol
# GULP energy per Si atom -5587.244897 kJ/mol
# Density = 2.675009 g / cm^3
# Si number density = 26.811114 Si / 1000 Ang^3
#
#
#
# Elastic Constant Matrix: (Units=GPa)
#
#
# Indices 1 2 3 4 5 6 
#
# 1 131.0627 8.3540 48.0473 -0.0001 -48.6461 0.0000
# 2 8.3540 80.3353 1.9666 -0.0003 -4.5985 0.0000
# 3 48.0473 1.9666 171.6873 -0.0010 -43.3830 0.0001
# 4 -0.0001 -0.0003 -0.0010 17.2462 0.0001 -4.2376
# 5 -48.6461 -4.5985 -43.3830 0.0001 70.5777 0.0000
# 6 0.0000 0.0000 0.0001 -4.2376 0.0000 -1.8890
#
#
#
# Elastic Compliance Matrix: (Units=1/GPa)
#
#
# Indices 1 2 3 4 5 6 
#
# 1 0.010536 -0.000697 -0.001322 0.000000 0.006404 0.000000
# 2 -0.000697 0.012541 0.000162 0.000000 0.000436 0.000000
# 3 -0.001322 0.000162 0.007062 0.000000 0.003440 0.000000
# 4 0.000000 0.000000 0.000000 0.037380 0.000000 -0.083855
# 5 0.006404 0.000436 0.003440 0.000000 0.020726 0.000000
# 6 0.000000 0.000000 0.000000 -0.083855 0.000000 -0.341273
#
#
# Mechanical properties :
#
#
# Convention : Reuss Voigt Hill
#
# Bulk Modulus (GPa) = 37.84415 55.53566 46.68990
# Shear Modulus (GPa) = -20.78952 38.83480 9.02264
#
# Velocity S-wave (km/s) = -2.78763 3.80999 1.83646
# Velocity P-wave (km/s) = 1.94539 6.33351 4.68497
#
# Compressibility (1/GPa) = 0.02642416
#
# Stress axis : x y z
#
# Youngs Moduli (GPa) = 94.91269 79.73657 141.60292
#
# Poissons Ratio (x) = 0.05555 0.18726
# Poissons Ratio (y) = 0.06613 -0.02288
# Poissons Ratio (z) = 0.12551 -0.01288
#
# Static dielectric constant tensor:
#      x y z
#    x 2.214460 0.000000 -0.029840 
#    y 0.000000 2.091380 0.000000 
#    z -0.029840 0.000000 2.095040 
# 
# From -- ./inp_files/358980.got.cif
#   From: 2010.05.17/outbox.cif.g08.bks.cpg/sg12_180_cif.got.tgz:358980.got - 2010.06.03 13:09:07.
