data_PCOD9169723
_publ_section_title
;
Structure prediction by ZEFSAII (Michael W. Deem and Ramdas Pophale) SiO2 
 PCOD9169723
Probable space group: C 2/M
;
_chemical_formula_sum "Si O2"
_cell_formula_units_Z 56
_cell_length_a 20.046295
_cell_length_b 7.422470
_cell_length_c 25.563285
_cell_angle_alpha 90.000000
_cell_angle_beta 133.021320
_cell_angle_gamma 90.000000
_cell_volume 2780.839608
_symmetry_space_group_name_H-M "C 2/M"
_symmetry_group_IT_number 12
_symmetry_cell_setting 'monoclinic'
loop_
_space_group_symop_operation_xyz
x,y,z
-x,y,-z
-x,-y,-z
x,-y,z
1/2+x,1/2+y,z
1/2-x,1/2+y,-z
1/2-x,1/2-y,-z
1/2+x,1/2-y,z
loop_
_atom_site_type_symbol
_atom_site_label
_atom_site_fract_x
_atom_site_fract_y
_atom_site_fract_z
Si Si1 0.702691 0.219089 0.310334
Si Si2 0.520246 0.216223 0.702246
Si Si3 0.685479 0.215279 0.416628
Si Si4 0.797578 0.786061 0.257915
Si Si5 0.860574 0.280666 0.901484
Si Si6 0.551058 0.219212 0.947532
Si Si7 0.510301 0.781249 0.813134
O O1 0.721895 0.281220 0.379749
O O2 0.767596 0.284248 0.298642
O O3 0.597355 0.264664 0.241337
O O4 0.707038 0.000000 0.313221
O O5 0.418810 0.281727 0.633281
O O6 0.598974 0.259773 0.703754
O O7 0.543197 0.280506 0.773617
O O8 0.515696 0.000000 0.702655
O O9 0.750000 0.250000 0.500000
O O10 0.679226 0.000000 0.408803
O O11 0.728999 0.715859 0.176377
O O12 0.781654 0.000000 0.251322
O O13 0.858611 0.500000 0.901703
O O14 0.950835 0.232639 0.916404
O O15 0.877267 0.220554 0.970049
O O16 0.559204 0.281887 0.892172
O O17 0.553671 0.000000 0.948094
O O18 0.515062 0.000000 0.815842
#
# Coordination Sequence:
#
# PCOD9169723 Si02
#       7
#     8   8   8   8   8   8   8
#     4   8  14  26  46  69  89 114 150 187 219 255
#     4   9  19  32  46  66  93 123 149 176 218 273
#     4   9  18  34  54  72  90 113 146 185 220 262
#     4  10  17  28  46  69  95 120 148 186 226 261
#     4   8  13  19  34  64  94 113 141 193 237 253
#     4   8  11  18  35  62  90 113 146 194 234 254
#     4   8  12  23  42  61  84 118 157 189 217 258
#
# _framework density 20.137802000000001
#
# number of rings (size 3 to 8) (size 9 to 14) (size 15 to 20)
#    0.000    3.429    1.429    2.571    0.000    0.571 
#    0.000    2.143    0.000    5.143    0.000    2.000 
#    0.000    0.000    0.000    0.000    0.000    0.000 
#
# Total GULP energy -156040.488284 kJ/mol
# GULP energy per Si atom -5572.874582 kJ/mol
# Density = 2.009197 g / cm^3
# Si number density = 20.137802 Si / 1000 Ang^3
#
#
#
# Elastic Constant Matrix: (Units=GPa)
#
#
# Indices 1 2 3 4 5 6 
#
# 1 141.7932 1.9904 78.3240 0.0000 -19.1630 0.0000
# 2 1.9904 60.9744 5.8634 -0.0001 -2.6092 0.0001
# 3 78.3240 5.8634 156.7635 0.0000 -26.9646 0.0000
# 4 0.0000 -0.0001 0.0000 -2.0519 0.0000 1.4411
# 5 -19.1630 -2.6092 -26.9646 0.0000 23.8183 0.0000
# 6 0.0000 0.0001 0.0000 1.4411 0.0000 7.8692
#
#
#
# Elastic Compliance Matrix: (Units=1/GPa)
#
#
# Indices 1 2 3 4 5 6 
#
# 1 0.009907 0.000231 -0.004450 0.000000 0.002959 0.000000
# 2 0.000231 0.016501 -0.000484 0.000000 0.001446 0.000000
# 3 -0.004450 -0.000484 0.009929 0.000000 0.007607 0.000000
# 4 0.000000 0.000000 0.000000 -0.431805 0.000000 0.079079
# 5 0.002959 0.001446 0.007607 0.000000 0.053136 0.000000
# 6 0.000000 0.000000 0.000000 0.079079 0.000000 0.112596
#
#
# Mechanical properties :
#
#
# Convention : Reuss Voigt Hill
#
# Bulk Modulus (GPa) = 37.13046 59.09852 48.11449
# Shear Modulus (GPa) = -23.65698 24.15067 0.24684
#
# Velocity S-wave (km/s) = -3.43119 3.46681 0.35049
# Velocity P-wave (km/s) = 1.66758 6.74060 4.91002
#
# Compressibility (1/GPa) = 0.02693206
#
# Stress axis : x y z
#
# Youngs Moduli (GPa) = 100.93875 60.60166 100.71680
#
# Poissons Ratio (x) = -0.01400 0.44815
# Poissons Ratio (y) = -0.02333 0.04875
# Poissons Ratio (z) = 0.44913 0.02933
#
# Static dielectric constant tensor:
#      x y z
#    x 1.702520 0.000000 -0.029930 
#    y 0.000000 1.841940 0.000000 
#    z -0.029930 0.000000 1.718910 
# 
# From -- ./inp_files/276099.got.cif
#   From: 2010.05.17/outbox.cif.g08.bks.cpg/sg12_139_cif.got.tgz:276099.got - 2010.06.03 13:09:07.
