data_PCOD9169700
_publ_section_title
;
Structure prediction by ZEFSAII (Michael W. Deem and Ramdas Pophale) SiO2 
 PCOD9169700
Probable space group: C 2/M
;
_chemical_formula_sum "Si O2"
_cell_formula_units_Z 48
_cell_length_a 31.568868
_cell_length_b 8.637786
_cell_length_c 12.517386
_cell_angle_alpha 90.000000
_cell_angle_beta 118.345742
_cell_angle_gamma 90.000000
_cell_volume 3004.044884
_symmetry_space_group_name_H-M "C 2/M"
_symmetry_group_IT_number 12
_symmetry_cell_setting 'monoclinic'
loop_
_space_group_symop_operation_xyz
x,y,z
-x,y,-z
-x,-y,-z
x,-y,z
1/2+x,1/2+y,z
1/2-x,1/2+y,-z
1/2-x,1/2-y,-z
1/2+x,1/2-y,z
loop_
_atom_site_type_symbol
_atom_site_label
_atom_site_fract_x
_atom_site_fract_y
_atom_site_fract_z
Si Si1 0.575146 0.184337 0.089658
Si Si2 0.764288 0.313838 0.133190
Si Si3 0.469742 0.313101 0.360765
Si Si4 0.504422 0.314287 0.168628
Si Si5 0.365535 0.185978 0.189557
Si Si6 0.163295 0.813983 0.078890
O O1 0.552526 0.249056 0.171812
O O2 0.628250 0.242040 0.124644
O O3 0.572897 0.000000 0.086550
O O4 0.539781 0.248580 0.954414
O O5 0.763053 0.500000 0.128620
O O6 0.820202 0.269207 0.211249
O O7 0.719646 0.266461 0.154581
O O8 0.750000 0.250000 0.000000
O O9 0.500000 0.263179 0.500000
O O10 0.465823 0.500000 0.358154
O O11 0.496160 0.270894 0.281569
O O12 0.416326 0.244409 0.292879
O O13 0.504049 0.500000 0.158816
O O14 0.366295 0.000000 0.179392
O O15 0.355311 0.257511 0.059958
O O16 0.159653 0.000000 0.078016
#
# Coordination Sequence:
#
# PCOD9169700 Si02
#       6
#     8   8   8   8   8   8
#     4  11  20  29  45  69  97 122 152 193 234 276
#     4   8  16  27  41  63  91 121 152 185 225 278
#     4  10  21  35  50  68  92 125 162 195 228 274
#     4  10  19  32  48  65  90 124 159 189 230 283
#     4  10  18  29  45  67  94 122 154 194 235 271
#     4  10  17  28  45  66  94 127 156 183 227 283
#
# _framework density 15.978456
#
# number of rings (size 3 to 8) (size 9 to 14) (size 15 to 20)
#    0.000    2.167    1.667    4.000    0.000    2.333 
#    0.000    0.000    0.000    0.000    0.000    1.167 
#    0.000    0.000    0.000    0.000    0.000    0.000 
#
# Total GULP energy -133738.630557 kJ/mol
# GULP energy per Si atom -5572.442940 kJ/mol
# Density = 1.594209 g / cm^3
# Si number density = 15.978456 Si / 1000 Ang^3
#
#
#
# Elastic Constant Matrix: (Units=GPa)
#
#
# Indices 1 2 3 4 5 6 
#
# 1 194.9833 48.6683 57.8177 0.0000 -4.5422 0.0000
# 2 48.6683 51.8100 25.2516 0.0000 -4.4508 0.0000
# 3 57.8177 25.2516 66.6253 0.0000 -2.1197 0.0000
# 4 0.0000 0.0000 0.0000 -12.1430 0.0000 -1.6450
# 5 -4.5422 -4.4508 -2.1197 0.0000 13.9220 0.0000
# 6 0.0000 0.0000 0.0000 -1.6450 0.0000 25.0463
#
#
#
# Elastic Compliance Matrix: (Units=1/GPa)
#
#
# Indices 1 2 3 4 5 6 
#
# 1 0.007822 -0.004935 -0.004910 0.000000 0.000227 0.000000
# 2 -0.004935 0.027339 -0.005881 0.000000 0.006235 0.000000
# 3 -0.004910 -0.005881 0.021493 0.000000 -0.000210 0.000000
# 4 0.000000 0.000000 0.000000 -0.081626 0.000000 -0.005361
# 5 0.000227 0.006235 -0.000210 0.000000 0.073864 0.000000
# 6 0.000000 0.000000 0.000000 -0.005361 0.000000 0.039574
#
#
# Mechanical properties :
#
#
# Convention : Reuss Voigt Hill
#
# Bulk Modulus (GPa) = 39.68033 64.09932 51.88982
# Shear Modulus (GPa) = 38.96605 17.47712 28.22159
#
# Velocity S-wave (km/s) = 4.94364 3.31084 4.20721
# Velocity P-wave (km/s) = 7.58114 7.40397 7.49308
#
# Compressibility (1/GPa) = 0.02520140
#
# Stress axis : x y z
#
# Youngs Moduli (GPa) = 127.85070 36.57829 46.52774
#
# Poissons Ratio (x) = 0.18050 0.22846
# Poissons Ratio (y) = 0.63091 0.27362
# Poissons Ratio (z) = 0.62776 0.21511
#
# Static dielectric constant tensor:
#      x y z
#    x 1.591890 0.000000 -0.002070 
#    y 0.000000 1.537900 0.000000 
#    z -0.002070 0.000000 1.489080 
# 
# From -- ./inp_files/185964.got.cif
#   From: 2010.05.17/outbox.cif.g08.bks.cpg/sg12_93_cif.got.tgz:185964.got - 2010.06.03 13:09:07.
