data_PCOD9169503
_publ_section_title
;
Structure prediction by ZEFSAII (Michael W. Deem and Ramdas Pophale) SiO2 
 PCOD9169503
Probable space group: C 2/M
;
_chemical_formula_sum "Si O2"
_cell_formula_units_Z 56
_cell_length_a 20.886842
_cell_length_b 33.607350
_cell_length_c 5.424645
_cell_angle_alpha 90.000000
_cell_angle_beta 105.051863
_cell_angle_gamma 90.000000
_cell_volume 3677.194699
_symmetry_space_group_name_H-M "C 2/M"
_symmetry_group_IT_number 12
_symmetry_cell_setting 'monoclinic'
loop_
_space_group_symop_operation_xyz
x,y,z
-x,y,-z
-x,-y,-z
x,-y,z
1/2+x,1/2+y,z
1/2-x,1/2+y,-z
1/2-x,1/2-y,-z
1/2+x,1/2-y,z
loop_
_atom_site_type_symbol
_atom_site_label
_atom_site_fract_x
_atom_site_fract_y
_atom_site_fract_z
Si Si1 0.704822 0.386637 0.204835
Si Si2 0.573827 0.329819 0.073844
Si Si3 0.713991 0.263476 0.713994
Si Si4 0.391407 0.452752 0.891364
Si Si5 0.291584 0.358934 0.291569
Si Si6 0.426758 0.722755 0.426742
Si Si7 0.571893 0.590388 0.571942
O O1 0.635988 0.359834 0.136009
O O2 0.680976 0.431986 0.180991
O O3 0.740348 0.374535 0.489733
O O4 0.740350 0.374534 0.990989
O O5 0.577497 0.303287 0.325204
O O6 0.500000 0.348801 0.000000
O O7 0.577497 0.303284 0.829832
O O8 0.750000 0.250000 0.500000
O O9 0.708555 0.311522 0.708563
O O10 0.637540 0.249477 0.637546
O O11 0.750000 0.250000 0.000000
O O12 0.391517 0.500000 0.891498
O O13 0.423094 0.436106 0.670048
O O14 0.423106 0.436099 0.176025
O O15 0.365162 0.379951 0.365129
O O16 0.500000 0.741291 0.500000
O O17 0.500000 0.610921 0.500000
#
# Coordination Sequence:
#
# PCOD9169503 Si02
#       7
#     8   8   8   8   8   8   8
#     4  10  17  30  45  58  80 105 143 173 218 257
#     4  10  17  27  44  61  78 101 139 177 210 252
#     4  12  22  33  49  68  91 111 136 180 239 279
#     4  10  21  32  41  59  84 109 139 181 232 273
#     4  10  20  32  44  59  80 104 137 170 216 274
#     4  10  20  33  47  64  85 110 139 175 214 273
#     4  10  21  33  47  60  78 110 146 183 221 265
#
# _framework density 15.229001
#
# number of rings (size 3 to 8) (size 9 to 14) (size 15 to 20)
#    0.000    1.714    2.857    2.571    0.000    6.857 
#    0.000    0.000    0.000    0.000    0.000    0.000 
#    0.000    0.000    0.000    0.000    0.000    0.000 
#
# Total GULP energy -156113.075065 kJ/mol
# GULP energy per Si atom -5575.466967 kJ/mol
# Density = 1.519434 g / cm^3
# Si number density = 15.229001 Si / 1000 Ang^3
#
#
#
# Elastic Constant Matrix: (Units=GPa)
#
#
# Indices 1 2 3 4 5 6 
#
# 1 57.4816 23.3644 36.7343 0.0000 -2.0106 0.0000
# 2 23.3644 66.0349 35.8008 0.0000 -4.6369 0.0000
# 3 36.7343 35.8008 147.4014 0.0000 -31.5793 0.0000
# 4 0.0000 0.0000 0.0000 21.0019 0.0000 -3.7369
# 5 -2.0106 -4.6369 -31.5793 0.0000 24.1156 0.0000
# 6 0.0000 0.0000 0.0000 -3.7369 0.0000 11.0011
#
#
#
# Elastic Compliance Matrix: (Units=1/GPa)
#
#
# Indices 1 2 3 4 5 6 
#
# 1 0.023160 -0.005470 -0.005914 0.000000 -0.006865 0.000000
# 2 -0.005470 0.018895 -0.003538 0.000000 -0.001456 0.000000
# 3 -0.005914 -0.003538 0.012323 0.000000 0.014964 0.000000
# 4 0.000000 0.000000 0.000000 0.050678 0.000000 0.017214
# 5 -0.006865 -0.001456 0.014964 0.000000 0.060210 0.000000
# 6 0.000000 0.000000 0.000000 0.017214 0.000000 0.096747
#
#
# Mechanical properties :
#
#
# Convention : Reuss Voigt Hill
#
# Bulk Modulus (GPa) = 40.76013 51.41299 46.08656
# Shear Modulus (GPa) = 16.66482 22.89161 19.77821
#
# Velocity S-wave (km/s) = 3.31158 3.88127 3.60769
# Velocity P-wave (km/s) = 6.43778 7.34294 6.90521
#
# Compressibility (1/GPa) = 0.02453378
#
# Stress axis : x y z
#
# Youngs Moduli (GPa) = 43.17882 52.92470 81.14834
#
# Poissons Ratio (x) = 0.28951 0.47990
# Poissons Ratio (y) = 0.23620 0.28709
# Poissons Ratio (z) = 0.25535 0.18724
#
# Static dielectric constant tensor:
#      x y z
#    x 1.525930 0.000000 -0.030870 
#    y 0.000000 1.504770 0.000000 
#    z -0.030870 0.000000 1.608500 
# 
# From -- ./inp_files/22689.got.cif
#   From: 2010.05.17/outbox.cif.g08.bks.cpg/sg12_12_cif.got.tgz:22689.got - 2010.06.03 13:09:07.
