data_PCOD9169142
_publ_section_title
;
Structure prediction by ZEFSAII (Michael W. Deem and Ramdas Pophale) SiO2 
 PCOD9169142
Probable space group: C 2/M
;
_chemical_formula_sum "Si O2"
_cell_formula_units_Z 56
_cell_length_a 14.183883
_cell_length_b 9.147212
_cell_length_c 20.134767
_cell_angle_alpha 90.000000
_cell_angle_beta 106.693672
_cell_angle_gamma 90.000000
_cell_volume 2502.245477
_symmetry_space_group_name_H-M "C 2/M"
_symmetry_group_IT_number 12
_symmetry_cell_setting 'monoclinic'
loop_
_space_group_symop_operation_xyz
x,y,z
-x,y,-z
-x,-y,-z
x,-y,z
1/2+x,1/2+y,z
1/2-x,1/2+y,-z
1/2-x,1/2-y,-z
1/2+x,1/2-y,z
loop_
_atom_site_type_symbol
_atom_site_label
_atom_site_fract_x
_atom_site_fract_y
_atom_site_fract_z
Si Si1 0.268318 0.836839 0.572225
Si Si2 0.348004 0.831807 0.874389
Si Si3 0.455788 0.665024 0.425434
Si Si4 0.301034 0.821318 0.721976
Si Si5 0.107267 0.168142 0.841726
Si Si6 0.409011 0.172556 0.291398
Si Si7 0.355553 0.324423 0.007720
O O1 0.250000 0.750000 0.500000
O O2 0.159102 0.847608 0.581404
O O3 0.327375 0.784598 0.650569
O O4 0.303836 0.000000 0.562333
O O5 0.365208 0.788306 0.800972
O O6 0.227478 0.828937 0.858190
O O7 0.378827 0.000000 0.890220
O O8 0.387998 0.734130 0.942706
O O9 0.500000 0.735725 0.500000
O O10 0.496561 0.500000 0.426214
O O11 0.470741 0.756381 0.362948
O O12 0.200796 0.733471 0.716697
O O13 0.286113 0.000000 0.720698
O O14 0.065281 0.269672 0.776045
O O15 0.085290 0.212007 0.912984
O O16 0.077458 0.000000 0.824605
O O17 0.412724 0.000000 0.294761
O O18 0.346421 0.500000 0.003916
O O19 0.250000 0.250000 0.000000
#
# Coordination Sequence:
#
# PCOD9169142 Si02
#       7
#     8   8   8   8   8   8   8
#     4   9  17  29  45  64  84 107 138 173 208 246
#     4   8  13  21  32  44  61  89 125 162 194 227
#     4   9  18  33  49  61  79 112 146 170 200 250
#     4   8  15  27  38  49  71 104 136 161 193 246
#     4   8  14  23  31  41  64  98 129 155 190 241
#     4  10  17  23  36  57  76  95 126 170 209 237
#     4   9  15  20  27  41  62  89 122 159 195 231
#
# _framework density 22.379899000000002
#
# number of rings (size 3 to 8) (size 9 to 14) (size 15 to 20)
#    0.000    3.286    0.000    4.286    0.000    8.286 
#    0.000    0.000    0.000    0.000    0.000    0.000 
#    0.000    0.000    0.000    1.286    0.000   27.429 
#
# Total GULP energy -156034.453423 kJ/mol
# GULP energy per Si atom -5572.659051 kJ/mol
# Density = 2.232896 g / cm^3
# Si number density = 22.379899 Si / 1000 Ang^3
#
#
#
# Elastic Constant Matrix: (Units=GPa)
#
#
# Indices 1 2 3 4 5 6 
#
# 1 69.9000 12.8560 24.4770 0.0000 -20.6628 0.0000
# 2 12.8560 83.7584 114.4225 0.0000 -23.2949 0.0000
# 3 24.4770 114.4225 283.0713 0.0000 -40.9343 0.0000
# 4 0.0000 0.0000 0.0000 35.0068 0.0000 -11.6599
# 5 -20.6628 -23.2949 -40.9343 0.0000 22.6456 0.0000
# 6 0.0000 0.0000 0.0000 -11.6599 0.0000 -5.1617
#
#
#
# Elastic Compliance Matrix: (Units=1/GPa)
#
#
# Indices 1 2 3 4 5 6 
#
# 1 0.020078 0.002278 0.000448 0.000000 0.021474 0.000000
# 2 0.002278 0.029007 -0.009893 0.000000 0.014036 0.000000
# 3 0.000448 -0.009893 0.008232 0.000000 0.005113 0.000000
# 4 0.000000 0.000000 0.000000 0.016301 0.000000 -0.036823
# 5 0.021474 0.014036 0.005113 0.000000 0.087433 0.000000
# 6 0.000000 0.000000 0.000000 -0.036823 0.000000 -0.110554
#
#
# Mechanical properties :
#
#
# Convention : Reuss Voigt Hill
#
# Bulk Modulus (GPa) = 23.26394 82.24896 52.75645
# Shear Modulus (GPa) = 63.16530 29.49643 46.33087
#
# Velocity S-wave (km/s) = 5.31840 3.63435 4.55488
# Velocity P-wave (km/s) = 6.93768 7.37851 7.16149
#
# Compressibility (1/GPa) = 0.04298498
#
# Stress axis : x y z
#
# Youngs Moduli (GPa) = 49.80603 34.47394 121.47601
#
# Poissons Ratio (x) = -0.07854 -0.05445
# Poissons Ratio (y) = -0.11347 1.20172
# Poissons Ratio (z) = -0.02233 0.34104
#
# Static dielectric constant tensor:
#      x y z
#    x 0.879360 0.000000 -0.073500 
#    y 0.000000 1.760410 0.000000 
#    z -0.073500 0.000000 1.888760 
# 
# From -- ./inp_files/319337.got.cif
#   From: 2010.05.17/outbox.cif.g08.bks.cpg/sg12_160_cif.got.tgz:319337.got - 2010.06.03 13:09:07.
