data_PCOD9169851
_publ_section_title
;
Structure prediction by ZEFSAII (Michael W. Deem and Ramdas Pophale) SiO2 
 PCOD9169851
Probable space group: C 2/M
;
_chemical_formula_sum "Si O2"
_cell_formula_units_Z 44
_cell_length_a 9.857022
_cell_length_b 27.193381
_cell_length_c 14.540340
_cell_angle_alpha 90.000000
_cell_angle_beta 150.579548
_cell_angle_gamma 90.000000
_cell_volume 1914.497730
_symmetry_space_group_name_H-M "C 2/M"
_symmetry_group_IT_number 12
_symmetry_cell_setting 'monoclinic'
loop_
_space_group_symop_operation_xyz
x,y,z
-x,y,-z
-x,-y,-z
x,-y,z
1/2+x,1/2+y,z
1/2-x,1/2+y,-z
1/2-x,1/2-y,-z
1/2+x,1/2-y,z
loop_
_atom_site_type_symbol
_atom_site_label
_atom_site_fract_x
_atom_site_fract_y
_atom_site_fract_z
Si Si1 0.941528 0.854561 0.357978
Si Si2 0.734283 0.946336 0.910817
Si Si3 0.925134 0.644473 0.295174
Si Si4 0.570788 0.553005 0.764155
Si Si5 0.500000 0.917784 0.500000
Si Si6 0.443412 0.753757 0.358994
O O1 0.248172 0.849576 0.497025
O O2 0.827468 0.901908 0.238208
O O3 0.806132 0.800380 0.269496
O O4 0.000000 0.863542 0.500000
O O5 0.607070 0.893719 0.807070
O O6 0.589438 0.000000 0.809395
O O7 0.000000 0.948665 0.000000
O O8 0.810425 0.944821 0.062721
O O9 0.827789 0.615682 0.327850
O O10 0.807266 0.699473 0.228067
O O11 0.643858 0.500000 0.766069
O O12 0.235174 0.554522 0.581081
O O13 0.500000 0.764108 0.500000
O O14 0.750000 0.750000 0.500000
#
# Coordination Sequence:
#
# PCOD9169851 Si02
#       6
#     8   8   8   8   4   8
#     4   9  20  36  54  77 103 138 186 232 265 308
#     4  10  20  33  49  77 117 146 168 214 278 331
#     4  10  18  31  55  79 103 141 178 218 271 329
#     4  10  20  33  51  76 109 141 174 219 269 320
#     4  10  17  28  52  82 102 130 175 220 264 320
#     4   9  17  31  53  79 106 135 179 227 277 322
#
# _framework density 22.982530000000001
#
# number of rings (size 3 to 8) (size 9 to 14) (size 15 to 20)
#    0.000    2.364    2.727    0.273    0.000    3.273 
#    0.000    1.818    0.000    2.182    0.000    0.000 
#    0.000    0.000    0.000    0.000    0.000    0.000 
#
# Total GULP energy -122510.646619 kJ/mol
# GULP energy per Si atom -5568.665755 kJ/mol
# Density = 2.293022 g / cm^3
# Si number density = 22.982530 Si / 1000 Ang^3
#
#
#
# Elastic Constant Matrix: (Units=GPa)
#
#
# Indices 1 2 3 4 5 6 
#
# 1 61.4307 16.9139 3.8322 0.0000 -17.8722 0.0000
# 2 16.9139 275.1217 70.6989 0.0000 -35.2631 0.0000
# 3 3.8322 70.6989 50.1096 0.0000 -17.4667 -0.0001
# 4 0.0000 0.0000 0.0000 34.5185 0.0000 -2.3113
# 5 -17.8722 -35.2631 -17.4667 0.0000 31.8138 0.0000
# 6 0.0000 0.0000 -0.0001 -2.3113 0.0000 19.8956
#
#
#
# Elastic Compliance Matrix: (Units=1/GPa)
#
#
# Indices 1 2 3 4 5 6 
#
# 1 0.019849 -0.000543 0.003618 0.000000 0.012535 0.000000
# 2 -0.000543 0.005863 -0.007509 0.000000 0.002071 0.000000
# 3 0.003618 -0.007509 0.034727 0.000000 0.012775 0.000000
# 4 0.000000 0.000000 0.000000 0.029197 0.000000 0.003392
# 5 0.012535 0.002071 0.012775 0.000000 0.047784 0.000000
# 6 0.000000 0.000000 0.000000 0.003392 0.000000 0.050656
#
#
# Mechanical properties :
#
#
# Convention : Reuss Voigt Hill
#
# Bulk Modulus (GPa) = 19.39094 63.28357 41.33726
# Shear Modulus (GPa) = 23.34969 36.92671 30.13820
#
# Velocity S-wave (km/s) = 3.19090 4.01275 3.62519
# Velocity P-wave (km/s) = 4.69375 7.00463 5.96222
#
# Compressibility (1/GPa) = 0.05157048
#
# Stress axis : x y z
#
# Youngs Moduli (GPa) = 50.37987 170.55614 28.79629
#
# Poissons Ratio (x) = 0.09267 -0.10418
# Poissons Ratio (y) = 0.02737 0.21622
# Poissons Ratio (z) = -0.18227 1.28067
#
# Static dielectric constant tensor:
#      x y z
#    x 1.848480 0.000000 0.030280 
#    y 0.000000 2.059550 0.000000 
#    z 0.030280 0.000000 1.852060 
# 
# From -- ./inp_files/208468.got.cif
#   From: 2010.05.17/outbox.cif.g08.bks.cpg/sg12_105_cif.got.tgz:208468.got - 2010.06.03 13:09:07.
