data_PCOD9169958
_publ_section_title
;
Structure prediction by ZEFSAII (Michael W. Deem and Ramdas Pophale) SiO2 
 PCOD9169958
Probable space group: C 2/M
;
_chemical_formula_sum "Si O2"
_cell_formula_units_Z 64
_cell_length_a 28.813741
_cell_length_b 8.795722
_cell_length_c 21.240885
_cell_angle_alpha 90.000000
_cell_angle_beta 133.713789
_cell_angle_gamma 90.000000
_cell_volume 3891.010544
_symmetry_space_group_name_H-M "C 2/M"
_symmetry_group_IT_number 12
_symmetry_cell_setting 'monoclinic'
loop_
_space_group_symop_operation_xyz
x,y,z
-x,y,-z
-x,-y,-z
x,-y,z
1/2+x,1/2+y,z
1/2-x,1/2+y,-z
1/2-x,1/2-y,-z
1/2+x,1/2-y,z
loop_
_atom_site_type_symbol
_atom_site_label
_atom_site_fract_x
_atom_site_fract_y
_atom_site_fract_z
Si Si1 0.184676 0.180362 0.252053
Si Si2 0.687299 0.681803 0.654317
Si Si3 0.537309 0.683471 0.097838
Si Si4 0.485360 0.825518 0.792090
Si Si5 0.503268 0.317634 0.326805
Si Si6 0.829911 0.324849 0.629771
Si Si7 0.855941 0.316801 0.518108
Si Si8 0.941856 0.184659 0.399234
O O1 0.241671 0.255910 0.265963
O O2 0.112470 0.230050 0.166262
O O3 0.193120 0.225027 0.333587
O O4 0.188987 0.000000 0.250109
O O5 0.688653 0.500000 0.656308
O O6 0.670557 0.740766 0.569041
O O7 0.627914 0.735037 0.642021
O O8 0.536282 0.500000 0.101166
O O9 0.506037 0.749456 0.131940
O O10 0.500000 0.729911 0.000000
O O11 0.514801 0.738548 0.759864
O O12 0.407937 0.824888 0.708943
O O13 0.506453 0.000000 0.812187
O O14 0.511197 0.500000 0.333804
O O15 0.571140 0.240072 0.406629
O O16 0.456814 0.275448 0.341070
O O17 0.808204 0.500000 0.617007
O O18 0.819479 0.271705 0.548389
O O19 0.853985 0.500000 0.512413
O O20 0.000000 0.236449 0.500000
O O21 0.942322 0.000000 0.403308
#
# Coordination Sequence:
#
# PCOD9169958 Si02
#       8
#     8   8   8   8   8   8   8   8
#     4  10  20  33  48  69  96 121 152 196 238 281
#     4  11  21  33  48  64  90 128 166 202 241 286
#     4   9  18  34  56  79 101 127 158 189 230 291
#     4   9  17  29  46  73 104 127 155 195 240 287
#     4  10  17  29  49  68  93 128 167 207 245 282
#     4   8  16  30  45  61  88 125 160 191 227 278
#     4  10  19  30  44  66  93 122 162 207 245 280
#     4   9  17  31  48  68  90 122 172 215 242 279
#
# _framework density 16.448167999999999
#
# number of rings (size 3 to 8) (size 9 to 14) (size 15 to 20)
#    0.000    2.500    1.250    2.625    0.000    4.750 
#    0.000    3.125    0.000    0.000    0.000    0.875 
#    0.000    0.000    0.000    0.000    0.000    0.000 
#
# Total GULP energy -178394.274809 kJ/mol
# GULP energy per Si atom -5574.821088 kJ/mol
# Density = 1.641073 g / cm^3
# Si number density = 16.448168 Si / 1000 Ang^3
#
#
#
# Elastic Constant Matrix: (Units=GPa)
#
#
# Indices 1 2 3 4 5 6 
#
# 1 135.4421 33.6869 54.4310 0.0000 -4.9712 0.0000
# 2 33.6869 31.2978 11.1815 0.0000 0.0837 0.0000
# 3 54.4310 11.1815 67.5367 0.0000 -12.2130 0.0000
# 4 0.0000 0.0000 0.0000 16.1283 0.0000 0.8278
# 5 -4.9712 0.0837 -12.2130 0.0000 18.9501 0.0000
# 6 0.0000 0.0000 0.0000 0.8278 0.0000 20.0545
#
#
#
# Elastic Compliance Matrix: (Units=1/GPa)
#
#
# Indices 1 2 3 4 5 6 
#
# 1 0.014222 -0.011727 -0.010002 0.000000 -0.002664 0.000000
# 2 -0.011727 0.043938 0.001795 0.000000 -0.002114 0.000000
# 3 -0.010002 0.001795 0.025010 0.000000 0.013487 0.000000
# 4 0.000000 0.000000 0.000000 0.062135 0.000000 -0.002565
# 5 -0.002664 -0.002114 0.013487 0.000000 0.060773 0.000000
# 6 0.000000 0.000000 0.000000 -0.002565 0.000000 0.049970
#
#
# Mechanical properties :
#
#
# Convention : Reuss Voigt Hill
#
# Bulk Modulus (GPa) = 23.09454 48.09727 35.59590
# Shear Modulus (GPa) = 16.11092 20.02505 18.06798
#
# Velocity S-wave (km/s) = 3.13309 3.49300 3.31793
# Velocity P-wave (km/s) = 5.21149 6.75080 6.03046
#
# Compressibility (1/GPa) = 0.04330028
#
# Stress axis : x y z
#
# Youngs Moduli (GPa) = 70.31468 22.75954 39.98449
#
# Poissons Ratio (x) = 0.26690 0.39993
# Poissons Ratio (y) = 0.82457 -0.07176
# Poissons Ratio (z) = 0.70330 -0.04084
#
# Static dielectric constant tensor:
#      x y z
#    x 1.575380 0.000000 0.009650 
#    y 0.000000 1.553960 0.000000 
#    z 0.009650 0.000000 1.558520 
# 
# From -- ./inp_files/326940.got.cif
#   From: 2010.05.17/outbox.cif.g08.bks.cpg/sg12_164_cif.got.tgz:326940.got - 2010.06.03 13:09:07.
