data_PCOD9169812
_publ_section_title
;
Structure prediction by ZEFSAII (Michael W. Deem and Ramdas Pophale) SiO2 
 PCOD9169812
Probable space group: C 2/M
;
_chemical_formula_sum "Si O2"
_cell_formula_units_Z 44
_cell_length_a 27.999022
_cell_length_b 7.633420
_cell_length_c 11.307779
_cell_angle_alpha 90.000000
_cell_angle_beta 124.157913
_cell_angle_gamma 90.000000
_cell_volume 1999.879291
_symmetry_space_group_name_H-M "C 2/M"
_symmetry_group_IT_number 12
_symmetry_cell_setting 'monoclinic'
loop_
_space_group_symop_operation_xyz
x,y,z
-x,y,-z
-x,-y,-z
x,-y,z
1/2+x,1/2+y,z
1/2-x,1/2+y,-z
1/2-x,1/2-y,-z
1/2+x,1/2-y,z
loop_
_atom_site_type_symbol
_atom_site_label
_atom_site_fract_x
_atom_site_fract_y
_atom_site_fract_z
Si Si1 0.883023 0.795180 0.430202
Si Si2 0.409023 0.287026 0.727120
Si Si3 0.000000 0.741865 0.500000
Si Si4 0.237956 0.291373 0.847139
Si Si5 0.856478 0.785387 0.901778
Si Si6 0.469013 0.299602 0.184760
O O1 0.877015 0.746851 0.559628
O O2 0.935287 0.684623 0.447714
O O3 0.823012 0.781939 0.280126
O O4 0.902932 0.000000 0.450747
O O5 0.411595 0.500000 0.737280
O O6 0.377509 0.228588 0.801508
O O7 0.474774 0.220972 0.801402
O O8 0.981758 0.805751 0.342130
O O9 0.234333 0.500000 0.827602
O O10 0.293096 0.224339 0.850151
O O11 0.250000 0.250000 0.000000
O O12 0.853419 0.000000 0.899875
O O13 0.906711 0.726843 0.062815
O O14 0.466973 0.500000 0.139353
#
# Coordination Sequence:
#
# PCOD9169812 Si02
#       6
#     8   8   4   8   8   8
#     4  10  19  33  54  78 105 134 169 212 255 304
#     4   8  15  27  46  74 102 129 165 209 255 300
#     4  10  17  28  49  78 105 134 171 212 257 298
#     4  11  23  37  53  74 103 137 173 212 255 306
#     4   9  17  29  46  70 101 135 168 207 255 302
#     4   9  14  22  41  69 101 131 164 209 254 296
#
# _framework density 22.001325999999999
#
# number of rings (size 3 to 8) (size 9 to 14) (size 15 to 20)
#    0.000    2.545    0.000    4.909    0.000    4.364 
#    0.000    0.455    0.000    1.091    0.000    0.000 
#    0.000   11.636    0.000    0.000    0.000    0.000 
#
# Total GULP energy -122513.133190 kJ/mol
# GULP energy per Si atom -5568.778781 kJ/mol
# Density = 2.195125 g / cm^3
# Si number density = 22.001326 Si / 1000 Ang^3
#
#
#
# Elastic Constant Matrix: (Units=GPa)
#
#
# Indices 1 2 3 4 5 6 
#
# 1 175.2305 15.5770 92.6881 0.0000 5.6220 0.0000
# 2 15.5770 58.2347 11.1001 0.0000 1.5707 0.0000
# 3 92.6881 11.1001 166.5958 0.0000 28.0782 0.0000
# 4 0.0000 0.0000 0.0000 -9.5016 0.0000 -11.5202
# 5 5.6220 1.5707 28.0782 0.0000 34.3792 0.0000
# 6 0.0000 0.0000 0.0000 -11.5202 0.0000 -28.6850
#
#
#
# Elastic Compliance Matrix: (Units=1/GPa)
#
#
# Indices 1 2 3 4 5 6 
#
# 1 0.008419 -0.001362 -0.005069 0.000000 0.002826 0.000000
# 2 -0.001362 0.017614 -0.000369 0.000000 -0.000281 0.000000
# 3 -0.005069 -0.000369 0.010094 0.000000 -0.007399 0.000000
# 4 0.000000 0.000000 0.000000 -0.205127 0.000000 0.082381
# 5 0.002826 -0.000281 -0.007399 0.000000 0.034681 0.000000
# 6 0.000000 0.000000 0.000000 0.082381 0.000000 -0.067946
#
#
# Mechanical properties :
#
#
# Convention : Reuss Voigt Hill
#
# Bulk Modulus (GPa) = 44.38998 70.97684 57.68341
# Shear Modulus (GPa) = -27.60031 17.95156 -4.82437
#
# Velocity S-wave (km/s) = -3.54571 2.85955 -1.48241
# Velocity P-wave (km/s) = 1.85932 6.57518 4.83167
#
# Compressibility (1/GPa) = 0.02252761
#
# Stress axis : x y z
#
# Youngs Moduli (GPa) = 118.78472 56.77305 99.06425
#
# Poissons Ratio (x) = 0.07731 0.50219
# Poissons Ratio (y) = 0.16176 0.03651
# Poissons Ratio (z) = 0.60216 0.02092
#
# Static dielectric constant tensor:
#      x y z
#    x 1.768810 0.000000 -0.001010 
#    y 0.000000 1.791820 0.000000 
#    z -0.001010 0.000000 1.756260 
# 
# From -- ./inp_files/172526.got.cif
#   From: 2010.05.17/outbox.cif.g08.bks.cpg/sg12_87_cif.got.tgz:172526.got - 2010.06.03 13:09:07.
