data_PCOD9169197
_publ_section_title
;
Structure prediction by ZEFSAII (Michael W. Deem and Ramdas Pophale) SiO2 
 PCOD9169197
Probable space group: C 2/M
;
_chemical_formula_sum "Si O2"
_cell_formula_units_Z 28
_cell_length_a 5.457955
_cell_length_b 29.863612
_cell_length_c 6.692487
_cell_angle_alpha 90.000000
_cell_angle_beta 78.896331
_cell_angle_gamma 90.000000
_cell_volume 1070.416799
_symmetry_space_group_name_H-M "C 2/M"
_symmetry_group_IT_number 12
_symmetry_cell_setting 'monoclinic'
loop_
_space_group_symop_operation_xyz
x,y,z
-x,y,-z
-x,-y,-z
x,-y,z
1/2+x,1/2+y,z
1/2-x,1/2+y,-z
1/2-x,1/2-y,-z
1/2+x,1/2-y,z
loop_
_atom_site_type_symbol
_atom_site_label
_atom_site_fract_x
_atom_site_fract_y
_atom_site_fract_z
Si Si1 0.215686 0.233088 0.235708
Si Si2 0.584448 0.403256 0.765788
Si Si3 0.413942 0.132661 0.240067
Si Si4 0.219398 0.000000 0.630538
O O1 0.419881 0.263312 0.317339
O O2 0.313320 0.183022 0.249905
O O3 0.250000 0.250000 0.000000
O O4 0.327272 0.398426 0.682168
O O5 0.678409 0.454189 0.756962
O O6 0.828547 0.373599 0.679410
O O7 0.500000 0.388335 0.000000
O O8 0.500000 0.121276 0.000000
O O9 0.500000 0.000000 0.500000
O O10 0.000000 0.000000 0.500000
#
# Coordination Sequence:
#
# PCOD9169197 Si02
#       4
#     8   8   8   4
#     4  10  17  24  42  71 118 160 184 212 280 337
#     4  10  22  37  59  85 118 152 189 235 304 343
#     4  10  18  30  49  80 118 160 179 230 280 353
#     4  12  25  44  65  84 112 150 204 246 287 352
#
# _framework density 26.158031999999999
#
# number of rings (size 3 to 8) (size 9 to 14) (size 15 to 20)
#    0.000    1.714    2.857    3.857    8.000    0.000 
#    0.000    5.714    0.000    0.000    0.000    0.000 
#    0.000   80.000    0.000    0.000    0.000    0.000 
#
# Total GULP energy -78362.782775 kJ/mol
# GULP energy per Si atom -5597.341627 kJ/mol
# Density = 2.609850 g / cm^3
# Si number density = 26.158032 Si / 1000 Ang^3
#
#
#
# Elastic Constant Matrix: (Units=GPa)
#
#
# Indices 1 2 3 4 5 6 
#
# 1 274.8121 59.0557 51.6972 0.0000 -39.2607 0.0000
# 2 59.0557 150.7373 2.4724 0.0000 -36.8511 0.0000
# 3 51.6972 2.4724 78.1382 0.0000 -31.9032 0.0000
# 4 0.0000 0.0000 0.0000 25.7163 0.0000 -8.9574
# 5 -39.2607 -36.8511 -31.9032 0.0000 69.0939 0.0000
# 6 0.0000 0.0000 0.0000 -8.9574 0.0000 55.3676
#
#
#
# Elastic Compliance Matrix: (Units=1/GPa)
#
#
# Indices 1 2 3 4 5 6 
#
# 1 0.004581 -0.001643 -0.002802 0.000000 0.000433 0.000000
# 2 -0.001643 0.008417 0.002800 0.000000 0.004849 0.000000
# 3 -0.002802 0.002800 0.017897 0.000000 0.008165 0.000000
# 4 0.000000 0.000000 0.000000 0.041208 0.000000 0.006667
# 5 0.000433 0.004849 0.008165 0.000000 0.021075 0.000000
# 6 0.000000 0.000000 0.000000 0.006667 0.000000 0.019140
#
#
# Mechanical properties :
#
#
# Convention : Reuss Voigt Hill
#
# Bulk Modulus (GPa) = 36.22441 81.12646 58.67543
# Shear Modulus (GPa) = 40.06132 56.06637 48.06384
#
# Velocity S-wave (km/s) = 3.91770 4.63468 4.29119
# Velocity P-wave (km/s) = 5.86028 7.72798 6.85800
#
# Compressibility (1/GPa) = 0.02760570
#
# Stress axis : x y z
#
# Youngs Moduli (GPa) = 218.29976 118.80484 55.87594
#
# Poissons Ratio (x) = 0.19518 0.15657
# Poissons Ratio (y) = 0.35864 -0.15647
# Poissons Ratio (z) = 0.61168 -0.33269
#
# Static dielectric constant tensor:
#      x y z
#    x 2.082780 0.000000 0.091760 
#    y 0.000000 1.961810 0.000000 
#    z 0.091760 0.000000 1.896670 
# 
# From -- ./inp_files/34270.got.cif
#   From: 2010.05.17/outbox.cif.g08.bks.cpg/sg12_18_cif.got.tgz:34270.got - 2010.06.03 13:09:07.
