data_PCOD9169101
_publ_section_title
;
Structure prediction by ZEFSAII (Michael W. Deem and Ramdas Pophale) SiO2 
 PCOD9169101
Probable space group: C 2/M
;
_chemical_formula_sum "Si O2"
_cell_formula_units_Z 28
_cell_length_a 11.217786
_cell_length_b 15.518443
_cell_length_c 7.110940
_cell_angle_alpha 90.000000
_cell_angle_beta 102.195251
_cell_angle_gamma 90.000000
_cell_volume 1209.955752
_symmetry_space_group_name_H-M "C 2/M"
_symmetry_group_IT_number 12
_symmetry_cell_setting 'monoclinic'
loop_
_space_group_symop_operation_xyz
x,y,z
-x,y,-z
-x,-y,-z
x,-y,z
1/2+x,1/2+y,z
1/2-x,1/2+y,-z
1/2-x,1/2-y,-z
1/2+x,1/2-y,z
loop_
_atom_site_type_symbol
_atom_site_label
_atom_site_fract_x
_atom_site_fract_y
_atom_site_fract_z
Si Si1 0.521295 0.000000 0.275323
Si Si2 0.529762 0.500000 0.723754
Si Si3 0.738131 0.000000 0.977724
Si Si4 0.660693 0.354234 0.254773
Si Si5 0.612707 0.825481 0.387506
O O1 0.500000 0.000000 0.500000
O O2 0.402908 0.000000 0.110267
O O3 0.588937 0.088422 0.265105
O O4 0.500000 0.500000 0.500000
O O5 0.459894 0.413559 0.765563
O O6 0.671407 0.500000 0.816382
O O7 0.775141 0.090586 0.886323
O O8 0.621920 0.254702 0.248221
O O9 0.763364 0.347839 0.455285
O O10 0.500000 0.810038 0.500000
#
# Coordination Sequence:
#
# PCOD9169101 Si02
#       5
#     4   4   4   8   8
#     4  10  16  34  60  91 120 165 193 246 302 365
#     4  11  24  41  62  85 126 162 208 262 302 354
#     4  11  20  39  66  91 120 163 209 245 307 367
#     4  10  19  34  62  95 119 161 202 248 306 365
#     4  10  18  32  61  94 129 161 199 240 310 365
#
# _framework density 23.141342000000002
#
# number of rings (size 3 to 8) (size 9 to 14) (size 15 to 20)
#    0.000    1.714    5.714    3.429    0.000    0.000 
#    0.000    1.429   12.571    1.714    0.000    0.000 
#    0.000    0.000    0.000    0.000    0.000    0.000 
#
# Total GULP energy -77974.183503 kJ/mol
# GULP energy per Si atom -5569.584536 kJ/mol
# Density = 2.308867 g / cm^3
# Si number density = 23.141342 Si / 1000 Ang^3
#
#
#
# Elastic Constant Matrix: (Units=GPa)
#
#
# Indices 1 2 3 4 5 6 
#
# 1 85.0029 50.6236 36.5791 0.0000 32.0779 0.0000
# 2 50.6236 225.6871 56.9401 0.0000 25.8802 0.0000
# 3 36.5791 56.9401 120.0609 0.0000 34.1814 0.0000
# 4 0.0000 0.0000 0.0000 20.4943 0.0000 7.6255
# 5 32.0779 25.8802 34.1814 0.0000 38.5320 0.0000
# 6 0.0000 0.0000 0.0000 7.6255 0.0000 55.6106
#
#
#
# Elastic Compliance Matrix: (Units=1/GPa)
#
#
# Indices 1 2 3 4 5 6 
#
# 1 0.018483 -0.002459 -0.000742 0.000000 -0.013078 0.000000
# 2 -0.002459 0.005444 -0.001839 0.000000 0.000022 0.000000
# 3 -0.000742 -0.001839 0.011907 0.000000 -0.008710 0.000000
# 4 0.000000 0.000000 0.000000 0.051417 0.000000 -0.007051
# 5 -0.013078 0.000022 -0.008710 0.000000 0.044551 0.000000
# 6 0.000000 0.000000 0.000000 -0.007051 0.000000 0.018949
#
#
# Mechanical properties :
#
#
# Convention : Reuss Voigt Hill
#
# Bulk Modulus (GPa) = 38.82845 79.89293 59.36069
# Shear Modulus (GPa) = 29.51313 42.03459 35.77386
#
# Velocity S-wave (km/s) = 3.57507 4.26658 3.93604
# Velocity P-wave (km/s) = 5.81865 7.67271 6.80908
#
# Compressibility (1/GPa) = 0.02575431
#
# Stress axis : x y z
#
# Youngs Moduli (GPa) = 54.10318 183.69055 83.98459
#
# Poissons Ratio (x) = 0.45172 0.06230
# Poissons Ratio (y) = 0.13305 0.15444
# Poissons Ratio (z) = 0.04014 0.33779
#
# Static dielectric constant tensor:
#      x y z
#    x 1.826550 0.000000 0.002910 
#    y 0.000000 1.845840 0.000000 
#    z 0.002910 0.000000 1.815230 
# 
# From -- ./inp_files/45064.got.cif
#   From: 2010.05.17/outbox.cif.g08.bks.cpg/sg12_23_cif.got.tgz:45064.got - 2010.06.03 13:09:07.
