data_PCOD9169878
_publ_section_title
;
Structure prediction by ZEFSAII (Michael W. Deem and Ramdas Pophale) SiO2 
 PCOD9169878
Probable space group: C 2/M
;
_chemical_formula_sum "Si O2"
_cell_formula_units_Z 40
_cell_length_a 25.023072
_cell_length_b 23.451634
_cell_length_c 8.463094
_cell_angle_alpha 90.000000
_cell_angle_beta 148.990559
_cell_angle_gamma 90.000000
_cell_volume 2558.593605
_symmetry_space_group_name_H-M "C 2/M"
_symmetry_group_IT_number 12
_symmetry_cell_setting 'monoclinic'
loop_
_space_group_symop_operation_xyz
x,y,z
-x,y,-z
-x,-y,-z
x,-y,z
1/2+x,1/2+y,z
1/2-x,1/2+y,-z
1/2-x,1/2-y,-z
1/2+x,1/2-y,z
loop_
_atom_site_type_symbol
_atom_site_label
_atom_site_fract_x
_atom_site_fract_y
_atom_site_fract_z
Si Si1 0.891235 0.738483 0.800755
Si Si2 0.841647 0.832535 0.240427
Si Si3 0.380446 0.564759 0.134311
Si Si4 0.455339 0.635872 0.045043
Si Si5 0.799072 0.737610 0.888576
O O1 0.867127 0.715302 0.914512
O O2 0.797294 0.729917 0.441233
O O3 0.896548 0.807175 0.840925
O O4 0.000000 0.720865 0.000000
O O5 0.821132 0.891908 0.099448
O O6 0.751924 0.810213 0.129224
O O7 0.947117 0.841449 0.605602
O O8 0.855639 0.783412 0.143508
O O9 0.500000 0.563420 0.500000
O O10 0.342354 0.500000 0.034836
O O11 0.388581 0.594208 0.983805
O O12 0.500000 0.607282 0.000000
#
# Coordination Sequence:
#
# PCOD9169878 Si02
#       5
#     8   8   8   8   8
#     4  10  18  30  43  66  94 125 151 184 229 272
#     4  10  18  29  44  66  93 124 156 184 225 271
#     4   9  18  30  45  63  89 126 160 187 222 273
#     4  10  17  29  44  62  95 129 153 184 223 264
#     4  10  19  28  46  67  91 128 152 186 230 279
#
# _framework density 15.633588
#
# number of rings (size 3 to 8) (size 9 to 14) (size 15 to 20)
#    0.000    2.200    6.000    0.000    0.000    0.400 
#    0.000    0.000    0.000    0.000    0.000    0.000 
#    0.000    4.800    0.000    0.000    0.000    0.000 
#
# Total GULP energy -111397.118186 kJ/mol
# GULP energy per Si atom -5569.855909 kJ/mol
# Density = 1.559801 g / cm^3
# Si number density = 15.633588 Si / 1000 Ang^3
#
#
#
# Elastic Constant Matrix: (Units=GPa)
#
#
# Indices 1 2 3 4 5 6 
#
# 1 134.4709 36.9056 25.7009 0.0000 -7.2327 0.0000
# 2 36.9056 73.6844 10.4820 0.0000 -5.3603 0.0000
# 3 25.7009 10.4820 48.9598 0.0000 -9.8788 0.0000
# 4 0.0000 0.0000 0.0000 9.2614 0.0000 1.5916
# 5 -7.2327 -5.3603 -9.8788 0.0000 24.5637 0.0000
# 6 0.0000 0.0000 0.0000 1.5916 0.0000 21.5347
#
#
#
# Elastic Compliance Matrix: (Units=1/GPa)
#
#
# Indices 1 2 3 4 5 6 
#
# 1 0.009332 -0.004090 -0.003971 0.000000 0.000258 0.000000
# 2 -0.004090 0.015883 -0.000867 0.000000 0.001913 0.000000
# 3 -0.003971 -0.000867 0.024401 0.000000 0.008455 0.000000
# 4 0.000000 0.000000 0.000000 0.109365 0.000000 -0.008083
# 5 0.000258 0.001913 0.008455 0.000000 0.044604 0.000000
# 6 0.000000 0.000000 0.000000 -0.008083 0.000000 0.047034
#
#
# Mechanical properties :
#
#
# Convention : Reuss Voigt Hill
#
# Bulk Modulus (GPa) = 31.48749 44.81025 38.14887
# Shear Modulus (GPa) = 17.91717 23.34040 20.62878
#
# Velocity S-wave (km/s) = 3.38904 3.86808 3.63646
# Velocity P-wave (km/s) = 5.95808 6.97671 6.48742
#
# Compressibility (1/GPa) = 0.03175865
#
# Stress axis : x y z
#
# Youngs Moduli (GPa) = 107.15837 62.96197 40.98183
#
# Poissons Ratio (x) = 0.25754 0.16274
# Poissons Ratio (y) = 0.43832 0.03554
# Poissons Ratio (z) = 0.42552 0.05460
#
# Static dielectric constant tensor:
#      x y z
#    x 1.590820 0.000000 -0.016990 
#    y 0.000000 1.510540 0.000000 
#    z -0.016990 0.000000 1.539470 
# 
# From -- ./inp_files/60368.got.cif
#   From: 2010.05.17/outbox.cif.g08.bks.cpg/sg12_31_cif.got.tgz:60368.got - 2010.06.03 13:09:07.
