data_PCOD9169177
_publ_section_title
;
Structure prediction by ZEFSAII (Michael W. Deem and Ramdas Pophale) SiO2 
 PCOD9169177
Probable space group: C 2/M
;
_chemical_formula_sum "Si O2"
_cell_formula_units_Z 64
_cell_length_a 28.718704
_cell_length_b 8.781148
_cell_length_c 17.129328
_cell_angle_alpha 90.000000
_cell_angle_beta 96.112326
_cell_angle_gamma 90.000000
_cell_volume 4295.171186
_symmetry_space_group_name_H-M "C 2/M"
_symmetry_group_IT_number 12
_symmetry_cell_setting 'monoclinic'
loop_
_space_group_symop_operation_xyz
x,y,z
-x,y,-z
-x,-y,-z
x,-y,z
1/2+x,1/2+y,z
1/2-x,1/2+y,-z
1/2-x,1/2-y,-z
1/2+x,1/2-y,z
loop_
_atom_site_type_symbol
_atom_site_label
_atom_site_fract_x
_atom_site_fract_y
_atom_site_fract_z
Si Si1 0.970658 0.824128 0.076013
Si Si2 0.944126 0.318728 0.826237
Si Si3 0.371149 0.316642 0.700599
Si Si4 0.779409 0.683080 0.771077
Si Si5 0.113260 0.319214 0.024161
Si Si6 0.321657 0.683122 0.542082
Si Si7 0.715157 0.681328 0.057528
Si Si8 0.730063 0.683626 0.611004
O O1 0.005065 0.749402 0.145210
O O2 0.961093 0.000000 0.092703
O O3 0.923171 0.734981 0.048265
O O4 0.000000 0.819721 0.000000
O O5 0.947060 0.500000 0.818623
O O6 0.918059 0.245420 0.748202
O O7 0.911453 0.286883 0.896540
O O8 0.369663 0.500000 0.706537
O O9 0.327276 0.247801 0.741334
O O10 0.363108 0.270491 0.608345
O O11 0.783670 0.500000 0.777616
O O12 0.773159 0.753330 0.854790
O O13 0.737297 0.721645 0.703135
O O14 0.120871 0.500000 0.020866
O O15 0.162196 0.232997 0.029432
O O16 0.321517 0.500000 0.542986
O O17 0.314508 0.729924 0.450207
O O18 0.275047 0.742967 0.576923
O O19 0.718247 0.500000 0.058720
O O20 0.750000 0.750000 0.000000
O O21 0.734145 0.500000 0.606795
#
# Coordination Sequence:
#
# PCOD9169177 Si02
#       8
#     8   8   8   8   8   8   8   8
#     4   9  17  28  43  62  83 106 138 173 208 249
#     4  10  18  27  41  60  85 113 143 175 209 250
#     4  10  17  24  38  58  83 112 143 175 207 244
#     4  10  18  29  43  59  78 105 139 175 215 255
#     4  10  19  32  47  62  82 107 138 174 214 256
#     4   8  14  23  34  53  77 104 136 169 202 238
#     4  12  24  36  49  63  82 107 141 182 222 258
#     4   8  14  24  38  53  74 102 134 169 204 244
#
# _framework density 14.900454
#
# number of rings (size 3 to 8) (size 9 to 14) (size 15 to 20)
#    0.000    2.375    1.250    3.000    0.000    3.500 
#    0.000    0.000    0.000    0.000    0.000    0.000 
#    0.000    0.000    0.000    1.125    0.000   23.250 
#
# Total GULP energy -178165.784751 kJ/mol
# GULP energy per Si atom -5567.680773 kJ/mol
# Density = 1.486654 g / cm^3
# Si number density = 14.900454 Si / 1000 Ang^3
#
#
#
# Elastic Constant Matrix: (Units=GPa)
#
#
# Indices 1 2 3 4 5 6 
#
# 1 49.2059 31.9814 57.9546 0.0000 27.0729 0.0000
# 2 31.9814 55.4655 33.5008 0.0000 14.3429 0.0000
# 3 57.9546 33.5008 104.8367 0.0000 42.4132 0.0000
# 4 0.0000 0.0000 0.0000 16.3999 0.0000 5.4562
# 5 27.0729 14.3429 42.4132 0.0000 33.2582 0.0000
# 6 0.0000 0.0000 0.0000 5.4562 0.0000 20.7891
#
#
#
# Elastic Compliance Matrix: (Units=1/GPa)
#
#
# Indices 1 2 3 4 5 6 
#
# 1 0.080610 -0.023944 -0.030039 0.000000 -0.016984 0.000000
# 2 -0.023944 0.029473 0.002221 0.000000 0.003948 0.000000
# 3 -0.030039 0.002221 0.032908 0.000000 -0.018471 0.000000
# 4 0.000000 0.000000 0.000000 0.066810 0.000000 -0.017535
# 5 -0.016984 0.003948 -0.018471 0.000000 0.065746 0.000000
# 6 0.000000 0.000000 0.000000 -0.017535 0.000000 0.052704
#
#
# Mechanical properties :
#
#
# Convention : Reuss Voigt Hill
#
# Bulk Modulus (GPa) = 25.33833 50.70908 38.02370
# Shear Modulus (GPa) = 11.23768 19.82754 15.53261
#
# Velocity S-wave (km/s) = 2.74922 3.65179 3.23216
# Velocity P-wave (km/s) = 5.20765 7.20323 6.28515
#
# Compressibility (1/GPa) = 0.03946591
#
# Stress axis : x y z
#
# Youngs Moduli (GPa) = 12.40536 33.92942 30.38798
#
# Poissons Ratio (x) = 0.81242 0.91284
# Poissons Ratio (y) = 0.29704 -0.06750
# Poissons Ratio (z) = 0.37265 -0.07536
#
# Static dielectric constant tensor:
#      x y z
#    x 1.472710 0.000000 0.049260 
#    y 0.000000 1.503480 0.000000 
#    z 0.049260 0.000000 1.526200 
# 
# From -- ./inp_files/287658.got.cif
#   From: 2010.05.17/outbox.cif.g08.bks.cpg/sg12_144_cif.got.tgz:287658.got - 2010.06.03 13:09:07.
