data_PCOD9169842
_publ_section_title
;
Structure prediction by ZEFSAII (Michael W. Deem and Ramdas Pophale) SiO2 
 PCOD9169842
Probable space group: C 2/M
;
_chemical_formula_sum "Si O2"
_cell_formula_units_Z 48
_cell_length_a 25.749287
_cell_length_b 17.573864
_cell_length_c 17.834498
_cell_angle_alpha 90.000000
_cell_angle_beta 19.106113
_cell_angle_gamma 90.000000
_cell_volume 2641.582610
_symmetry_space_group_name_H-M "C 2/M"
_symmetry_group_IT_number 12
_symmetry_cell_setting 'monoclinic'
loop_
_space_group_symop_operation_xyz
x,y,z
-x,y,-z
-x,-y,-z
x,-y,z
1/2+x,1/2+y,z
1/2-x,1/2+y,-z
1/2-x,1/2-y,-z
1/2+x,1/2-y,z
loop_
_atom_site_type_symbol
_atom_site_label
_atom_site_fract_x
_atom_site_fract_y
_atom_site_fract_z
Si Si1 0.420938 0.711897 0.435709
Si Si2 0.857101 0.708642 0.750848
Si Si3 0.162120 0.678468 0.581607
Si Si4 0.483053 0.381572 0.107615
Si Si5 0.109447 0.913974 0.094311
Si Si6 0.129627 0.718211 0.939561
O O1 0.564279 0.737629 0.294315
O O2 0.390105 0.785655 0.426294
O O3 0.473465 0.640349 0.314321
O O4 0.262840 0.693296 0.698777
O O5 0.725939 0.754211 0.881757
O O6 0.000000 0.688411 0.500000
O O7 0.770222 0.631671 0.894308
O O8 0.250000 0.750000 0.500000
O O9 0.297949 0.616796 0.383314
O O10 0.009281 0.662679 0.841918
O O11 0.583130 0.415171 0.040094
O O12 0.500000 0.411134 0.000000
O O13 0.544263 0.293655 0.023422
O O14 0.106179 0.000000 0.126918
#
# Coordination Sequence:
#
# PCOD9169842 Si02
#       6
#     8   8   8   8   8   8
#     4  11  18  32  58  80 103 137 181 228 262 307
#     4   9  19  34  55  82 102 132 181 229 265 309
#     4  10  17  28  50  85 105 127 172 232 266 297
#     4  10  18  32  53  80 106 137 178 215 267 313
#     4  11  23  36  51  77 113 146 174 213 274 331
#     4   9  18  29  50  85 107 125 171 236 267 295
#
# _framework density 18.170925
#
# number of rings (size 3 to 8) (size 9 to 14) (size 15 to 20)
#    0.000    2.000    6.667    0.500    0.000    0.667 
#    0.000    0.000    0.000    6.500    0.000    0.000 
#    0.000    0.000    0.000    0.000    0.000    0.000 
#
# Total GULP energy -133685.844826 kJ/mol
# GULP energy per Si atom -5570.243534 kJ/mol
# Density = 1.812957 g / cm^3
# Si number density = 18.170925 Si / 1000 Ang^3
#
#
#
# Elastic Constant Matrix: (Units=GPa)
#
#
# Indices 1 2 3 4 5 6 
#
# 1 78.3649 5.0548 21.5687 0.0003 4.7073 -0.0003
# 2 5.0548 47.7834 19.7921 -0.0001 4.9910 -0.0003
# 3 21.5687 19.7921 117.3754 -0.0005 0.3478 0.0001
# 4 0.0003 -0.0001 -0.0005 0.7072 -0.0001 0.0034
# 5 4.7073 4.9910 0.3478 -0.0001 22.9120 0.0003
# 6 -0.0003 -0.0003 0.0001 0.0034 0.0003 3.5556
#
#
#
# Elastic Compliance Matrix: (Units=1/GPa)
#
#
# Indices 1 2 3 4 5 6 
#
# 1 0.013614 -0.000131 -0.002471 -0.000008 -0.002731 0.000002
# 2 -0.000131 0.023051 -0.003848 -0.000001 -0.004936 0.000003
# 3 -0.002471 -0.003848 0.009619 0.000007 0.001200 -0.000001
# 4 -0.000008 -0.000001 0.000007 1.414094 0.000009 -0.001338
# 5 -0.002731 -0.004936 0.001200 0.000009 0.045263 -0.000005
# 6 0.000002 0.000003 -0.000001 -0.001338 -0.000005 0.281248
#
#
# Mechanical properties :
#
#
# Convention : Reuss Voigt Hill
#
# Bulk Modulus (GPa) = 29.95607 37.37277 33.66442
# Shear Modulus (GPa) = 2.76103 18.57548 10.66826
#
# Velocity S-wave (km/s) = 1.23401 3.20076 2.42566
# Velocity P-wave (km/s) = 4.30719 5.85421 5.13924
#
# Compressibility (1/GPa) = 0.03338222
#
# Stress axis : x y z
#
# Youngs Moduli (GPa) = 73.45633 43.38180 103.95933
#
# Poissons Ratio (x) = 0.00569 0.25692
# Poissons Ratio (y) = 0.00964 0.40006
# Poissons Ratio (z) = 0.18154 0.16694
#
# Static dielectric constant tensor:
#      x y z
#    x 1.689110 0.000000 -0.003990 
#    y 0.000000 1.606930 0.000000 
#    z -0.003990 0.000000 1.687240 
# 
# From -- ./inp_files/293766.got.cif
#   From: 2010.05.17/outbox.cif.g08.bks.cpg/sg12_147_cif.got.tgz:293766.got - 2010.06.03 13:09:07.
