data_PCOD9169890
_publ_section_title
;
Structure prediction by ZEFSAII (Michael W. Deem and Ramdas Pophale) SiO2 
 PCOD9169890
Probable space group: C 2/M
;
_chemical_formula_sum "Si O2"
_cell_formula_units_Z 56
_cell_length_a 26.441758
_cell_length_b 12.399939
_cell_length_c 12.908163
_cell_angle_alpha 90.000000
_cell_angle_beta 120.180066
_cell_angle_gamma 90.000000
_cell_volume 3658.592776
_symmetry_space_group_name_H-M "C 2/M"
_symmetry_group_IT_number 12
_symmetry_cell_setting 'monoclinic'
loop_
_space_group_symop_operation_xyz
x,y,z
-x,y,-z
-x,-y,-z
x,-y,z
1/2+x,1/2+y,z
1/2-x,1/2+y,-z
1/2-x,1/2-y,-z
1/2+x,1/2-y,z
loop_
_atom_site_type_symbol
_atom_site_label
_atom_site_fract_x
_atom_site_fract_y
_atom_site_fract_z
Si Si1 0.946597 0.374363 0.580320
Si Si2 0.821935 0.621822 0.072724
Si Si3 0.655291 0.372652 0.675538
Si Si4 0.424165 0.193639 0.326649
Si Si5 0.235744 0.771156 0.139251
Si Si6 0.225014 0.871258 0.350087
Si Si7 0.340638 0.744025 0.537089
O O1 0.953254 0.500000 0.613174
O O2 0.922623 0.365343 0.437106
O O3 0.899994 0.312417 0.602624
O O4 0.009578 0.316770 0.643287
O O5 0.819477 0.500000 0.031619
O O6 0.879887 0.640243 0.200206
O O7 0.767714 0.646106 0.094379
O O8 0.814614 0.708284 0.973817
O O9 0.655437 0.500000 0.689596
O O10 0.600982 0.312575 0.675210
O O11 0.713871 0.316602 0.780768
O O12 0.653524 0.339222 0.552745
O O13 0.217111 0.829220 0.225064
O O14 0.288057 0.825729 0.452599
O O15 0.178160 0.818074 0.379236
O O16 0.223940 0.000000 0.353786
#
# Coordination Sequence:
#
# PCOD9169890 Si02
#       7
#     8   8   8   8   8   8   8
#     4  10  17  30  47  69  95 119 145 186 227 268
#     4  10  17  29  45  67  93 118 146 188 227 263
#     4   9  16  29  43  64  96 124 146 185 224 261
#     4   9  18  28  46  70  92 119 155 180 220 277
#     4   9  19  28  44  68  90 120 157 181 220 276
#     4  10  18  32  48  67  93 121 149 188 225 266
#     4   9  19  29  46  71  91 116 154 181 223 278
#
# _framework density 15.306430000000001
#
# number of rings (size 3 to 8) (size 9 to 14) (size 15 to 20)
#    0.000    2.571    0.000    4.286    0.000    0.000 
#    0.000    9.286    0.000    0.857    0.000    3.000 
#    0.000    0.000    0.000    0.000    0.000    0.000 
#
# Total GULP energy -156064.858154 kJ/mol
# GULP energy per Si atom -5573.744934 kJ/mol
# Density = 1.527159 g / cm^3
# Si number density = 15.306430 Si / 1000 Ang^3
#
#
#
# Elastic Constant Matrix: (Units=GPa)
#
#
# Indices 1 2 3 4 5 6 
#
# 1 87.0208 52.8375 25.0360 0.0000 -2.5678 0.0000
# 2 52.8375 107.4748 25.0100 0.0000 -3.1925 0.0000
# 3 25.0360 25.0100 62.7273 0.0000 -0.6658 0.0000
# 4 0.0000 0.0000 0.0000 10.8450 0.0000 -2.3700
# 5 -2.5678 -3.1925 -0.6658 0.0000 21.9610 0.0000
# 6 0.0000 0.0000 0.0000 -2.3700 0.0000 11.5757
#
#
#
# Elastic Compliance Matrix: (Units=1/GPa)
#
#
# Indices 1 2 3 4 5 6 
#
# 1 0.017198 -0.007535 -0.003851 0.000000 0.000799 0.000000
# 2 -0.007535 0.013599 -0.002404 0.000000 0.001023 0.000000
# 3 -0.003851 -0.002404 0.018435 0.000000 -0.000241 0.000000
# 4 0.000000 0.000000 0.000000 0.096527 0.000000 0.019763
# 5 0.000799 0.001023 -0.000241 0.000000 0.045770 0.000000
# 6 0.000000 0.000000 0.000000 0.019763 0.000000 0.090434
#
#
# Mechanical properties :
#
#
# Convention : Reuss Voigt Hill
#
# Bulk Modulus (GPa) = 46.18598 51.44334 48.81466
# Shear Modulus (GPa) = 15.78475 19.16562 17.47519
#
# Velocity S-wave (km/s) = 3.21479 3.54238 3.38255
# Velocity P-wave (km/s) = 6.63473 7.10023 6.87142
#
# Compressibility (1/GPa) = 0.02165159
#
# Stress axis : x y z
#
# Youngs Moduli (GPa) = 58.14498 73.53619 54.24457
#
# Poissons Ratio (x) = 0.55411 0.20892
# Poissons Ratio (y) = 0.43813 0.13038
# Poissons Ratio (z) = 0.22394 0.17675
#
# Static dielectric constant tensor:
#      x y z
#    x 1.502940 0.000000 0.001580 
#    y 0.000000 1.497320 0.000000 
#    z 0.001580 0.000000 1.508630 
# 
# From -- ./inp_files/182197.got.cif
#   From: 2010.05.17/outbox.cif.g08.bks.cpg/sg12_92_cif.got.tgz:182197.got - 2010.06.03 13:09:07.
