data_PCOD9169374
_publ_section_title
;
Structure prediction by ZEFSAII (Michael W. Deem and Ramdas Pophale) SiO2 
 PCOD9169374
Probable space group: C 2/M
;
_chemical_formula_sum "Si O2"
_cell_formula_units_Z 44
_cell_length_a 18.503255
_cell_length_b 11.970732
_cell_length_c 11.152760
_cell_angle_alpha 90.000000
_cell_angle_beta 137.876939
_cell_angle_gamma 90.000000
_cell_volume 1656.898192
_symmetry_space_group_name_H-M "C 2/M"
_symmetry_group_IT_number 12
_symmetry_cell_setting 'monoclinic'
loop_
_space_group_symop_operation_xyz
x,y,z
-x,y,-z
-x,-y,-z
x,-y,z
1/2+x,1/2+y,z
1/2-x,1/2+y,-z
1/2-x,1/2-y,-z
1/2+x,1/2-y,z
loop_
_atom_site_type_symbol
_atom_site_label
_atom_site_fract_x
_atom_site_fract_y
_atom_site_fract_z
Si Si1 0.288696 0.632610 0.403100
Si Si2 0.574708 0.000000 0.477044
Si Si3 0.069399 0.678538 0.825451
Si Si4 0.372148 0.500000 0.870109
Si Si5 0.886132 0.873824 0.290903
Si Si6 0.774611 0.500000 0.112236
Si Si7 0.403836 0.274412 0.766863
O O1 0.297942 0.500000 0.409695
O O2 0.305267 0.676041 0.289280
O O3 0.378439 0.677719 0.602832
O O4 0.174630 0.671095 0.308860
O O5 0.500000 0.000000 0.500000
O O6 0.533829 0.107191 0.352071
O O7 0.684959 0.000000 0.689699
O O8 0.025445 0.722039 0.902308
O O9 0.099259 0.792599 0.798932
O O10 0.168811 0.601136 0.894773
O O11 0.346130 0.500000 0.980225
O O12 0.354600 0.377857 0.784741
O O13 0.500000 0.500000 0.000000
O O14 0.000000 0.879486 0.500000
O O15 0.852776 0.000000 0.221512
#
# Coordination Sequence:
#
# PCOD9169374 Si02
#       7
#     8   4   8   4   8   4   8
#     4  10  21  33  53  92 132 155 185 241 325 380
#     4   8  18  28  50  88 129 154 180 226 300 382
#     4  10  19  32  56  92 122 155 197 239 306 374
#     4  12  28  48  62  83 121 173 219 255 308 367
#     4  10  17  26  43  71 121 160 175 214 289 380
#     4  10  22  38  62  84 120 171 206 240 300 369
#     4  11  23  34  60  88 126 159 203 255 305 364
#
# _framework density 26.555644000000001
#
# number of rings (size 3 to 8) (size 9 to 14) (size 15 to 20)
#    0.000    2.000    2.727    2.727    8.909    0.000 
#    0.000    0.909    0.000    0.545    0.000    0.000 
#    0.000    0.000    0.000    0.000    0.000    0.000 
#
# Total GULP energy -122549.280399 kJ/mol
# GULP energy per Si atom -5570.421836 kJ/mol
# Density = 2.649520 g / cm^3
# Si number density = 26.555644 Si / 1000 Ang^3
#
#
#
# Elastic Constant Matrix: (Units=GPa)
#
#
# Indices 1 2 3 4 5 6 
#
# 1 224.3877 65.6939 4.3048 0.0000 -27.7529 0.0000
# 2 65.6939 111.6060 11.1569 0.0000 -3.6791 0.0000
# 3 4.3048 11.1569 35.4294 0.0000 -7.7259 0.0000
# 4 0.0000 0.0000 0.0000 19.2355 0.0000 -0.4126
# 5 -27.7529 -3.6791 -7.7259 0.0000 29.7389 0.0000
# 6 0.0000 0.0000 0.0000 -0.4126 0.0000 56.3553
#
#
#
# Elastic Compliance Matrix: (Units=1/GPa)
#
#
# Indices 1 2 3 4 5 6 
#
# 1 0.006199 -0.003623 0.001645 0.000000 0.005764 0.000000
# 2 -0.003623 0.011374 -0.003786 0.000000 -0.002958 0.000000
# 3 0.001645 -0.003786 0.031219 0.000000 0.009177 0.000000
# 4 0.000000 0.000000 0.000000 0.051995 0.000000 0.000381
# 5 0.005764 -0.002958 0.009177 0.000000 0.041023 0.000000
# 6 0.000000 0.000000 0.000000 0.000381 0.000000 0.017747
#
#
# Mechanical properties :
#
#
# Convention : Reuss Voigt Hill
#
# Bulk Modulus (GPa) = 26.83741 59.30383 43.07062
# Shear Modulus (GPa) = 27.24694 40.41710 33.83202
#
# Velocity S-wave (km/s) = 3.20665 3.90549 3.57319
# Velocity P-wave (km/s) = 4.88243 6.53586 5.76869
#
# Compressibility (1/GPa) = 0.03726142
#
# Stress axis : x y z
#
# Youngs Moduli (GPa) = 161.32644 87.92195 32.03204
#
# Poissons Ratio (x) = 0.31855 -0.05268
# Poissons Ratio (y) = 0.58449 0.12129
# Poissons Ratio (z) = -0.26532 0.33291
#
# Static dielectric constant tensor:
#      x y z
#    x 1.891890 0.000000 0.129880 
#    y 0.000000 1.541470 0.000000 
#    z 0.129880 0.000000 3.435400 
# 
# From -- ./inp_files/154431.got.cif
#   From: 2010.05.17/outbox.cif.g08.bks.cpg/sg12_78_cif.got.tgz:154431.got - 2010.06.03 13:09:07.
