data_PCOD9169388
_publ_section_title
;
Structure prediction by ZEFSAII (Michael W. Deem and Ramdas Pophale) SiO2 
 PCOD9169388
Probable space group: C 2/M
;
_chemical_formula_sum "Si O2"
_cell_formula_units_Z 48
_cell_length_a 24.832836
_cell_length_b 8.979722
_cell_length_c 14.548563
_cell_angle_alpha 90.000000
_cell_angle_beta 70.495274
_cell_angle_gamma 90.000000
_cell_volume 3058.040098
_symmetry_space_group_name_H-M "C 2/M"
_symmetry_group_IT_number 12
_symmetry_cell_setting 'monoclinic'
loop_
_space_group_symop_operation_xyz
x,y,z
-x,y,-z
-x,-y,-z
x,-y,z
1/2+x,1/2+y,z
1/2-x,1/2+y,-z
1/2-x,1/2-y,-z
1/2+x,1/2-y,z
loop_
_atom_site_type_symbol
_atom_site_label
_atom_site_fract_x
_atom_site_fract_y
_atom_site_fract_z
Si Si1 0.163886 0.322731 0.493673
Si Si2 0.558113 0.172488 0.028239
Si Si3 0.457316 0.322935 0.440241
Si Si4 0.381399 0.676680 0.164146
Si Si5 0.980212 0.679468 0.232536
Si Si6 0.215194 0.177400 0.646761
O O1 0.154475 0.500000 0.501473
O O2 0.105579 0.240317 0.503060
O O3 0.184893 0.266642 0.581702
O O4 0.217478 0.289761 0.396223
O O5 0.536421 0.221139 0.140902
O O6 0.575678 0.000000 0.021705
O O7 0.500000 0.179348 0.000000
O O8 0.604366 0.265403 0.945653
O O9 0.500000 0.294438 0.500000
O O10 0.453833 0.500000 0.426428
O O11 0.478834 0.243959 0.335124
O O12 0.391138 0.500000 0.162478
O O13 0.425966 0.755494 0.208087
O O14 0.318569 0.708300 0.240181
O O15 0.976393 0.500000 0.235072
O O16 0.208898 0.000000 0.630846
#
# Coordination Sequence:
#
# PCOD9169388 Si02
#       6
#     8   8   8   8   8   8
#     4  10  19  31  48  68  92 125 160 192 231 277
#     4   8  16  28  41  62  93 122 152 189 227 275
#     4  11  23  36  49  67  93 124 159 200 241 280
#     4  10  17  26  44  69  97 126 153 183 228 281
#     4  10  19  31  46  65  91 123 158 195 232 274
#     4   9  18  30  45  69  99 126 153 189 231 277
#
# _framework density 15.696327999999999
#
# number of rings (size 3 to 8) (size 9 to 14) (size 15 to 20)
#    0.000    2.333    1.667    3.000    0.000    6.333 
#    0.000    0.000    0.000    0.000    0.000    1.167 
#    0.000    0.000    0.000    0.000    0.000    0.000 
#
# Total GULP energy -133744.011273 kJ/mol
# GULP energy per Si atom -5572.667136 kJ/mol
# Density = 1.566060 g / cm^3
# Si number density = 15.696328 Si / 1000 Ang^3
#
#
#
# Elastic Constant Matrix: (Units=GPa)
#
#
# Indices 1 2 3 4 5 6 
#
# 1 71.3518 44.1718 59.2373 0.0000 -15.8084 0.0000
# 2 44.1718 62.0117 61.4430 0.0000 -13.4200 0.0000
# 3 59.2373 61.4430 139.2600 0.0000 -34.7961 0.0000
# 4 0.0000 0.0000 0.0000 27.2071 0.0000 -4.0204
# 5 -15.8084 -13.4200 -34.7961 0.0000 23.2795 0.0000
# 6 0.0000 0.0000 0.0000 -4.0204 0.0000 17.1150
#
#
#
# Elastic Compliance Matrix: (Units=1/GPa)
#
#
# Indices 1 2 3 4 5 6 
#
# 1 0.027355 -0.014345 -0.004360 0.000000 0.003790 0.000000
# 2 -0.014345 0.036386 -0.011404 0.000000 -0.005811 0.000000
# 3 -0.004360 -0.011404 0.018650 0.000000 0.018341 0.000000
# 4 0.000000 0.000000 0.000000 0.038077 0.000000 0.008944
# 5 0.003790 -0.005811 0.018341 0.000000 0.069594 0.000000
# 6 0.000000 0.000000 0.000000 0.008944 0.000000 0.060529
#
#
# Mechanical properties :
#
#
# Convention : Reuss Voigt Hill
#
# Bulk Modulus (GPa) = 45.10071 66.92532 56.01301
# Shear Modulus (GPa) = 15.71336 20.70506 18.20921
#
# Velocity S-wave (km/s) = 3.16743 3.63588 3.40971
# Velocity P-wave (km/s) = 6.49403 7.76893 7.15992
#
# Compressibility (1/GPa) = 0.02217260
#
# Stress axis : x y z
#
# Youngs Moduli (GPa) = 36.55626 27.48309 53.62028
#
# Poissons Ratio (x) = 0.39426 0.23378
# Poissons Ratio (y) = 0.52442 0.61147
# Poissons Ratio (z) = 0.15938 0.31341
#
# Static dielectric constant tensor:
#      x y z
#    x 1.494750 0.000000 -0.036930 
#    y 0.000000 1.526130 0.000000 
#    z -0.036930 0.000000 1.553190 
# 
# From -- ./inp_files/236631.got.cif
#   From: 2010.05.17/outbox.cif.g08.bks.cpg/sg12_119_cif.got.tgz:236631.got - 2010.06.03 13:09:07.
