data_PCOD9169928
_publ_section_title
;
Structure prediction by ZEFSAII (Michael W. Deem and Ramdas Pophale) SiO2 
 PCOD9169928
Probable space group: C 2/M
;
_chemical_formula_sum "Si O2"
_cell_formula_units_Z 64
_cell_length_a 29.971510
_cell_length_b 13.983858
_cell_length_c 31.799467
_cell_angle_alpha 90.000000
_cell_angle_beta 19.091691
_cell_angle_gamma 90.000000
_cell_volume 4359.238195
_symmetry_space_group_name_H-M "C 2/M"
_symmetry_group_IT_number 12
_symmetry_cell_setting 'monoclinic'
loop_
_space_group_symop_operation_xyz
x,y,z
-x,y,-z
-x,-y,-z
x,-y,z
1/2+x,1/2+y,z
1/2-x,1/2+y,-z
1/2-x,1/2-y,-z
1/2+x,1/2-y,z
loop_
_atom_site_type_symbol
_atom_site_label
_atom_site_fract_x
_atom_site_fract_y
_atom_site_fract_z
Si Si1 0.366235 0.386549 0.173049
Si Si2 0.310166 0.385871 0.131621
Si Si3 0.861071 0.884992 0.939514
Si Si4 0.187202 0.107009 0.535606
Si Si5 0.343616 0.806605 0.474747
Si Si6 0.342438 0.383965 0.288387
Si Si7 0.364600 0.609189 0.840774
Si Si8 0.332503 0.792676 0.819527
O O1 0.338668 0.500000 0.198184
O O2 0.295415 0.352290 0.193166
O O3 0.329475 0.349217 0.251820
O O4 0.529179 0.377216 0.022211
O O5 0.276888 0.500000 0.157789
O O6 0.229054 0.324452 0.170081
O O7 0.833646 0.855712 0.915720
O O8 0.011150 0.853734 0.822217
O O9 0.864300 0.000000 0.936185
O O10 0.746759 0.851417 0.073857
O O11 0.277812 0.133749 0.495125
O O12 0.200018 0.195612 0.492426
O O13 0.029313 0.107390 0.690799
O O14 0.219146 0.000000 0.491706
O O15 0.279604 0.846963 0.574196
O O16 0.506156 0.812317 0.326035
O O17 0.342329 0.500000 0.288527
O O18 0.316018 0.500000 0.878684
O O19 0.313917 0.682734 0.850724
#
# Coordination Sequence:
#
# PCOD9169928 Si02
#       8
#     8   8   8   8   8   8   8   8
#     4   8  15  28  47  66  87 119 152 177 209 270
#     4   9  16  28  45  69  94 113 144 184 222 265
#     4  10  18  29  46  66  92 122 150 180 219 265
#     4   9  17  32  47  61  87 124 158 183 214 265
#     4  10  20  29  45  68  89 118 154 187 222 260
#     4  10  17  29  48  67  89 123 156 177 210 268
#     4   9  18  32  47  63  87 123 159 186 213 260
#     4  11  20  29  45  69  94 116 145 192 232 256
#
# _framework density 14.681464999999999
#
# number of rings (size 3 to 8) (size 9 to 14) (size 15 to 20)
#    0.000    2.500    2.500    1.875    0.000    2.000 
#    0.000    0.625    0.000    2.250    0.000    2.625 
#    0.000    4.000    0.000    0.000    0.000    0.000 
#
# Total GULP energy -178152.989901 kJ/mol
# GULP energy per Si atom -5567.280934 kJ/mol
# Density = 1.464805 g / cm^3
# Si number density = 14.681465 Si / 1000 Ang^3
#
#
#
# Elastic Constant Matrix: (Units=GPa)
#
#
# Indices 1 2 3 4 5 6 
#
# 1 106.3879 41.3756 28.6752 0.0023 10.6940 -0.0024
# 2 41.3756 49.7388 16.6915 -0.0134 -1.0065 0.0074
# 3 28.6752 16.6915 52.2615 -0.0003 16.1007 0.0040
# 4 0.0023 -0.0134 -0.0003 16.4570 -0.0018 1.0963
# 5 10.6940 -1.0065 16.1007 -0.0018 18.8906 -0.0005
# 6 -0.0024 0.0074 0.0040 1.0963 -0.0005 18.5659
#
#
#
# Elastic Compliance Matrix: (Units=1/GPa)
#
#
# Indices 1 2 3 4 5 6 
#
# 1 0.015570 -0.012338 -0.002284 -0.000014 -0.007524 0.000008
# 2 -0.012338 0.033761 -0.009112 0.000032 0.016549 -0.000015
# 3 -0.002284 -0.009112 0.031257 -0.000009 -0.025833 -0.000003
# 4 -0.000014 0.000032 -0.000009 0.061004 0.000023 -0.003602
# 5 -0.007524 0.016549 -0.025833 0.000023 0.080095 -0.000001
# 6 0.000008 -0.000015 -0.000003 -0.003602 -0.000001 0.054075
#
#
# Mechanical properties :
#
#
# Convention : Reuss Voigt Hill
#
# Bulk Modulus (GPa) = 30.19327 42.43032 36.31180
# Shear Modulus (GPa) = 14.95803 18.89244 16.92523
#
# Velocity S-wave (km/s) = 3.19539 3.59112 3.39902
# Velocity P-wave (km/s) = 5.85015 6.79398 6.33965
#
# Compressibility (1/GPa) = 0.03311996
#
# Stress axis : x y z
#
# Youngs Moduli (GPa) = 64.22649 29.62024 31.99333
#
# Poissons Ratio (x) = 0.36544 0.07309
# Poissons Ratio (y) = 0.79240 0.29151
# Poissons Ratio (z) = 0.14672 0.26989
#
# Static dielectric constant tensor:
#      x y z
#    x 1.497920 0.000000 0.008440 
#    y 0.000000 1.491140 0.000000 
#    z 0.008440 0.000000 1.477100 
# 
# From -- ./inp_files/385203.got.cif
#   From: 2010.05.17/outbox.cif.g08.bks.cpg/sg12_193_cif.got.tgz:385203.got - 2010.06.03 13:09:07.
