data_PCOD9169214
_publ_section_title
;
Structure prediction by ZEFSAII (Michael W. Deem and Ramdas Pophale) SiO2 
 PCOD9169214
Probable space group: C 2/M
;
_chemical_formula_sum "Si O2"
_cell_formula_units_Z 56
_cell_length_a 9.729705
_cell_length_b 19.944269
_cell_length_c 14.205718
_cell_angle_alpha 90.000000
_cell_angle_beta 73.261994
_cell_angle_gamma 90.000000
_cell_volume 2639.851427
_symmetry_space_group_name_H-M "C 2/M"
_symmetry_group_IT_number 12
_symmetry_cell_setting 'monoclinic'
loop_
_space_group_symop_operation_xyz
x,y,z
-x,y,-z
-x,-y,-z
x,-y,z
1/2+x,1/2+y,z
1/2-x,1/2+y,-z
1/2-x,1/2-y,-z
1/2+x,1/2-y,z
loop_
_atom_site_type_symbol
_atom_site_label
_atom_site_fract_x
_atom_site_fract_y
_atom_site_fract_z
Si Si1 0.838617 0.075993 0.576445
Si Si2 0.905569 0.689396 0.709955
Si Si3 0.241777 0.320977 0.448713
Si Si4 0.454746 0.656546 0.721096
Si Si5 0.114833 0.158267 0.864932
Si Si6 0.226173 0.669702 0.993466
Si Si7 0.572340 0.181866 0.848966
O O1 0.742851 0.121033 0.526246
O O2 0.000000 0.075617 0.500000
O O3 0.862321 0.108608 0.673621
O O4 0.786895 0.000000 0.592058
O O5 0.885702 0.678557 0.603105
O O6 0.770205 0.652871 0.784171
O O7 0.885868 0.769058 0.733021
O O8 0.047087 0.671394 0.742728
O O9 0.250000 0.250000 0.500000
O O10 0.391583 0.329883 0.361886
O O11 0.501003 0.628641 0.814109
O O12 0.149029 0.139266 0.966095
O O13 0.076062 0.237822 0.866855
O O14 0.074669 0.656550 0.074171
O O15 0.250000 0.750000 0.000000
O O16 0.199483 0.653607 0.889205
#
# Coordination Sequence:
#
# PCOD9169214 Si02
#       7
#     8   8   8   8   8   8   8
#     4   9  17  28  40  55  78 102 127 162 202 239
#     4   9  15  23  34  52  76  97 128 164 190 229
#     4  10  17  25  39  57  76  99 133 163 196 235
#     4   9  16  25  37  55  78  98 128 159 199 229
#     4   8  14  21  32  50  74  99 126 157 186 225
#     4   8  12  19  30  45  69 106 127 146 184 230
#     4   8  13  20  30  46  72 100 128 151 189 226
#
# _framework density 21.213314
#
# number of rings (size 3 to 8) (size 9 to 14) (size 15 to 20)
#    0.000    3.286    1.429    0.000    0.000    0.000 
#    0.000    0.000    0.000    0.000    0.000    2.000 
#    0.000    1.143    0.000  272.143    2.857  132.143 
#
# Total GULP energy -156000.241905 kJ/mol
# GULP energy per Si atom -5571.437211 kJ/mol
# Density = 2.116503 g / cm^3
# Si number density = 21.213314 Si / 1000 Ang^3
#
#
#
# Elastic Constant Matrix: (Units=GPa)
#
#
# Indices 1 2 3 4 5 6 
#
# 1 98.1236 16.8749 70.1999 0.0000 40.7970 0.0000
# 2 16.8749 52.2806 46.4632 0.0000 26.1619 0.0000
# 3 70.1999 46.4632 203.5473 0.0000 77.8633 0.0000
# 4 0.0000 0.0000 0.0000 9.2922 0.0000 4.8504
# 5 40.7970 26.1619 77.8633 0.0000 65.3839 0.0000
# 6 0.0000 0.0000 0.0000 4.8504 0.0000 11.2819
#
#
#
# Elastic Compliance Matrix: (Units=1/GPa)
#
#
# Indices 1 2 3 4 5 6 
#
# 1 0.014641 0.000898 -0.002980 0.000000 -0.005946 0.000000
# 2 0.000898 0.025245 -0.003662 0.000000 -0.006300 0.000000
# 3 -0.002980 -0.003662 0.010110 0.000000 -0.008716 0.000000
# 4 0.000000 0.000000 0.000000 0.138757 0.000000 -0.059656
# 5 -0.005946 -0.006300 -0.008716 0.000000 0.031904 0.000000
# 6 0.000000 0.000000 0.000000 -0.059656 0.000000 0.114286
#
#
# Mechanical properties :
#
#
# Convention : Reuss Voigt Hill
#
# Bulk Modulus (GPa) = 25.96826 69.00306 47.48566
# Shear Modulus (GPa) = 13.91716 31.88583 22.90149
#
# Velocity S-wave (km/s) = 2.56414 3.88120 3.28926
# Velocity P-wave (km/s) = 4.58634 7.25835 6.07117
#
# Compressibility (1/GPa) = 0.03850854
#
# Stress axis : x y z
#
# Youngs Moduli (GPa) = 68.30221 39.61141 98.90717
#
# Poissons Ratio (x) = -0.03557 0.29472
# Poissons Ratio (y) = -0.06134 0.36223
# Poissons Ratio (z) = 0.20352 0.14507
#
# Static dielectric constant tensor:
#      x y z
#    x 1.883710 0.000000 -0.031980 
#    y 0.000000 1.686860 0.000000 
#    z -0.031980 0.000000 1.905760 
# 
# From -- ./inp_files/264521.got.cif
#   From: 2010.05.17/outbox.cif.g08.bks.cpg/sg12_133_cif.got.tgz:264521.got - 2010.06.03 13:09:07.
