data_PCOD9169685
_publ_section_title
;
Structure prediction by ZEFSAII (Michael W. Deem and Ramdas Pophale) SiO2 
 PCOD9169685
Probable space group: C 2/M
;
_chemical_formula_sum "Si O2"
_cell_formula_units_Z 64
_cell_length_a 25.786256
_cell_length_b 7.259533
_cell_length_c 12.453722
_cell_angle_alpha 90.000000
_cell_angle_beta 95.848593
_cell_angle_gamma 90.000000
_cell_volume 2319.153951
_symmetry_space_group_name_H-M "C 2/M"
_symmetry_group_IT_number 12
_symmetry_cell_setting 'monoclinic'
loop_
_space_group_symop_operation_xyz
x,y,z
-x,y,-z
-x,-y,-z
x,-y,z
1/2+x,1/2+y,z
1/2-x,1/2+y,-z
1/2-x,1/2-y,-z
1/2+x,1/2-y,z
loop_
_atom_site_type_symbol
_atom_site_label
_atom_site_fract_x
_atom_site_fract_y
_atom_site_fract_z
Si Si1 0.696261 0.723989 0.788406
Si Si2 0.807021 0.290251 0.884845
Si Si3 0.805252 0.217070 0.460145
Si Si4 0.869499 0.777871 0.680995
Si Si5 0.089715 0.216579 0.704134
Si Si6 0.500059 0.219210 0.165360
Si Si7 0.913955 0.724673 0.971897
Si Si8 0.943873 0.225147 0.529385
O O1 0.699109 0.500000 0.797828
O O2 0.748693 0.789348 0.860403
O O3 0.700560 0.779648 0.663914
O O4 0.635974 0.787200 0.791945
O O5 0.800139 0.500000 0.920174
O O6 0.836508 0.293921 0.774772
O O7 0.854414 0.206576 0.964747
O O8 0.750000 0.250000 0.500000
O O9 0.840212 0.282552 0.566295
O O10 0.817169 0.000000 0.453507
O O11 0.926497 0.719289 0.646150
O O12 0.868089 0.000000 0.690749
O O13 0.031317 0.238673 0.733838
O O14 0.091947 0.281622 0.581261
O O15 0.098439 0.000000 0.701588
O O16 0.556173 0.284218 0.132468
O O17 0.502620 0.000000 0.156710
O O18 0.455259 0.281818 0.070270
O O19 0.911376 0.500000 0.971628
O O20 0.000000 0.285977 0.500000
O O21 0.943757 0.000000 0.531348
#
# Coordination Sequence:
#
# PCOD9169685 Si02
#       8
#     8   8   8   8   8   8   8   8
#     4   9  17  30  47  68  98 132 164 196 232 286
#     4  10  19  32  52  74  96 129 170 203 241 295
#     4  10  17  28  44  64  92 128 164 198 232 275
#     4  10  19  30  46  70 100 131 165 205 244 281
#     4  10  19  33  52  74  99 131 168 200 236 288
#     4   9  18  36  57  75  96 124 159 203 253 298
#     4   8  17  35  57  75  95 125 160 199 249 308
#     4   9  18  31  46  66  98 137 168 191 232 294
#
# _framework density 27.596270000000001
#
# number of rings (size 3 to 8) (size 9 to 14) (size 15 to 20)
#    0.000    2.625    2.500    0.750    1.750    0.000 
#    0.000    4.375    0.000    0.750    0.000    0.000 
#    0.000    0.000    0.000    0.000    0.000    0.000 
#
# Total GULP energy -178519.177733 kJ/mol
# GULP energy per Si atom -5578.724304 kJ/mol
# Density = 2.753346 g / cm^3
# Si number density = 27.596270 Si / 1000 Ang^3
#
#
#
# Elastic Constant Matrix: (Units=GPa)
#
#
# Indices 1 2 3 4 5 6 
#
# 1 170.0143 4.3615 -16.9338 0.0000 20.3026 0.0000
# 2 4.3615 129.5238 -5.7021 0.0000 5.6987 0.0000
# 3 -16.9338 -5.7021 81.0607 0.0000 -2.9907 0.0000
# 4 0.0000 0.0000 0.0000 2.8560 0.0000 -9.7673
# 5 20.3026 5.6987 -2.9907 0.0000 39.3400 0.0000
# 6 0.0000 0.0000 0.0000 -9.7673 0.0000 4.9384
#
#
#
# Elastic Compliance Matrix: (Units=1/GPa)
#
#
# Indices 1 2 3 4 5 6 
#
# 1 0.006385 -0.000021 0.001214 0.000000 -0.003200 0.000000
# 2 -0.000021 0.007791 0.000504 0.000000 -0.001080 0.000000
# 3 0.001214 0.000504 0.012635 0.000000 0.000261 0.000000
# 4 0.000000 0.000000 0.000000 -0.060746 0.000000 -0.120145
# 5 -0.003200 -0.001080 0.000261 0.000000 0.027247 0.000000
# 6 0.000000 0.000000 0.000000 -0.120145 0.000000 -0.035132
#
#
# Mechanical properties :
#
#
# Convention : Reuss Voigt Hill
#
# Bulk Modulus (GPa) = 33.10518 38.22776 35.66647
# Shear Modulus (GPa) = -142.26723 36.01843 -53.12440
#
# Velocity S-wave (km/s) = -7.18784 3.61666 -4.39231
# Velocity P-wave (km/s) = 7.54085 5.59669 3.57361
#
# Compressibility (1/GPa) = 0.03020675
#
# Stress axis : x y z
#
# Youngs Moduli (GPa) = 156.60483 128.35373 79.14395
#
# Poissons Ratio (x) = 0.00266 -0.09611
# Poissons Ratio (y) = 0.00325 -0.03988
# Poissons Ratio (z) = -0.19018 -0.06467
#
# Static dielectric constant tensor:
#      x y z
#    x 2.364970 0.000000 0.098600 
#    y 0.000000 2.043870 0.000000 
#    z 0.098600 0.000000 2.236640 
# 
# From -- ./inp_files/182085.got.cif
#   From: 2010.05.17/outbox.cif.g08.bks.cpg/sg12_92_cif.got.tgz:182085.got - 2010.06.03 13:09:07.
