data_PCOD9169742
_publ_section_title
;
Structure prediction by ZEFSAII (Michael W. Deem and Ramdas Pophale) SiO2 
 PCOD9169742
Probable space group: C 2/M
;
_chemical_formula_sum "Si O2"
_cell_formula_units_Z 60
_cell_length_a 17.278172
_cell_length_b 16.268929
_cell_length_c 15.613172
_cell_angle_alpha 90.000000
_cell_angle_beta 44.121506
_cell_angle_gamma 90.000000
_cell_volume 3055.419712
_symmetry_space_group_name_H-M "C 2/M"
_symmetry_group_IT_number 12
_symmetry_cell_setting 'monoclinic'
loop_
_space_group_symop_operation_xyz
x,y,z
-x,y,-z
-x,-y,-z
x,-y,z
1/2+x,1/2+y,z
1/2-x,1/2+y,-z
1/2-x,1/2-y,-z
1/2+x,1/2-y,z
loop_
_atom_site_type_symbol
_atom_site_label
_atom_site_fract_x
_atom_site_fract_y
_atom_site_fract_z
Si Si1 0.004522 0.587523 0.146331
Si Si2 0.775942 0.642647 0.393419
Si Si3 0.295348 0.136207 0.900667
Si Si4 0.385864 0.324684 0.822840
Si Si5 0.145016 0.166146 0.663276
Si Si6 0.215295 0.167850 0.788804
Si Si7 0.623526 0.681188 0.364765
Si Si8 0.000000 0.720703 0.000000
O O1 0.010098 0.500000 0.095987
O O2 0.101913 0.591470 0.138109
O O3 0.888823 0.595117 0.287983
O O4 0.012574 0.662485 0.072933
O O5 0.812618 0.738993 0.367008
O O6 0.708973 0.625301 0.533162
O O7 0.697143 0.631201 0.373875
O O8 0.339349 0.231014 0.860591
O O9 0.254408 0.114249 0.838163
O O10 0.193120 0.129800 0.047548
O O11 0.513520 0.330072 0.750614
O O12 0.376710 0.353036 0.731544
O O13 0.176440 0.128640 0.730385
O O14 0.317213 0.229725 0.687512
O O15 0.110159 0.223904 0.902609
O O16 0.500000 0.688508 0.500000
#
# Coordination Sequence:
#
# PCOD9169742 Si02
#       8
#     8   8   8   8   8   8   8   4
#     4  12  24  38  55  77 121 166 193 219 264 357
#     4  10  20  33  50  77 111 143 193 227 285 338
#     4  10  20  32  49  80 110 145 185 229 289 337
#     4  10  17  29  52  79 109 136 173 241 299 332
#     4  10  17  31  54  81 107 138 178 251 296 328
#     4  10  20  30  55  82 117 136 179 250 291 336
#     4  10  17  28  46  75 105 138 167 226 290 336
#     4  12  19  38  54  90 117 148 192 226 296 340
#
# _framework density 19.637236999999999
#
# number of rings (size 3 to 8) (size 9 to 14) (size 15 to 20)
#    0.000    1.600    5.333    3.400    0.000    0.000 
#    0.000    0.000    0.000    2.800    0.000    3.267 
#    0.000    0.000    0.000    0.000    0.000    0.000 
#
# Total GULP energy -167412.553560 kJ/mol
# GULP energy per Si atom -5580.418452 kJ/mol
# Density = 1.959254 g / cm^3
# Si number density = 19.637237 Si / 1000 Ang^3
#
#
#
# Elastic Constant Matrix: (Units=GPa)
#
#
# Indices 1 2 3 4 5 6 
#
# 1 186.5461 8.5678 100.4417 0.0000 13.6948 0.0000
# 2 8.5678 13.5885 9.6164 0.0000 4.8856 0.0000
# 3 100.4417 9.6164 161.1885 0.0000 5.5162 0.0000
# 4 0.0000 0.0000 0.0000 -12.3288 0.0000 16.9392
# 5 13.6948 4.8856 5.5162 0.0000 45.0988 0.0000
# 6 0.0000 0.0000 0.0000 16.9392 0.0000 -31.0138
#
#
#
# Elastic Compliance Matrix: (Units=1/GPa)
#
#
# Indices 1 2 3 4 5 6 
#
# 1 0.008235 -0.001007 -0.005011 0.000000 -0.001779 0.000000
# 2 -0.001007 0.079789 -0.003864 0.000000 -0.007865 0.000000
# 3 -0.005011 -0.003864 0.009530 0.000000 0.000774 0.000000
# 4 0.000000 0.000000 0.000000 -0.324996 0.000000 -0.177507
# 5 -0.001779 -0.007865 0.000774 0.000000 0.023471 0.000000
# 6 0.000000 0.000000 0.000000 -0.177507 0.000000 -0.129195
#
#
# Mechanical properties :
#
#
# Convention : Reuss Voigt Hill
#
# Bulk Modulus (GPa) = 12.85478 66.50832 39.68155
# Shear Modulus (GPa) = -17.39302 16.53104 -0.43099
#
# Velocity S-wave (km/s) = -2.97933 2.90456 -0.46899
# Velocity P-wave (km/s) = 2.29670 6.72240 4.46743
#
# Compressibility (1/GPa) = 0.07779206
#
# Stress axis : x y z
#
# Youngs Moduli (GPa) = 121.42715 12.53307 104.92858
#
# Poissons Ratio (x) = 0.01262 0.52577
# Poissons Ratio (y) = 0.12227 0.40540
# Poissons Ratio (z) = 0.60845 0.04842
#
# Static dielectric constant tensor:
#      x y z
#    x 1.694280 0.000000 0.032230 
#    y 0.000000 1.663760 0.000000 
#    z 0.032230 0.000000 1.683840 
# 
# From -- ./inp_files/226321.got.cif
#   From: 2010.05.17/outbox.cif.g08.bks.cpg/sg12_114_cif.got.tgz:226321.got - 2010.06.03 13:09:07.
