data_PCOD9169586
_publ_section_title
;
Structure prediction by ZEFSAII (Michael W. Deem and Ramdas Pophale) SiO2 
 PCOD9169586
Probable space group: C 2/M
;
_chemical_formula_sum "Si O2"
_cell_formula_units_Z 20
_cell_length_a 14.970382
_cell_length_b 10.139129
_cell_length_c 8.324077
_cell_angle_alpha 90.000000
_cell_angle_beta 50.342381
_cell_angle_gamma 90.000000
_cell_volume 972.720460
_symmetry_space_group_name_H-M "C 2/M"
_symmetry_group_IT_number 12
_symmetry_cell_setting 'monoclinic'
loop_
_space_group_symop_operation_xyz
x,y,z
-x,y,-z
-x,-y,-z
x,-y,z
1/2+x,1/2+y,z
1/2-x,1/2+y,-z
1/2-x,1/2-y,-z
1/2+x,1/2-y,z
loop_
_atom_site_type_symbol
_atom_site_label
_atom_site_fract_x
_atom_site_fract_y
_atom_site_fract_z
Si Si1 0.874971 0.286319 0.549868
Si Si2 0.786132 0.500000 0.876716
Si Si3 0.362664 0.500000 0.634894
Si Si4 0.468390 0.000000 0.221226
O O1 0.788287 0.371377 0.760883
O O2 0.900432 0.370902 0.361861
O O3 0.000000 0.282660 0.500000
O O4 0.833130 0.136757 0.581211
O O5 0.910269 0.500000 0.822487
O O6 0.692755 0.500000 0.124098
O O7 0.500000 0.500000 0.500000
O O8 0.500000 0.000000 0.000000
#
# Coordination Sequence:
#
# PCOD9169586 Si02
#       4
#     8   4   4   4
#     4   8  16  29  47  69  88 110 147 185 219 259
#     4   9  16  29  48  68  89 115 146 179 216 264
#     4  10  17  27  46  72  92 110 141 188 226 253
#     4   9  17  32  48  62  87 123 151 175 212 263
#
# _framework density 20.560893
#
# number of rings (size 3 to 8) (size 9 to 14) (size 15 to 20)
#    0.000    3.200    0.000    3.600    0.000    0.000 
#    0.000    3.000    0.000    0.000    0.000    0.000 
#    0.000    0.000    0.000    0.000    0.000    0.000 
#
# Total GULP energy -55780.213777 kJ/mol
# GULP energy per Si atom -5578.021378 kJ/mol
# Density = 2.051410 g / cm^3
# Si number density = 20.560893 Si / 1000 Ang^3
#
#
#
# Elastic Constant Matrix: (Units=GPa)
#
#
# Indices 1 2 3 4 5 6 
#
# 1 43.9457 15.9337 13.9739 0.0000 1.3146 0.0000
# 2 15.9337 241.3641 107.1291 0.0000 21.6162 0.0000
# 3 13.9739 107.1291 193.5894 0.0000 8.3956 0.0000
# 4 0.0000 0.0000 0.0000 8.5302 0.0000 -4.0389
# 5 1.3146 21.6162 8.3956 0.0000 34.6268 0.0000
# 6 0.0000 0.0000 0.0000 -4.0389 0.0000 -6.3575
#
#
#
# Elastic Compliance Matrix: (Units=1/GPa)
#
#
# Indices 1 2 3 4 5 6 
#
# 1 0.023492 -0.001062 -0.001110 0.000000 0.000040 0.000000
# 2 -0.001062 0.005806 -0.003012 0.000000 -0.002854 0.000000
# 3 -0.001110 -0.003012 0.006902 0.000000 0.000249 0.000000
# 4 0.000000 0.000000 0.000000 0.090121 0.000000 -0.057254
# 5 0.000040 -0.002854 0.000249 0.000000 0.030599 0.000000
# 6 0.000000 0.000000 0.000000 -0.057254 0.000000 -0.120922
#
#
# Mechanical properties :
#
#
# Convention : Reuss Voigt Hill
#
# Bulk Modulus (GPa) = 38.71232 83.66360 61.18796
# Shear Modulus (GPa) = 90.94732 30.15076 60.54904
#
# Velocity S-wave (km/s) = 6.65802 3.83353 5.43255
# Velocity P-wave (km/s) = 8.83032 7.77004 8.31710
#
# Compressibility (1/GPa) = 0.02583157
#
# Stress axis : x y z
#
# Youngs Moduli (GPa) = 42.56753 172.23980 144.88721
#
# Poissons Ratio (x) = 0.18288 0.16081
# Poissons Ratio (y) = 0.04520 0.43647
# Poissons Ratio (z) = 0.04725 0.51887
#
# Static dielectric constant tensor:
#      x y z
#    x 1.733000 0.000000 -0.003560 
#    y 0.000000 1.780080 0.000000 
#    z -0.003560 0.000000 1.700190 
# 
# From -- ./inp_files/43010.got.cif
#   From: 2010.05.17/outbox.cif.g08.bks.cpg/sg12_22_cif.got.tgz:43010.got - 2010.06.03 13:09:07.
