data_PCOD9169061
_publ_section_title
;
Structure prediction by ZEFSAII (Michael W. Deem and Ramdas Pophale) SiO2 
 PCOD9169061
Probable space group: C 2/M
;
_chemical_formula_sum "Si O2"
_cell_formula_units_Z 40
_cell_length_a 5.512448
_cell_length_b 27.540417
_cell_length_c 18.764614
_cell_angle_alpha 90.000000
_cell_angle_beta 57.218385
_cell_angle_gamma 90.000000
_cell_volume 2395.060900
_symmetry_space_group_name_H-M "C 2/M"
_symmetry_group_IT_number 12
_symmetry_cell_setting 'monoclinic'
loop_
_space_group_symop_operation_xyz
x,y,z
-x,y,-z
-x,-y,-z
x,-y,z
1/2+x,1/2+y,z
1/2-x,1/2+y,-z
1/2-x,1/2-y,-z
1/2+x,1/2-y,z
loop_
_atom_site_type_symbol
_atom_site_label
_atom_site_fract_x
_atom_site_fract_y
_atom_site_fract_z
Si Si1 0.000000 0.100293 0.500000
Si Si2 0.430825 0.053922 0.596387
Si Si3 0.888777 0.148601 0.370808
Si Si4 0.000000 0.720341 0.500000
Si Si5 0.169800 0.719147 0.767898
Si Si6 0.814648 0.694541 0.964912
O O1 0.748667 0.067173 0.573341
O O2 0.910105 0.134392 0.450136
O O3 0.500000 0.054027 0.500000
O O4 0.218675 0.098410 0.647559
O O5 0.334619 0.000000 0.631529
O O6 0.638558 0.188545 0.414238
O O7 0.171494 0.174700 0.296828
O O8 0.750000 0.750000 0.500000
O O9 0.428885 0.753874 0.757220
O O10 0.000479 0.699175 0.863924
O O11 0.500000 0.672127 0.000000
O O12 0.750000 0.750000 0.000000
O O13 0.000000 0.672149 0.000000
#
# Coordination Sequence:
#
# PCOD9169061 Si02
#       6
#     4   8   8   4   8   8
#     4  10  18  36  51  70 100 133 176 223 263 302
#     4   9  18  34  55  72  92 127 175 228 274 304
#     4  11  23  34  50  73 103 137 182 217 248 309
#     4  12  23  36  48  64 103 147 176 197 238 286
#     4  12  23  34  52  78 107 143 179 209 253 302
#     4  10  16  33  52  72  98 134 170 216 253 300
#
# _framework density 16.701036999999999
#
# number of rings (size 3 to 8) (size 9 to 14) (size 15 to 20)
#    0.000    1.400    7.000    2.100    2.800    0.800 
#    0.000    0.000    0.000    0.000    0.000    0.000 
#    0.000    1.600    0.000    0.000    0.000    0.000 
#
# Total GULP energy -111393.163033 kJ/mol
# GULP energy per Si atom -5569.658152 kJ/mol
# Density = 1.666303 g / cm^3
# Si number density = 16.701037 Si / 1000 Ang^3
#
#
#
# Elastic Constant Matrix: (Units=GPa)
#
#
# Indices 1 2 3 4 5 6 
#
# 1 109.2250 37.9475 11.1792 0.0000 -14.9426 0.0000
# 2 37.9475 91.4757 32.3866 0.0000 -16.9026 0.0000
# 3 11.1792 32.3866 67.3731 0.0000 -21.0589 0.0000
# 4 0.0000 0.0000 0.0000 7.4824 0.0000 -2.9891
# 5 -14.9426 -16.9026 -21.0589 0.0000 24.1972 0.0000
# 6 0.0000 0.0000 0.0000 -2.9891 0.0000 13.1762
#
#
#
# Elastic Compliance Matrix: (Units=1/GPa)
#
#
# Indices 1 2 3 4 5 6 
#
# 1 0.011223 -0.004313 0.001972 0.000000 0.005634 0.000000
# 2 -0.004313 0.015300 -0.005675 0.000000 0.003086 0.000000
# 3 0.001972 -0.005675 0.022508 0.000000 0.016842 0.000000
# 4 0.000000 0.000000 0.000000 0.146966 0.000000 0.033340
# 5 0.005634 0.003086 0.016842 0.000000 0.061620 0.000000
# 6 0.000000 0.000000 0.000000 0.033340 0.000000 0.083458
#
#
# Mechanical properties :
#
#
# Convention : Reuss Voigt Hill
#
# Bulk Modulus (GPa) = 30.30320 47.90004 39.10162
# Shear Modulus (GPa) = 13.58305 21.40852 17.49579
#
# Velocity S-wave (km/s) = 2.85495 3.58420 3.24016
# Velocity P-wave (km/s) = 5.38995 6.77287 6.12059
#
# Compressibility (1/GPa) = 0.03299982
#
# Stress axis : x y z
#
# Youngs Moduli (GPa) = 89.10513 65.35842 44.42893
#
# Poissons Ratio (x) = 0.28187 -0.08761
# Poissons Ratio (y) = 0.38429 0.25212
# Poissons Ratio (z) = -0.17572 0.37090
#
# Static dielectric constant tensor:
#      x y z
#    x 2.095470 0.000000 0.022490 
#    y 0.000000 1.586370 0.000000 
#    z 0.022490 0.000000 1.558760 
# 
# From -- ./inp_files/191772.got.cif
#   From: 2010.05.17/outbox.cif.g08.bks.cpg/sg12_96_cif.got.tgz:191772.got - 2010.06.03 13:09:07.
