data_PCOD9169834
_publ_section_title
;
Structure prediction by ZEFSAII (Michael W. Deem and Ramdas Pophale) SiO2 
 PCOD9169834
Probable space group: C 2/M
;
_chemical_formula_sum "Si O2"
_cell_formula_units_Z 48
_cell_length_a 10.782334
_cell_length_b 25.182333
_cell_length_c 12.281233
_cell_angle_alpha 90.000000
_cell_angle_beta 136.763634
_cell_angle_gamma 90.000000
_cell_volume 2284.269827
_symmetry_space_group_name_H-M "C 2/M"
_symmetry_group_IT_number 12
_symmetry_cell_setting 'monoclinic'
loop_
_space_group_symop_operation_xyz
x,y,z
-x,y,-z
-x,-y,-z
x,-y,z
1/2+x,1/2+y,z
1/2-x,1/2+y,-z
1/2-x,1/2-y,-z
1/2+x,1/2-y,z
loop_
_atom_site_type_symbol
_atom_site_label
_atom_site_fract_x
_atom_site_fract_y
_atom_site_fract_z
Si Si1 0.221658 0.136020 0.158348
Si Si2 0.707156 0.440305 0.588845
Si Si3 0.779629 0.942188 0.662489
Si Si4 0.285667 0.752293 0.892906
Si Si5 0.798651 0.365115 0.826207
Si Si6 0.296943 0.440584 0.044864
O O1 0.286470 0.106754 0.308696
O O2 0.289316 0.196244 0.197345
O O3 0.281030 0.098078 0.096968
O O4 0.000000 0.139393 0.000000
O O5 0.500000 0.439438 0.500000
O O6 0.776886 0.500000 0.661756
O O7 0.720929 0.435258 0.467499
O O8 0.795876 0.390047 0.705109
O O9 0.988535 0.945536 0.834938
O O10 0.699141 0.000000 0.638307
O O11 0.211825 0.807340 0.793837
O O12 0.500000 0.751876 0.000000
O O13 0.250000 0.750000 0.000000
O O14 0.716932 0.411067 0.849517
O O15 0.000000 0.360197 0.000000
O O16 0.219589 0.500000 0.995527
#
# Coordination Sequence:
#
# PCOD9169834 Si02
#       6
#     8   8   8   8   8   8
#     4   9  17  30  51  77 104 140 183 232 275 323
#     4  10  19  33  53  77 111 147 180 226 281 336
#     4   9  17  30  51  79 107 137 177 229 282 328
#     4  10  20  35  55  81 113 152 190 236 289 335
#     4  11  22  34  51  80 112 145 184 228 277 342
#     4  10  17  28  50  79 108 134 176 229 278 327
#
# _framework density 21.013280000000002
#
# number of rings (size 3 to 8) (size 9 to 14) (size 15 to 20)
#    0.000    2.167    3.333    1.000    0.000    3.333 
#    0.000    0.833    0.000    1.000    0.000    3.500 
#    0.000    0.000    0.000    0.000    0.000    0.000 
#
# Total GULP energy -133750.723667 kJ/mol
# GULP energy per Si atom -5572.946819 kJ/mol
# Density = 2.096545 g / cm^3
# Si number density = 21.013280 Si / 1000 Ang^3
#
#
#
# Elastic Constant Matrix: (Units=GPa)
#
#
# Indices 1 2 3 4 5 6 
#
# 1 49.3846 24.8287 16.0393 0.0000 -10.2975 0.0000
# 2 24.8287 203.8793 62.7611 0.0000 -26.7719 0.0000
# 3 16.0393 62.7611 67.0482 0.0000 -21.3469 0.0000
# 4 0.0000 0.0000 0.0000 22.0925 0.0000 -12.0324
# 5 -10.2975 -26.7719 -21.3469 0.0000 29.1517 0.0000
# 6 0.0000 0.0000 0.0000 -12.0324 0.0000 18.6856
#
#
#
# Elastic Compliance Matrix: (Units=1/GPa)
#
#
# Indices 1 2 3 4 5 6 
#
# 1 0.022796 -0.001313 -0.002666 0.000000 0.004895 0.000000
# 2 -0.001313 0.007065 -0.005713 0.000000 0.001841 0.000000
# 3 -0.002666 -0.005713 0.024685 0.000000 0.011887 0.000000
# 4 0.000000 0.000000 0.000000 0.069714 0.000000 0.044891
# 5 0.004895 0.001841 0.011887 0.000000 0.046428 0.000000
# 6 0.000000 0.000000 0.000000 0.044891 0.000000 0.082424
#
#
# Mechanical properties :
#
#
# Convention : Reuss Voigt Hill
#
# Bulk Modulus (GPa) = 28.43986 58.61893 43.52940
# Shear Modulus (GPa) = 17.59220 28.43151 23.01186
#
# Velocity S-wave (km/s) = 2.89657 3.68234 3.31283
# Velocity P-wave (km/s) = 4.97498 6.78500 5.94923
#
# Compressibility (1/GPa) = 0.03516191
#
# Stress axis : x y z
#
# Youngs Moduli (GPa) = 43.86794 141.53822 40.51014
#
# Poissons Ratio (x) = 0.18579 0.10801
# Poissons Ratio (y) = 0.05758 0.23145
# Poissons Ratio (z) = 0.11696 0.80865
#
# Static dielectric constant tensor:
#      x y z
#    x 1.772400 0.000000 0.026060 
#    y 0.000000 1.821560 0.000000 
#    z 0.026060 0.000000 1.755500 
# 
# From -- ./inp_files/134716.got.cif
#   From: 2010.05.17/outbox.cif.g08.bks.cpg/sg12_68_cif.got.tgz:134716.got - 2010.06.03 13:09:07.
