data_PCOD9169050
_publ_section_title
;
Structure prediction by ZEFSAII (Michael W. Deem and Ramdas Pophale) SiO2 
 PCOD9169050
Probable space group: C 2/M
;
_chemical_formula_sum "Si O2"
_cell_formula_units_Z 64
_cell_length_a 20.873808
_cell_length_b 15.344403
_cell_length_c 16.030058
_cell_angle_alpha 90.000000
_cell_angle_beta 36.029546
_cell_angle_gamma 90.000000
_cell_volume 3020.045874
_symmetry_space_group_name_H-M "C 2/M"
_symmetry_group_IT_number 12
_symmetry_cell_setting 'monoclinic'
loop_
_space_group_symop_operation_xyz
x,y,z
-x,y,-z
-x,-y,-z
x,-y,z
1/2+x,1/2+y,z
1/2-x,1/2+y,-z
1/2-x,1/2-y,-z
1/2+x,1/2-y,z
loop_
_atom_site_type_symbol
_atom_site_label
_atom_site_fract_x
_atom_site_fract_y
_atom_site_fract_z
Si Si1 0.497734 0.694448 0.107573
Si Si2 0.151755 0.596328 0.086372
Si Si3 0.024957 0.735792 0.691973
Si Si4 0.103817 0.095646 0.212793
Si Si5 0.111506 0.294417 0.431850
Si Si6 0.902459 0.623296 0.047409
Si Si7 0.329170 0.604146 0.157393
Si Si8 0.838808 0.905089 0.652658
O O1 0.445128 0.741610 0.243783
O O2 0.567490 0.775187 0.995801
O O3 0.404310 0.645310 0.152996
O O4 0.597289 0.624356 0.002910
O O5 0.136810 0.500000 0.139831
O O6 0.114065 0.591112 0.029195
O O7 0.078974 0.671743 0.200641
O O8 0.279209 0.618084 0.950505
O O9 0.104278 0.693495 0.540023
O O10 0.982791 0.830210 0.709374
O O11 0.127392 0.090600 0.286335
O O12 0.069831 0.000000 0.219264
O O13 0.213992 0.345160 0.284044
O O14 0.121290 0.189488 0.416220
O O15 0.000000 0.318387 0.500000
O O16 0.791454 0.603884 0.212029
O O17 0.000000 0.588502 0.000000
O O18 0.315983 0.500000 0.180414
O O19 0.871185 0.000000 0.580841
#
# Coordination Sequence:
#
# PCOD9169050 Si02
#       8
#     8   8   8   8   8   8   8   8
#     4  10  20  41  70  96 121 160 216 278 325 368
#     4   9  20  34  52  84 125 162 200 253 316 369
#     4  11  23  36  63  91 127 166 210 267 324 386
#     4   9  18  34  57  86 115 154 207 261 312 370
#     4  12  25  42  63  93 133 178 217 264 326 399
#     4  10  16  32  61  92 118 146 197 257 314 380
#     4  11  24  45  69  94 130 174 225 275 319 382
#     4  10  20  36  58  85 123 162 199 254 319 379
#
# _framework density 21.191731999999998
#
# number of rings (size 3 to 8) (size 9 to 14) (size 15 to 20)
#    0.000    1.750    3.750    2.250    0.000    5.000 
#    0.000    1.250    0.000    0.000    0.000    0.000 
#    0.000    0.000    0.000    0.000    0.000    0.000 
#
# Total GULP energy -178194.841980 kJ/mol
# GULP energy per Si atom -5568.588812 kJ/mol
# Density = 2.114350 g / cm^3
# Si number density = 21.191732 Si / 1000 Ang^3
#
#
#
# Elastic Constant Matrix: (Units=GPa)
#
#
# Indices 1 2 3 4 5 6 
#
# 1 45.1727 -0.5857 16.1418 0.0000 -12.6320 0.0000
# 2 -0.5857 110.4972 7.5014 0.0000 -12.8033 0.0000
# 3 16.1418 7.5014 58.3364 0.0000 -11.1877 0.0000
# 4 0.0000 0.0000 0.0000 -0.3837 0.0000 -2.2985
# 5 -12.6320 -12.8033 -11.1877 0.0000 31.9871 0.0000
# 6 0.0000 0.0000 0.0000 -2.2985 0.0000 17.3618
#
#
#
# Elastic Compliance Matrix: (Units=1/GPa)
#
#
# Indices 1 2 3 4 5 6 
#
# 1 0.026822 0.001604 -0.005867 0.000000 0.009183 0.000000
# 2 0.001604 0.009601 -0.000879 0.000000 0.004169 0.000000
# 3 -0.005867 -0.000879 0.019687 0.000000 0.004217 0.000000
# 4 0.000000 0.000000 0.000000 -1.453596 0.000000 -0.192435
# 5 0.009183 0.004169 0.004217 0.000000 0.038033 0.000000
# 6 0.000000 0.000000 0.000000 -0.192435 0.000000 0.032122
#
#
# Mechanical properties :
#
#
# Convention : Reuss Voigt Hill
#
# Bulk Modulus (GPa) = 21.82096 28.90237 25.36166
# Shear Modulus (GPa) = -3.84092 22.52298 9.34103
#
# Velocity S-wave (km/s) = -1.34774 3.26363 2.10177
# Velocity P-wave (km/s) = 2.81023 5.27919 4.22890
#
# Compressibility (1/GPa) = 0.04582751
#
# Stress axis : x y z
#
# Youngs Moduli (GPa) = 37.28228 104.15288 50.79461
#
# Poissons Ratio (x) = -0.16711 0.29802
# Poissons Ratio (y) = -0.05982 0.04465
# Poissons Ratio (z) = 0.21874 0.09155
#
# Static dielectric constant tensor:
#      x y z
#    x 1.831080 0.000000 0.077390 
#    y 0.000000 1.825380 0.000000 
#    z 0.077390 0.000000 1.814880 
# 
# From -- ./inp_files/290108.got.cif
#   From: 2010.05.17/outbox.cif.g08.bks.cpg/sg12_146_cif.got.tgz:290108.got - 2010.06.03 13:09:07.
