data_PCOD9169844
_publ_section_title
;
Structure prediction by ZEFSAII (Michael W. Deem and Ramdas Pophale) SiO2 
 PCOD9169844
Probable space group: C 2/M
;
_chemical_formula_sum "Si O2"
_cell_formula_units_Z 48
_cell_length_a 18.276003
_cell_length_b 14.644910
_cell_length_c 8.214240
_cell_angle_alpha 90.000000
_cell_angle_beta 96.166914
_cell_angle_gamma 90.000000
_cell_volume 2185.822159
_symmetry_space_group_name_H-M "C 2/M"
_symmetry_group_IT_number 12
_symmetry_cell_setting 'monoclinic'
loop_
_space_group_symop_operation_xyz
x,y,z
-x,y,-z
-x,-y,-z
x,-y,z
1/2+x,1/2+y,z
1/2-x,1/2+y,-z
1/2-x,1/2-y,-z
1/2+x,1/2-y,z
loop_
_atom_site_type_symbol
_atom_site_label
_atom_site_fract_x
_atom_site_fract_y
_atom_site_fract_z
Si Si1 0.659120 0.900601 0.579299
Si Si2 0.536345 0.104507 0.326370
Si Si3 0.194316 0.826891 0.415994
Si Si4 0.799843 0.701918 0.872785
Si Si5 0.911149 0.286175 0.154017
Si Si6 0.151959 0.892110 0.734061
O O1 0.621589 0.879539 0.395582
O O2 0.746195 0.904826 0.599627
O O3 0.634611 0.827124 0.704300
O O4 0.629888 0.000000 0.620510
O O5 0.500000 0.111053 0.500000
O O6 0.492857 0.176746 0.206831
O O7 0.528974 0.000000 0.265840
O O8 0.250000 0.750000 0.500000
O O9 0.172137 0.781365 0.242241
O O10 0.139654 0.860523 0.542375
O O11 0.739086 0.631303 0.787224
O O12 0.750000 0.750000 0.000000
O O13 0.871668 0.669611 0.987873
O O14 0.896716 0.177364 0.167016
O O15 0.139098 0.000000 0.752876
#
# Coordination Sequence:
#
# PCOD9169844 Si02
#       6
#     8   8   8   8   8   8
#     4  10  17  28  51  77  99 128 165 203 246 294
#     4   8  16  28  47  77 100 125 163 204 244 290
#     4  10  17  32  48  68  98 136 164 197 243 297
#     4   9  17  31  48  70  99 133 163 201 250 293
#     4  10  17  32  48  74 104 129 162 205 250 289
#     4  10  20  31  47  72 103 134 164 199 241 295
#
# _framework density 21.959700000000002
#
# number of rings (size 3 to 8) (size 9 to 14) (size 15 to 20)
#    0.000    2.500    5.000    2.000    0.000    1.333 
#    0.000    0.833    0.000    8.500    0.000   10.500 
#    0.000   12.000    0.000    0.000    0.000    0.000 
#
# Total GULP energy -133646.658135 kJ/mol
# GULP energy per Si atom -5568.610756 kJ/mol
# Density = 2.190972 g / cm^3
# Si number density = 21.959700 Si / 1000 Ang^3
#
#
#
# Elastic Constant Matrix: (Units=GPa)
#
#
# Indices 1 2 3 4 5 6 
#
# 1 51.6773 15.6594 7.0795 0.0000 8.9352 0.0000
# 2 15.6594 143.4591 34.3039 0.0000 12.5672 0.0000
# 3 7.0795 34.3039 85.3293 0.0000 26.8839 0.0000
# 4 0.0000 0.0000 0.0000 12.5658 0.0000 9.8025
# 5 8.9352 12.5672 26.8839 0.0000 29.0558 0.0000
# 6 0.0000 0.0000 0.0000 9.8025 0.0000 18.7086
#
#
#
# Elastic Compliance Matrix: (Units=1/GPa)
#
#
# Indices 1 2 3 4 5 6 
#
# 1 0.020943 -0.001979 0.001154 0.000000 -0.006652 0.000000
# 2 -0.001979 0.007908 -0.003005 0.000000 -0.000031 0.000000
# 3 0.001154 -0.003005 0.017691 0.000000 -0.015424 0.000000
# 4 0.000000 0.000000 0.000000 0.134594 0.000000 -0.070521
# 5 -0.006652 -0.000031 -0.015424 0.000000 0.050746 0.000000
# 6 0.000000 0.000000 0.000000 -0.070521 0.000000 0.090401
#
#
# Mechanical properties :
#
#
# Convention : Reuss Voigt Hill
#
# Bulk Modulus (GPa) = 25.71962 43.83904 34.77933
# Shear Modulus (GPa) = 14.58133 26.96090 20.77112
#
# Velocity S-wave (km/s) = 2.57962 3.50772 3.07884
# Velocity P-wave (km/s) = 4.53985 6.03425 5.33959
#
# Compressibility (1/GPa) = 0.03888082
#
# Stress axis : x y z
#
# Youngs Moduli (GPa) = 47.74946 126.45435 56.52553
#
# Poissons Ratio (x) = 0.25028 -0.06522
# Poissons Ratio (y) = 0.09451 0.16987
# Poissons Ratio (z) = -0.05510 0.38001
#
# Static dielectric constant tensor:
#      x y z
#    x 1.996020 0.000000 -0.027120 
#    y 0.000000 1.895630 0.000000 
#    z -0.027120 0.000000 1.896570 
# 
# From -- ./inp_files/95876.got.cif
#   From: 2010.05.17/outbox.cif.g08.bks.cpg/sg12_48_cif.got.tgz:95876.got - 2010.06.03 13:09:07.
