data_PCOD9169802
_publ_section_title
;
Structure prediction by ZEFSAII (Michael W. Deem and Ramdas Pophale) SiO2 
 PCOD9169802
Probable space group: C 2/M
;
_chemical_formula_sum "Si O2"
_cell_formula_units_Z 64
_cell_length_a 26.093150
_cell_length_b 13.878588
_cell_length_c 14.782720
_cell_angle_alpha 90.000000
_cell_angle_beta 40.482049
_cell_angle_gamma 90.000000
_cell_volume 3475.451224
_symmetry_space_group_name_H-M "C 2/M"
_symmetry_group_IT_number 12
_symmetry_cell_setting 'monoclinic'
loop_
_space_group_symop_operation_xyz
x,y,z
-x,y,-z
-x,-y,-z
x,-y,z
1/2+x,1/2+y,z
1/2-x,1/2+y,-z
1/2-x,1/2-y,-z
1/2+x,1/2-y,z
loop_
_atom_site_type_symbol
_atom_site_label
_atom_site_fract_x
_atom_site_fract_y
_atom_site_fract_z
Si Si1 0.549020 0.386061 0.659092
Si Si2 0.372143 0.607640 0.948153
Si Si3 0.813943 0.890029 0.388753
Si Si4 0.091100 0.114432 0.409391
Si Si5 0.315539 0.811511 0.306865
Si Si6 0.852670 0.686810 0.050824
Si Si7 0.019928 0.610242 0.866122
Si Si8 0.721361 0.341693 0.095263
O O1 0.545605 0.500000 0.643951
O O2 0.458581 0.359770 0.796654
O O3 0.600923 0.375213 0.678763
O O4 0.590247 0.346250 0.513369
O O5 0.378701 0.500000 0.981407
O O6 0.317012 0.598450 0.934240
O O7 0.344367 0.697652 0.046165
O O8 0.751838 0.871997 0.553006
O O9 0.799891 0.802658 0.338763
O O10 0.808091 0.000000 0.363185
O O11 0.151193 0.169322 0.262919
O O12 0.000000 0.120580 0.500000
O O13 0.113566 0.000000 0.374661
O O14 0.324964 0.837444 0.189458
O O15 0.397123 0.835327 0.249567
O O16 0.797765 0.631907 0.052325
O O17 0.944462 0.658092 0.920522
O O18 0.029180 0.500000 0.823599
O O19 0.000000 0.609483 0.000000
O O20 0.750000 0.250000 0.000000
#
# Coordination Sequence:
#
# PCOD9169802 Si02
#       8
#     8   8   8   8   8   8   8   8
#     4   9  17  29  48  75 102 130 166 208 264 322
#     4  10  19  33  51  74 109 144 173 216 272 329
#     4  10  20  33  52  76 102 133 171 222 275 325
#     4  10  17  28  49  74 100 133 171 210 263 324
#     4  10  20  35  52  73 102 135 178 223 268 323
#     4  10  21  34  51  76 105 138 182 222 265 322
#     4   9  18  33  52  72  97 132 170 213 261 308
#     4  10  20  32  47  73 110 142 178 219 264 319
#
# _framework density 18.414874999999999
#
# number of rings (size 3 to 8) (size 9 to 14) (size 15 to 20)
#    0.000    2.250    1.250    2.250    0.000    2.000 
#    0.000    0.000    0.000    4.500    0.000    0.000 
#    0.000    5.250    0.000    0.875    0.000    0.000 
#
# Total GULP energy -178174.028280 kJ/mol
# GULP energy per Si atom -5567.938384 kJ/mol
# Density = 1.837296 g / cm^3
# Si number density = 18.414875 Si / 1000 Ang^3
#
#
#
# Elastic Constant Matrix: (Units=GPa)
#
#
# Indices 1 2 3 4 5 6 
#
# 1 68.0389 3.0543 18.9613 0.0000 -22.6557 0.0000
# 2 3.0543 73.8788 13.0872 0.0000 -9.2889 0.0000
# 3 18.9613 13.0872 42.9383 0.0000 -13.0175 0.0000
# 4 0.0000 0.0000 0.0000 117.8477 0.0000 -69.9737
# 5 -22.6557 -9.2889 -13.0175 0.0000 25.7158 0.0000
# 6 0.0000 0.0000 0.0000 -69.9737 0.0000 61.6268
#
#
#
# Elastic Compliance Matrix: (Units=1/GPa)
#
#
# Indices 1 2 3 4 5 6 
#
# 1 0.021811 0.002181 -0.004999 0.000000 0.017472 0.000000
# 2 0.002181 0.014798 -0.003863 0.000000 0.005311 0.000000
# 3 -0.004999 -0.003863 0.029433 0.000000 0.009100 0.000000
# 4 0.000000 0.000000 0.000000 0.026044 0.000000 0.029571
# 5 0.017472 0.005311 0.009100 0.000000 0.060805 0.000000
# 6 0.000000 0.000000 0.000000 0.029571 0.000000 0.049803
#
#
# Mechanical properties :
#
#
# Convention : Reuss Voigt Hill
#
# Bulk Modulus (GPa) = 18.98312 28.34016 23.66164
# Shear Modulus (GPa) = 21.40272 51.02161 36.21217
#
# Velocity S-wave (km/s) = 3.41288 5.26943 4.43929
# Velocity P-wave (km/s) = 5.08540 7.24194 6.25728
#
# Compressibility (1/GPa) = 0.05267838
#
# Stress axis : x y z
#
# Youngs Moduli (GPa) = 45.84901 67.57859 33.97564
#
# Poissons Ratio (x) = -0.14737 0.16984
# Poissons Ratio (y) = -0.09998 0.13125
# Poissons Ratio (z) = 0.22920 0.26106
#
# Static dielectric constant tensor:
#      x y z
#    x 1.665140 0.000000 -0.006320 
#    y 0.000000 1.658250 0.000000 
#    z -0.006320 0.000000 1.631100 
# 
# From -- ./inp_files/240661.got.cif
#   From: 2010.05.17/outbox.cif.g08.bks.cpg/sg12_121_cif.got.tgz:240661.got - 2010.06.03 13:09:07.
