data_PCOD9169963
_publ_section_title
;
Structure prediction by ZEFSAII (Michael W. Deem and Ramdas Pophale) SiO2 
 PCOD9169963
Probable space group: C 2/M
;
_chemical_formula_sum "Si O2"
_cell_formula_units_Z 64
_cell_length_a 30.373029
_cell_length_b 7.673139
_cell_length_c 15.586825
_cell_angle_alpha 90.000000
_cell_angle_beta 99.300510
_cell_angle_gamma 90.000000
_cell_volume 3584.857178
_symmetry_space_group_name_H-M "C 2/M"
_symmetry_group_IT_number 12
_symmetry_cell_setting 'monoclinic'
loop_
_space_group_symop_operation_xyz
x,y,z
-x,y,-z
-x,-y,-z
x,-y,z
1/2+x,1/2+y,z
1/2-x,1/2+y,-z
1/2-x,1/2-y,-z
1/2+x,1/2-y,z
loop_
_atom_site_type_symbol
_atom_site_label
_atom_site_fract_x
_atom_site_fract_y
_atom_site_fract_z
Si Si1 0.565197 0.786831 0.579840
Si Si2 0.061419 0.200593 0.855542
Si Si3 0.712773 0.787987 0.873015
Si Si4 0.532817 0.786952 0.387222
Si Si5 0.810865 0.794344 0.938856
Si Si6 0.367085 0.797535 0.261838
Si Si7 0.459820 0.796290 0.798536
Si Si8 0.909620 0.701227 0.947885
O O1 0.561076 0.733489 0.479393
O O2 0.518623 0.736048 0.610839
O O3 0.607123 0.722443 0.647910
O O4 0.565906 0.000000 0.581752
O O5 0.097499 0.289351 0.805181
O O6 0.012687 0.282729 0.831119
O O7 0.058487 0.000000 0.827945
O O8 0.077097 0.210132 0.958781
O O9 0.764195 0.730483 0.883878
O O10 0.678942 0.722658 0.789629
O O11 0.712559 0.000000 0.872597
O O12 0.694556 0.733276 0.960558
O O13 0.548367 0.723178 0.299291
O O14 0.532886 0.000000 0.385463
O O15 0.856345 0.708795 0.922210
O O16 0.814768 0.000000 0.924056
O O17 0.358113 0.000000 0.278582
O O18 0.433836 0.721365 0.872020
O O19 0.447076 0.000000 0.791178
O O20 0.923992 0.500000 0.961895
#
# Coordination Sequence:
#
# PCOD9169963 Si02
#       8
#     8   8   8   8   8   8   8   8
#     4   8  13  22  44  71  93 113 143 187 230 266
#     4  12  23  32  44  66  95 125 156 189 224 266
#     4   9  18  30  47  68  92 121 153 187 227 277
#     4   8  13  24  43  70  92 112 146 190 230 263
#     4  10  19  31  46  67  92 119 152 193 234 270
#     4  10  17  29  49  70  93 123 153 183 223 274
#     4  10  20  34  50  65  88 123 161 193 225 267
#     4  11  22  34  48  65  87 123 163 194 226 269
#
# _framework density 17.852872999999999
#
# number of rings (size 3 to 8) (size 9 to 14) (size 15 to 20)
#    0.000    2.250    2.500    3.000    0.000    3.000 
#    0.000    0.000    0.000    1.500    0.000    0.875 
#    0.000    0.000    0.000    0.000    0.000    0.000 
#
# Total GULP energy -178489.321090 kJ/mol
# GULP energy per Si atom -5577.791284 kJ/mol
# Density = 1.781224 g / cm^3
# Si number density = 17.852873 Si / 1000 Ang^3
#
#
#
# Elastic Constant Matrix: (Units=GPa)
#
#
# Indices 1 2 3 4 5 6 
#
# 1 56.7167 -14.0573 52.6467 0.0000 16.5844 0.0000
# 2 -14.0573 36.0130 -4.5719 0.0000 -0.6703 0.0000
# 3 52.6467 -4.5719 117.2087 0.0000 27.3610 0.0000
# 4 0.0000 0.0000 0.0000 -3.3448 0.0000 6.1500
# 5 16.5844 -0.6703 27.3610 0.0000 30.4712 0.0000
# 6 0.0000 0.0000 0.0000 6.1500 0.0000 9.9848
#
#
#
# Elastic Compliance Matrix: (Units=1/GPa)
#
#
# Indices 1 2 3 4 5 6 
#
# 1 0.035418 0.011936 -0.013923 0.000000 -0.006512 0.000000
# 2 0.011936 0.031934 -0.003496 0.000000 -0.002655 0.000000
# 3 -0.013923 -0.003496 0.016319 0.000000 -0.007152 0.000000
# 4 0.000000 0.000000 0.000000 -0.140198 0.000000 0.086353
# 5 -0.006512 -0.002655 -0.007152 0.000000 0.042726 0.000000
# 6 0.000000 0.000000 0.000000 0.086353 0.000000 0.046965
#
#
# Mechanical properties :
#
#
# Convention : Reuss Voigt Hill
#
# Bulk Modulus (GPa) = 13.75418 30.88593 22.32005
# Shear Modulus (GPa) = 73.13797 19.15030 46.14414
#
# Velocity S-wave (km/s) = 6.40750 3.27872 5.08950
# Velocity P-wave (km/s) = 7.90331 5.62771 6.86052
#
# Compressibility (1/GPa) = 0.07270519
#
# Stress axis : x y z
#
# Youngs Moduli (GPa) = 28.23422 31.31487 61.27902
#
# Poissons Ratio (x) = -0.37378 0.85318
# Poissons Ratio (y) = -0.33701 0.21424
# Poissons Ratio (z) = 0.39310 0.10948
#
# Static dielectric constant tensor:
#      x y z
#    x 1.600740 0.000000 0.021540 
#    y 0.000000 1.672000 0.000000 
#    z 0.021540 0.000000 1.632010 
# 
# From -- ./inp_files/248503.got.cif
#   From: 2010.05.17/outbox.cif.g08.bks.cpg/sg12_125_cif.got.tgz:248503.got - 2010.06.03 13:09:07.
