data_PCOD9169069
_publ_section_title
;
Structure prediction by ZEFSAII (Michael W. Deem and Ramdas Pophale) SiO2 
 PCOD9169069
Probable space group: C 2/M
;
_chemical_formula_sum "Si O2"
_cell_formula_units_Z 44
_cell_length_a 21.987623
_cell_length_b 16.029406
_cell_length_c 14.001360
_cell_angle_alpha 90.000000
_cell_angle_beta 147.469196
_cell_angle_gamma 90.000000
_cell_volume 2653.681191
_symmetry_space_group_name_H-M "C 2/M"
_symmetry_group_IT_number 12
_symmetry_cell_setting 'monoclinic'
loop_
_space_group_symop_operation_xyz
x,y,z
-x,y,-z
-x,-y,-z
x,-y,z
1/2+x,1/2+y,z
1/2-x,1/2+y,-z
1/2-x,1/2-y,-z
1/2+x,1/2-y,z
loop_
_atom_site_type_symbol
_atom_site_label
_atom_site_fract_x
_atom_site_fract_y
_atom_site_fract_z
Si Si1 0.053176 0.350758 0.833807
Si Si2 0.253614 0.831390 0.758972
Si Si3 0.305685 0.000000 0.075037
Si Si4 0.626782 0.000000 0.625219
Si Si5 0.606645 0.092579 0.213569
Si Si6 0.081276 0.682023 0.516297
Si Si7 0.863773 0.000000 0.316120
O O1 0.119937 0.421789 0.862927
O O2 0.949752 0.384339 0.761139
O O3 0.995258 0.295347 0.676498
O O4 0.145271 0.317415 0.030679
O O5 0.306590 0.846842 0.724328
O O6 0.174316 0.751931 0.654036
O O7 0.188560 0.916575 0.704136
O O8 0.296572 0.000000 0.177427
O O9 0.189166 0.000000 0.861258
O O10 0.500000 0.000000 0.500000
O O11 0.633292 0.912102 0.577880
O O12 0.656725 0.000000 0.285149
O O13 0.500000 0.088704 0.000000
O O14 0.000000 0.681128 0.500000
O O15 0.000000 0.000000 0.500000
#
# Coordination Sequence:
#
# PCOD9169069 Si02
#       7
#     8   8   4   4   8   8   4
#     4  10  18  32  56  78 101 134 171 220 264 293
#     4  10  21  34  51  78 108 137 169 212 260 311
#     4  10  16  33  56  77  99 132 175 216 267 288
#     4  10  18  34  52  76 100 132 175 222 246 301
#     4   9  16  30  54  79 100 129 173 216 258 301
#     4  11  21  34  52  77 107 134 174 217 254 309
#     4  10  20  35  50  75 111 143 164 207 257 324
#
# _framework density 16.580741
#
# number of rings (size 3 to 8) (size 9 to 14) (size 15 to 20)
#    0.000    2.000    5.455    0.545    0.000    1.455 
#    3.273    0.000    0.000    0.000    0.000    5.727 
#    0.000    0.000    0.000    0.000    0.000    0.000 
#
# Total GULP energy -122487.710470 kJ/mol
# GULP energy per Si atom -5567.623203 kJ/mol
# Density = 1.654300 g / cm^3
# Si number density = 16.580741 Si / 1000 Ang^3
#
#
#
# Elastic Constant Matrix: (Units=GPa)
#
#
# Indices 1 2 3 4 5 6 
#
# 1 63.4992 24.6029 36.0009 0.0000 -1.2242 0.0000
# 2 24.6029 98.6880 37.9700 0.0000 14.6204 0.0000
# 3 36.0009 37.9700 101.1043 0.0000 -0.8846 0.0000
# 4 0.0000 0.0000 0.0000 21.5869 0.0000 5.6126
# 5 -1.2242 14.6204 -0.8846 0.0000 20.6799 0.0000
# 6 0.0000 0.0000 0.0000 5.6126 0.0000 -6.2928
#
#
#
# Elastic Compliance Matrix: (Units=1/GPa)
#
#
# Indices 1 2 3 4 5 6 
#
# 1 0.020505 -0.003270 -0.006045 0.000000 0.003267 0.000000
# 2 -0.003270 0.014106 -0.004224 0.000000 -0.010347 0.000000
# 3 -0.006045 -0.004224 0.013657 0.000000 0.003212 0.000000
# 4 0.000000 0.000000 0.000000 0.037604 0.000000 0.033539
# 5 0.003267 -0.010347 0.003212 0.000000 0.056002 0.000000
# 6 0.000000 0.000000 0.000000 0.033539 0.000000 -0.128997
#
#
# Mechanical properties :
#
#
# Convention : Reuss Voigt Hill
#
# Bulk Modulus (GPa) = 47.18850 51.15990 49.17420
# Shear Modulus (GPa) = 106.33833 18.17597 62.25715
#
# Velocity S-wave (km/s) = 8.01704 3.31450 6.13428
# Velocity P-wave (km/s) = 10.68732 6.75055 8.93836
#
# Compressibility (1/GPa) = 0.02119160
#
# Stress axis : x y z
#
# Youngs Moduli (GPa) = 48.76768 70.89087 73.22007
#
# Poissons Ratio (x) = 0.23184 0.44259
# Poissons Ratio (y) = 0.15949 0.30926
# Poissons Ratio (z) = 0.29479 0.29942
#
# Static dielectric constant tensor:
#      x y z
#    x 1.583550 0.000000 -0.029390 
#    y 0.000000 1.566280 0.000000 
#    z -0.029390 0.000000 1.589730 
# 
# From -- ./inp_files/144749.got.cif
#   From: 2010.05.17/outbox.cif.g08.bks.cpg/sg12_73_cif.got.tgz:144749.got - 2010.06.03 13:09:07.
