data_PCOD9169431
_publ_section_title
;
Structure prediction by ZEFSAII (Michael W. Deem and Ramdas Pophale) SiO2 
 PCOD9169431
Probable space group: C 2/M
;
_chemical_formula_sum "Si O2"
_cell_formula_units_Z 48
_cell_length_a 13.167085
_cell_length_b 19.570494
_cell_length_c 14.736020
_cell_angle_alpha 90.000000
_cell_angle_beta 128.939528
_cell_angle_gamma 90.000000
_cell_volume 2953.554605
_symmetry_space_group_name_H-M "C 2/M"
_symmetry_group_IT_number 12
_symmetry_cell_setting 'monoclinic'
loop_
_space_group_symop_operation_xyz
x,y,z
-x,y,-z
-x,-y,-z
x,-y,z
1/2+x,1/2+y,z
1/2-x,1/2+y,-z
1/2-x,1/2-y,-z
1/2+x,1/2-y,z
loop_
_atom_site_type_symbol
_atom_site_label
_atom_site_fract_x
_atom_site_fract_y
_atom_site_fract_z
Si Si1 0.924322 0.185372 0.050596
Si Si2 0.890467 0.580213 0.729120
Si Si3 0.506363 0.421047 0.762407
Si Si4 0.875218 0.332149 0.099259
Si Si5 0.387255 0.583204 0.507523
Si Si6 0.187604 0.423483 0.104971
O O1 0.991758 0.126735 0.148823
O O2 0.917695 0.254471 0.106166
O O3 0.772634 0.166140 0.946682
O O4 0.000000 0.196671 0.000000
O O5 0.914049 0.500000 0.722340
O O6 0.758063 0.602907 0.604525
O O7 0.858362 0.585548 0.818425
O O8 0.017730 0.625983 0.784373
O O9 0.473641 0.500000 0.765720
O O10 0.420529 0.396635 0.629124
O O11 0.655647 0.420547 0.809885
O O12 0.864613 0.368365 0.994650
O O13 0.500000 0.606098 0.500000
O O14 0.391278 0.500000 0.507669
O O15 0.149233 0.500000 0.052133
#
# Coordination Sequence:
#
# PCOD9169431 Si02
#       6
#     8   8   8   8   8   8
#     4  10  21  36  51  67  94 130 163 201 244 289
#     4  10  17  26  47  76 104 129 152 196 249 289
#     4   9  17  30  48  71  96 127 168 201 232 282
#     4  10  20  32  48  72  97 124 162 197 247 294
#     4   9  15  27  47  74 105 130 156 194 242 291
#     4   9  15  25  45  73 103 126 150 192 243 294
#
# _framework density 16.251604
#
# number of rings (size 3 to 8) (size 9 to 14) (size 15 to 20)
#    0.000    2.500    1.667    2.000    0.000    2.333 
#    0.000    0.833    0.000    1.000    0.000    3.500 
#    0.000    0.000    0.000    0.000    0.000    0.000 
#
# Total GULP energy -133764.339787 kJ/mol
# GULP energy per Si atom -5573.514158 kJ/mol
# Density = 1.621461 g / cm^3
# Si number density = 16.251604 Si / 1000 Ang^3
#
#
#
# Elastic Constant Matrix: (Units=GPa)
#
#
# Indices 1 2 3 4 5 6 
#
# 1 60.4677 13.4302 37.1654 0.0000 13.3090 0.0000
# 2 13.4302 47.9339 27.8943 0.0000 11.4236 0.0000
# 3 37.1654 27.8943 79.7889 0.0000 26.5998 0.0000
# 4 0.0000 0.0000 0.0000 1.0677 0.0000 10.3225
# 5 13.3090 11.4236 26.5998 0.0000 26.6676 0.0000
# 6 0.0000 0.0000 0.0000 10.3225 0.0000 14.4000
#
#
#
# Elastic Compliance Matrix: (Units=1/GPa)
#
#
# Indices 1 2 3 4 5 6 
#
# 1 0.023199 -0.000200 -0.010345 0.000000 -0.001174 0.000000
# 2 -0.000200 0.026367 -0.008079 0.000000 -0.003136 0.000000
# 3 -0.010345 -0.008079 0.025920 0.000000 -0.017231 0.000000
# 4 0.000000 0.000000 0.000000 -0.157933 0.000000 0.113212
# 5 -0.001174 -0.003136 -0.017231 0.000000 0.056615 0.000000
# 6 0.000000 0.000000 0.000000 0.113212 0.000000 -0.011710
#
#
# Mechanical properties :
#
#
# Convention : Reuss Voigt Hill
#
# Bulk Modulus (GPa) = 26.15174 38.35224 32.25199
# Shear Modulus (GPa) = 401.53295 15.74044 208.63669
#
# Velocity S-wave (km/s) = 15.73560 3.11552 11.34274
# Velocity P-wave (km/s) = 18.60839 6.04915 13.83591
#
# Compressibility (1/GPa) = 0.03823837
#
# Stress axis : x y z
#
# Youngs Moduli (GPa) = 43.10595 37.92598 38.57960
#
# Poissons Ratio (x) = 0.00760 0.39909
# Poissons Ratio (y) = 0.00863 0.31169
# Poissons Ratio (z) = 0.44591 0.30641
#
# Static dielectric constant tensor:
#      x y z
#    x 1.544220 0.000000 0.031570 
#    y 0.000000 1.553930 0.000000 
#    z 0.031570 0.000000 1.548870 
# 
# From -- ./inp_files/132657.got.cif
#   From: 2010.05.17/outbox.cif.g08.bks.cpg/sg12_67_cif.got.tgz:132657.got - 2010.06.03 13:09:07.
