data_PCOD9169900
_publ_section_title
;
Structure prediction by ZEFSAII (Michael W. Deem and Ramdas Pophale) SiO2 
 PCOD9169900
Probable space group: C 2/M
;
_chemical_formula_sum "Si O2"
_cell_formula_units_Z 64
_cell_length_a 18.459941
_cell_length_b 24.212822
_cell_length_c 11.871396
_cell_angle_alpha 90.000000
_cell_angle_beta 129.887877
_cell_angle_gamma 90.000000
_cell_volume 4071.394571
_symmetry_space_group_name_H-M "C 2/M"
_symmetry_group_IT_number 12
_symmetry_cell_setting 'monoclinic'
loop_
_space_group_symop_operation_xyz
x,y,z
-x,y,-z
-x,-y,-z
x,-y,z
1/2+x,1/2+y,z
1/2-x,1/2+y,-z
1/2-x,1/2-y,-z
1/2+x,1/2-y,z
loop_
_atom_site_type_symbol
_atom_site_label
_atom_site_fract_x
_atom_site_fract_y
_atom_site_fract_z
Si Si1 0.604853 0.242543 0.384886
Si Si2 0.295379 0.230292 0.874021
Si Si3 0.718180 0.315726 0.332073
Si Si4 0.936245 0.562016 0.703371
Si Si5 0.093125 0.657861 0.166867
Si Si6 0.606794 0.764159 0.787590
Si Si7 0.920949 0.613674 0.323472
Si Si8 0.279487 0.937306 0.349908
O O1 0.657175 0.294531 0.378613
O O2 0.676914 0.209493 0.537940
O O3 0.587388 0.199761 0.265689
O O4 0.501884 0.254384 0.332518
O O5 0.314270 0.282836 0.811577
O O6 0.321538 0.177289 0.826044
O O7 0.186930 0.229567 0.804165
O O8 0.360609 0.234345 0.049492
O O9 0.719452 0.381514 0.314419
O O10 0.956801 0.500000 0.757838
O O11 0.902367 0.598282 0.773453
O O12 0.855250 0.561998 0.527264
O O13 0.027405 0.587922 0.733048
O O14 0.000000 0.663001 0.000000
O O15 0.613806 0.825999 0.745428
O O16 0.838898 0.576519 0.295924
O O17 0.000000 0.619182 0.500000
O O18 0.238838 0.000000 0.303275
#
# Coordination Sequence:
#
# PCOD9169900 Si02
#       8
#     8   8   8   8   8   8   8   8
#     4  10  19  31  51  69 102 129 161 197 249 293
#     4  10  22  30  48  72 100 127 166 198 246 300
#     4  10  19  32  48  76  96 128 165 205 244 295
#     4  10  19  29  45  67  95 131 167 196 235 290
#     4  11  18  32  47  67  99 131 159 201 243 286
#     4  11  19  33  47  72 100 133 158 196 250 295
#     4  10  17  29  46  70 100 130 161 194 238 298
#     4  10  18  30  46  68  98 130 163 203 244 284
#
# _framework density 15.719428000000001
#
# number of rings (size 3 to 8) (size 9 to 14) (size 15 to 20)
#    0.000    1.750    5.000    1.125    0.000    1.750 
#    0.000    0.000    0.000    0.000    0.000    2.625 
#    0.000    2.000    0.000    0.000    0.000    0.125 
#
# Total GULP energy -178358.650186 kJ/mol
# GULP energy per Si atom -5573.707818 kJ/mol
# Density = 1.568365 g / cm^3
# Si number density = 15.719428 Si / 1000 Ang^3
#
#
#
# Elastic Constant Matrix: (Units=GPa)
#
#
# Indices 1 2 3 4 5 6 
#
# 1 75.7300 54.0229 13.0756 0.0000 1.6859 0.0000
# 2 54.0229 110.9021 27.9180 0.0000 -5.9690 0.0000
# 3 13.0756 27.9180 39.2026 0.0000 -4.3497 0.0000
# 4 0.0000 0.0000 0.0000 4.2205 0.0000 -3.3525
# 5 1.6859 -5.9690 -4.3497 0.0000 22.2751 0.0000
# 6 0.0000 0.0000 0.0000 -3.3525 0.0000 19.8312
#
#
#
# Elastic Compliance Matrix: (Units=1/GPa)
#
#
# Indices 1 2 3 4 5 6 
#
# 1 0.020639 -0.010275 -0.000047 0.000000 -0.004324 0.000000
# 2 -0.010275 0.016147 -0.007672 0.000000 0.003606 0.000000
# 3 -0.000047 -0.007672 0.031441 0.000000 0.004087 0.000000
# 4 0.000000 0.000000 0.000000 0.273689 0.000000 0.046268
# 5 -0.004324 0.003606 0.004087 0.000000 0.046985 0.000000
# 6 0.000000 0.000000 0.000000 0.046268 0.000000 0.058247
#
#
# Mechanical properties :
#
#
# Convention : Reuss Voigt Hill
#
# Bulk Modulus (GPa) = 31.01683 46.20753 38.61218
# Shear Modulus (GPa) = 10.12388 17.98658 14.05523
#
# Velocity S-wave (km/s) = 2.54054 3.38631 2.99345
# Velocity P-wave (km/s) = 5.32730 6.68943 6.04684
#
# Compressibility (1/GPa) = 0.03224056
#
# Stress axis : x y z
#
# Youngs Moduli (GPa) = 48.45290 61.92954 31.80534
#
# Poissons Ratio (x) = 0.63630 0.00148
# Poissons Ratio (y) = 0.49783 0.24402
# Poissons Ratio (z) = 0.00226 0.47513
#
# Static dielectric constant tensor:
#      x y z
#    x 1.558800 0.000000 -0.006420 
#    y 0.000000 1.524300 0.000000 
#    z -0.006420 0.000000 1.532200 
# 
# From -- ./inp_files/160306.got.cif
#   From: 2010.05.17/outbox.cif.g08.bks.cpg/sg12_81_cif.got.tgz:160306.got - 2010.06.03 13:09:07.
