data_PCOD9169640
_publ_section_title
;
Structure prediction by ZEFSAII (Michael W. Deem and Ramdas Pophale) SiO2 
 PCOD9169640
Probable space group: C 2/M
;
_chemical_formula_sum "Si O2"
_cell_formula_units_Z 52
_cell_length_a 11.584426
_cell_length_b 24.040618
_cell_length_c 9.101312
_cell_angle_alpha 90.000000
_cell_angle_beta 101.796255
_cell_angle_gamma 90.000000
_cell_volume 2481.155248
_symmetry_space_group_name_H-M "C 2/M"
_symmetry_group_IT_number 12
_symmetry_cell_setting 'monoclinic'
loop_
_space_group_symop_operation_xyz
x,y,z
-x,y,-z
-x,-y,-z
x,-y,z
1/2+x,1/2+y,z
1/2-x,1/2+y,-z
1/2-x,1/2-y,-z
1/2+x,1/2-y,z
loop_
_atom_site_type_symbol
_atom_site_label
_atom_site_fract_x
_atom_site_fract_y
_atom_site_fract_z
Si Si1 0.861393 0.000000 0.416921
Si Si2 0.233467 0.381859 0.441501
Si Si3 0.282325 0.000000 0.898885
Si Si4 0.853952 0.122509 0.747508
Si Si5 0.887370 0.618248 0.873521
Si Si6 0.442908 0.314113 0.349396
Si Si7 0.620180 0.500000 0.123738
Si Si8 0.815154 0.807736 0.033363
O O1 0.791091 0.055972 0.446994
O O2 0.000000 0.000000 0.500000
O O3 0.834923 0.000000 0.235069
O O4 0.237702 0.368518 0.615991
O O5 0.119496 0.375427 0.306310
O O6 0.325728 0.340335 0.387135
O O7 0.359632 0.946375 0.888803
O O8 0.233437 0.000000 0.048624
O O9 0.962656 0.138728 0.670072
O O10 0.871873 0.058220 0.790475
O O11 0.853597 0.161161 0.893147
O O12 0.776234 0.649656 0.915984
O O13 0.000000 0.634561 0.000000
O O14 0.500000 0.280151 0.500000
O O15 0.413391 0.292020 0.180731
O O16 0.500000 0.500000 0.000000
O O17 0.750000 0.750000 0.000000
#
# Coordination Sequence:
#
# PCOD9169640 Si02
#       8
#     4   8   4   8   8   8   4   8
#     4  10  17  27  50  80 120 154 179 218 282 345
#     4   9  20  33  55  85 117 150 189 229 281 345
#     4  10  21  36  55  84 115 151 198 238 274 351
#     4  11  21  36  58  88 124 145 180 233 296 355
#     4  10  21  41  61  78 108 158 204 237 279 337
#     4   9  19  37  58  84 118 151 179 229 291 352
#     4  12  23  29  56  93 123 150 176 225 308 355
#     4  11  23  39  58  85 115 149 193 244 287 337
#
# _framework density 20.957979000000002
#
# number of rings (size 3 to 8) (size 9 to 14) (size 15 to 20)
#    0.000    1.846    1.538    3.462    6.462    1.231 
#    0.000    9.615    0.000    0.923    0.000    0.000 
#    0.000    0.000    0.000    0.000    0.000    0.000 
#
# Total GULP energy -144736.748196 kJ/mol
# GULP energy per Si atom -5566.798008 kJ/mol
# Density = 2.091028 g / cm^3
# Si number density = 20.957979 Si / 1000 Ang^3
#
#
#
# Elastic Constant Matrix: (Units=GPa)
#
#
# Indices 1 2 3 4 5 6 
#
# 1 27.2960 -17.0354 31.9296 0.0000 21.6958 0.0000
# 2 -17.0354 42.9310 14.0631 0.0000 -0.5268 0.0000
# 3 31.9296 14.0631 187.5115 0.0000 35.4203 0.0000
# 4 0.0000 0.0000 0.0000 32.5209 0.0000 -10.7484
# 5 21.6958 -0.5268 35.4203 0.0000 36.5074 0.0000
# 6 0.0000 0.0000 0.0000 -10.7484 0.0000 22.3759
#
#
#
# Elastic Compliance Matrix: (Units=1/GPa)
#
#
# Indices 1 2 3 4 5 6 
#
# 1 0.165621 0.070806 -0.018504 0.000000 -0.079451 0.000000
# 2 0.070806 0.054346 -0.010202 0.000000 -0.031396 0.000000
# 3 -0.018504 -0.010202 0.008815 0.000000 0.002297 0.000000
# 4 0.000000 0.000000 0.000000 0.036553 0.000000 0.017558
# 5 -0.079451 -0.031396 0.002297 0.000000 0.071927 0.000000
# 6 0.000000 0.000000 0.000000 0.017558 0.000000 0.053125
#
#
# Mechanical properties :
#
#
# Convention : Reuss Voigt Hill
#
# Bulk Modulus (GPa) = 3.19508 35.07258 19.13383
# Shear Modulus (GPa) = 12.17985 33.53292 22.85639
#
# Velocity S-wave (km/s) = 2.41333 4.00435 3.30598
# Velocity P-wave (km/s) = 3.04851 6.17663 4.87053
#
# Compressibility (1/GPa) = 0.31298141
#
# Stress axis : x y z
#
# Youngs Moduli (GPa) = 6.03790 18.40052 113.44041
#
# Poissons Ratio (x) = -1.30287 2.09914
# Poissons Ratio (y) = -0.42752 1.15733
# Poissons Ratio (z) = 0.11173 0.18772
#
# Static dielectric constant tensor:
#      x y z
#    x 1.798520 0.000000 0.049430 
#    y 0.000000 1.679490 0.000000 
#    z 0.049430 0.000000 1.930530 
# 
# From -- ./inp_files/52686.got.cif
#   From: 2010.05.17/outbox.cif.g08.bks.cpg/sg12_27_cif.got.tgz:52686.got - 2010.06.03 13:09:07.
