data_PCOD9169702
_publ_section_title
;
Structure prediction by ZEFSAII (Michael W. Deem and Ramdas Pophale) SiO2 
 PCOD9169702
Probable space group: C 2/M
;
_chemical_formula_sum "Si O2"
_cell_formula_units_Z 64
_cell_length_a 17.828016
_cell_length_b 23.664888
_cell_length_c 12.338493
_cell_angle_alpha 90.000000
_cell_angle_beta 129.847289
_cell_angle_gamma 90.000000
_cell_volume 3996.614059
_symmetry_space_group_name_H-M "C 2/M"
_symmetry_group_IT_number 12
_symmetry_cell_setting 'monoclinic'
loop_
_space_group_symop_operation_xyz
x,y,z
-x,y,-z
-x,-y,-z
x,-y,z
1/2+x,1/2+y,z
1/2-x,1/2+y,-z
1/2-x,1/2-y,-z
1/2+x,1/2-y,z
loop_
_atom_site_type_symbol
_atom_site_label
_atom_site_fract_x
_atom_site_fract_y
_atom_site_fract_z
Si Si1 0.803122 0.827218 0.441038
Si Si2 0.432469 0.289612 0.120785
Si Si3 0.003873 0.916021 0.837815
Si Si4 0.600987 0.267556 0.659591
Si Si5 0.267252 0.686169 0.796599
Si Si6 0.331543 0.439319 0.839460
Si Si7 0.933745 0.935119 0.542346
Si Si8 0.130448 0.252824 0.304794
O O1 0.828624 0.809097 0.342492
O O2 0.848542 0.889735 0.491057
O O3 0.857726 0.782612 0.572276
O O4 0.690555 0.811568 0.362633
O O5 0.486577 0.348590 0.145384
O O6 0.410495 0.286588 0.227673
O O7 0.515728 0.243235 0.172895
O O8 0.335714 0.291354 0.958381
O O9 0.904536 0.934477 0.804536
O O10 0.001429 0.933550 0.711457
O O11 0.094915 0.938700 0.989997
O O12 0.500000 0.266042 0.500000
O O13 0.658067 0.208399 0.710094
O O14 0.272437 0.618660 0.792197
O O15 0.314650 0.714472 0.733783
O O16 0.279889 0.500000 0.787558
O O17 0.000000 0.917985 0.500000
O O18 0.900207 0.000000 0.494147
#
# Coordination Sequence:
#
# PCOD9169702 Si02
#       8
#     8   8   8   8   8   8   8   8
#     4  10  19  31  46  69  93 128 163 187 235 290
#     4  11  18  31  49  71  97 123 150 197 242 281
#     4  10  17  28  45  67  95 120 150 185 235 288
#     4  11  20  33  49  67  96 129 158 192 241 285
#     4  10  21  31  47  73  96 122 159 199 233 282
#     4  10  18  29  46  67  93 123 152 188 235 280
#     4  11  20  29  43  65  96 132 164 192 230 282
#     4  10  18  30  49  68  94 124 155 194 237 283
#
# _framework density 16.013555
#
# number of rings (size 3 to 8) (size 9 to 14) (size 15 to 20)
#    0.000    1.625    3.750    3.375    0.000    0.000 
#    0.000    0.000    0.000    0.375    0.000    0.875 
#    0.000    8.000    0.000    0.000    0.000    0.000 
#
# Total GULP energy -178285.233361 kJ/mol
# GULP energy per Si atom -5571.413543 kJ/mol
# Density = 1.597711 g / cm^3
# Si number density = 16.013555 Si / 1000 Ang^3
#
#
#
# Elastic Constant Matrix: (Units=GPa)
#
#
# Indices 1 2 3 4 5 6 
#
# 1 46.2365 14.2301 15.6047 0.0000 -15.1377 0.0000
# 2 14.2301 73.2581 4.3528 0.0000 0.8780 0.0000
# 3 15.6047 4.3528 42.5914 0.0000 -21.1387 0.0000
# 4 0.0000 0.0000 0.0000 42.1649 0.0000 -1.2685
# 5 -15.1377 0.8780 -21.1387 0.0000 25.4902 0.0000
# 6 0.0000 0.0000 0.0000 -1.2685 0.0000 16.3009
#
#
#
# Elastic Compliance Matrix: (Units=1/GPa)
#
#
# Indices 1 2 3 4 5 6 
#
# 1 0.029318 -0.005739 -0.002406 0.000000 0.015613 0.000000
# 2 -0.005739 0.014974 -0.002337 0.000000 -0.005862 0.000000
# 3 -0.002406 -0.002337 0.040669 0.000000 0.032378 0.000000
# 4 0.000000 0.000000 0.000000 0.023772 0.000000 0.001850
# 5 0.015613 -0.005862 0.032378 0.000000 0.075555 0.000000
# 6 0.000000 0.000000 0.000000 0.001850 0.000000 0.061490
#
#
# Mechanical properties :
#
#
# Convention : Reuss Voigt Hill
#
# Bulk Modulus (GPa) = 15.62574 25.60677 20.61625
# Shear Modulus (GPa) = 17.35656 25.31777 21.33716
#
# Velocity S-wave (km/s) = 3.29578 3.98052 3.65423
# Velocity P-wave (km/s) = 4.92564 6.09520 5.54136
#
# Compressibility (1/GPa) = 0.06399699
#
# Stress axis : x y z
#
# Youngs Moduli (GPa) = 34.10875 66.78119 24.58882
#
# Poissons Ratio (x) = 0.38326 0.05916
# Poissons Ratio (y) = 0.19575 0.05747
# Poissons Ratio (z) = 0.08206 0.15608
#
# Static dielectric constant tensor:
#      x y z
#    x 1.541400 0.000000 -0.005860 
#    y 0.000000 1.584000 0.000000 
#    z -0.005860 0.000000 1.571820 
# 
# From -- ./inp_files/160313.got.cif
#   From: 2010.05.17/outbox.cif.g08.bks.cpg/sg12_81_cif.got.tgz:160313.got - 2010.06.03 13:09:07.
