data_PCOD9169660
_publ_section_title
;
Structure prediction by ZEFSAII (Michael W. Deem and Ramdas Pophale) SiO2 
 PCOD9169660
Probable space group: C 2/M
;
_chemical_formula_sum "Si O2"
_cell_formula_units_Z 56
_cell_length_a 5.592511
_cell_length_b 21.481849
_cell_length_c 21.849109
_cell_angle_alpha 90.000000
_cell_angle_beta 73.721853
_cell_angle_gamma 90.000000
_cell_volume 2519.670672
_symmetry_space_group_name_H-M "C 2/M"
_symmetry_group_IT_number 12
_symmetry_cell_setting 'monoclinic'
loop_
_space_group_symop_operation_xyz
x,y,z
-x,y,-z
-x,-y,-z
x,-y,z
1/2+x,1/2+y,z
1/2-x,1/2+y,-z
1/2-x,1/2-y,-z
1/2+x,1/2-y,z
loop_
_atom_site_type_symbol
_atom_site_label
_atom_site_fract_x
_atom_site_fract_y
_atom_site_fract_z
Si Si1 0.314351 0.134037 0.117662
Si Si2 0.915128 0.287051 0.575476
Si Si3 0.863318 0.246281 0.227439
Si Si4 0.260684 0.122400 0.688568
Si Si5 0.782423 0.620486 0.267256
Si Si6 0.359626 0.630919 0.073788
Si Si7 0.250719 0.500000 0.148519
Si Si8 0.240092 0.500000 0.859365
O O1 0.306068 0.124582 0.191770
O O2 0.585914 0.160879 0.083669
O O3 0.061328 0.160017 0.106351
O O4 0.307632 0.061286 0.097103
O O5 0.647211 0.251545 0.588527
O O6 0.870512 0.348649 0.618863
O O7 0.000000 0.300789 0.500000
O O8 0.652117 0.247906 0.191571
O O9 0.819373 0.181887 0.264472
O O10 0.800295 0.303925 0.277910
O O11 0.481914 0.092537 0.713204
O O12 0.987827 0.092953 0.697301
O O13 0.297397 0.562922 0.106878
O O14 0.500000 0.626028 0.000000
O O15 0.472264 0.500000 0.181480
O O16 0.957699 0.500000 0.181477
#
# Coordination Sequence:
#
# PCOD9169660 Si02
#       8
#     8   8   8   8   8   8   4   4
#     4  10  19  30  42  62  83 108 140 166 206 251
#     4  10  18  27  41  62  89 122 151 168 192 241
#     4   8  14  23  37  54  75  98 124 158 197 222
#     4  10  17  28  42  60  85 111 139 173 205 231
#     4  10  18  27  42  59  82 109 138 174 205 240
#     4  10  18  29  43  59  82 106 133 167 204 250
#     4   8  15  26  42  60  76 104 136 158 189 242
#     4   8  16  28  41  56  84 110 129 166 200 238
#
# _framework density 22.225128000000002
#
# number of rings (size 3 to 8) (size 9 to 14) (size 15 to 20)
#    0.000    2.571    0.000    4.929    0.000    0.000 
#    0.000    4.286    0.000    0.000    0.000    0.000 
#    0.000  102.857    0.000    3.857    0.000    0.286 
#
# Total GULP energy -155899.133591 kJ/mol
# GULP energy per Si atom -5567.826200 kJ/mol
# Density = 2.217454 g / cm^3
# Si number density = 22.225128 Si / 1000 Ang^3
#
#
#
# Elastic Constant Matrix: (Units=GPa)
#
#
# Indices 1 2 3 4 5 6 
#
# 1 293.9800 2.7478 37.2716 0.0000 -11.7825 0.0000
# 2 2.7478 12.6833 2.8901 0.0000 3.4143 0.0000
# 3 37.2716 2.8901 79.6445 0.0000 -1.5074 0.0000
# 4 0.0000 0.0000 0.0000 17.0726 0.0000 6.0136
# 5 -11.7825 3.4143 -1.5074 0.0000 31.2966 0.0000
# 6 0.0000 0.0000 0.0000 6.0136 0.0000 15.2477
#
#
#
# Elastic Compliance Matrix: (Units=1/GPa)
#
#
# Indices 1 2 3 4 5 6 
#
# 1 0.003676 -0.000791 -0.001665 0.000000 0.001390 0.000000
# 2 -0.000791 0.082181 -0.002790 0.000000 -0.009398 0.000000
# 3 -0.001665 -0.002790 0.013442 0.000000 0.000325 0.000000
# 4 0.000000 0.000000 0.000000 0.068023 0.000000 -0.026828
# 5 0.001390 -0.009398 0.000325 0.000000 0.033516 0.000000
# 6 0.000000 0.000000 0.000000 -0.026828 0.000000 0.076165
#
#
# Mechanical properties :
#
#
# Convention : Reuss Voigt Hill
#
# Bulk Modulus (GPa) = 11.26034 52.45851 31.85942
# Shear Modulus (GPa) = 15.76799 35.61661 25.69230
#
# Velocity S-wave (km/s) = 2.66647 4.00751 3.40369
# Velocity P-wave (km/s) = 3.81544 6.71327 5.46011
#
# Compressibility (1/GPa) = 0.08880726
#
# Stress axis : x y z
#
# Youngs Moduli (GPa) = 272.04901 12.16825 74.39131
#
# Poissons Ratio (x) = 0.00963 0.12387
# Poissons Ratio (y) = 0.21521 0.20753
# Poissons Ratio (z) = 0.45301 0.03395
#
# Static dielectric constant tensor:
#      x y z
#    x 1.994050 0.000000 -0.001600 
#    y 0.000000 1.952830 0.000000 
#    z -0.001600 0.000000 1.775550 
# 
# From -- ./inp_files/298454.got.cif
#   From: 2010.05.17/outbox.cif.g08.bks.cpg/sg12_150_cif.got.tgz:298454.got - 2010.06.03 13:09:07.
