data_PCOD9169025
_publ_section_title
;
Structure prediction by ZEFSAII (Michael W. Deem and Ramdas Pophale) SiO2 
 PCOD9169025
Probable space group: C 2/M
;
_chemical_formula_sum "Si O2"
_cell_formula_units_Z 48
_cell_length_a 13.221134
_cell_length_b 21.344316
_cell_length_c 25.353231
_cell_angle_alpha 90.000000
_cell_angle_beta 160.747098
_cell_angle_gamma 90.000000
_cell_volume 2359.140850
_symmetry_space_group_name_H-M "C 2/M"
_symmetry_group_IT_number 12
_symmetry_cell_setting 'monoclinic'
loop_
_space_group_symop_operation_xyz
x,y,z
-x,y,-z
-x,-y,-z
x,-y,z
1/2+x,1/2+y,z
1/2-x,1/2+y,-z
1/2-x,1/2-y,-z
1/2+x,1/2-y,z
loop_
_atom_site_type_symbol
_atom_site_label
_atom_site_fract_x
_atom_site_fract_y
_atom_site_fract_z
Si Si1 0.686144 0.071056 0.380475
Si Si2 0.105134 0.924123 0.677809
Si Si3 0.894126 0.641613 0.146951
Si Si4 0.704491 0.344777 0.826205
Si Si5 0.569553 0.725655 0.130815
Si Si6 0.749743 0.772285 0.669004
O O1 0.435571 0.104296 0.221485
O O2 0.000000 0.070288 0.500000
O O3 0.817321 0.097219 0.499791
O O4 0.587965 0.000000 0.341156
O O5 0.417674 0.897336 0.804823
O O6 0.076818 0.892241 0.720410
O O7 0.113464 0.000000 0.682286
O O8 0.088741 0.704757 0.252788
O O9 0.561700 0.665116 0.964156
O O10 0.803408 0.279827 0.845013
O O11 0.478016 0.325476 0.761010
O O12 0.000000 0.372519 0.000000
O O13 0.803238 0.716047 0.294664
O O14 0.250000 0.750000 0.000000
O O15 0.500000 0.770547 0.500000
#
# Coordination Sequence:
#
# PCOD9169025 Si02
#       6
#     8   8   8   8   8   8
#     4   8  15  27  46  76 111 143 181 235 282 323
#     4  10  19  32  54  84 117 150 192 242 282 333
#     4  10  16  32  54  79 115 147 182 231 292 340
#     4  12  21  37  56  80 123 156 187 237 289 345
#     4  10  19  35  52  78 117 157 180 233 291 345
#     4  11  22  35  55  83 116 149 196 238 287 347
#
# _framework density 20.34639
#
# number of rings (size 3 to 8) (size 9 to 14) (size 15 to 20)
#    0.000    1.833    6.667    3.000    0.000    1.000 
#    0.000    0.000    0.000    0.500    0.000    9.333 
#    0.000    0.000    0.000    0.000    0.000    0.000 
#
# Total GULP energy -133800.235951 kJ/mol
# GULP energy per Si atom -5575.009831 kJ/mol
# Density = 2.030008 g / cm^3
# Si number density = 20.346390 Si / 1000 Ang^3
#
#
#
# Elastic Constant Matrix: (Units=GPa)
#
#
# Indices 1 2 3 4 5 6 
#
# 1 41.9382 15.5878 16.6649 0.0119 -24.3114 0.0152
# 2 15.5878 60.7279 12.8437 -0.0193 -16.8584 -0.1795
# 3 16.6649 12.8437 69.0100 -0.0739 -51.3005 -0.3403
# 4 0.0119 -0.0193 -0.0739 28.3757 0.0569 -23.8022
# 5 -24.3114 -16.8584 -51.3005 0.0569 44.7348 0.0257
# 6 0.0152 -0.1795 -0.3403 -23.8022 0.0257 0.8858
#
#
#
# Elastic Compliance Matrix: (Units=1/GPa)
#
#
# Indices 1 2 3 4 5 6 
#
# 1 0.061102 0.000872 0.067836 -0.000852 0.111329 -0.000930
# 2 0.000872 0.019915 0.013641 -0.000334 0.023623 -0.000400
# 3 0.067836 0.013641 0.181562 -0.002494 0.250221 -0.002916
# 4 -0.000852 -0.000334 -0.002494 -0.001601 -0.003422 -0.043922
# 5 0.111329 0.023623 0.250221 -0.003422 0.378710 -0.003914
# 6 -0.000930 -0.000400 -0.002916 -0.043922 -0.003914 -0.052362
#
#
# Mechanical properties :
#
#
# Convention : Reuss Voigt Hill
#
# Bulk Modulus (GPa) = 2.34040 29.09656 15.71848
# Shear Modulus (GPa) = 8.84872 23.23792 16.04332
#
# Velocity S-wave (km/s) = 2.08770 3.38319 2.81109
# Velocity P-wave (km/s) = 2.63895 5.43994 4.27534
#
# Compressibility (1/GPa) = 0.42727681
#
# Stress axis : x y z
#
# Youngs Moduli (GPa) = 16.36611 50.21447 5.50776
#
# Poissons Ratio (x) = -0.04377 -0.37363
# Poissons Ratio (y) = -0.01426 -0.07513
# Poissons Ratio (z) = -1.11022 -0.68499
#
# Static dielectric constant tensor:
#      x y z
#    x 1.788550 -0.000030 -0.020690 
#    y -0.000030 1.722200 -0.000040 
#    z -0.020690 -0.000040 1.812360 
# 
# From -- ./inp_files/361977.got.cif
#   From: 2010.05.17/outbox.cif.g08.bks.cpg/sg12_181_cif.got.tgz:361977.got - 2010.06.03 13:09:07.
