data_PCOD9169428
_publ_section_title
;
Structure prediction by ZEFSAII (Michael W. Deem and Ramdas Pophale) SiO2 
 PCOD9169428
Probable space group: C 2/M
;
_chemical_formula_sum "Si O2"
_cell_formula_units_Z 48
_cell_length_a 15.427900
_cell_length_b 13.686287
_cell_length_c 12.680568
_cell_angle_alpha 90.000000
_cell_angle_beta 92.133520
_cell_angle_gamma 90.000000
_cell_volume 2675.654303
_symmetry_space_group_name_H-M "C 2/M"
_symmetry_group_IT_number 12
_symmetry_cell_setting 'monoclinic'
loop_
_space_group_symop_operation_xyz
x,y,z
-x,y,-z
-x,-y,-z
x,-y,z
1/2+x,1/2+y,z
1/2-x,1/2+y,-z
1/2-x,1/2-y,-z
1/2+x,1/2-y,z
loop_
_atom_site_type_symbol
_atom_site_label
_atom_site_fract_x
_atom_site_fract_y
_atom_site_fract_z
Si Si1 0.441726 0.884406 0.894046
Si Si2 0.548865 0.288340 0.257252
Si Si3 0.900419 0.112474 0.537202
Si Si4 0.257113 0.618100 0.105012
Si Si5 0.636118 0.382044 0.692960
Si Si6 0.405159 0.617149 0.951986
O O1 0.462935 0.819309 0.792419
O O2 0.342529 0.858725 0.918558
O O3 0.447506 0.000000 0.870912
O O4 0.500000 0.865630 0.000000
O O5 0.599804 0.310586 0.367758
O O6 0.453733 0.334915 0.271628
O O7 0.597822 0.345934 0.166770
O O8 0.848048 0.140116 0.429302
O O9 0.000000 0.109396 0.500000
O O10 0.879677 0.000000 0.569374
O O11 0.261829 0.500000 0.103735
O O12 0.289298 0.648611 0.222549
O O13 0.327167 0.652464 0.022636
O O14 0.625212 0.500000 0.698388
O O15 0.403097 0.500000 0.952497
O O16 0.500000 0.646198 0.000000
#
# Coordination Sequence:
#
# PCOD9169428 Si02
#       6
#     8   8   8   8   8   8
#     4  10  23  40  51  65  95 142 192 220 241 282
#     4  11  18  29  49  76 103 135 166 203 250 302
#     4   8  15  27  48  79 112 135 152 188 253 327
#     4   9  18  33  52  74 103 136 167 206 255 304
#     4   9  16  30  54  83 110 130 154 197 262 326
#     4  10  17  26  46  80 113 127 147 200 267 325
#
# _framework density 17.939537000000001
#
# number of rings (size 3 to 8) (size 9 to 14) (size 15 to 20)
#    0.000    2.500    1.667    3.000    0.000    0.667 
#    0.000    0.833    0.000    4.500    0.000    0.000 
#    0.000    0.000    0.000    0.000    0.000    0.000 
#
# Total GULP energy -133720.489702 kJ/mol
# GULP energy per Si atom -5571.687071 kJ/mol
# Density = 1.789871 g / cm^3
# Si number density = 17.939537 Si / 1000 Ang^3
#
#
#
# Elastic Constant Matrix: (Units=GPa)
#
#
# Indices 1 2 3 4 5 6 
#
# 1 89.9302 18.0686 62.4355 0.0000 18.3280 0.0000
# 2 18.0686 87.6724 57.4237 0.0000 2.5668 0.0000
# 3 62.4355 57.4237 157.4407 0.0000 13.7200 0.0000
# 4 0.0000 0.0000 0.0000 26.2813 0.0000 -6.1505
# 5 18.3280 2.5668 13.7200 0.0000 17.0033 0.0000
# 6 0.0000 0.0000 0.0000 -6.1505 0.0000 -2.6823
#
#
#
# Elastic Compliance Matrix: (Units=1/GPa)
#
#
# Indices 1 2 3 4 5 6 
#
# 1 0.018331 0.000751 -0.006251 0.000000 -0.014828 0.000000
# 2 0.000751 0.015102 -0.005955 0.000000 0.001717 0.000000
# 3 -0.006251 -0.005955 0.011119 0.000000 -0.001335 0.000000
# 4 0.000000 0.000000 0.000000 0.024762 0.000000 -0.056780
# 5 -0.014828 0.001717 -0.001335 0.000000 0.075614 0.000000
# 6 0.000000 0.000000 0.000000 -0.056780 0.000000 -0.242621
#
#
# Mechanical properties :
#
#
# Convention : Reuss Voigt Hill
#
# Bulk Modulus (GPa) = 46.21056 67.87765 57.04410
# Shear Modulus (GPa) = -73.99810 21.26149 -26.36830
#
# Velocity S-wave (km/s) = -6.42948 3.44637 -3.83801
# Velocity P-wave (km/s) = 5.41318 7.33183 3.49665
#
# Compressibility (1/GPa) = 0.02164008
#
# Stress axis : x y z
#
# Youngs Moduli (GPa) = 54.55304 66.21734 89.93682
#
# Poissons Ratio (x) = -0.04970 0.56219
# Poissons Ratio (y) = -0.04094 0.53560
# Poissons Ratio (z) = 0.34100 0.39435
#
# Static dielectric constant tensor:
#      x y z
#    x 1.623160 0.000000 0.038350 
#    y 0.000000 1.639440 0.000000 
#    z 0.038350 0.000000 1.649140 
# 
# From -- ./inp_files/142992.got.cif
#   From: 2010.05.17/outbox.cif.g08.bks.cpg/sg12_72_cif.got.tgz:142992.got - 2010.06.03 13:09:07.
