data_PCOD9169208
_publ_section_title
;
Structure prediction by ZEFSAII (Michael W. Deem and Ramdas Pophale) SiO2 
 PCOD9169208
Probable space group: C 2/M
;
_chemical_formula_sum "Si O2"
_cell_formula_units_Z 64
_cell_length_a 22.248901
_cell_length_b 14.132091
_cell_length_c 14.178350
_cell_angle_alpha 90.000000
_cell_angle_beta 67.056844
_cell_angle_gamma 90.000000
_cell_volume 4105.342600
_symmetry_space_group_name_H-M "C 2/M"
_symmetry_group_IT_number 12
_symmetry_cell_setting 'monoclinic'
loop_
_space_group_symop_operation_xyz
x,y,z
-x,y,-z
-x,-y,-z
x,-y,z
1/2+x,1/2+y,z
1/2-x,1/2+y,-z
1/2-x,1/2-y,-z
1/2+x,1/2-y,z
loop_
_atom_site_type_symbol
_atom_site_label
_atom_site_fract_x
_atom_site_fract_y
_atom_site_fract_z
Si Si1 0.016926 0.114373 0.882120
Si Si2 0.565189 0.390140 0.561831
Si Si3 0.520935 0.894594 0.378276
Si Si4 0.568537 0.391319 0.237274
Si Si5 0.119217 0.391104 0.628830
Si Si6 0.277586 0.188424 0.571897
Si Si7 0.138077 0.809133 0.697615
Si Si8 0.382726 0.727650 0.642647
O O1 0.085398 0.157324 0.805863
O O2 0.960127 0.146389 0.843938
O O3 0.021524 0.000000 0.868783
O O4 0.000000 0.136454 0.000000
O O5 0.578536 0.500000 0.530050
O O6 0.494701 0.386854 0.654562
O O7 0.613074 0.350978 0.612993
O O8 0.575633 0.325771 0.464394
O O9 0.500000 0.898582 0.500000
O O10 0.454758 0.871450 0.361614
O O11 0.577120 0.817127 0.342521
O O12 0.542671 0.000000 0.336441
O O13 0.586754 0.500000 0.212678
O O14 0.623855 0.338086 0.261792
O O15 0.122486 0.500000 0.660515
O O16 0.169575 0.380086 0.510041
O O17 0.136886 0.305380 0.688464
O O18 0.250000 0.250000 0.500000
O O19 0.211578 0.152677 0.661644
O O20 0.317779 0.244725 0.626422
#
# Coordination Sequence:
#
# PCOD9169208 Si02
#       8
#     8   8   8   8   8   8   8   8
#     4   9  18  34  57  79  94 113 149 201 258 306
#     4  10  18  27  43  66  93 127 157 191 240 287
#     4  10  17  25  38  57  79 117 162 195 221 246
#     4   9  18  28  44  72  95 116 153 195 247 295
#     4  10  19  30  45  65  95 132 168 194 223 270
#     4  10  20  31  40  63  97 137 171 185 215 280
#     4  10  18  34  46  68  98 128 161 197 235 285
#     4  12  18  28  43  61  98 130 159 196 225 274
#
# _framework density 15.589442999999999
#
# number of rings (size 3 to 8) (size 9 to 14) (size 15 to 20)
#    0.000    2.000    3.750    4.125    0.000    2.000 
#    0.000    0.625    0.000    1.125    0.000    0.000 
#    0.000    0.000    0.000    0.000    0.000    0.000 
#
# Total GULP energy -178169.494603 kJ/mol
# GULP energy per Si atom -5567.796706 kJ/mol
# Density = 1.555396 g / cm^3
# Si number density = 15.589443 Si / 1000 Ang^3
#
#
#
# Elastic Constant Matrix: (Units=GPa)
#
#
# Indices 1 2 3 4 5 6 
#
# 1 82.7775 28.6900 28.3389 0.0000 5.1999 0.0000
# 2 28.6900 60.0970 18.8382 0.0000 1.9901 0.0000
# 3 28.3389 18.8382 73.1695 0.0000 6.6415 0.0000
# 4 0.0000 0.0000 0.0000 14.3772 0.0000 0.6715
# 5 5.1999 1.9901 6.6415 0.0000 12.7669 0.0000
# 6 0.0000 0.0000 0.0000 0.6715 0.0000 22.4128
#
#
#
# Elastic Compliance Matrix: (Units=1/GPa)
#
#
# Indices 1 2 3 4 5 6 
#
# 1 0.015874 -0.006130 -0.004271 0.000000 -0.003288 0.000000
# 2 -0.006130 0.020470 -0.002973 0.000000 0.000853 0.000000
# 3 -0.004271 -0.002973 0.016674 0.000000 -0.006471 0.000000
# 4 0.000000 0.000000 0.000000 0.069652 0.000000 -0.002087
# 5 -0.003288 0.000853 -0.006471 0.000000 0.082900 0.000000
# 6 0.000000 0.000000 0.000000 -0.002087 0.000000 0.044680
#
#
# Mechanical properties :
#
#
# Convention : Reuss Voigt Hill
#
# Bulk Modulus (GPa) = 38.06884 40.86424 39.46654
# Shear Modulus (GPa) = 17.49740 19.25650 18.37695
#
# Velocity S-wave (km/s) = 3.35384 3.51839 3.43710
# Velocity P-wave (km/s) = 6.28254 6.54027 6.41270
#
# Compressibility (1/GPa) = 0.02626821
#
# Stress axis : x y z
#
# Youngs Moduli (GPa) = 62.99542 48.85151 59.97332
#
# Poissons Ratio (x) = 0.29948 0.25617
# Poissons Ratio (y) = 0.38619 0.17832
# Poissons Ratio (z) = 0.26908 0.14525
#
# Static dielectric constant tensor:
#      x y z
#    x 1.567750 0.000000 0.005050 
#    y 0.000000 1.578700 0.000000 
#    z 0.005050 0.000000 1.497830 
# 
# From -- ./inp_files/233132.got.cif
#   From: 2010.05.17/outbox.cif.g08.bks.cpg/sg12_117_cif.got.tgz:233132.got - 2010.06.03 13:09:07.
