data_PCOD9169714
_publ_section_title
;
Structure prediction by ZEFSAII (Michael W. Deem and Ramdas Pophale) SiO2 
 PCOD9169714
Probable space group: C 2/M
;
_chemical_formula_sum "Si O2"
_cell_formula_units_Z 48
_cell_length_a 31.474751
_cell_length_b 9.008466
_cell_length_c 10.566583
_cell_angle_alpha 90.000000
_cell_angle_beta 77.934286
_cell_angle_gamma 90.000000
_cell_volume 2929.853707
_symmetry_space_group_name_H-M "C 2/M"
_symmetry_group_IT_number 12
_symmetry_cell_setting 'monoclinic'
loop_
_space_group_symop_operation_xyz
x,y,z
-x,y,-z
-x,-y,-z
x,-y,z
1/2+x,1/2+y,z
1/2-x,1/2+y,-z
1/2-x,1/2-y,-z
1/2+x,1/2-y,z
loop_
_atom_site_type_symbol
_atom_site_label
_atom_site_fract_x
_atom_site_fract_y
_atom_site_fract_z
Si Si1 0.386628 0.178081 0.302564
Si Si2 0.531617 0.178444 0.361535
Si Si3 0.115382 0.821249 0.417950
Si Si4 0.788407 0.171079 0.639893
Si Si5 0.020809 0.319509 0.856476
Si Si6 0.701477 0.670235 0.673331
O O1 0.390913 0.249810 0.439225
O O2 0.429115 0.222710 0.196814
O O3 0.341343 0.234303 0.272779
O O4 0.385930 0.000000 0.316323
O O5 0.500000 0.210376 0.500000
O O6 0.577006 0.260159 0.355186
O O7 0.507416 0.224016 0.248100
O O8 0.538464 0.000000 0.355330
O O9 0.164128 0.779873 0.342327
O O10 0.114160 0.000000 0.429466
O O11 0.746396 0.266555 0.699893
O O12 0.793090 0.174815 0.483456
O O13 0.780991 0.000000 0.680281
O O14 0.020210 0.500000 0.859192
O O15 0.000000 0.265745 0.000000
O O16 0.694721 0.500000 0.713729
#
# Coordination Sequence:
#
# PCOD9169714 Si02
#       6
#     8   8   8   8   8   8
#     4  10  17  28  46  66  91 124 160 194 233 277
#     4  10  18  31  49  71  93 121 161 196 232 278
#     4  10  19  29  44  68  96 124 155 192 237 280
#     4   8  15  26  38  58  89 122 153 185 226 280
#     4   9  18  32  49  69  94 124 160 198 231 273
#     4   9  16  25  39  62  91 121 153 189 234 281
#
# _framework density 16.38307
#
# number of rings (size 3 to 8) (size 9 to 14) (size 15 to 20)
#    0.000    2.667    1.667    2.500    0.000    5.000 
#    0.000    0.000    0.000    4.500    0.000    1.167 
#    0.000    0.000    0.000    0.000    0.000    0.000 
#
# Total GULP energy -133694.674759 kJ/mol
# GULP energy per Si atom -5570.611448 kJ/mol
# Density = 1.634578 g / cm^3
# Si number density = 16.383070 Si / 1000 Ang^3
#
#
#
# Elastic Constant Matrix: (Units=GPa)
#
#
# Indices 1 2 3 4 5 6 
#
# 1 165.7572 55.4594 52.6763 0.0000 -22.3847 0.0000
# 2 55.4594 50.7106 23.4231 0.0000 -9.5035 0.0000
# 3 52.6763 23.4231 67.6155 0.0000 -6.4153 0.0000
# 4 0.0000 0.0000 0.0000 4.9644 0.0000 -2.9792
# 5 -22.3847 -9.5035 -6.4153 0.0000 15.2990 0.0000
# 6 0.0000 0.0000 0.0000 -2.9792 0.0000 32.9539
#
#
#
# Elastic Compliance Matrix: (Units=1/GPa)
#
#
# Indices 1 2 3 4 5 6 
#
# 1 0.012024 -0.008818 -0.005377 0.000000 0.009860 0.000000
# 2 -0.008818 0.032117 -0.003736 0.000000 0.005482 0.000000
# 3 -0.005377 -0.003736 0.020106 0.000000 -0.001757 0.000000
# 4 0.000000 0.000000 0.000000 0.212988 0.000000 0.019255
# 5 0.009860 0.005482 -0.001757 0.000000 0.082459 0.000000
# 6 0.000000 0.000000 0.000000 0.019255 0.000000 0.032086
#
#
# Mechanical properties :
#
#
# Convention : Reuss Voigt Hill
#
# Bulk Modulus (GPa) = 35.23054 60.80011 48.01533
# Shear Modulus (GPa) = 11.43897 20.81175 16.12536
#
# Velocity S-wave (km/s) = 2.64525 3.56802 3.14071
# Velocity P-wave (km/s) = 5.55704 7.35979 6.52101
#
# Compressibility (1/GPa) = 0.02838446
#
# Stress axis : x y z
#
# Youngs Moduli (GPa) = 83.17007 31.13664 49.73696
#
# Poissons Ratio (x) = 0.27457 0.26742
# Poissons Ratio (y) = 0.73341 0.18580
# Poissons Ratio (z) = 0.44719 0.11632
#
# Static dielectric constant tensor:
#      x y z
#    x 1.572550 0.000000 -0.008010 
#    y 0.000000 1.546670 0.000000 
#    z -0.008010 0.000000 1.526090 
# 
# From -- ./inp_files/185751.got.cif
#   From: 2010.05.17/outbox.cif.g08.bks.cpg/sg12_93_cif.got.tgz:185751.got - 2010.06.03 13:09:07.
