data_PCOD9169863
_publ_section_title
;
Structure prediction by ZEFSAII (Michael W. Deem and Ramdas Pophale) SiO2 
 PCOD9169863
Probable space group: C 2/M
;
_chemical_formula_sum "Si O2"
_cell_formula_units_Z 48
_cell_length_a 17.908164
_cell_length_b 12.812303
_cell_length_c 12.250188
_cell_angle_alpha 90.000000
_cell_angle_beta 51.544438
_cell_angle_gamma 90.000000
_cell_volume 2201.066198
_symmetry_space_group_name_H-M "C 2/M"
_symmetry_group_IT_number 12
_symmetry_cell_setting 'monoclinic'
loop_
_space_group_symop_operation_xyz
x,y,z
-x,y,-z
-x,-y,-z
x,-y,z
1/2+x,1/2+y,z
1/2-x,1/2+y,-z
1/2-x,1/2-y,-z
1/2+x,1/2-y,z
loop_
_atom_site_type_symbol
_atom_site_label
_atom_site_fract_x
_atom_site_fract_y
_atom_site_fract_z
Si Si1 0.455257 0.378434 0.791947
Si Si2 0.249362 0.286219 0.376690
Si Si3 0.138909 0.877678 0.892832
Si Si4 0.066366 0.500000 0.269487
Si Si5 0.097094 0.882155 0.482273
Si Si6 0.362859 0.000000 0.541873
Si Si7 0.822940 0.301516 0.851623
O O1 0.423685 0.500000 0.806309
O O2 0.559353 0.373386 0.642187
O O3 0.394611 0.296127 0.775913
O O4 0.433749 0.356444 0.940339
O O5 0.250000 0.250000 0.500000
O O6 0.349684 0.301943 0.221786
O O7 0.177537 0.202985 0.385572
O O8 0.198721 0.398144 0.422462
O O9 0.245984 0.857803 0.842731
O O10 0.126254 0.000000 0.874587
O O11 0.098159 0.500000 0.368905
O O12 0.109227 0.396856 0.176628
O O13 0.953179 0.500000 0.379560
O O14 0.000000 0.871850 0.500000
O O15 0.133271 0.000000 0.432445
O O16 0.750000 0.250000 0.000000
#
# Coordination Sequence:
#
# PCOD9169863 Si02
#       7
#     8   8   8   4   8   4   8
#     4   9  19  33  56  84 120 158 195 247 298 360
#     4  12  24  38  64  87 122 159 208 259 311 369
#     4  10  18  36  56  83 117 153 204 250 294 352
#     4  11  20  36  62  95 120 152 202 255 306 362
#     4  10  22  39  60  91 128 161 196 247 308 372
#     4  11  24  38  64  87 118 160 204 267 309 360
#     4  10  17  28  55  85 123 150 189 239 299 355
#
# _framework density 21.807613
#
# number of rings (size 3 to 8) (size 9 to 14) (size 15 to 20)
#    0.000    1.667    3.333    2.000    4.667    0.000 
#    0.000    0.833    1.833    3.000    0.000    5.833 
#    0.000    0.000    0.000    0.000    0.000    0.000 
#
# Total GULP energy -133686.169674 kJ/mol
# GULP energy per Si atom -5570.257070 kJ/mol
# Density = 2.175798 g / cm^3
# Si number density = 21.807613 Si / 1000 Ang^3
#
#
#
# Elastic Constant Matrix: (Units=GPa)
#
#
# Indices 1 2 3 4 5 6 
#
# 1 36.5459 36.3559 17.3790 0.0000 -1.9488 0.0000
# 2 36.3559 152.4731 58.1096 0.0000 -16.7705 0.0000
# 3 17.3790 58.1096 142.8674 0.0000 -10.2302 0.0000
# 4 0.0000 0.0000 0.0000 70.1827 0.0000 5.5418
# 5 -1.9488 -16.7705 -10.2302 0.0000 40.4046 0.0000
# 6 0.0000 0.0000 0.0000 5.5418 0.0000 11.5403
#
#
#
# Elastic Compliance Matrix: (Units=1/GPa)
#
#
# Indices 1 2 3 4 5 6 
#
# 1 0.036163 -0.008420 -0.001120 0.000000 -0.002034 0.000000
# 2 -0.008420 0.009971 -0.002815 0.000000 0.003020 0.000000
# 3 -0.001120 -0.002815 0.008345 0.000000 0.000890 0.000000
# 4 0.000000 0.000000 0.000000 0.014810 0.000000 -0.007112
# 5 -0.002034 0.003020 0.000890 0.000000 0.026130 0.000000
# 6 0.000000 0.000000 0.000000 -0.007112 0.000000 0.090068
#
#
# Mechanical properties :
#
#
# Convention : Reuss Voigt Hill
#
# Bulk Modulus (GPa) = 33.59220 61.73061 47.66141
# Shear Modulus (GPa) = 22.71492 39.09499 30.90495
#
# Velocity S-wave (km/s) = 3.23089 4.23865 3.76861
# Velocity P-wave (km/s) = 5.41808 7.23348 6.39057
#
# Compressibility (1/GPa) = 0.02976881
#
# Stress axis : x y z
#
# Youngs Moduli (GPa) = 27.65266 100.28901 119.83848
#
# Poissons Ratio (x) = 0.84439 0.13423
# Poissons Ratio (y) = 0.23282 0.33737
# Poissons Ratio (z) = 0.03097 0.28234
#
# Static dielectric constant tensor:
#      x y z
#    x 1.876400 0.000000 0.096650 
#    y 0.000000 1.744920 0.000000 
#    z 0.096650 0.000000 1.892710 
# 
# From -- ./inp_files/164738.got.cif
#   From: 2010.05.17/outbox.cif.g08.bks.cpg/sg12_83_cif.got.tgz:164738.got - 2010.06.03 13:09:07.
