data_PCOD9169383
_publ_section_title
;
Structure prediction by ZEFSAII (Michael W. Deem and Ramdas Pophale) SiO2 
 PCOD9169383
Probable space group: C 2/M
;
_chemical_formula_sum "Si O2"
_cell_formula_units_Z 64
_cell_length_a 26.143573
_cell_length_b 17.905058
_cell_length_c 24.741214
_cell_angle_alpha 90.000000
_cell_angle_beta 21.519278
_cell_angle_gamma 90.000000
_cell_volume 4248.228698
_symmetry_space_group_name_H-M "C 2/M"
_symmetry_group_IT_number 12
_symmetry_cell_setting 'monoclinic'
loop_
_space_group_symop_operation_xyz
x,y,z
-x,y,-z
-x,-y,-z
x,-y,z
1/2+x,1/2+y,z
1/2-x,1/2+y,-z
1/2-x,1/2-y,-z
1/2+x,1/2-y,z
loop_
_atom_site_type_symbol
_atom_site_label
_atom_site_fract_x
_atom_site_fract_y
_atom_site_fract_z
Si Si1 0.035769 0.230381 0.779086
Si Si2 0.637522 0.586433 0.437481
Si Si3 0.676399 0.311218 0.499666
Si Si4 0.178754 0.679532 0.960178
Si Si5 0.582904 0.776302 0.217431
Si Si6 0.199000 0.584937 0.045775
Si Si7 0.534541 0.585919 0.730053
Si Si8 0.194064 0.913871 0.257984
O O1 0.175912 0.276118 0.630193
O O2 0.935707 0.243560 0.825158
O O3 0.059001 0.141827 0.756371
O O4 0.955838 0.267446 0.907268
O O5 0.669342 0.500000 0.421205
O O6 0.686035 0.645761 0.433663
O O7 0.469081 0.591739 0.598498
O O8 0.697951 0.600296 0.318277
O O9 0.564614 0.243459 0.610194
O O10 0.616651 0.372652 0.600674
O O11 0.305027 0.730403 0.858473
O O12 0.218596 0.641077 0.865229
O O13 0.158436 0.616543 0.026569
O O14 0.633934 0.859930 0.154825
O O15 0.151980 0.500000 0.098867
O O16 0.368014 0.585346 0.882248
O O17 0.578062 0.500000 0.693725
O O18 0.236136 0.000000 0.207218
#
# Coordination Sequence:
#
# PCOD9169383 Si02
#       8
#     8   8   8   8   8   8   8   8
#     4  10  20  31  41  66  93 121 154 188 221 269
#     4   9  17  30  47  70  94 117 156 197 224 261
#     4  11  19  30  46  65  92 127 154 178 228 274
#     4  11  16  30  47  64  90 122 155 183 227 263
#     4  10  17  30  45  63  89 118 154 187 223 261
#     4  10  17  26  44  68  90 115 153 189 219 261
#     4  10  17  28  45  65  88 119 155 183 218 269
#     4   9  17  29  48  72  92 116 157 199 224 255
#
# _framework density 15.065103000000001
#
# number of rings (size 3 to 8) (size 9 to 14) (size 15 to 20)
#    0.000    2.000    5.000    3.750    0.000    2.000 
#    0.000   10.000    0.000    1.500    0.000    0.000 
#    0.000    6.000    0.000    0.000    0.000    0.000 
#
# Total GULP energy -178188.566848 kJ/mol
# GULP energy per Si atom -5568.392714 kJ/mol
# Density = 1.503081 g / cm^3
# Si number density = 15.065103 Si / 1000 Ang^3
#
#
#
# Elastic Constant Matrix: (Units=GPa)
#
#
# Indices 1 2 3 4 5 6 
#
# 1 25.3600 29.7635 21.2442 -0.0018 11.7700 0.0005
# 2 29.7635 129.4831 47.6823 -0.0071 12.2338 0.0032
# 3 21.2442 47.6823 74.5682 -0.0040 8.1026 0.0027
# 4 -0.0018 -0.0071 -0.0040 26.0860 0.0032 8.2952
# 5 11.7700 12.2338 8.1026 0.0032 16.7559 -0.0006
# 6 0.0005 0.0032 0.0027 8.2952 -0.0006 17.4951
#
#
#
# Elastic Compliance Matrix: (Units=1/GPa)
#
#
# Indices 1 2 3 4 5 6 
#
# 1 0.082153 -0.010263 -0.012017 0.000008 -0.044403 -0.000004
# 2 -0.010263 0.011714 -0.004666 0.000002 0.000913 -0.000002
# 3 -0.012017 -0.004666 0.019558 0.000001 0.002390 -0.000002
# 4 0.000008 0.000002 0.000001 0.045141 -0.000017 -0.021403
# 5 -0.044403 0.000913 0.002390 -0.000017 0.089049 0.000012
# 6 -0.000004 -0.000002 -0.000002 -0.021403 0.000012 0.067307
#
#
# Mechanical properties :
#
#
# Convention : Reuss Voigt Hill
#
# Bulk Modulus (GPa) = 16.79766 47.42124 32.10945
# Shear Modulus (GPa) = 12.86479 20.78216 16.82348
#
# Velocity S-wave (km/s) = 2.92541 3.71818 3.34536
# Velocity P-wave (km/s) = 4.75236 7.06958 6.02345
#
# Compressibility (1/GPa) = 0.05953210
#
# Stress axis : x y z
#
# Youngs Moduli (GPa) = 12.17245 85.36726 51.13006
#
# Poissons Ratio (x) = 0.87615 0.61445
# Poissons Ratio (y) = 0.12493 0.23856
# Poissons Ratio (z) = 0.14628 0.39830
#
# Static dielectric constant tensor:
#      x y z
#    x 1.491360 0.000000 -0.004870 
#    y 0.000000 1.526520 0.000000 
#    z -0.004870 0.000000 1.532930 
# 
# From -- ./inp_files/352270.got.cif
#   From: 2010.05.17/outbox.cif.g08.bks.cpg/sg12_177_cif.got.tgz:352270.got - 2010.06.03 13:09:07.
