data_PCOD9169515
_publ_section_title
;
Structure prediction by ZEFSAII (Michael W. Deem and Ramdas Pophale) SiO2 
 PCOD9169515
Probable space group: C 2/M
;
_chemical_formula_sum "Si O2"
_cell_formula_units_Z 48
_cell_length_a 25.094092
_cell_length_b 8.595608
_cell_length_c 15.747789
_cell_angle_alpha 90.000000
_cell_angle_beta 61.703193
_cell_angle_gamma 90.000000
_cell_volume 2990.879358
_symmetry_space_group_name_H-M "C 2/M"
_symmetry_group_IT_number 12
_symmetry_cell_setting 'monoclinic'
loop_
_space_group_symop_operation_xyz
x,y,z
-x,y,-z
-x,-y,-z
x,-y,z
1/2+x,1/2+y,z
1/2-x,1/2+y,-z
1/2-x,1/2-y,-z
1/2+x,1/2-y,z
loop_
_atom_site_type_symbol
_atom_site_label
_atom_site_fract_x
_atom_site_fract_y
_atom_site_fract_z
Si Si1 0.204364 0.813843 0.153226
Si Si2 0.069607 0.188398 0.945977
Si Si3 0.337972 0.186222 0.988273
Si Si4 0.316542 0.686773 0.473980
Si Si5 0.653913 0.311113 0.729359
Si Si6 0.292079 0.186180 0.666921
O O1 0.165008 0.748415 0.105406
O O2 0.187211 0.750404 0.258334
O O3 0.202010 0.000000 0.154560
O O4 0.273988 0.765179 0.080086
O O5 0.104865 0.242633 0.834514
O O6 0.070620 0.000000 0.945801
O O7 0.107552 0.247188 0.997601
O O8 0.000000 0.239116 0.000000
O O9 0.340058 0.000000 0.986173
O O10 0.314948 0.500000 0.479759
O O11 0.250000 0.750000 0.500000
O O12 0.355888 0.733476 0.361761
O O13 0.329202 0.753872 0.557369
O O14 0.654130 0.500000 0.731049
O O15 0.721709 0.262085 0.706269
O O16 0.292716 0.000000 0.666936
#
# Coordination Sequence:
#
# PCOD9169515 Si02
#       6
#     8   8   8   8   8   8
#     4  10  19  30  47  69  93 124 156 189 232 284
#     4  10  19  32  50  69  92 126 164 196 228 270
#     4  10  20  32  46  67  94 124 156 194 235 276
#     4   9  16  26  40  61  90 121 154 189 229 278
#     4   8  15  27  42  62  90 122 153 191 228 265
#     4  10  17  27  44  66  94 123 151 187 232 282
#
# _framework density 16.048791999999999
#
# number of rings (size 3 to 8) (size 9 to 14) (size 15 to 20)
#    0.000    2.500    1.667    3.000    0.000    1.667 
#    0.000    0.833    0.000    0.000    0.000    1.167 
#    0.000    9.333    0.000    0.000    0.000    0.000 
#
# Total GULP energy -133720.539006 kJ/mol
# GULP energy per Si atom -5571.689125 kJ/mol
# Density = 1.601226 g / cm^3
# Si number density = 16.048792 Si / 1000 Ang^3
#
#
#
# Elastic Constant Matrix: (Units=GPa)
#
#
# Indices 1 2 3 4 5 6 
#
# 1 83.1477 21.3224 66.6237 0.0000 13.5006 0.0000
# 2 21.3224 30.1071 28.3535 0.0000 6.3273 0.0000
# 3 66.6237 28.3535 152.2780 0.0000 32.9774 0.0000
# 4 0.0000 0.0000 0.0000 23.4189 0.0000 8.0466
# 5 13.5006 6.3273 32.9774 0.0000 24.4179 0.0000
# 6 0.0000 0.0000 0.0000 8.0466 0.0000 17.6800
#
#
#
# Elastic Compliance Matrix: (Units=1/GPa)
#
#
# Indices 1 2 3 4 5 6 
#
# 1 0.019709 -0.007087 -0.007549 0.000000 0.001135 0.000000
# 2 -0.007087 0.042829 -0.004691 0.000000 -0.000844 0.000000
# 3 -0.007549 -0.004691 0.013535 0.000000 -0.012890 0.000000
# 4 0.000000 0.000000 0.000000 0.050616 0.000000 -0.023036
# 5 0.001135 -0.000844 -0.012890 0.000000 0.057953 0.000000
# 6 0.000000 0.000000 0.000000 -0.023036 0.000000 0.067045
#
#
# Mechanical properties :
#
#
# Convention : Reuss Voigt Hill
#
# Bulk Modulus (GPa) = 26.72515 55.34801 41.03658
# Shear Modulus (GPa) = 16.51180 23.05224 19.78202
#
# Velocity S-wave (km/s) = 3.21105 3.79408 3.51467
# Velocity P-wave (km/s) = 5.51692 7.33182 6.48814
#
# Compressibility (1/GPa) = 0.03741794
#
# Stress axis : x y z
#
# Youngs Moduli (GPa) = 50.73877 23.34852 73.88514
#
# Poissons Ratio (x) = 0.16548 0.55776
# Poissons Ratio (y) = 0.35960 0.34659
# Poissons Ratio (z) = 0.38303 0.10953
#
# Static dielectric constant tensor:
#      x y z
#    x 1.510810 0.000000 0.012210 
#    y 0.000000 1.536230 0.000000 
#    z 0.012210 0.000000 1.575370 
# 
# From -- ./inp_files/236598.got.cif
#   From: 2010.05.17/outbox.cif.g08.bks.cpg/sg12_119_cif.got.tgz:236598.got - 2010.06.03 13:09:07.
