data_PCOD9169429
_publ_section_title
;
Structure prediction by ZEFSAII (Michael W. Deem and Ramdas Pophale) SiO2 
 PCOD9169429
Probable space group: C 2/M
;
_chemical_formula_sum "Si O2"
_cell_formula_units_Z 60
_cell_length_a 25.860415
_cell_length_b 15.917621
_cell_length_c 11.445065
_cell_angle_alpha 90.000000
_cell_angle_beta 135.019793
_cell_angle_gamma 90.000000
_cell_volume 3330.173307
_symmetry_space_group_name_H-M "C 2/M"
_symmetry_group_IT_number 12
_symmetry_cell_setting 'monoclinic'
loop_
_space_group_symop_operation_xyz
x,y,z
-x,y,-z
-x,-y,-z
x,-y,z
1/2+x,1/2+y,z
1/2-x,1/2+y,-z
1/2-x,1/2-y,-z
1/2+x,1/2-y,z
loop_
_atom_site_type_symbol
_atom_site_label
_atom_site_fract_x
_atom_site_fract_y
_atom_site_fract_z
Si Si1 0.744148 0.092952 0.709807
Si Si2 0.400855 0.312247 0.647628
Si Si3 0.786008 0.255807 0.931448
Si Si4 0.053158 0.764692 0.876956
Si Si5 0.852898 0.368265 0.654904
Si Si6 0.597849 0.405625 0.120551
Si Si7 0.237741 0.900544 0.679563
Si Si8 0.500000 0.143224 0.000000
O O1 0.756460 0.173846 0.811754
O O2 0.674515 0.098471 0.513612
O O3 0.813899 0.095478 0.734564
O O4 0.745810 0.000000 0.770415
O O5 0.472895 0.280059 0.694270
O O6 0.362702 0.231427 0.646504
O O7 0.428981 0.366551 0.802123
O O8 0.342208 0.366386 0.484569
O O9 0.763642 0.339532 0.824997
O O10 0.750000 0.250000 0.000000
O O11 0.874833 0.258434 0.080338
O O12 0.037776 0.699502 0.958617
O O13 0.077755 0.849968 0.978767
O O14 0.793301 0.385749 0.659671
O O15 0.931566 0.400212 0.826881
O O16 0.574133 0.500000 0.066767
O O17 0.236620 0.000000 0.704143
#
# Coordination Sequence:
#
# PCOD9169429 Si02
#       8
#     8   8   8   8   8   8   8   4
#     4  10  20  35  59  88 114 149 199 246 293 359
#     4  11  19  31  54  83 119 155 186 236 297 365
#     4  11  24  43  63  82 113 165 213 248 291 347
#     4  10  19  34  54  82 116 153 196 242 294 348
#     4  11  18  34  58  87 123 152 188 243 310 368
#     4  10  17  26  46  82 120 149 178 221 286 357
#     4  12  23  36  59  92 125 159 197 246 307 371
#     4  10  18  32  58  84 122 152 186 246 315 364
#
# _framework density 18.01708
#
# number of rings (size 3 to 8) (size 9 to 14) (size 15 to 20)
#    0.000    1.333    6.667    2.000    0.000    2.133 
#    0.000    2.000    0.000    0.800    0.000    3.733 
#    0.000    0.000    0.000    0.000    0.000    0.000 
#
# Total GULP energy -167185.354852 kJ/mol
# GULP energy per Si atom -5572.845162 kJ/mol
# Density = 1.797607 g / cm^3
# Si number density = 18.017080 Si / 1000 Ang^3
#
#
#
# Elastic Constant Matrix: (Units=GPa)
#
#
# Indices 1 2 3 4 5 6 
#
# 1 115.6372 38.8448 44.0897 0.0000 9.5172 0.0000
# 2 38.8448 120.6691 38.4908 0.0000 3.2180 0.0000
# 3 44.0897 38.4908 76.7521 0.0000 21.3723 0.0000
# 4 0.0000 0.0000 0.0000 9.7413 0.0000 3.3147
# 5 9.5172 3.2180 21.3723 0.0000 27.1830 0.0000
# 6 0.0000 0.0000 0.0000 3.3147 0.0000 7.1226
#
#
#
# Elastic Compliance Matrix: (Units=1/GPa)
#
#
# Indices 1 2 3 4 5 6 
#
# 1 0.011437 -0.001826 -0.005889 0.000000 0.000842 0.000000
# 2 -0.001826 0.010421 -0.005137 0.000000 0.003444 0.000000
# 3 -0.005889 -0.005137 0.023358 0.000000 -0.015695 0.000000
# 4 0.000000 0.000000 0.000000 0.121970 0.000000 -0.056763
# 5 0.000842 0.003444 -0.015695 0.000000 0.048426 0.000000
# 6 0.000000 0.000000 0.000000 -0.056763 0.000000 0.166815
#
#
# Mechanical properties :
#
#
# Convention : Reuss Voigt Hill
#
# Bulk Modulus (GPa) = 51.24378 61.76768 56.50573
# Shear Modulus (GPa) = 12.05881 21.58491 16.82186
#
# Velocity S-wave (km/s) = 2.58989 3.46500 3.05890
# Velocity P-wave (km/s) = 6.11939 7.09687 6.62618
#
# Compressibility (1/GPa) = 0.01951456
#
# Stress axis : x y z
#
# Youngs Moduli (GPa) = 87.43570 95.95577 42.81179
#
# Poissons Ratio (x) = 0.17520 0.25210
# Poissons Ratio (y) = 0.15964 0.21990
# Poissons Ratio (z) = 0.51488 0.49288
#
# Static dielectric constant tensor:
#      x y z
#    x 1.611940 0.000000 0.064930 
#    y 0.000000 1.656500 0.000000 
#    z 0.064930 0.000000 1.664730 
# 
# From -- ./inp_files/176492.got.cif
#   From: 2010.05.17/outbox.cif.g08.bks.cpg/sg12_89_cif.got.tgz:176492.got - 2010.06.03 13:09:07.
