data_PCOD9169972
_publ_section_title
;
Structure prediction by ZEFSAII (Michael W. Deem and Ramdas Pophale) SiO2 
 PCOD9169972
Probable space group: C 2/M
;
_chemical_formula_sum "Si O2"
_cell_formula_units_Z 64
_cell_length_a 27.686308
_cell_length_b 13.568004
_cell_length_c 11.617429
_cell_angle_alpha 90.000000
_cell_angle_beta 69.818393
_cell_angle_gamma 90.000000
_cell_volume 4096.126439
_symmetry_space_group_name_H-M "C 2/M"
_symmetry_group_IT_number 12
_symmetry_cell_setting 'monoclinic'
loop_
_space_group_symop_operation_xyz
x,y,z
-x,y,-z
-x,-y,-z
x,-y,z
1/2+x,1/2+y,z
1/2-x,1/2+y,-z
1/2-x,1/2-y,-z
1/2+x,1/2-y,z
loop_
_atom_site_type_symbol
_atom_site_label
_atom_site_fract_x
_atom_site_fract_y
_atom_site_fract_z
Si Si1 0.331342 0.705436 0.483563
Si Si2 0.572302 0.383431 0.720381
Si Si3 0.542355 0.380347 0.229618
Si Si4 0.603995 0.383655 0.952238
Si Si5 0.737525 0.387600 0.084665
Si Si6 0.865383 0.115604 0.693175
Si Si7 0.737388 0.884197 0.425823
Si Si8 0.781424 0.805992 0.147335
O O1 0.381021 0.679626 0.367561
O O2 0.345462 0.675686 0.601375
O O3 0.310570 0.816801 0.497067
O O4 0.284203 0.639631 0.474396
O O5 0.580528 0.500000 0.685239
O O6 0.517017 0.350906 0.717813
O O7 0.573448 0.376279 0.857676
O O8 0.542085 0.500000 0.229515
O O9 0.579924 0.350157 0.302041
O O10 0.569564 0.350659 0.087861
O O11 0.616761 0.500000 0.958550
O O12 0.657834 0.327171 0.898446
O O13 0.753104 0.500000 0.093266
O O14 0.677692 0.377932 0.171673
O O15 0.768625 0.308157 0.133696
O O16 0.740813 0.361499 0.947183
O O17 0.869528 0.000000 0.657560
O O18 0.756188 0.845457 0.285240
O O19 0.727198 0.000000 0.430515
#
# Coordination Sequence:
#
# PCOD9169972 Si02
#       8
#     8   8   8   8   8   8   8   8
#     4  11  22  34  48  72 100 135 169 203 243 290
#     4  10  19  31  49  72 100 131 166 204 246 300
#     4   9  18  30  47  73 100 130 163 201 252 303
#     4  10  17  29  49  73 102 129 160 205 251 299
#     4  10  20  32  49  75 106 134 162 203 248 295
#     4  10  18  31  47  68 102 134 161 198 249 298
#     4  11  22  36  52  73 100 133 171 208 244 292
#     4  11  19  32  53  75  99 136 171 197 243 304
#
# _framework density 15.624517000000001
#
# number of rings (size 3 to 8) (size 9 to 14) (size 15 to 20)
#    0.000    1.750    3.750    2.625    0.000    2.000 
#    0.000    1.875    0.000    0.000    0.000    2.625 
#    0.000    2.000    0.000    0.000    0.000    0.000 
#
# Total GULP energy -178519.844181 kJ/mol
# GULP energy per Si atom -5578.745131 kJ/mol
# Density = 1.558896 g / cm^3
# Si number density = 15.624517 Si / 1000 Ang^3
#
#
#
# Elastic Constant Matrix: (Units=GPa)
#
#
# Indices 1 2 3 4 5 6 
#
# 1 116.9238 51.2763 36.0642 0.0000 -0.3030 0.0000
# 2 51.2763 91.8890 26.2119 0.0000 0.5249 0.0000
# 3 36.0642 26.2119 61.2925 0.0000 5.7778 0.0000
# 4 0.0000 0.0000 0.0000 18.0839 0.0000 -1.5681
# 5 -0.3030 0.5249 5.7778 0.0000 22.3594 0.0000
# 6 0.0000 0.0000 0.0000 -1.5681 0.0000 19.9757
#
#
#
# Elastic Compliance Matrix: (Units=1/GPa)
#
#
# Indices 1 2 3 4 5 6 
#
# 1 0.012594 -0.005557 -0.005189 0.000000 0.001642 0.000000
# 2 -0.005557 0.014874 -0.003127 0.000000 0.000384 0.000000
# 3 -0.005189 -0.003127 0.021222 0.000000 -0.005481 0.000000
# 4 0.000000 0.000000 0.000000 0.055677 0.000000 0.004371
# 5 0.001642 0.000384 -0.005481 0.000000 0.046154 0.000000
# 6 0.000000 0.000000 0.000000 0.004371 0.000000 0.050404
#
#
# Mechanical properties :
#
#
# Convention : Reuss Voigt Hill
#
# Bulk Modulus (GPa) = 47.74592 55.24558 51.49575
# Shear Modulus (GPa) = 21.21775 22.52064 21.86920
#
# Velocity S-wave (km/s) = 3.68907 3.80065 3.74528
# Velocity P-wave (km/s) = 6.98358 7.39560 7.19254
#
# Compressibility (1/GPa) = 0.02094420
#
# Stress axis : x y z
#
# Youngs Moduli (GPa) = 79.40079 67.23326 47.12057
#
# Poissons Ratio (x) = 0.37363 0.24449
# Poissons Ratio (y) = 0.44125 0.14735
# Poissons Ratio (z) = 0.41198 0.21024
#
# Static dielectric constant tensor:
#      x y z
#    x 1.521470 0.000000 0.009930 
#    y 0.000000 1.499720 0.000000 
#    z 0.009930 0.000000 1.548810 
# 
# From -- ./inp_files/183017.got.cif
#   From: 2010.05.17/outbox.cif.g08.bks.cpg/sg12_92_cif.got.tgz:183017.got - 2010.06.03 13:09:07.
