data_PCOD9169923
_publ_section_title
;
Structure prediction by ZEFSAII (Michael W. Deem and Ramdas Pophale) SiO2 
 PCOD9169923
Probable space group: C 2/M
;
_chemical_formula_sum "Si O2"
_cell_formula_units_Z 64
_cell_length_a 22.509517
_cell_length_b 13.115152
_cell_length_c 25.311668
_cell_angle_alpha 90.000000
_cell_angle_beta 35.055950
_cell_angle_gamma 90.000000
_cell_volume 4291.969341
_symmetry_space_group_name_H-M "C 2/M"
_symmetry_group_IT_number 12
_symmetry_cell_setting 'monoclinic'
loop_
_space_group_symop_operation_xyz
x,y,z
-x,y,-z
-x,-y,-z
x,-y,z
1/2+x,1/2+y,z
1/2-x,1/2+y,-z
1/2-x,1/2-y,-z
1/2+x,1/2-y,z
loop_
_atom_site_type_symbol
_atom_site_label
_atom_site_fract_x
_atom_site_fract_y
_atom_site_fract_z
Si Si1 0.221361 0.189298 0.812308
Si Si2 0.585441 0.123365 0.480372
Si Si3 0.834625 0.118621 0.032124
Si Si4 0.499298 0.762809 0.855213
Si Si5 0.552745 0.877109 0.323225
Si Si6 0.903505 0.379420 0.826528
Si Si7 0.586577 0.881218 0.891181
Si Si8 0.186760 0.881116 0.720605
O O1 0.170499 0.141507 0.901662
O O2 0.344022 0.177088 0.730630
O O3 0.180094 0.304367 0.836380
O O4 0.190206 0.130735 0.781713
O O5 0.500000 0.159103 0.500000
O O6 0.542765 0.148795 0.569464
O O7 0.701507 0.155320 0.382096
O O8 0.587202 0.000000 0.475072
O O9 0.718944 0.137851 0.094047
O O10 0.859736 0.000000 0.005449
O O11 0.916275 0.190918 0.944671
O O12 0.447870 0.817133 0.842841
O O13 0.539536 0.843076 0.869783
O O14 0.594943 0.691436 0.768641
O O15 0.542336 0.853972 0.268923
O O16 0.571559 0.000000 0.313706
O O17 0.917214 0.500000 0.826039
O O18 0.615764 0.000000 0.867720
O O19 0.500000 0.869258 0.000000
O O20 0.171541 0.000000 0.718096
#
# Coordination Sequence:
#
# PCOD9169923 Si02
#       8
#     8   8   8   8   8   8   8   8
#     4  10  17  29  47  72  94 123 150 190 235 283
#     4   9  15  26  46  74 102 124 143 181 236 292
#     4  10  19  31  48  70  96 121 152 192 240 282
#     4  11  20  32  46  66  93 130 162 193 229 275
#     4   9  16  29  51  74  98 118 148 194 240 283
#     4   9  19  33  49  66  87 123 165 201 226 267
#     4  10  20  33  45  62  91 126 163 198 227 264
#     4  10  19  28  45  73 103 125 148 184 239 293
#
# _framework density 14.911569999999999
#
# number of rings (size 3 to 8) (size 9 to 14) (size 15 to 20)
#    0.000    2.250    2.500    3.000    0.000    0.000 
#    0.000    2.500    0.000    3.000    0.000    7.875 
#    0.000    0.000    0.000    0.000    0.000    0.000 
#
# Total GULP energy -178364.563810 kJ/mol
# GULP energy per Si atom -5573.892619 kJ/mol
# Density = 1.487763 g / cm^3
# Si number density = 14.911570 Si / 1000 Ang^3
#
#
#
# Elastic Constant Matrix: (Units=GPa)
#
#
# Indices 1 2 3 4 5 6 
#
# 1 66.2361 28.6832 27.3527 0.0000 2.0608 0.0000
# 2 28.6832 61.0344 29.3616 0.0000 -2.6075 0.0000
# 3 27.3527 29.3616 90.7842 0.0000 7.3314 0.0000
# 4 0.0000 0.0000 0.0000 12.6768 0.0000 -5.5641
# 5 2.0608 -2.6075 7.3314 0.0000 11.4202 0.0000
# 6 0.0000 0.0000 0.0000 -5.5641 0.0000 19.1536
#
#
#
# Elastic Compliance Matrix: (Units=1/GPa)
#
#
# Indices 1 2 3 4 5 6 
#
# 1 0.019977 -0.008019 -0.003150 0.000000 -0.003414 0.000000
# 2 -0.008019 0.023524 -0.006057 0.000000 0.010706 0.000000
# 3 -0.003150 -0.006057 0.014754 0.000000 -0.010286 0.000000
# 4 0.000000 0.000000 0.000000 0.090413 0.000000 0.026265
# 5 -0.003414 0.010706 -0.010286 0.000000 0.097228 0.000000
# 6 0.000000 0.000000 0.000000 0.026265 0.000000 0.059839
#
#
# Mechanical properties :
#
#
# Convention : Reuss Voigt Hill
#
# Bulk Modulus (GPa) = 42.01007 43.20551 42.60779
# Shear Modulus (GPa) = 14.36289 17.49393 15.92841
#
# Velocity S-wave (km/s) = 3.10692 3.42889 3.27187
# Velocity P-wave (km/s) = 6.41128 6.68683 6.55051
#
# Compressibility (1/GPa) = 0.02380382
#
# Stress axis : x y z
#
# Youngs Moduli (GPa) = 50.05779 42.51041 67.77988
#
# Poissons Ratio (x) = 0.34088 0.21349
# Poissons Ratio (y) = 0.40140 0.41052
# Poissons Ratio (z) = 0.15767 0.25747
#
# Static dielectric constant tensor:
#      x y z
#    x 1.484070 0.000000 0.006910 
#    y 0.000000 1.474080 0.000000 
#    z 0.006910 0.000000 1.497850 
# 
# From -- ./inp_files/346816.got.cif
#   From: 2010.05.17/outbox.cif.g08.bks.cpg/sg12_174_cif.got.tgz:346816.got - 2010.06.03 13:09:07.
