data_PCOD9169176
_publ_section_title
;
Structure prediction by ZEFSAII (Michael W. Deem and Ramdas Pophale) SiO2 
 PCOD9169176
Probable space group: C 2/M
;
_chemical_formula_sum "Si O2"
_cell_formula_units_Z 64
_cell_length_a 28.807722
_cell_length_b 9.247899
_cell_length_c 23.528795
_cell_angle_alpha 90.000000
_cell_angle_beta 44.986351
_cell_angle_gamma 90.000000
_cell_volume 4431.320899
_symmetry_space_group_name_H-M "C 2/M"
_symmetry_group_IT_number 12
_symmetry_cell_setting 'monoclinic'
loop_
_space_group_symop_operation_xyz
x,y,z
-x,y,-z
-x,-y,-z
x,-y,z
1/2+x,1/2+y,z
1/2-x,1/2+y,-z
1/2-x,1/2-y,-z
1/2+x,1/2-y,z
loop_
_atom_site_type_symbol
_atom_site_label
_atom_site_fract_x
_atom_site_fract_y
_atom_site_fract_z
Si Si1 0.096919 0.670322 0.678682
Si Si2 0.341890 0.166802 0.961799
Si Si3 0.778468 0.333591 0.889609
Si Si4 0.742917 0.826862 0.567264
Si Si5 0.987204 0.172051 0.444719
Si Si6 0.869821 0.672327 0.483534
Si Si7 0.099359 0.828972 0.258855
Si Si8 0.964055 0.828922 0.810445
O O1 0.081443 0.500000 0.697317
O O2 0.166730 0.697619 0.648958
O O3 0.108626 0.698841 0.601059
O O4 0.036466 0.763765 0.752738
O O5 0.309669 0.169093 0.926335
O O6 0.410486 0.249874 0.896014
O O7 0.350941 0.000000 0.969924
O O8 0.289283 0.246324 0.047232
O O9 0.767373 0.500000 0.883978
O O10 0.833346 0.259299 0.803082
O O11 0.750000 0.750000 0.500000
O O12 0.800807 0.754256 0.553119
O O13 0.752448 0.000000 0.553957
O O14 0.051425 0.209612 0.351946
O O15 0.000000 0.195694 0.500000
O O16 0.926167 0.262808 0.474309
O O17 0.974701 0.000000 0.446441
O O18 0.862241 0.500000 0.496622
O O19 0.059827 0.804235 0.234145
O O20 0.114271 0.000000 0.248560
O O21 0.963286 0.000000 0.821137
#
# Coordination Sequence:
#
# PCOD9169176 Si02
#       8
#     8   8   8   8   8   8   8   8
#     4   9  17  27  39  58  81 107 136 168 204 246
#     4   9  16  25  36  52  76 103 130 164 199 237
#     4   9  16  25  38  54  72  98 132 167 200 240
#     4   9  17  28  42  60  81 105 136 171 208 250
#     4  10  20  33  47  62  81 108 143 182 221 257
#     4  10  19  30  44  60  80 106 138 176 216 255
#     4   9  17  28  40  56  75 102 136 171 211 249
#     4  10  17  24  38  57  79 107 137 169 201 240
#
# _framework density 14.442646
#
# number of rings (size 3 to 8) (size 9 to 14) (size 15 to 20)
#    0.000    2.625    1.250    2.625    0.000    6.750 
#    0.000    0.000    0.000    0.000    0.000    0.000 
#    0.000    0.000    0.000    1.125    0.000   22.500 
#
# Total GULP energy -178239.992391 kJ/mol
# GULP energy per Si atom -5569.999762 kJ/mol
# Density = 1.440977 g / cm^3
# Si number density = 14.442646 Si / 1000 Ang^3
#
#
#
# Elastic Constant Matrix: (Units=GPa)
#
#
# Indices 1 2 3 4 5 6 
#
# 1 48.7046 46.6149 49.7240 0.0008 -19.7832 -0.0005
# 2 46.6149 93.7659 74.7316 -0.0015 -30.6414 0.0012
# 3 49.7240 74.7316 103.7101 0.0016 -34.7664 -0.0010
# 4 0.0008 -0.0015 0.0016 24.6311 -0.0008 -9.9534
# 5 -19.7832 -30.6414 -34.7664 -0.0008 24.3892 0.0002
# 6 -0.0005 0.0012 -0.0010 -9.9534 0.0002 18.2715
#
#
#
# Elastic Compliance Matrix: (Units=1/GPa)
#
#
# Indices 1 2 3 4 5 6 
#
# 1 0.046008 -0.011566 -0.011654 -0.000001 0.006175 0.000001
# 2 -0.011566 0.029601 -0.012377 0.000003 0.010164 -0.000002
# 3 -0.011654 -0.012377 0.030197 -0.000001 0.018041 0.000001
# 4 -0.000001 0.000003 -0.000001 0.052059 0.000002 0.028359
# 5 0.006175 0.010164 0.018041 0.000002 0.084498 0.000001
# 6 0.000001 -0.000002 0.000001 0.028359 0.000001 0.070178
#
#
# Mechanical properties :
#
#
# Convention : Reuss Voigt Hill
#
# Bulk Modulus (GPa) = 28.89298 65.36907 47.13103
# Shear Modulus (GPa) = 12.64945 18.46571 15.55758
#
# Velocity S-wave (km/s) = 2.96267 3.57957 3.28563
# Velocity P-wave (km/s) = 5.63489 7.90214 6.86279
#
# Compressibility (1/GPa) = 0.03461048
#
# Stress axis : x y z
#
# Youngs Moduli (GPa) = 21.73513 33.78260 33.11597
#
# Poissons Ratio (x) = 0.39074 0.38595
# Poissons Ratio (y) = 0.25139 0.40989
# Poissons Ratio (z) = 0.25331 0.41814
#
# Static dielectric constant tensor:
#      x y z
#    x 1.457000 0.000000 -0.023350 
#    y 0.000000 1.480450 0.000000 
#    z -0.023350 0.000000 1.469780 
# 
# From -- ./inp_files/348516.got.cif
#   From: 2010.05.17/outbox.cif.g08.bks.cpg/sg12_175_cif.got.tgz:348516.got - 2010.06.03 13:09:07.
