data_PCOD9169126
_publ_section_title
;
Structure prediction by ZEFSAII (Michael W. Deem and Ramdas Pophale) SiO2 
 PCOD9169126
Probable space group: C 2/M
;
_chemical_formula_sum "Si O2"
_cell_formula_units_Z 40
_cell_length_a 15.631062
_cell_length_b 17.092317
_cell_length_c 16.019524
_cell_angle_alpha 90.000000
_cell_angle_beta 26.501644
_cell_angle_gamma 90.000000
_cell_volume 1909.815712
_symmetry_space_group_name_H-M "C 2/M"
_symmetry_group_IT_number 12
_symmetry_cell_setting 'monoclinic'
loop_
_space_group_symop_operation_xyz
x,y,z
-x,y,-z
-x,-y,-z
x,-y,z
1/2+x,1/2+y,z
1/2-x,1/2+y,-z
1/2-x,1/2-y,-z
1/2+x,1/2-y,z
loop_
_atom_site_type_symbol
_atom_site_label
_atom_site_fract_x
_atom_site_fract_y
_atom_site_fract_z
Si Si1 0.268919 0.624873 0.481213
Si Si2 0.065750 0.500000 0.209199
Si Si3 0.773373 0.336726 0.674699
Si Si4 0.096434 0.000000 0.218877
Si Si5 0.794947 0.500000 0.220139
Si Si6 0.290744 0.000000 0.729374
Si Si7 0.290934 0.670711 0.641374
O O1 0.249260 0.652896 0.404281
O O2 0.461363 0.573035 0.316684
O O3 0.290874 0.680972 0.541445
O O4 0.078139 0.573456 0.664277
O O5 0.177971 0.500000 0.199055
O O6 0.212759 0.500000 0.003877
O O7 0.699179 0.417544 0.780568
O O8 0.694416 0.249417 0.763528
O O9 0.000000 0.333846 0.500000
O O10 0.143661 0.000000 0.276068
O O11 0.781849 0.582342 0.279625
O O12 0.000000 0.500000 0.000000
O O13 0.500000 0.000000 0.500000
O O14 0.500000 0.668845 0.500000
#
# Coordination Sequence:
#
# PCOD9169126 Si02
#       7
#     8   4   8   4   4   4   8
#     4  11  20  39  64  88 130 164 208 261 309 371
#     4  11  21  37  65  92 125 165 206 255 324 366
#     4  10  20  37  67  93 122 164 208 258 314 373
#     4  11  23  37  60  99 122 163 216 260 306 379
#     4  12  23  43  63  86 133 168 206 265 315 367
#     4  10  16  38  64  87 121 162 203 249 311 372
#     4  11  22  38  64  93 121 165 212 257 310 375
#
# _framework density 20.944430000000001
#
# number of rings (size 3 to 8) (size 9 to 14) (size 15 to 20)
#    0.000    1.200    6.000    3.900    0.000    0.000 
#    0.000    4.000    0.000    4.800    0.000    0.000 
#    0.000    0.000    0.000    0.000    0.000    0.000 
#
# Total GULP energy -111495.512140 kJ/mol
# GULP energy per Si atom -5574.775607 kJ/mol
# Density = 2.089676 g / cm^3
# Si number density = 20.944430 Si / 1000 Ang^3
#
#
#
# Elastic Constant Matrix: (Units=GPa)
#
#
# Indices 1 2 3 4 5 6 
#
# 1 173.6316 43.5510 7.2648 -0.0044 16.2458 -0.0044
# 2 43.5510 176.2498 24.7593 -0.0539 1.9855 0.0197
# 3 7.2648 24.7593 67.1027 -0.0613 -0.1150 0.0221
# 4 -0.0044 -0.0539 -0.0613 -15.3636 0.0248 8.6223
# 5 16.2458 1.9855 -0.1150 0.0248 21.5621 -0.0073
# 6 -0.0044 0.0197 0.0221 8.6223 -0.0073 38.6230
#
#
#
# Elastic Compliance Matrix: (Units=1/GPa)
#
#
# Indices 1 2 3 4 5 6 
#
# 1 0.006609 -0.001558 -0.000149 -0.000003 -0.004837 0.000001
# 2 -0.001558 0.006358 -0.002176 -0.000012 0.000577 0.000001
# 3 -0.000149 -0.002176 0.015722 -0.000052 0.000397 0.000004
# 4 -0.000003 -0.000012 -0.000052 -0.057842 0.000074 0.012913
# 5 -0.004837 0.000577 0.000397 0.000074 0.049971 -0.000008
# 6 0.000001 0.000001 0.000004 0.012913 -0.000008 0.023009
#
#
# Mechanical properties :
#
#
# Convention : Reuss Voigt Hill
#
# Bulk Modulus (GPa) = 47.79420 63.12602 55.46011
# Shear Modulus (GPa) = 85.37271 31.72492 58.54881
#
# Velocity S-wave (km/s) = 6.39140 3.89616 5.29292
# Velocity P-wave (km/s) = 8.79408 7.10248 7.99316
#
# Compressibility (1/GPa) = 0.02092304
#
# Stress axis : x y z
#
# Youngs Moduli (GPa) = 151.31373 157.28547 63.60398
#
# Poissons Ratio (x) = 0.24499 0.00948
# Poissons Ratio (y) = 0.23569 0.13842
# Poissons Ratio (z) = 0.02256 0.34230
#
# Static dielectric constant tensor:
#      x y z
#    x 1.772280 0.000000 0.003610 
#    y 0.000000 1.875460 0.000000 
#    z 0.003610 0.000000 1.712130 
# 
# From -- ./inp_files/216692.got.cif
#   From: 2010.05.17/outbox.cif.g08.bks.cpg/sg12_109_cif.got.tgz:216692.got - 2010.06.03 13:09:07.
