data_PCOD9169774
_publ_section_title
;
Structure prediction by ZEFSAII (Michael W. Deem and Ramdas Pophale) SiO2 
 PCOD9169774
Probable space group: C 2/M
;
_chemical_formula_sum "Si O2"
_cell_formula_units_Z 56
_cell_length_a 24.302953
_cell_length_b 13.862254
_cell_length_c 10.768392
_cell_angle_alpha 90.000000
_cell_angle_beta 135.765386
_cell_angle_gamma 90.000000
_cell_volume 2530.748765
_symmetry_space_group_name_H-M "C 2/M"
_symmetry_group_IT_number 12
_symmetry_cell_setting 'monoclinic'
loop_
_space_group_symop_operation_xyz
x,y,z
-x,y,-z
-x,-y,-z
x,-y,z
1/2+x,1/2+y,z
1/2-x,1/2+y,-z
1/2-x,1/2-y,-z
1/2+x,1/2-y,z
loop_
_atom_site_type_symbol
_atom_site_label
_atom_site_fract_x
_atom_site_fract_y
_atom_site_fract_z
Si Si1 0.741342 0.606246 0.287161
Si Si2 0.696300 0.687071 0.570828
Si Si3 0.945859 0.114504 0.799193
Si Si4 0.148082 0.396485 0.771425
Si Si5 0.848065 0.391365 0.938544
Si Si6 0.407100 0.316679 0.076412
Si Si7 0.910040 0.807971 0.356857
O O1 0.752643 0.500000 0.362460
O O2 0.780377 0.700854 0.410121
O O3 0.784312 0.605633 0.222257
O O4 0.649879 0.625425 0.108443
O O5 0.640336 0.654445 0.368801
O O6 0.776972 0.630332 0.729058
O O7 0.644526 0.669278 0.613292
O O8 0.004268 0.145359 0.782853
O O9 0.940214 0.000000 0.798868
O O10 0.000000 0.151575 0.000000
O O11 0.107173 0.500000 0.696803
O O12 0.091036 0.308566 0.650168
O O13 0.181174 0.389063 0.964904
O O14 0.880047 0.500000 0.968932
O O15 0.903325 0.296203 0.030195
O O16 0.375364 0.332472 0.164857
O O17 0.000000 0.843550 0.500000
#
# Coordination Sequence:
#
# PCOD9169774 Si02
#       7
#     8   8   8   8   8   8   8
#     4   9  17  31  53  79 108 142 179 216 257 309
#     4  10  19  34  55  80 110 141 175 217 262 308
#     4  11  24  41  58  76 103 139 175 213 263 319
#     4   8  15  26  43  72 109 148 178 203 250 312
#     4   9  17  31  53  79 108 142 179 216 257 309
#     4  10  19  34  55  80 110 141 175 217 262 308
#     4  10  17  28  47  77 114 140 168 214 261 308
#
# _framework density 22.127839999999999
#
# number of rings (size 3 to 8) (size 9 to 14) (size 15 to 20)
#    0.000    2.429    1.429    1.714    0.000    3.714 
#    0.000    6.429    0.000    3.429    0.000    0.000 
#    0.000    0.000    0.000    0.000    0.000    0.000 
#
# Total GULP energy -156099.471385 kJ/mol
# GULP energy per Si atom -5574.981121 kJ/mol
# Density = 2.207748 g / cm^3
# Si number density = 22.127840 Si / 1000 Ang^3
#
#
#
# Elastic Constant Matrix: (Units=GPa)
#
#
# Indices 1 2 3 4 5 6 
#
# 1 43.5333 -1.4757 7.0988 0.0000 -0.7650 0.0000
# 2 -1.4757 81.7751 25.0154 0.0000 -4.0493 0.0000
# 3 7.0988 25.0154 79.2453 0.0000 1.4911 0.0000
# 4 0.0000 0.0000 0.0000 16.5472 0.0000 -2.3165
# 5 -0.7650 -4.0493 1.4911 0.0000 28.7763 0.0000
# 6 0.0000 0.0000 0.0000 -2.3165 0.0000 14.2436
#
#
#
# Elastic Compliance Matrix: (Units=1/GPa)
#
#
# Indices 1 2 3 4 5 6 
#
# 1 0.023438 0.001236 -0.002507 0.000000 0.000927 0.000000
# 2 0.001236 0.013732 -0.004487 0.000000 0.002198 0.000000
# 3 -0.002507 -0.004487 0.014287 0.000000 -0.001438 0.000000
# 4 0.000000 0.000000 0.000000 0.061841 0.000000 0.010057
# 5 0.000927 0.002198 -0.001438 0.000000 0.035159 0.000000
# 6 0.000000 0.000000 0.000000 0.010057 0.000000 0.071843
#
#
# Mechanical properties :
#
#
# Convention : Reuss Voigt Hill
#
# Bulk Modulus (GPa) = 25.03703 29.53675 27.28689
# Shear Modulus (GPa) = 20.39729 23.50776 21.95253
#
# Velocity S-wave (km/s) = 3.03940 3.26292 3.15314
# Velocity P-wave (km/s) = 4.86380 5.25098 5.06109
#
# Compressibility (1/GPa) = 0.03994085
#
# Stress axis : x y z
#
# Youngs Moduli (GPa) = 42.66584 72.82064 69.99324
#
# Poissons Ratio (x) = -0.08999 0.17548
# Poissons Ratio (y) = -0.05273 0.31406
# Poissons Ratio (z) = 0.10697 0.32674
#
# Static dielectric constant tensor:
#      x y z
#    x 1.905710 0.000000 -0.062040 
#    y 0.000000 1.813120 0.000000 
#    z -0.062040 0.000000 1.821190 
# 
# From -- ./inp_files/189218.got.cif
#   From: 2010.05.17/outbox.cif.g08.bks.cpg/sg12_95_cif.got.tgz:189218.got - 2010.06.03 13:09:07.
