data_PCOD9169642
_publ_section_title
;
Structure prediction by ZEFSAII (Michael W. Deem and Ramdas Pophale) SiO2 
 PCOD9169642
Probable space group: C 2/M
;
_chemical_formula_sum "Si O2"
_cell_formula_units_Z 64
_cell_length_a 24.918397
_cell_length_b 7.448069
_cell_length_c 20.754666
_cell_angle_alpha 90.000000
_cell_angle_beta 44.782946
_cell_angle_gamma 90.000000
_cell_volume 2713.395208
_symmetry_space_group_name_H-M "C 2/M"
_symmetry_group_IT_number 12
_symmetry_cell_setting 'monoclinic'
loop_
_space_group_symop_operation_xyz
x,y,z
-x,y,-z
-x,-y,-z
x,-y,z
1/2+x,1/2+y,z
1/2-x,1/2+y,-z
1/2-x,1/2-y,-z
1/2+x,1/2-y,z
loop_
_atom_site_type_symbol
_atom_site_label
_atom_site_fract_x
_atom_site_fract_y
_atom_site_fract_z
Si Si1 0.584381 0.217424 0.956372
Si Si2 0.292892 0.221613 0.882451
Si Si3 0.836645 0.280199 0.239592
Si Si4 0.830523 0.205272 0.585140
Si Si5 0.887950 0.716486 0.676387
Si Si6 0.876323 0.751811 0.938623
Si Si7 0.962556 0.706076 0.379963
Si Si8 0.452131 0.798603 0.248296
O O1 0.642498 0.272590 0.850815
O O2 0.590641 0.000000 0.964207
O O3 0.500000 0.245638 0.000000
O O4 0.599402 0.315430 0.010469
O O5 0.325052 0.258014 0.784315
O O6 0.349318 0.300380 0.888695
O O7 0.289938 0.000000 0.892980
O O8 0.209770 0.302520 0.965979
O O9 0.837173 0.500000 0.236636
O O10 0.754162 0.219537 0.333452
O O11 0.901594 0.219252 0.234125
O O12 0.868325 0.209622 0.623437
O O13 0.886359 0.294629 0.486588
O O14 0.822669 0.000000 0.570311
O O15 0.890824 0.500000 0.666309
O O16 0.968557 0.781742 0.636142
O O17 0.960436 0.683929 0.847801
O O18 0.987351 0.500000 0.345737
O O19 0.950535 0.789527 0.319912
O O20 0.419861 0.000000 0.284171
#
# Coordination Sequence:
#
# PCOD9169642 Si02
#       8
#     8   8   8   8   8   8   8   8
#     4  10  17  27  50  82 109 134 172 218 264 314
#     4  10  21  35  53  80 112 145 182 229 278 327
#     4   9  19  33  51  81 114 145 179 225 279 328
#     4  11  23  38  56  84 120 145 175 231 296 344
#     4  10  20  38  61  82 109 148 194 233 270 329
#     4  11  19  31  55  81 108 142 180 225 272 323
#     4  10  21  37  61  85 105 143 197 238 274 327
#     4  10  18  34  58  80 107 145 193 236 267 318
#
# _framework density 23.586686
#
# number of rings (size 3 to 8) (size 9 to 14) (size 15 to 20)
#    0.000    1.875    2.500    2.625    0.000    2.500 
#    0.000    3.750    0.000    2.625    0.000    0.000 
#    0.000    0.000    0.000    0.000    0.000    0.000 
#
# Total GULP energy -178259.011944 kJ/mol
# GULP energy per Si atom -5570.594123 kJ/mol
# Density = 2.353300 g / cm^3
# Si number density = 23.586686 Si / 1000 Ang^3
#
#
#
# Elastic Constant Matrix: (Units=GPa)
#
#
# Indices 1 2 3 4 5 6 
#
# 1 145.3926 10.0841 60.0212 -0.0531 22.5972 0.0000
# 2 10.0841 82.9553 7.2085 -0.2776 3.1806 0.0187
# 3 60.0212 7.2085 164.1020 -0.0955 3.6869 0.0008
# 4 -0.0531 -0.2776 -0.0955 -143.1772 0.0019 -22.9303
# 5 22.5972 3.1806 3.6869 0.0019 31.1470 -0.0052
# 6 0.0000 0.0187 0.0008 -22.9303 -0.0052 -8.8102
#
#
#
# Elastic Compliance Matrix: (Units=1/GPa)
#
#
# Indices 1 2 3 4 5 6 
#
# 1 0.009212 -0.000602 -0.003203 -0.000001 -0.006243 0.000005
# 2 -0.000602 0.012183 -0.000298 -0.000047 -0.000772 0.000149
# 3 -0.003203 -0.000298 0.007245 -0.000005 0.001496 0.000012
# 4 -0.000001 -0.000047 -0.000005 -0.011976 0.000012 0.031171
# 5 -0.006243 -0.000772 0.001496 0.000012 0.036537 -0.000054
# 6 0.000005 0.000149 0.000012 0.031171 -0.000054 -0.194633
#
#
# Mechanical properties :
#
#
# Convention : Reuss Voigt Hill
#
# Bulk Modulus (GPa) = 48.93571 60.78639 54.86105
# Shear Modulus (GPa) = -39.55175 -3.15901 -21.35538
#
# Velocity S-wave (km/s) = -4.09940 -1.15855 -3.01225
# Velocity P-wave (km/s) = 1.27065 4.90284 3.34838
#
# Compressibility (1/GPa) = 0.02043497
#
# Stress axis : x y z
#
# Youngs Moduli (GPa) = 108.55304 82.08058 138.03356
#
# Poissons Ratio (x) = 0.04943 0.44208
# Poissons Ratio (y) = 0.06537 0.04108
# Poissons Ratio (z) = 0.34766 0.02443
#
# Static dielectric constant tensor:
#      x y z
#    x 1.862700 -0.000030 0.006080 
#    y -0.000030 2.059030 0.000020 
#    z 0.006080 0.000020 1.820870 
# 
# From -- ./inp_files/324156.got.cif
#   From: 2010.05.17/outbox.cif.g08.bks.cpg/sg12_163_cif.got.tgz:324156.got - 2010.06.03 13:09:07.
