data_PCOD9169726
_publ_section_title
;
Structure prediction by ZEFSAII (Michael W. Deem and Ramdas Pophale) SiO2 
 PCOD9169726
Probable space group: C 2/M
;
_chemical_formula_sum "Si O2"
_cell_formula_units_Z 48
_cell_length_a 30.833741
_cell_length_b 9.060708
_cell_length_c 12.259889
_cell_angle_alpha 90.000000
_cell_angle_beta 118.027222
_cell_angle_gamma 90.000000
_cell_volume 3023.430879
_symmetry_space_group_name_H-M "C 2/M"
_symmetry_group_IT_number 12
_symmetry_cell_setting 'monoclinic'
loop_
_space_group_symop_operation_xyz
x,y,z
-x,y,-z
-x,-y,-z
x,-y,z
1/2+x,1/2+y,z
1/2-x,1/2+y,-z
1/2-x,1/2-y,-z
1/2+x,1/2-y,z
loop_
_atom_site_type_symbol
_atom_site_label
_atom_site_fract_x
_atom_site_fract_y
_atom_site_fract_z
Si Si1 0.223900 0.822659 0.865923
Si Si2 0.416465 0.324308 0.585882
Si Si3 0.610323 0.675343 0.698407
Si Si4 0.757119 0.174864 0.681948
Si Si5 0.171955 0.325324 0.400637
Si Si6 0.514109 0.829902 0.645544
O O1 0.165695 0.787070 0.796591
O O2 0.246611 0.757174 0.782067
O O3 0.228792 0.000000 0.872979
O O4 0.250000 0.750000 0.000000
O O5 0.415732 0.500000 0.600778
O O6 0.397114 0.293715 0.439496
O O7 0.379472 0.244579 0.624238
O O8 0.471678 0.261828 0.655262
O O9 0.602789 0.500000 0.703536
O O10 0.568214 0.760786 0.714172
O O11 0.803088 0.243944 0.671915
O O12 0.710138 0.195517 0.546471
O O13 0.763655 0.000000 0.706634
O O14 0.167738 0.500000 0.375854
O O15 0.500000 0.824805 0.500000
O O16 0.513559 0.000000 0.679263
#
# Coordination Sequence:
#
# PCOD9169726 Si02
#       6
#     8   8   8   8   8   8
#     4  11  22  36  52  72  98 131 171 209 247 289
#     4  10  17  28  46  69  98 130 162 195 242 296
#     4   9  18  31  46  65  94 129 163 201 243 289
#     4  10  20  33  49  70  97 130 166 203 247 294
#     4  10  19  30  48  72 100 130 162 201 246 295
#     4   9  17  27  42  66  95 125 159 197 241 292
#
# _framework density 15.876002
#
# number of rings (size 3 to 8) (size 9 to 14) (size 15 to 20)
#    0.000    2.167    1.667    2.500    0.000    5.333 
#    0.000    0.000    0.000    0.000    0.000    1.167 
#    0.000    9.333    0.000    0.000    0.000    0.000 
#
# Total GULP energy -133884.519904 kJ/mol
# GULP energy per Si atom -5578.521663 kJ/mol
# Density = 1.583987 g / cm^3
# Si number density = 15.876002 Si / 1000 Ang^3
#
#
#
# Elastic Constant Matrix: (Units=GPa)
#
#
# Indices 1 2 3 4 5 6 
#
# 1 165.6451 87.3243 51.2563 0.0000 -3.1694 0.0000
# 2 87.3243 89.1251 46.5659 0.0000 -2.6495 0.0000
# 3 51.2563 46.5659 62.1234 0.0000 1.2553 0.0000
# 4 0.0000 0.0000 0.0000 20.3001 0.0000 -2.0038
# 5 -3.1694 -2.6495 1.2553 0.0000 12.1077 0.0000
# 6 0.0000 0.0000 0.0000 -2.0038 0.0000 36.1178
#
#
#
# Elastic Compliance Matrix: (Units=1/GPa)
#
#
# Indices 1 2 3 4 5 6 
#
# 1 0.012631 -0.011325 -0.001954 0.000000 0.001031 0.000000
# 2 -0.011325 0.028966 -0.012463 0.000000 0.004666 0.000000
# 3 -0.001954 -0.012463 0.027174 0.000000 -0.006056 0.000000
# 4 0.000000 0.000000 0.000000 0.049532 0.000000 0.002748
# 5 0.001031 0.004666 -0.006056 0.000000 0.084511 0.000000
# 6 0.000000 0.000000 0.000000 0.002748 0.000000 0.027840
#
#
# Mechanical properties :
#
#
# Convention : Reuss Voigt Hill
#
# Bulk Modulus (GPa) = 57.84386 76.35408 67.09897
# Shear Modulus (GPa) = 17.36711 22.48825 19.92768
#
# Velocity S-wave (km/s) = 3.31104 3.76772 3.54673
# Velocity P-wave (km/s) = 7.15061 8.19305 7.68951
#
# Compressibility (1/GPa) = 0.01728792
#
# Stress axis : x y z
#
# Youngs Moduli (GPa) = 79.16721 34.52280 36.80051
#
# Poissons Ratio (x) = 0.39096 0.07191
# Poissons Ratio (y) = 0.89654 0.45864
# Poissons Ratio (z) = 0.15470 0.43026
#
# Static dielectric constant tensor:
#      x y z
#    x 1.521040 0.000000 0.005730 
#    y 0.000000 1.525080 0.000000 
#    z 0.005730 0.000000 1.501010 
# 
# From -- ./inp_files/179202.got.cif
#   From: 2010.05.17/outbox.cif.g08.bks.cpg/sg12_90_cif.got.tgz:179202.got - 2010.06.03 13:09:07.
