data_PCOD9169096
_publ_section_title
;
Structure prediction by ZEFSAII (Michael W. Deem and Ramdas Pophale) SiO2 
 PCOD9169096
Probable space group: C 2/M
;
_chemical_formula_sum "Si O2"
_cell_formula_units_Z 40
_cell_length_a 16.684942
_cell_length_b 26.010134
_cell_length_c 9.092903
_cell_angle_alpha 90.000000
_cell_angle_beta 28.485121
_cell_angle_gamma 90.000000
_cell_volume 1882.023187
_symmetry_space_group_name_H-M "C 2/M"
_symmetry_group_IT_number 12
_symmetry_cell_setting 'monoclinic'
loop_
_space_group_symop_operation_xyz
x,y,z
-x,y,-z
-x,-y,-z
x,-y,z
1/2+x,1/2+y,z
1/2-x,1/2+y,-z
1/2-x,1/2-y,-z
1/2+x,1/2-y,z
loop_
_atom_site_type_symbol
_atom_site_label
_atom_site_fract_x
_atom_site_fract_y
_atom_site_fract_z
Si Si1 0.008736 0.696413 0.161715
Si Si2 0.575881 0.902908 0.221592
Si Si3 0.114149 0.500000 0.463795
Si Si4 0.072247 0.105736 0.234992
Si Si5 0.359201 0.303487 0.100386
Si Si6 0.528434 0.500000 0.273810
O O1 0.822707 0.698223 0.530893
O O2 0.094065 0.645696 0.088316
O O3 0.000000 0.692434 0.000000
O O4 0.104843 0.749519 0.038939
O O5 0.500000 0.884610 0.500000
O O6 0.453578 0.947162 0.355330
O O7 0.758733 0.922233 0.976069
O O8 0.000000 0.500000 0.500000
O O9 0.306394 0.500000 0.103071
O O10 0.000000 0.129944 0.500000
O O11 0.962678 0.058282 0.348585
O O12 0.119004 0.148327 0.042221
O O13 0.500000 0.307724 0.000000
O O14 0.500000 0.500000 0.500000
#
# Coordination Sequence:
#
# PCOD9169096 Si02
#       6
#     8   8   4   8   8   4
#     4  11  24  40  61  82 116 154 192 236 289 347
#     4  11  20  38  61  89 113 149 194 235 285 337
#     4  10  16  34  59  82 118 152 179 236 288 334
#     4  11  23  36  62  89 117 149 191 241 282 338
#     4  11  24  42  58  83 116 156 191 235 292 342
#     4  10  18  34  55  88 118 148 186 229 291 341
#
# _framework density 21.253723000000001
#
# number of rings (size 3 to 8) (size 9 to 14) (size 15 to 20)
#    0.000    1.200    6.000    2.400    5.600    1.600 
#    0.000    1.000    0.000    0.000    0.000    0.000 
#    0.000    0.000    0.000    0.000    0.000    0.000 
#
# Total GULP energy -111383.122478 kJ/mol
# GULP energy per Si atom -5569.156124 kJ/mol
# Density = 2.120535 g / cm^3
# Si number density = 21.253723 Si / 1000 Ang^3
#
#
#
# Elastic Constant Matrix: (Units=GPa)
#
#
# Indices 1 2 3 4 5 6 
#
# 1 16.9613 30.9455 16.0935 0.0007 2.6617 0.0007
# 2 30.9455 179.0775 35.9179 0.0001 29.8382 0.0003
# 3 16.0935 35.9179 94.4410 0.0008 19.5105 0.0012
# 4 0.0007 0.0001 0.0008 61.1770 -0.0006 39.1665
# 5 2.6617 29.8382 19.5105 -0.0006 24.7938 -0.0007
# 6 0.0007 0.0003 0.0012 39.1665 -0.0007 81.1585
#
#
#
# Elastic Compliance Matrix: (Units=1/GPa)
#
#
# Indices 1 2 3 4 5 6 
#
# 1 0.104404 -0.018883 -0.015510 -0.000001 0.023722 0.000000
# 2 -0.018883 0.010497 0.001692 0.000000 -0.011936 0.000000
# 3 -0.015510 0.001692 0.015123 0.000000 -0.012271 0.000000
# 4 -0.000001 0.000000 0.000000 0.023654 0.000000 -0.011415
# 5 0.023722 -0.011936 -0.012271 0.000000 0.061807 0.000000
# 6 0.000000 0.000000 0.000000 -0.011415 0.000000 0.017831
#
#
# Mechanical properties :
#
#
# Convention : Reuss Voigt Hill
#
# Bulk Modulus (GPa) = 15.47494 50.71039 33.09267
# Shear Modulus (GPa) = 15.61231 47.26073 31.43652
#
# Velocity S-wave (km/s) = 2.71323 4.72067 3.85009
# Velocity P-wave (km/s) = 4.13671 7.32286 5.94713
#
# Compressibility (1/GPa) = 0.06462059
#
# Stress axis : x y z
#
# Youngs Moduli (GPa) = 9.57819 95.26665 66.12244
#
# Poissons Ratio (x) = 1.79894 1.02557
# Poissons Ratio (y) = 0.18087 -0.11185
# Poissons Ratio (z) = 0.14856 -0.16115
#
# Static dielectric constant tensor:
#      x y z
#    x 1.795750 0.000000 -0.058810 
#    y 0.000000 1.852640 0.000000 
#    z -0.058810 0.000000 1.847900 
# 
# From -- ./inp_files/40483.got.cif
#   From: 2010.05.17/outbox.cif.g08.bks.cpg/sg12_21_cif.got.tgz:40483.got - 2010.06.03 13:09:07.
