data_PCOD9169944
_publ_section_title
;
Structure prediction by ZEFSAII (Michael W. Deem and Ramdas Pophale) SiO2 
 PCOD9169944
Probable space group: C 2/M
;
_chemical_formula_sum "Si O2"
_cell_formula_units_Z 48
_cell_length_a 18.970168
_cell_length_b 17.864940
_cell_length_c 6.973727
_cell_angle_alpha 90.000000
_cell_angle_beta 124.355105
_cell_angle_gamma 90.000000
_cell_volume 1951.120915
_symmetry_space_group_name_H-M "C 2/M"
_symmetry_group_IT_number 12
_symmetry_cell_setting 'monoclinic'
loop_
_space_group_symop_operation_xyz
x,y,z
-x,y,-z
-x,-y,-z
x,-y,z
1/2+x,1/2+y,z
1/2-x,1/2+y,-z
1/2-x,1/2-y,-z
1/2+x,1/2-y,z
loop_
_atom_site_type_symbol
_atom_site_label
_atom_site_fract_x
_atom_site_fract_y
_atom_site_fract_z
Si Si1 0.651494 0.587423 0.456200
Si Si2 0.867653 0.415982 0.099869
Si Si3 0.516490 0.645121 0.735287
Si Si4 0.521226 0.813928 0.259625
Si Si5 0.173933 0.415449 0.423200
Si Si6 0.294416 0.667481 0.073625
O O1 0.660352 0.500000 0.530197
O O2 0.554282 0.602531 0.246634
O O3 0.725431 0.599779 0.413683
O O4 0.674822 0.644061 0.664793
O O5 0.893367 0.500000 0.185851
O O6 0.945146 0.359317 0.241520
O O7 0.845643 0.414440 0.837499
O O8 0.782758 0.390473 0.079346
O O9 0.500000 0.609234 0.500000
O O10 0.481263 0.729476 0.678383
O O11 0.618472 0.655621 0.914197
O O12 0.611001 0.855411 0.416668
O O13 0.500000 0.812883 0.000000
O O14 0.154470 0.500000 0.456945
O O15 0.250000 0.750000 0.000000
#
# Coordination Sequence:
#
# PCOD9169944 Si02
#       6
#     8   8   8   8   8   8
#     4   9  19  34  52  77 104 135 180 223 259 306
#     4   9  16  27  47  74 100 129 171 218 258 300
#     4  10  21  33  50  76 108 142 168 216 267 310
#     4  10  18  30  50  77 105 133 173 215 265 311
#     4   8  15  28  48  73  99 127 168 219 254 296
#     4  10  17  29  48  73 104 135 166 215 265 298
#
# _framework density 24.601241999999999
#
# number of rings (size 3 to 8) (size 9 to 14) (size 15 to 20)
#    0.000    2.667    1.667    2.000    0.000    6.333 
#    0.000    0.000    0.000    2.500    0.000    0.000 
#    0.000    0.000    0.000    0.000    0.000    0.000 
#
# Total GULP energy -134096.916716 kJ/mol
# GULP energy per Si atom -5587.371530 kJ/mol
# Density = 2.454525 g / cm^3
# Si number density = 24.601242 Si / 1000 Ang^3
#
#
#
# Elastic Constant Matrix: (Units=GPa)
#
#
# Indices 1 2 3 4 5 6 
#
# 1 169.9027 43.5135 33.7880 0.0000 32.7396 0.0000
# 2 43.5135 98.7644 19.9747 0.0000 24.4099 0.0000
# 3 33.7880 19.9747 110.2347 0.0000 8.2829 0.0000
# 4 0.0000 0.0000 0.0000 18.5124 0.0000 14.3493
# 5 32.7396 24.4099 8.2829 0.0000 42.8329 0.0000
# 6 0.0000 0.0000 0.0000 14.3493 0.0000 42.4778
#
#
#
# Elastic Compliance Matrix: (Units=1/GPa)
#
#
# Indices 1 2 3 4 5 6 
#
# 1 0.007541 -0.001915 -0.001637 0.000000 -0.004356 0.000000
# 2 -0.001915 0.012576 -0.001282 0.000000 -0.005456 0.000000
# 3 -0.001637 -0.001282 0.009799 0.000000 0.000087 0.000000
# 4 0.000000 0.000000 0.000000 0.073179 0.000000 -0.024721
# 5 -0.004356 -0.005456 0.000087 0.000000 0.029769 0.000000
# 6 0.000000 0.000000 0.000000 -0.024721 0.000000 0.031892
#
#
# Mechanical properties :
#
#
# Convention : Reuss Voigt Hill
#
# Bulk Modulus (GPa) = 49.38552 63.71713 56.55133
# Shear Modulus (GPa) = 27.59772 39.53965 33.56868
#
# Velocity S-wave (km/s) = 3.35296 4.01337 3.69794
# Velocity P-wave (km/s) = 5.92518 6.88711 6.42418
#
# Compressibility (1/GPa) = 0.02024885
#
# Stress axis : x y z
#
# Youngs Moduli (GPa) = 132.60639 79.51432 102.04990
#
# Poissons Ratio (x) = 0.15224 0.16707
# Poissons Ratio (y) = 0.25390 0.13083
# Poissons Ratio (z) = 0.21710 0.10194
#
# Static dielectric constant tensor:
#      x y z
#    x 1.996070 0.000000 -0.048680 
#    y 0.000000 1.851640 0.000000 
#    z -0.048680 0.000000 2.068380 
# 
# From -- ./inp_files/88155.got.cif
#   From: 2010.05.17/outbox.cif.g08.bks.cpg/sg12_45_cif.got.tgz:88155.got - 2010.06.03 13:09:07.
