data_PCOD9169801
_publ_section_title
;
Structure prediction by ZEFSAII (Michael W. Deem and Ramdas Pophale) SiO2 
 PCOD9169801
Probable space group: C 2/M
;
_chemical_formula_sum "Si O2"
_cell_formula_units_Z 52
_cell_length_a 5.600396
_cell_length_b 30.782806
_cell_length_c 18.705258
_cell_angle_alpha 90.000000
_cell_angle_beta 129.936299
_cell_angle_gamma 90.000000
_cell_volume 2472.574065
_symmetry_space_group_name_H-M "C 2/M"
_symmetry_group_IT_number 12
_symmetry_cell_setting 'monoclinic'
loop_
_space_group_symop_operation_xyz
x,y,z
-x,y,-z
-x,-y,-z
x,-y,z
1/2+x,1/2+y,z
1/2-x,1/2+y,-z
1/2-x,1/2-y,-z
1/2+x,1/2-y,z
loop_
_atom_site_type_symbol
_atom_site_label
_atom_site_fract_x
_atom_site_fract_y
_atom_site_fract_z
Si Si1 0.056322 0.500000 0.593740
Si Si2 0.423709 0.089896 0.637839
Si Si3 0.909943 0.091080 0.867944
Si Si4 0.866856 0.600386 0.839072
Si Si5 0.908090 0.867426 0.630413
Si Si6 0.046217 0.766685 0.393756
Si Si7 0.302877 0.500000 0.219003
Si Si8 0.128174 0.000000 0.924277
O O1 0.921104 0.541726 0.607025
O O2 0.433429 0.500000 0.671735
O O3 0.000000 0.500000 0.500000
O O4 0.090480 0.105837 0.603432
O O5 0.667045 0.089404 0.752668
O O6 0.580154 0.117395 0.602405
O O7 0.226128 0.105253 0.890309
O O8 0.712190 0.116153 0.888797
O O9 0.999872 0.045653 0.922956
O O10 0.639442 0.625229 0.741764
O O11 0.854612 0.547880 0.815748
O O12 0.903244 0.817772 0.606095
O O13 0.250000 0.750000 0.500000
O O14 0.193702 0.744088 0.351444
O O15 0.484537 0.500000 0.179275
O O16 0.500000 0.000000 0.000000
#
# Coordination Sequence:
#
# PCOD9169801 Si02
#       8
#     4   8   8   8   8   8   4   4
#     4  12  22  38  51  75 107 141 183 237 279 287
#     4  10  20  37  55  73 100 136 176 228 257 303
#     4   9  16  30  47  68  94 129 166 215 257 291
#     4   9  17  29  54  68  93 135 168 211 260 298
#     4  10  19  35  58  75  91 130 181 203 267 336
#     4  10  21  38  53  74  99 125 156 215 283 325
#     4  10  17  36  47  71 107 137 177 231 269 289
#     4  10  17  28  49  73  99 141 185 219 263 321
#
# _framework density 21.030715000000001
#
# number of rings (size 3 to 8) (size 9 to 14) (size 15 to 20)
#    0.000    2.154    4.615    1.385    0.000    2.462 
#    8.308    6.923    0.000    0.000    0.000    0.000 
#    0.000    0.000    0.000    0.000    0.000  610.769 
#
# Total GULP energy -144901.662053 kJ/mol
# GULP energy per Si atom -5573.140848 kJ/mol
# Density = 2.098285 g / cm^3
# Si number density = 21.030715 Si / 1000 Ang^3
#
#
#
# Elastic Constant Matrix: (Units=GPa)
#
#
# Indices 1 2 3 4 5 6 
#
# 1 213.0805 36.5360 25.4312 0.0000 -4.6603 0.0000
# 2 36.5360 105.4695 -0.7601 0.0000 -9.6830 0.0000
# 3 25.4312 -0.7601 55.9089 0.0000 1.7116 0.0000
# 4 0.0000 0.0000 0.0000 -127.3971 0.0000 34.5999
# 5 -4.6603 -9.6830 1.7116 0.0000 26.0185 0.0000
# 6 0.0000 0.0000 0.0000 34.5999 0.0000 14.1537
#
#
#
# Elastic Compliance Matrix: (Units=1/GPa)
#
#
# Indices 1 2 3 4 5 6 
#
# 1 0.005307 -0.001816 -0.002452 0.000000 0.000436 0.000000
# 2 -0.001816 0.010438 0.000861 0.000000 0.003503 0.000000
# 3 -0.002452 0.000861 0.019055 0.000000 -0.001372 0.000000
# 4 0.000000 0.000000 0.000000 -0.004717 0.000000 0.011532
# 5 0.000436 0.003503 -0.001372 0.000000 0.039906 0.000000
# 6 0.000000 0.000000 0.000000 0.011532 0.000000 0.042462
#
#
# Mechanical properties :
#
#
# Convention : Reuss Voigt Hill
#
# Bulk Modulus (GPa) = 35.73225 55.20813 45.47019
# Shear Modulus (GPa) = 38.88236 3.43850 21.16043
#
# Velocity S-wave (km/s) = 4.30448 1.28005 3.17546
# Velocity P-wave (km/s) = 6.46004 5.33787 5.92558
#
# Compressibility (1/GPa) = 0.02798592
#
# Stress axis : x y z
#
# Youngs Moduli (GPa) = 188.44491 95.80142 52.47910
#
# Poissons Ratio (x) = 0.17397 0.12867
# Poissons Ratio (y) = 0.34220 -0.04517
# Poissons Ratio (z) = 0.46204 -0.08245
#
# Static dielectric constant tensor:
#      x y z
#    x 1.893100 0.000000 0.025590 
#    y 0.000000 1.783670 0.000000 
#    z 0.025590 0.000000 1.829820 
# 
# From -- ./inp_files/298559.got.cif
#   From: 2010.05.17/outbox.cif.g08.bks.cpg/sg12_150_cif.got.tgz:298559.got - 2010.06.03 13:09:07.
