data_PCOD9169013
_publ_section_title
;
Structure prediction by ZEFSAII (Michael W. Deem and Ramdas Pophale) SiO2 
 PCOD9169013
Probable space group: C 2/M
;
_chemical_formula_sum "Si O2"
_cell_formula_units_Z 52
_cell_length_a 16.049845
_cell_length_b 22.066973
_cell_length_c 11.876588
_cell_angle_alpha 90.000000
_cell_angle_beta 133.365313
_cell_angle_gamma 90.000000
_cell_volume 3057.975730
_symmetry_space_group_name_H-M "C 2/M"
_symmetry_group_IT_number 12
_symmetry_cell_setting 'monoclinic'
loop_
_space_group_symop_operation_xyz
x,y,z
-x,y,-z
-x,-y,-z
x,-y,z
1/2+x,1/2+y,z
1/2-x,1/2+y,-z
1/2-x,1/2-y,-z
1/2+x,1/2-y,z
loop_
_atom_site_type_symbol
_atom_site_label
_atom_site_fract_x
_atom_site_fract_y
_atom_site_fract_z
Si Si1 0.889824 0.371774 0.642979
Si Si2 0.686623 0.000000 0.141677
Si Si3 0.292612 0.299417 0.632798
Si Si4 0.475884 0.000000 0.785323
Si Si5 0.368161 0.764060 0.924619
Si Si6 0.019224 0.243720 0.758094
Si Si7 0.000000 0.809303 0.500000
Si Si8 0.262322 0.626367 0.271862
O O1 0.795223 0.354598 0.460672
O O2 0.949413 0.437439 0.694465
O O3 0.815126 0.372317 0.687916
O O4 0.973975 0.313439 0.727361
O O5 0.606834 0.000000 0.180564
O O6 0.761253 0.060152 0.218697
O O7 0.602188 0.000000 0.956654
O O8 0.250000 0.250000 0.500000
O O9 0.299648 0.272765 0.764911
O O10 0.423701 0.304163 0.714985
O O11 0.305515 0.828166 0.872491
O O12 0.500000 0.770130 0.000000
O O13 0.378478 0.736854 0.058389
O O14 0.031200 0.230110 0.638321
O O15 0.887626 0.849401 0.416692
#
# Coordination Sequence:
#
# PCOD9169013 Si02
#       8
#     8   4   8   4   8   8   4   8
#     4  10  16  32  52  73 104 130 170 211 257 288
#     4   9  20  29  48  74 103 129 170 207 258 294
#     4   9  14  27  48  71  98 131 158 201 254 292
#     4   9  18  28  52  83  92 121 173 227 248 284
#     4  10  17  29  54  75  97 131 170 212 256 291
#     4  10  19  31  50  76 101 136 167 209 254 305
#     4  12  24  33  48  73 112 140 170 194 258 318
#     4  11  19  33  48  74 106 139 163 211 250 307
#
# _framework density 17.004712999999999
#
# number of rings (size 3 to 8) (size 9 to 14) (size 15 to 20)
#    0.000    2.000    6.154    1.846    2.154    0.923 
#    0.000    0.000    0.000    0.462    0.000    9.154 
#    0.000    0.000    0.000    0.000    0.000    0.000 
#
# Total GULP energy -144736.942038 kJ/mol
# GULP energy per Si atom -5566.805463 kJ/mol
# Density = 1.696601 g / cm^3
# Si number density = 17.004713 Si / 1000 Ang^3
#
#
#
# Elastic Constant Matrix: (Units=GPa)
#
#
# Indices 1 2 3 4 5 6 
#
# 1 33.4028 18.7906 21.4163 0.0000 -7.4923 0.0000
# 2 18.7906 107.1319 62.5592 0.0000 -6.8969 0.0000
# 3 21.4163 62.5592 137.7868 0.0000 -20.1014 0.0000
# 4 0.0000 0.0000 0.0000 20.3964 0.0000 0.1415
# 5 -7.4923 -6.8969 -20.1014 0.0000 24.4475 0.0000
# 6 0.0000 0.0000 0.0000 0.1415 0.0000 2.9099
#
#
#
# Elastic Compliance Matrix: (Units=1/GPa)
#
#
# Indices 1 2 3 4 5 6 
#
# 1 0.035672 -0.004326 -0.002458 0.000000 0.007691 0.000000
# 2 -0.004326 0.013264 -0.005678 0.000000 -0.002253 0.000000
# 3 -0.002458 -0.005678 0.011220 0.000000 0.006870 0.000000
# 4 0.000000 0.000000 0.000000 0.049045 0.000000 -0.002385
# 5 0.007691 -0.002253 0.006870 0.000000 0.048274 0.000000
# 6 0.000000 0.000000 0.000000 -0.002385 0.000000 0.343767
#
#
# Mechanical properties :
#
#
# Convention : Reuss Voigt Hill
#
# Bulk Modulus (GPa) = 28.38453 53.76154 41.07304
# Shear Modulus (GPa) = 9.29520 21.25446 15.27483
#
# Velocity S-wave (km/s) = 2.34054 3.53925 3.00037
# Velocity P-wave (km/s) = 4.90230 6.95601 6.01742
#
# Compressibility (1/GPa) = 0.03523046
#
# Stress axis : x y z
#
# Youngs Moduli (GPa) = 28.03282 75.39217 89.12508
#
# Poissons Ratio (x) = 0.32616 0.21911
# Poissons Ratio (y) = 0.12127 0.50610
# Poissons Ratio (z) = 0.06892 0.42811
#
# Static dielectric constant tensor:
#      x y z
#    x 1.625780 0.000000 0.014830 
#    y 0.000000 1.586660 0.000000 
#    z 0.014830 0.000000 1.627840 
# 
# From -- ./inp_files/147754.got.cif
#   From: 2010.05.17/outbox.cif.g08.bks.cpg/sg12_74_cif.got.tgz:147754.got - 2010.06.03 13:09:07.
