data_PCOD9169710
_publ_section_title
;
Structure prediction by ZEFSAII (Michael W. Deem and Ramdas Pophale) SiO2 
 PCOD9169710
Probable space group: C 2/M
;
_chemical_formula_sum "Si O2"
_cell_formula_units_Z 64
_cell_length_a 28.731669
_cell_length_b 23.068807
_cell_length_c 18.806577
_cell_angle_alpha 90.000000
_cell_angle_beta 17.650667
_cell_angle_gamma 90.000000
_cell_volume 3779.576258
_symmetry_space_group_name_H-M "C 2/M"
_symmetry_group_IT_number 12
_symmetry_cell_setting 'monoclinic'
loop_
_space_group_symop_operation_xyz
x,y,z
-x,y,-z
-x,-y,-z
x,-y,z
1/2+x,1/2+y,z
1/2-x,1/2+y,-z
1/2-x,1/2-y,-z
1/2+x,1/2-y,z
loop_
_atom_site_type_symbol
_atom_site_label
_atom_site_fract_x
_atom_site_fract_y
_atom_site_fract_z
Si Si1 0.607856 0.169461 0.001318
Si Si2 0.798450 0.820095 0.009165
Si Si3 0.778030 0.287359 0.728435
Si Si4 0.368712 0.777540 0.250403
Si Si5 0.583325 0.809552 0.196974
Si Si6 0.650392 0.066284 0.830600
Si Si7 0.533059 0.347417 0.875099
Si Si8 0.889612 0.129368 0.389397
O O1 0.449039 0.196972 0.203566
O O2 0.591132 0.159632 0.109486
O O3 0.736120 0.219102 0.797871
O O4 0.641669 0.112185 0.907100
O O5 0.860690 0.755817 0.901013
O O6 0.946343 0.858244 0.813822
O O7 0.699645 0.812309 0.224811
O O8 0.696993 0.837671 0.089582
O O9 0.917992 0.301992 0.473728
O O10 0.624710 0.317354 0.921386
O O11 0.356353 0.708348 0.273598
O O12 0.214759 0.811857 0.456390
O O13 0.500000 0.788526 0.000000
O O14 0.793998 0.082454 0.571769
O O15 0.657020 0.000000 0.845315
O O16 0.500000 0.073342 0.000000
O O17 0.590321 0.383340 0.723974
O O18 0.500000 0.375307 0.000000
#
# Coordination Sequence:
#
# PCOD9169710 Si02
#       8
#     8   8   8   8   8   8   8   8
#     4  10  18  31  49  76  97 130 176 208 253 292
#     4   9  20  31  44  73  99 142 175 191 237 310
#     4   9  18  30  46  71 108 138 161 198 240 311
#     4  10  17  28  45  72  99 134 160 196 248 309
#     4  10  19  30  48  68 104 139 169 200 241 296
#     4  11  22  36  54  75  99 132 176 218 260 310
#     4   9  20  25  42  78 102 127 163 193 248 302
#     4  11  18  33  50  64 103 136 163 210 249 302
#
# _framework density 16.933115000000001
#
# number of rings (size 3 to 8) (size 9 to 14) (size 15 to 20)
#    0.000    2.125    2.500    2.250    5.250    0.000 
#    0.000    1.875    0.000    1.875    0.000    3.500 
#    0.000    5.000    0.000    0.000    0.000    0.000 
#
# Total GULP energy -178479.798553 kJ/mol
# GULP energy per Si atom -5577.493705 kJ/mol
# Density = 1.689457 g / cm^3
# Si number density = 16.933115 Si / 1000 Ang^3
#
#
#
# Elastic Constant Matrix: (Units=GPa)
#
#
# Indices 1 2 3 4 5 6 
#
# 1 136.5119 29.5847 50.5991 -0.0018 22.0725 -0.0009
# 2 29.5847 42.4052 24.9651 -0.0087 8.1625 0.0002
# 3 50.5991 24.9651 95.0832 -0.0098 21.2294 0.0013
# 4 -0.0018 -0.0087 -0.0098 7.9189 0.0000 1.5660
# 5 22.0725 8.1625 21.2294 0.0000 30.6997 -0.0001
# 6 -0.0009 0.0002 0.0013 1.5660 -0.0001 10.9008
#
#
#
# Elastic Compliance Matrix: (Units=1/GPa)
#
#
# Indices 1 2 3 4 5 6 
#
# 1 0.010142 -0.004338 -0.003415 -0.000007 -0.003777 0.000002
# 2 -0.004338 0.029952 -0.005291 0.000026 -0.001186 -0.000004
# 3 -0.003415 -0.005291 0.015209 0.000013 -0.006656 -0.000004
# 4 -0.000007 0.000026 0.000013 0.129973 -0.000011 -0.018671
# 5 -0.003777 -0.001186 -0.006656 -0.000011 0.040207 0.000003
# 6 0.000002 -0.000004 -0.000004 -0.018671 0.000003 0.094419
#
#
# Mechanical properties :
#
#
# Convention : Reuss Voigt Hill
#
# Bulk Modulus (GPa) = 34.22824 53.81090 44.01957
# Shear Modulus (GPa) = 14.05566 21.16063 17.60814
#
# Velocity S-wave (km/s) = 2.88422 3.53889 3.22819
# Velocity P-wave (km/s) = 5.59904 6.96748 6.32041
#
# Compressibility (1/GPa) = 0.02921564
#
# Stress axis : x y z
#
# Youngs Moduli (GPa) = 98.60023 33.38702 65.74857
#
# Poissons Ratio (x) = 0.14484 0.22451
# Poissons Ratio (y) = 0.42776 0.34786
# Poissons Ratio (z) = 0.33669 0.17664
#
# Static dielectric constant tensor:
#      x y z
#    x 1.637260 0.000000 0.020290 
#    y 0.000000 1.537470 0.000000 
#    z 0.020290 0.000000 1.601030 
# 
# From -- ./inp_files/294332.got.cif
#   From: 2010.05.17/outbox.cif.g08.bks.cpg/sg12_148_cif.got.tgz:294332.got - 2010.06.03 13:09:07.
