data_PCOD9169339
_publ_section_title
;
Structure prediction by ZEFSAII (Michael W. Deem and Ramdas Pophale) SiO2 
 PCOD9169339
Probable space group: C 2/M
;
_chemical_formula_sum "Si O2"
_cell_formula_units_Z 48
_cell_length_a 13.926066
_cell_length_b 8.461716
_cell_length_c 18.545597
_cell_angle_alpha 90.000000
_cell_angle_beta 63.767691
_cell_angle_gamma 90.000000
_cell_volume 1960.309479
_symmetry_space_group_name_H-M "C 2/M"
_symmetry_group_IT_number 12
_symmetry_cell_setting 'monoclinic'
loop_
_space_group_symop_operation_xyz
x,y,z
-x,y,-z
-x,-y,-z
x,-y,z
1/2+x,1/2+y,z
1/2-x,1/2+y,-z
1/2-x,1/2-y,-z
1/2+x,1/2-y,z
loop_
_atom_site_type_symbol
_atom_site_label
_atom_site_fract_x
_atom_site_fract_y
_atom_site_fract_z
Si Si1 0.977634 0.184784 0.395866
Si Si2 0.601023 0.310824 0.056387
Si Si3 0.447183 0.680574 0.776367
Si Si4 0.322372 0.318211 0.561528
Si Si5 0.863198 0.685987 0.103865
Si Si6 0.696511 0.325000 0.733285
O O1 0.032362 0.260505 0.307527
O O2 0.870968 0.251173 0.470450
O O3 0.072517 0.179975 0.422064
O O4 0.951969 0.000000 0.386475
O O5 0.617463 0.500000 0.050702
O O6 0.613151 0.249247 0.134607
O O7 0.475698 0.275401 0.080288
O O8 0.664118 0.231305 0.969514
O O9 0.406073 0.500000 0.779246
O O10 0.569573 0.668190 0.763225
O O11 0.291174 0.500000 0.559153
O O12 0.239611 0.237595 0.642703
O O13 0.882324 0.500000 0.100235
O O14 0.787765 0.729841 0.197134
O O15 0.739413 0.500000 0.730658
#
# Coordination Sequence:
#
# PCOD9169339 Si02
#       6
#     8   8   8   8   8   8
#     4   8  15  30  49  68  90 119 155 187 221 269
#     4   9  15  25  42  65  93 122 150 182 225 271
#     4   8  15  27  45  68  93 122 152 183 222 268
#     4   9  17  30  50  70  89 118 154 190 224 266
#     4  10  17  26  42  64  91 121 153 187 222 266
#     4  10  19  30  45  67  95 122 150 188 231 271
#
# _framework density 24.48593
#
# number of rings (size 3 to 8) (size 9 to 14) (size 15 to 20)
#    0.000    3.000    0.000    5.500    0.000    0.667 
#    0.000    1.667    0.000   12.000    0.000    0.000 
#    0.000    0.000    0.000    0.000    0.000    0.000 
#
# Total GULP energy -133798.500189 kJ/mol
# GULP energy per Si atom -5574.937508 kJ/mol
# Density = 2.443020 g / cm^3
# Si number density = 24.485930 Si / 1000 Ang^3
#
#
#
# Elastic Constant Matrix: (Units=GPa)
#
#
# Indices 1 2 3 4 5 6 
#
# 1 33.8919 -2.6578 33.8376 0.0000 -7.6207 0.0000
# 2 -2.6578 41.9323 22.4924 0.0000 0.0777 0.0000
# 3 33.8376 22.4924 249.7621 0.0000 8.5960 0.0000
# 4 0.0000 0.0000 0.0000 -3.5650 0.0000 -24.2706
# 5 -7.6207 0.0777 8.5960 0.0000 53.0481 0.0000
# 6 0.0000 0.0000 0.0000 -24.2706 0.0000 -18.1951
#
#
#
# Elastic Compliance Matrix: (Units=1/GPa)
#
#
# Indices 1 2 3 4 5 6 
#
# 1 0.037044 0.005405 -0.005720 0.000000 0.006241 0.000000
# 2 0.005405 0.025853 -0.003103 0.000000 0.001241 0.000000
# 3 -0.005720 -0.003103 0.005115 0.000000 -0.001646 0.000000
# 4 0.000000 0.000000 0.000000 0.034710 0.000000 -0.046300
# 5 0.006241 0.001241 -0.001646 0.000000 0.020012 0.000000
# 6 0.000000 0.000000 0.000000 -0.046300 0.000000 0.006801
#
#
# Mechanical properties :
#
#
# Convention : Reuss Voigt Hill
#
# Bulk Modulus (GPa) = 16.34686 48.10342 32.22514
# Shear Modulus (GPa) = 31.89526 24.38521 28.14023
#
# Velocity S-wave (km/s) = 3.61306 3.15919 3.39372
# Velocity P-wave (km/s) = 4.90878 5.74415 5.34282
#
# Compressibility (1/GPa) = 0.06117384
#
# Stress axis : x y z
#
# Youngs Moduli (GPa) = 26.99528 38.68065 195.50838
#
# Poissons Ratio (x) = -0.20905 1.11833
# Poissons Ratio (y) = -0.14590 0.60668
# Poissons Ratio (z) = 0.15442 0.12003
#
# Static dielectric constant tensor:
#      x y z
#    x 2.065050 0.000000 -0.006630 
#    y 0.000000 1.862210 0.000000 
#    z -0.006630 0.000000 2.091800 
# 
# From -- ./inp_files/313219.got.cif
#   From: 2010.05.17/outbox.cif.g08.bks.cpg/sg12_157_cif.got.tgz:313219.got - 2010.06.03 13:09:07.
