data_PCOD9169982
_publ_section_title
;
Structure prediction by ZEFSAII (Michael W. Deem and Ramdas Pophale) SiO2 
 PCOD9169982
Probable space group: C 2/M
;
_chemical_formula_sum "Si O2"
_cell_formula_units_Z 64
_cell_length_a 26.470508
_cell_length_b 13.321896
_cell_length_c 11.882089
_cell_angle_alpha 90.000000
_cell_angle_beta 73.760340
_cell_angle_gamma 90.000000
_cell_volume 4022.886121
_symmetry_space_group_name_H-M "C 2/M"
_symmetry_group_IT_number 12
_symmetry_cell_setting 'monoclinic'
loop_
_space_group_symop_operation_xyz
x,y,z
-x,y,-z
-x,-y,-z
x,-y,z
1/2+x,1/2+y,z
1/2-x,1/2+y,-z
1/2-x,1/2-y,-z
1/2+x,1/2-y,z
loop_
_atom_site_type_symbol
_atom_site_label
_atom_site_fract_x
_atom_site_fract_y
_atom_site_fract_z
Si Si1 0.356932 0.619068 0.022867
Si Si2 0.163727 0.380498 0.138609
Si Si3 0.930086 0.708785 0.949089
Si Si4 0.642076 0.881421 0.638753
Si Si5 0.191885 0.379982 0.369216
Si Si6 0.712000 0.745690 0.758591
Si Si7 0.762054 0.881533 0.919024
Si Si8 0.961106 0.380957 0.167496
O O1 0.361042 0.500000 0.038706
O O2 0.325321 0.674070 0.143031
O O3 0.412466 0.676162 0.976906
O O4 0.319826 0.634584 0.935595
O O5 0.157686 0.500000 0.139892
O O6 0.117060 0.335855 0.094743
O O7 0.164765 0.349918 0.268192
O O8 0.219661 0.358796 0.044249
O O9 0.985907 0.684104 0.857643
O O10 0.933905 0.652908 0.067240
O O11 0.657371 0.859594 0.500670
O O12 0.677215 0.814459 0.699177
O O13 0.581152 0.864631 0.708172
O O14 0.652399 0.000000 0.653269
O O15 0.201487 0.500000 0.357911
O O16 0.246894 0.321595 0.336081
O O17 0.744621 0.817024 0.823380
O O18 0.757159 0.000000 0.896145
O O19 0.973980 0.500000 0.153694
#
# Coordination Sequence:
#
# PCOD9169982 Si02
#       8
#     8   8   8   8   8   8   8   8
#     4  11  21  31  46  75 110 134 158 197 248 303
#     4  10  17  29  49  76 103 130 162 197 246 303
#     4  11  19  32  52  75  99 129 164 201 257 301
#     4  10  21  36  51  71  98 132 171 211 248 287
#     4  10  21  33  48  72 106 139 166 197 239 295
#     4  12  18  32  52  74 102 137 168 197 242 300
#     4  10  19  30  49  78 106 131 161 205 252 297
#     4  10  20  35  54  76  99 124 164 217 257 294
#
# _framework density 15.908975999999999
#
# number of rings (size 3 to 8) (size 9 to 14) (size 15 to 20)
#    0.000    1.500    3.750    3.750    0.000    2.000 
#    0.000    1.875    0.000    3.000    0.000    0.000 
#    0.000    3.000    0.000    0.000    0.000    0.000 
#
# Total GULP energy -178547.976599 kJ/mol
# GULP energy per Si atom -5579.624269 kJ/mol
# Density = 1.587277 g / cm^3
# Si number density = 15.908976 Si / 1000 Ang^3
#
#
#
# Elastic Constant Matrix: (Units=GPa)
#
#
# Indices 1 2 3 4 5 6 
#
# 1 88.8719 47.1053 40.1195 0.0000 -12.8706 0.0000
# 2 47.1053 82.7068 39.4034 0.0000 -9.2980 0.0000
# 3 40.1195 39.4034 81.2867 0.0000 -17.7868 0.0000
# 4 0.0000 0.0000 0.0000 22.7300 0.0000 -3.9151
# 5 -12.8706 -9.2980 -17.7868 0.0000 20.9598 0.0000
# 6 0.0000 0.0000 0.0000 -3.9151 0.0000 30.3096
#
#
#
# Elastic Compliance Matrix: (Units=1/GPa)
#
#
# Indices 1 2 3 4 5 6 
#
# 1 0.017794 -0.007695 -0.004185 0.000000 0.003961 0.000000
# 2 -0.007695 0.019056 -0.005678 0.000000 -0.001090 0.000000
# 3 -0.004185 -0.005678 0.019657 0.000000 0.011592 0.000000
# 4 0.000000 0.000000 0.000000 0.044996 0.000000 0.005812
# 5 0.003961 -0.001090 0.011592 0.000000 0.059497 0.000000
# 6 0.000000 0.000000 0.000000 0.005812 0.000000 0.033744
#
#
# Mechanical properties :
#
#
# Convention : Reuss Voigt Hill
#
# Bulk Modulus (GPa) = 46.75086 56.23575 51.49331
# Shear Modulus (GPa) = 21.09795 23.21567 22.15681
#
# Velocity S-wave (km/s) = 3.64561 3.82420 3.73597
# Velocity P-wave (km/s) = 6.86811 7.41111 7.14477
#
# Compressibility (1/GPa) = 0.02138998
#
# Stress axis : x y z
#
# Youngs Moduli (GPa) = 56.19900 52.47638 50.87302
#
# Poissons Ratio (x) = 0.40381 0.21292
# Poissons Ratio (y) = 0.43246 0.28886
# Poissons Ratio (z) = 0.23521 0.29796
#
# Static dielectric constant tensor:
#      x y z
#    x 1.524140 0.000000 -0.006130 
#    y 0.000000 1.553460 0.000000 
#    z -0.006130 0.000000 1.529080 
# 
# From -- ./inp_files/176107.got.cif
#   From: 2010.05.17/outbox.cif.g08.bks.cpg/sg12_89_cif.got.tgz:176107.got - 2010.06.03 13:09:07.
