data_PCOD9169495
_publ_section_title
;
Structure prediction by ZEFSAII (Michael W. Deem and Ramdas Pophale) SiO2 
 PCOD9169495
Probable space group: C 2/M
;
_chemical_formula_sum "Si O2"
_cell_formula_units_Z 56
_cell_length_a 23.016343
_cell_length_b 8.636687
_cell_length_c 26.449765
_cell_angle_alpha 90.000000
_cell_angle_beta 140.902250
_cell_angle_gamma 90.000000
_cell_volume 3315.816625
_symmetry_space_group_name_H-M "C 2/M"
_symmetry_group_IT_number 12
_symmetry_cell_setting 'monoclinic'
loop_
_space_group_symop_operation_xyz
x,y,z
-x,y,-z
-x,-y,-z
x,-y,z
1/2+x,1/2+y,z
1/2-x,1/2+y,-z
1/2-x,1/2-y,-z
1/2+x,1/2-y,z
loop_
_atom_site_type_symbol
_atom_site_label
_atom_site_fract_x
_atom_site_fract_y
_atom_site_fract_z
Si Si1 0.734879 0.315648 0.239298
Si Si2 0.622285 0.314632 0.954598
Si Si3 0.390971 0.684719 0.269604
Si Si4 0.016635 0.314986 0.434304
Si Si5 0.035405 0.315173 0.080115
Si Si6 0.858681 0.185041 0.403251
Si Si7 0.331998 0.814577 0.123284
O O1 0.746047 0.500000 0.247457
O O2 0.804347 0.246656 0.244089
O O3 0.631658 0.267780 0.156384
O O4 0.766198 0.247011 0.314694
O O5 0.611676 0.500000 0.946843
O O6 0.541869 0.238050 0.932581
O O7 0.625629 0.250699 0.899872
O O8 0.722466 0.278709 0.046534
O O9 0.393638 0.500000 0.275272
O O10 0.482890 0.755324 0.357244
O O11 0.375912 0.739181 0.202363
O O12 0.015864 0.500000 0.435857
O O13 0.937227 0.248325 0.417901
O O14 0.111176 0.250572 0.521928
O O15 0.048790 0.500000 0.091964
O O16 0.000000 0.276347 0.000000
O O17 0.860643 0.000000 0.405014
O O18 0.341909 0.000000 0.131765
#
# Coordination Sequence:
#
# PCOD9169495 Si02
#       7
#     8   8   8   8   8   8   8
#     4  11  21  33  49  71 100 134 170 206 248 298
#     4  10  21  36  54  75  99 130 167 206 249 295
#     4  11  20  31  48  73 103 133 167 206 250 297
#     4  10  17  27  43  66  96 129 164 201 245 294
#     4  11  23  37  53  74 101 133 168 206 248 294
#     4  10  17  28  44  65  95 129 164 201 245 295
#     4  10  20  35  54  75 100 130 165 206 250 295
#
# _framework density 16.888750000000002
#
# number of rings (size 3 to 8) (size 9 to 14) (size 15 to 20)
#    0.000    1.571    0.000    9.857    0.000    5.143 
#    0.000    0.000    0.000    0.000    0.000    1.000 
#    0.000    0.000    0.000    0.000    0.000    0.000 
#
# Total GULP energy -156325.564958 kJ/mol
# GULP energy per Si atom -5583.055891 kJ/mol
# Density = 1.685031 g / cm^3
# Si number density = 16.888750 Si / 1000 Ang^3
#
#
#
# Elastic Constant Matrix: (Units=GPa)
#
#
# Indices 1 2 3 4 5 6 
#
# 1 45.9998 21.9371 40.4192 0.0000 -7.6522 0.0000
# 2 21.9371 140.2795 74.2571 0.0000 -9.3338 0.0001
# 3 40.4192 74.2571 162.9279 0.0000 -20.4392 0.0000
# 4 0.0000 0.0000 0.0000 33.0912 0.0000 -2.3448
# 5 -7.6522 -9.3338 -20.4392 0.0000 19.1398 0.0000
# 6 0.0000 0.0001 0.0000 -2.3448 0.0000 24.0019
#
#
#
# Elastic Compliance Matrix: (Units=1/GPa)
#
#
# Indices 1 2 3 4 5 6 
#
# 1 0.028205 -0.000931 -0.006022 0.000000 0.004392 0.000000
# 2 -0.000931 0.009426 -0.004082 0.000000 -0.000135 0.000000
# 3 -0.006022 -0.004082 0.010323 0.000000 0.006626 0.000000
# 4 0.000000 0.000000 0.000000 0.030430 0.000000 0.002973
# 5 0.004392 -0.000135 0.006626 0.000000 0.061013 0.000000
# 6 0.000000 0.000000 0.000000 0.002973 0.000000 0.041954
#
#
# Mechanical properties :
#
#
# Convention : Reuss Voigt Hill
#
# Bulk Modulus (GPa) = 38.63267 69.15935 53.89601
# Shear Modulus (GPa) = 23.57943 29.41950 26.49946
#
# Velocity S-wave (km/s) = 3.74058 4.17821 3.96543
# Velocity P-wave (km/s) = 6.44828 8.01969 7.27653
#
# Compressibility (1/GPa) = 0.02588483
#
# Stress axis : x y z
#
# Youngs Moduli (GPa) = 35.45463 106.08870 96.86848
#
# Poissons Ratio (x) = 0.09875 0.58333
# Poissons Ratio (y) = 0.03300 0.39542
# Poissons Ratio (z) = 0.21350 0.43306
#
# Static dielectric constant tensor:
#      x y z
#    x 1.541010 0.000000 -0.004440 
#    y 0.000000 1.561530 0.000000 
#    z -0.004440 0.000000 1.616360 
# 
# From -- ./inp_files/348625.got.cif
#   From: 2010.05.17/outbox.cif.g08.bks.cpg/sg12_175_cif.got.tgz:348625.got - 2010.06.03 13:09:07.
