data_PCOD9169186
_publ_section_title
;
Structure prediction by ZEFSAII (Michael W. Deem and Ramdas Pophale) SiO2 
 PCOD9169186
Probable space group: C 2/M
;
_chemical_formula_sum "Si O2"
_cell_formula_units_Z 56
_cell_length_a 14.163167
_cell_length_b 8.357098
_cell_length_c 31.952735
_cell_angle_alpha 90.000000
_cell_angle_beta 40.079976
_cell_angle_gamma 90.000000
_cell_volume 2435.077751
_symmetry_space_group_name_H-M "C 2/M"
_symmetry_group_IT_number 12
_symmetry_cell_setting 'monoclinic'
loop_
_space_group_symop_operation_xyz
x,y,z
-x,y,-z
-x,-y,-z
x,-y,z
1/2+x,1/2+y,z
1/2-x,1/2+y,-z
1/2-x,1/2-y,-z
1/2+x,1/2-y,z
loop_
_atom_site_type_symbol
_atom_site_label
_atom_site_fract_x
_atom_site_fract_y
_atom_site_fract_z
Si Si1 0.581805 0.182144 0.842013
Si Si2 0.064724 0.816237 0.280448
Si Si3 0.902863 0.696266 0.072152
Si Si4 0.620941 0.828679 0.496151
Si Si5 0.892630 0.325155 0.647651
Si Si6 0.566307 0.308988 0.189373
Si Si7 0.310351 0.500000 0.536434
Si Si8 0.646261 0.500000 0.382428
O O1 0.758104 0.177547 0.783939
O O2 0.537414 0.249120 0.902602
O O3 0.529741 0.270051 0.818243
O O4 0.527921 0.000000 0.856904
O O5 0.045485 0.707226 0.327292
O O6 0.010813 0.752441 0.253834
O O7 0.013761 0.000000 0.304879
O O8 0.903481 0.500000 0.072934
O O9 0.733533 0.748314 0.125252
O O10 0.000000 0.747433 0.000000
O O11 0.500000 0.803105 0.500000
O O12 0.520815 0.840014 0.570488
O O13 0.728913 0.680201 0.461782
O O14 0.694649 0.000000 0.463942
O O15 0.813534 0.500000 0.673756
O O16 0.820493 0.158335 0.656159
O O17 0.574838 0.500000 0.191218
O O18 0.474031 0.500000 0.457502
O O19 0.284383 0.500000 0.595200
#
# Coordination Sequence:
#
# PCOD9169186 Si02
#       8
#     8   8   8   8   8   8   4   4
#     4   9  18  32  50  70  95 129 163 200 244 289
#     4   9  18  32  46  63  92 128 165 203 245 298
#     4   8  15  30  51  74 100 131 164 194 236 296
#     4   9  14  20  31  52  81 113 150 195 240 292
#     4  10  17  24  39  61  86 121 160 202 250 292
#     4   9  18  32  50  70  95 129 163 200 244 289
#     4   9  12  20  32  48  76 124 148 178 248 298
#     4   9  14  22  34  54  86 120 151 198 244 296
#
# _framework density 22.997214
#
# number of rings (size 3 to 8) (size 9 to 14) (size 15 to 20)
#    0.000    3.000    3.571    1.714    0.000    1.714 
#    0.000    2.143    0.000    0.857    0.000    0.000 
#    0.000    1.143    0.000    9.714    0.000   13.143 
#
# Total GULP energy -156083.908166 kJ/mol
# GULP energy per Si atom -5574.425292 kJ/mol
# Density = 2.294487 g / cm^3
# Si number density = 22.997214 Si / 1000 Ang^3
#
#
#
# Elastic Constant Matrix: (Units=GPa)
#
#
# Indices 1 2 3 4 5 6 
#
# 1 101.7879 20.5529 50.3891 0.0004 32.8919 0.0000
# 2 20.5529 132.3694 25.0273 0.0008 11.4127 0.0003
# 3 50.3891 25.0273 112.6690 0.0000 39.9718 -0.0002
# 4 0.0004 0.0008 0.0000 12.7073 0.0001 10.5799
# 5 32.8919 11.4127 39.9718 0.0001 40.9408 -0.0001
# 6 0.0000 0.0003 -0.0002 10.5799 -0.0001 0.8859
#
#
#
# Elastic Compliance Matrix: (Units=1/GPa)
#
#
# Indices 1 2 3 4 5 6 
#
# 1 0.014219 -0.000892 -0.003360 0.000000 -0.007894 0.000000
# 2 -0.000892 0.007957 -0.001279 0.000000 -0.000253 0.000000
# 3 -0.003360 -0.001279 0.014654 0.000000 -0.011251 0.000000
# 4 0.000000 0.000000 0.000000 -0.008799 0.000000 0.105087
# 5 -0.007894 -0.000253 -0.011251 0.000000 0.041823 0.000000
# 6 0.000000 0.000000 0.000000 0.105087 0.000000 -0.126218
#
#
# Mechanical properties :
#
#
# Convention : Reuss Voigt Hill
#
# Bulk Modulus (GPa) = 38.80882 59.86275 49.33578
# Shear Modulus (GPa) = -136.18790 27.63061 -54.27865
#
# Velocity S-wave (km/s) = -7.70376 3.46999 -4.86349
# Velocity P-wave (km/s) = 7.88786 6.49164 3.16836
#
# Compressibility (1/GPa) = 0.02576734
#
# Stress axis : x y z
#
# Youngs Moduli (GPa) = 70.32928 125.68042 68.24054
#
# Poissons Ratio (x) = 0.11208 0.22932
# Poissons Ratio (y) = 0.06272 0.08727
# Poissons Ratio (z) = 0.23634 0.16073
#
# Static dielectric constant tensor:
#      x y z
#    x 1.898130 0.000000 0.019630 
#    y 0.000000 1.932940 0.000000 
#    z 0.019630 0.000000 1.869160 
# 
# From -- ./inp_files/374968.got.cif
#   From: 2010.05.17/outbox.cif.g08.bks.cpg/sg12_188_cif.got.tgz:374968.got - 2010.06.03 13:09:07.
