data_PCOD9169098
_publ_section_title
;
Structure prediction by ZEFSAII (Michael W. Deem and Ramdas Pophale) SiO2 
 PCOD9169098
Probable space group: C 2/M
;
_chemical_formula_sum "Si O2"
_cell_formula_units_Z 56
_cell_length_a 18.398633
_cell_length_b 16.039876
_cell_length_c 11.716513
_cell_angle_alpha 90.000000
_cell_angle_beta 126.170959
_cell_angle_gamma 90.000000
_cell_volume 2791.246173
_symmetry_space_group_name_H-M "C 2/M"
_symmetry_group_IT_number 12
_symmetry_cell_setting 'monoclinic'
loop_
_space_group_symop_operation_xyz
x,y,z
-x,y,-z
-x,-y,-z
x,-y,z
1/2+x,1/2+y,z
1/2-x,1/2+y,-z
1/2-x,1/2-y,-z
1/2+x,1/2-y,z
loop_
_atom_site_type_symbol
_atom_site_label
_atom_site_fract_x
_atom_site_fract_y
_atom_site_fract_z
Si Si1 0.096485 0.333345 0.050003
Si Si2 0.646375 0.244967 0.867114
Si Si3 0.259277 0.592683 0.325304
Si Si4 0.603445 0.744821 0.579547
Si Si5 0.789256 0.663063 0.487826
Si Si6 0.441504 0.405806 0.125088
Si Si7 0.376056 0.647830 0.822810
O O1 0.181686 0.389048 0.161065
O O2 0.111911 0.245342 0.132330
O O3 0.097274 0.309889 0.917556
O O4 0.000000 0.366706 0.000000
O O5 0.638365 0.216005 0.730436
O O6 0.602555 0.337048 0.834859
O O7 0.750000 0.250000 0.000000
O O8 0.295953 0.500000 0.347789
O O9 0.335828 0.663088 0.386182
O O10 0.211061 0.603658 0.403908
O O11 0.500000 0.723746 0.500000
O O12 0.620200 0.809615 0.492178
O O13 0.750000 0.750000 0.500000
O O14 0.717593 0.633651 0.326771
O O15 0.438877 0.500000 0.165400
O O16 0.543143 0.379124 0.186159
O O17 0.389649 0.399176 0.955171
#
# Coordination Sequence:
#
# PCOD9169098 Si02
#       7
#     8   8   8   8   8   8   8
#     4  11  20  37  67  88 115 160 217 257 294 365
#     4  11  21  39  60  89 124 168 205 245 309 375
#     4  11  25  42  61  92 129 159 204 263 315 371
#     4  11  24  39  65  95 123 163 210 256 311 378
#     4  10  21  38  62  84 117 163 212 246 294 371
#     4  10  21  32  56  94 125 146 194 261 316 358
#     4  10  16  34  59  87 116 155 202 248 296 360
#
# _framework density 20.062725
#
# number of rings (size 3 to 8) (size 9 to 14) (size 15 to 20)
#    0.000    1.429    7.143    1.714    6.000    2.286 
#    0.000    0.000    0.000    1.286    0.000    0.000 
#    0.000    0.000    0.000    0.000    0.000    0.000 
#
# Total GULP energy -156392.261600 kJ/mol
# GULP energy per Si atom -5585.437914 kJ/mol
# Density = 2.001706 g / cm^3
# Si number density = 20.062725 Si / 1000 Ang^3
#
#
#
# Elastic Constant Matrix: (Units=GPa)
#
#
# Indices 1 2 3 4 5 6 
#
# 1 106.0802 14.2009 24.5748 0.0000 -3.4460 0.0000
# 2 14.2009 38.3711 12.9808 0.0000 -0.0692 0.0000
# 3 24.5748 12.9808 51.2165 0.0000 -4.1749 0.0000
# 4 0.0000 0.0000 0.0000 14.8001 0.0000 1.3069
# 5 -3.4460 -0.0692 -4.1749 0.0000 29.0420 0.0000
# 6 0.0000 0.0000 0.0000 1.3069 0.0000 7.4188
#
#
#
# Elastic Compliance Matrix: (Units=1/GPa)
#
#
# Indices 1 2 3 4 5 6 
#
# 1 0.010825 -0.002478 -0.004515 0.000000 0.000630 0.000000
# 2 -0.002478 0.029100 -0.006278 0.000000 -0.001127 0.000000
# 3 -0.004515 -0.006278 0.023513 0.000000 0.002829 0.000000
# 4 0.000000 0.000000 0.000000 0.068635 0.000000 -0.012091
# 5 0.000630 -0.001127 0.002829 0.000000 0.034912 0.000000
# 6 0.000000 0.000000 0.000000 -0.012091 0.000000 0.136923
#
#
# Mechanical properties :
#
#
# Convention : Reuss Voigt Hill
#
# Bulk Modulus (GPa) = 27.10290 33.24230 30.17260
# Shear Modulus (GPa) = 14.58797 19.84626 17.21711
#
# Velocity S-wave (km/s) = 2.69944 3.14858 2.93262
# Velocity P-wave (km/s) = 4.82228 5.46107 5.15158
#
# Compressibility (1/GPa) = 0.03689642
#
# Stress axis : x y z
#
# Youngs Moduli (GPa) = 92.37986 34.36397 42.52942
#
# Poissons Ratio (x) = 0.08515 0.19201
# Poissons Ratio (y) = 0.22889 0.26702
# Poissons Ratio (z) = 0.41707 0.21575
#
# Static dielectric constant tensor:
#      x y z
#    x 1.730680 0.000000 -0.011630 
#    y 0.000000 1.708320 0.000000 
#    z -0.011630 0.000000 1.742450 
# 
# From -- ./inp_files/157941.got.cif
#   From: 2010.05.17/outbox.cif.g08.bks.cpg/sg12_79_cif.got.tgz:157941.got - 2010.06.03 13:09:07.
