data_PCOD9169939
_publ_section_title
;
Structure prediction by ZEFSAII (Michael W. Deem and Ramdas Pophale) SiO2 
 PCOD9169939
Probable space group: C 2/M
;
_chemical_formula_sum "Si O2"
_cell_formula_units_Z 56
_cell_length_a 34.343697
_cell_length_b 7.478294
_cell_length_c 12.873673
_cell_angle_alpha 90.000000
_cell_angle_beta 118.678819
_cell_angle_gamma 90.000000
_cell_volume 2900.760548
_symmetry_space_group_name_H-M "C 2/M"
_symmetry_group_IT_number 12
_symmetry_cell_setting 'monoclinic'
loop_
_space_group_symop_operation_xyz
x,y,z
-x,y,-z
-x,-y,-z
x,-y,z
1/2+x,1/2+y,z
1/2-x,1/2+y,-z
1/2-x,1/2-y,-z
1/2+x,1/2-y,z
loop_
_atom_site_type_symbol
_atom_site_label
_atom_site_fract_x
_atom_site_fract_y
_atom_site_fract_z
Si Si1 0.704181 0.790203 0.807177
Si Si2 0.045914 0.718542 0.354280
Si Si3 0.458489 0.793971 0.884497
Si Si4 0.607042 0.290859 0.022931
Si Si5 0.388949 0.219462 0.382290
Si Si6 0.697857 0.282570 0.042167
Si Si7 0.945493 0.715679 0.254931
O O1 0.661823 0.717545 0.691682
O O2 0.753991 0.717701 0.857290
O O3 0.802191 0.000000 0.957469
O O4 0.693557 0.772612 0.916353
O O5 0.047264 0.500000 0.358636
O O6 0.051014 0.780181 0.241781
O O7 0.083948 0.777563 0.481982
O O8 0.996644 0.772624 0.327719
O O9 0.471651 0.000000 0.880852
O O10 0.500000 0.710777 0.000000
O O11 0.417049 0.791269 0.908766
O O12 0.611645 0.500000 0.051486
O O13 0.575902 0.270372 0.881823
O O14 0.655438 0.220143 0.052704
O O15 0.415782 0.276113 0.313568
O O16 0.293025 0.000000 0.214098
O O17 0.611763 0.000000 0.619971
O O18 0.945371 0.500000 0.256088
#
# Coordination Sequence:
#
# PCOD9169939 Si02
#       7
#     8   8   8   8   8   8   8
#     4   9  16  28  48  71  93 118 154 191 228 277
#     4   9  17  29  46  70  97 120 151 196 238 271
#     4  10  19  33  51  69  90 121 160 201 236 267
#     4  11  21  31  46  68  98 128 156 189 232 278
#     4   9  16  26  47  75  96 119 151 191 234 278
#     4   9  18  30  44  67  97 125 150 187 234 274
#     4  10  17  29  48  71  97 123 153 187 230 280
#
# _framework density 19.305282999999999
#
# number of rings (size 3 to 8) (size 9 to 14) (size 15 to 20)
#    0.000    2.429    2.857    0.857    0.000    2.571 
#    0.000    0.000    0.000    5.143    0.000    0.000 
#    0.000    0.000    0.000    0.000    0.000    0.143 
#
# Total GULP energy -156243.503205 kJ/mol
# GULP energy per Si atom -5580.125114 kJ/mol
# Density = 1.926134 g / cm^3
# Si number density = 19.305283 Si / 1000 Ang^3
#
#
#
# Elastic Constant Matrix: (Units=GPa)
#
#
# Indices 1 2 3 4 5 6 
#
# 1 116.1292 -8.2345 59.2561 0.0000 33.4141 0.0000
# 2 -8.2345 52.1411 -1.8947 0.0000 3.3905 0.0000
# 3 59.2561 -1.8947 124.8454 0.0000 26.1081 0.0000
# 4 0.0000 0.0000 0.0000 -3.3591 0.0000 10.7091
# 5 33.4141 3.3905 26.1081 0.0000 30.8728 0.0000
# 6 0.0000 0.0000 0.0000 10.7091 0.0000 -7.2923
#
#
#
# Elastic Compliance Matrix: (Units=1/GPa)
#
#
# Indices 1 2 3 4 5 6 
#
# 1 0.014601 0.002965 -0.004267 0.000000 -0.012520 0.000000
# 2 0.002965 0.020001 0.000032 0.000000 -0.005433 0.000000
# 3 -0.004267 0.000032 0.011019 0.000000 -0.004704 0.000000
# 4 0.000000 0.000000 0.000000 0.080856 0.000000 0.118741
# 5 -0.012520 -0.005433 -0.004704 0.000000 0.050517 0.000000
# 6 0.000000 0.000000 0.000000 0.118741 0.000000 0.037245
#
#
# Mechanical properties :
#
#
# Convention : Reuss Voigt Hill
#
# Bulk Modulus (GPa) = 23.21106 43.48549 33.34828
# Shear Modulus (GPa) = 21.63195 20.31019 20.97107
#
# Velocity S-wave (km/s) = 3.35105 3.24706 3.29946
# Velocity P-wave (km/s) = 5.19827 6.05243 5.64154
#
# Compressibility (1/GPa) = 0.04308291
#
# Stress axis : x y z
#
# Youngs Moduli (GPa) = 68.48824 49.99637 90.74927
#
# Poissons Ratio (x) = -0.14824 0.38722
# Poissons Ratio (y) = -0.20307 -0.00294
# Poissons Ratio (z) = 0.29223 -0.00162
#
# Static dielectric constant tensor:
#      x y z
#    x 1.676430 0.000000 0.025860 
#    y 0.000000 1.725280 0.000000 
#    z 0.025860 0.000000 1.650610 
# 
# From -- ./inp_files/186865.got.cif
#   From: 2010.05.17/outbox.cif.g08.bks.cpg/sg12_94_cif.got.tgz:186865.got - 2010.06.03 13:09:07.
