data_PCOD9169045
_publ_section_title
;
Structure prediction by ZEFSAII (Michael W. Deem and Ramdas Pophale) SiO2 
 PCOD9169045
Probable space group: C 2/M
;
_chemical_formula_sum "Si O2"
_cell_formula_units_Z 32
_cell_length_a 13.420479
_cell_length_b 8.891817
_cell_length_c 10.350759
_cell_angle_alpha 90.000000
_cell_angle_beta 73.623840
_cell_angle_gamma 90.000000
_cell_volume 1185.071746
_symmetry_space_group_name_H-M "C 2/M"
_symmetry_group_IT_number 12
_symmetry_cell_setting 'monoclinic'
loop_
_space_group_symop_operation_xyz
x,y,z
-x,y,-z
-x,-y,-z
x,-y,z
1/2+x,1/2+y,z
1/2-x,1/2+y,-z
1/2-x,1/2-y,-z
1/2+x,1/2-y,z
loop_
_atom_site_type_symbol
_atom_site_label
_atom_site_fract_x
_atom_site_fract_y
_atom_site_fract_z
Si Si1 0.382684 0.830414 0.489304
Si Si2 0.381249 0.000000 0.008490
Si Si3 0.743694 0.500000 0.839591
Si Si4 0.567793 0.500000 0.133635
Si Si5 0.384130 0.745981 0.199401
Si Si6 0.379356 0.500000 0.586260
O O1 0.500000 0.824878 0.500000
O O2 0.393238 0.827766 0.330431
O O3 0.338317 0.662118 0.546541
O O4 0.344774 0.000000 0.536754
O O5 0.350520 0.149889 0.092640
O O6 0.500000 0.000000 0.000000
O O7 0.352369 0.000000 0.870516
O O8 0.714132 0.638432 0.764249
O O9 0.658908 0.500000 0.992223
O O10 0.489060 0.643417 0.148120
O O11 0.617828 0.500000 0.258192
O O12 0.500000 0.500000 0.500000
#
# Coordination Sequence:
#
# PCOD9169045 Si02
#       6
#     8   4   4   4   8   4
#     4  10  18  32  58  99 133 174 225 271 316 395
#     4  12  25  42  62  93 128 172 222 275 339 398
#     4  11  25  40  61  92 138 170 217 276 328 399
#     4  11  20  38  62  98 128 174 215 259 329 408
#     4  11  20  38  64  95 129 173 212 261 337 399
#     4  10  16  32  59  92 130 178 218 258 322 397
#
# _framework density 27.002585
#
# number of rings (size 3 to 8) (size 9 to 14) (size 15 to 20)
#    0.000    1.250    6.250    4.500    0.000    0.000 
#    0.000    0.000    0.000    1.500    6.500    0.000 
#    0.000    0.000    0.000    0.000    0.000    0.000 
#
# Total GULP energy -89476.254622 kJ/mol
# GULP energy per Si atom -5592.265914 kJ/mol
# Density = 2.694113 g / cm^3
# Si number density = 27.002585 Si / 1000 Ang^3
#
#
#
# Elastic Constant Matrix: (Units=GPa)
#
#
# Indices 1 2 3 4 5 6 
#
# 1 74.9802 23.9757 12.9689 0.0000 6.5804 0.0000
# 2 23.9757 231.5378 25.8848 0.0000 -3.9874 0.0000
# 3 12.9689 25.8848 83.2304 0.0000 16.7653 0.0000
# 4 0.0000 0.0000 0.0000 71.4138 0.0000 25.7712
# 5 6.5804 -3.9874 16.7653 0.0000 58.3062 0.0000
# 6 0.0000 0.0000 0.0000 25.7712 0.0000 54.9959
#
#
#
# Elastic Compliance Matrix: (Units=1/GPa)
#
#
# Indices 1 2 3 4 5 6 
#
# 1 0.014132 -0.001312 -0.001544 0.000000 -0.001241 0.000000
# 2 -0.001312 0.004627 -0.001410 0.000000 0.000870 0.000000
# 3 -0.001544 -0.001410 0.013458 0.000000 -0.003792 0.000000
# 4 0.000000 0.000000 0.000000 0.016853 0.000000 -0.007897
# 5 -0.001241 0.000870 -0.003792 0.000000 0.018441 0.000000
# 6 0.000000 0.000000 0.000000 -0.007897 0.000000 0.021884
#
#
# Mechanical properties :
#
#
# Convention : Reuss Voigt Hill
#
# Bulk Modulus (GPa) = 42.22045 57.26747 49.74396
# Shear Modulus (GPa) = 47.24908 58.73779 52.99343
#
# Velocity S-wave (km/s) = 4.18760 4.66903 4.43485
# Velocity P-wave (km/s) = 6.24908 7.09371 6.68474
#
# Compressibility (1/GPa) = 0.02368521
#
# Stress axis : x y z
#
# Youngs Moduli (GPa) = 70.75943 216.10287 74.30686
#
# Poissons Ratio (x) = 0.28356 0.11474
# Poissons Ratio (y) = 0.09285 0.10477
# Poissons Ratio (z) = 0.10926 0.30469
#
# Static dielectric constant tensor:
#      x y z
#    x 1.909350 0.000000 0.203870 
#    y 0.000000 2.066860 0.000000 
#    z 0.203870 0.000000 1.656100 
# 
# From -- ./inp_files/138414.got.cif
#   From: 2010.05.17/outbox.cif.g08.bks.cpg/sg12_70_cif.got.tgz:138414.got - 2010.06.03 13:09:07.
