data_PCOD9169841
_publ_section_title
;
Structure prediction by ZEFSAII (Michael W. Deem and Ramdas Pophale) SiO2 
 PCOD9169841
Probable space group: C 2/M
;
_chemical_formula_sum "Si O2"
_cell_formula_units_Z 64
_cell_length_a 20.272255
_cell_length_b 20.238608
_cell_length_c 26.815870
_cell_angle_alpha 90.000000
_cell_angle_beta 17.345111
_cell_angle_gamma 90.000000
_cell_volume 3280.010021
_symmetry_space_group_name_H-M "C 2/M"
_symmetry_group_IT_number 12
_symmetry_cell_setting 'monoclinic'
loop_
_space_group_symop_operation_xyz
x,y,z
-x,y,-z
-x,-y,-z
x,-y,z
1/2+x,1/2+y,z
1/2-x,1/2+y,-z
1/2-x,1/2-y,-z
1/2+x,1/2-y,z
loop_
_atom_site_type_symbol
_atom_site_label
_atom_site_fract_x
_atom_site_fract_y
_atom_site_fract_z
Si Si1 0.549640 0.427615 0.698436
Si Si2 0.284565 0.252862 0.685955
Si Si3 0.963971 0.294211 0.837635
Si Si4 0.757118 0.403350 0.696582
Si Si5 0.940923 0.429080 0.667584
Si Si6 0.258360 0.790773 0.816928
Si Si7 0.782685 0.927889 0.991122
Si Si8 0.052033 0.778301 0.675715
O O1 0.524284 0.500000 0.691421
O O2 0.365260 0.423866 0.874243
O O3 0.542625 0.357135 0.677339
O O4 0.803787 0.427768 0.535212
O O5 0.500000 0.274291 0.500000
O O6 0.246375 0.175853 0.699995
O O7 0.313536 0.247666 0.725062
O O8 0.092528 0.294400 0.797528
O O9 0.088192 0.252418 0.704678
O O10 0.750000 0.250000 0.000000
O O11 0.878642 0.366416 0.882241
O O12 0.777757 0.425411 0.738588
O O13 0.522105 0.425859 0.845340
O O14 0.000000 0.423219 0.500000
O O15 0.911125 0.500000 0.715527
O O16 0.890739 0.359402 0.729178
O O17 0.323669 0.748224 0.817459
O O18 0.000000 0.805480 0.000000
O O19 0.681016 0.000000 0.073966
O O20 0.250000 0.750000 0.500000
#
# Coordination Sequence:
#
# PCOD9169841 Si02
#       8
#     8   8   8   8   8   8   8   8
#     4  10  20  36  59  86 116 157 202 246 295 354
#     4  10  21  38  61  83 112 154 202 239 288 354
#     4  12  22  38  63  89 117 154 200 254 293 346
#     4  10  17  28  50  82 117 154 190 229 276 352
#     4  10  20  33  50  77 118 163 195 221 277 363
#     4  11  24  37  55  86 122 155 192 246 303 346
#     4  11  22  35  56  88 123 156 196 250 304 345
#     4  12  23  40  62  88 119 162 200 246 293 354
#
# _framework density 19.512135000000001
#
# number of rings (size 3 to 8) (size 9 to 14) (size 15 to 20)
#    0.000    1.250    5.000    1.875    3.500    0.750 
#    0.000    1.250    0.000    1.500    0.000    0.000 
#    0.000    0.000    0.000    0.000    0.000    0.000 
#
# Total GULP energy -178256.310623 kJ/mol
# GULP energy per Si atom -5570.509707 kJ/mol
# Density = 1.946772 g / cm^3
# Si number density = 19.512135 Si / 1000 Ang^3
#
#
#
# Elastic Constant Matrix: (Units=GPa)
#
#
# Indices 1 2 3 4 5 6 
#
# 1 48.6776 24.2975 -2.5482 0.0249 -4.2669 0.0001
# 2 24.2975 142.1512 10.2750 0.0742 -8.7965 -0.0889
# 3 -2.5482 10.2750 38.9184 0.0156 -0.8898 -0.1213
# 4 0.0249 0.0742 0.0156 17.2822 -0.0596 2.3637
# 5 -4.2669 -8.7965 -0.8898 -0.0596 28.3351 0.0234
# 6 0.0001 -0.0889 -0.1213 2.3637 0.0234 -1.0717
#
#
#
# Elastic Compliance Matrix: (Units=1/GPa)
#
#
# Indices 1 2 3 4 5 6 
#
# 1 0.022853 -0.003951 0.002592 -0.000017 0.002296 0.000050
# 2 -0.003951 0.007990 -0.002328 0.000022 0.001813 -0.000311
# 3 0.002592 -0.002328 0.026484 0.000281 0.000502 -0.002173
# 4 -0.000017 0.000022 0.000281 0.044456 0.000026 0.098022
# 5 0.002296 0.001813 0.000502 0.000026 0.036216 0.000642
# 6 0.000050 -0.000311 -0.002173 0.098022 0.000642 -0.716649
#
#
# Mechanical properties :
#
#
# Convention : Reuss Voigt Hill
#
# Bulk Modulus (GPa) = 20.01902 32.64400 26.33151
# Shear Modulus (GPa) = -9.01509 22.09064 6.53778
#
# Velocity S-wave (km/s) = -2.15181 3.36839 1.83246
# Velocity P-wave (km/s) = 2.02691 5.64752 4.24281
#
# Compressibility (1/GPa) = 0.04995250
#
# Stress axis : x y z
#
# Youngs Moduli (GPa) = 43.75867 125.15025 37.75916
#
# Poissons Ratio (x) = 0.49452 -0.09788
# Poissons Ratio (y) = 0.17291 0.08790
# Poissons Ratio (z) = -0.11343 0.29133
#
# Static dielectric constant tensor:
#      x y z
#    x 1.733940 -0.000020 0.017380 
#    y -0.000020 1.832160 -0.000130 
#    z 0.017380 -0.000130 1.739740 
# 
# From -- ./inp_files/344888.got.cif
#   From: 2010.05.17/outbox.cif.g08.bks.cpg/sg12_173_cif.got.tgz:344888.got - 2010.06.03 13:09:07.
