data_PCOD9169020
_publ_section_title
;
Structure prediction by ZEFSAII (Michael W. Deem and Ramdas Pophale) SiO2 
 PCOD9169020
Probable space group: C 2/M
;
_chemical_formula_sum "Si O2"
_cell_formula_units_Z 52
_cell_length_a 16.665300
_cell_length_b 22.816049
_cell_length_c 11.734060
_cell_angle_alpha 90.000000
_cell_angle_beta 135.891066
_cell_angle_gamma 90.000000
_cell_volume 3105.464530
_symmetry_space_group_name_H-M "C 2/M"
_symmetry_group_IT_number 12
_symmetry_cell_setting 'monoclinic'
loop_
_space_group_symop_operation_xyz
x,y,z
-x,y,-z
-x,-y,-z
x,-y,z
1/2+x,1/2+y,z
1/2-x,1/2+y,-z
1/2-x,1/2-y,-z
1/2+x,1/2-y,z
loop_
_atom_site_type_symbol
_atom_site_label
_atom_site_fract_x
_atom_site_fract_y
_atom_site_fract_z
Si Si1 0.817626 0.625913 0.942597
Si Si2 0.072697 0.500000 0.953871
Si Si3 0.500000 0.209876 0.000000
Si Si4 0.204659 0.770031 0.332007
Si Si5 0.589844 0.173671 0.740701
Si Si6 0.873462 0.793624 0.323862
Si Si7 0.562626 0.000000 0.435501
Si Si8 0.850378 0.627984 0.449598
O O1 0.692880 0.647805 0.776843
O O2 0.851839 0.558882 0.963019
O O3 0.831780 0.643189 0.087638
O O4 0.911258 0.667332 0.974638
O O5 0.008778 0.500000 0.760646
O O6 0.000000 0.500000 0.000000
O O7 0.577980 0.249401 0.164328
O O8 0.250000 0.750000 0.500000
O O9 0.292875 0.739056 0.333786
O O10 0.231014 0.839459 0.353144
O O11 0.611523 0.243088 0.756517
O O12 0.455349 0.159465 0.625145
O O13 0.619893 0.143507 0.650917
O O14 0.000000 0.804583 0.500000
O O15 0.500000 0.000000 0.500000
O O16 0.636336 0.059683 0.511950
#
# Coordination Sequence:
#
# PCOD9169020 Si02
#       8
#     8   4   4   8   8   8   4   8
#     4  11  21  35  53  77 112 144 183 221 281 328
#     4  12  24  36  53  81 117 149 188 237 270 335
#     4  10  22  33  52  81 104 144 182 220 282 332
#     4  10  20  34  54  76 114 141 179 230 278 333
#     4  10  16  32  53  80 107 133 173 227 280 318
#     4  10  20  34  52  81 108 140 182 228 278 333
#     4  12  20  34  58  80 113 147 182 230 275 333
#     4  10  18  31  53  81 109 133 178 220 273 326
#
# _framework density 16.744676999999999
#
# number of rings (size 3 to 8) (size 9 to 14) (size 15 to 20)
#    0.000    1.538    6.923    1.385    0.000    0.000 
#    0.000    0.385    0.000    0.462    0.000    0.000 
#    0.000    0.000    0.000    0.000    0.000    0.000 
#
# Total GULP energy -144749.377368 kJ/mol
# GULP energy per Si atom -5567.283745 kJ/mol
# Density = 1.670657 g / cm^3
# Si number density = 16.744677 Si / 1000 Ang^3
#
#
#
# Elastic Constant Matrix: (Units=GPa)
#
#
# Indices 1 2 3 4 5 6 
#
# 1 28.3832 32.2489 25.9796 0.0000 4.5670 0.0000
# 2 32.2489 167.8841 65.4107 0.0000 12.3355 0.0000
# 3 25.9796 65.4107 86.8602 0.0000 8.9536 0.0000
# 4 0.0000 0.0000 0.0000 27.1992 0.0000 14.4186
# 5 4.5670 12.3355 8.9536 0.0000 25.3990 0.0000
# 6 0.0000 0.0000 0.0000 14.4186 0.0000 13.4152
#
#
#
# Elastic Compliance Matrix: (Units=1/GPa)
#
#
# Indices 1 2 3 4 5 6 
#
# 1 0.052117 -0.005442 -0.011204 0.000000 -0.002779 0.000000
# 2 -0.005442 0.009090 -0.005047 0.000000 -0.001657 0.000000
# 3 -0.011204 -0.005047 0.018890 0.000000 -0.002194 0.000000
# 4 0.000000 0.000000 0.000000 0.085456 0.000000 -0.091848
# 5 -0.002779 -0.001657 -0.002194 0.000000 0.041449 0.000000
# 6 0.000000 0.000000 0.000000 -0.091848 0.000000 0.173261
#
#
# Mechanical properties :
#
#
# Convention : Reuss Voigt Hill
#
# Bulk Modulus (GPa) = 27.23837 58.93398 43.08618
# Shear Modulus (GPa) = 11.47090 23.83520 17.65305
#
# Velocity S-wave (km/s) = 2.62018 3.77696 3.25044
# Velocity P-wave (km/s) = 5.04539 7.36835 6.31461
#
# Compressibility (1/GPa) = 0.03671291
#
# Stress axis : x y z
#
# Youngs Moduli (GPa) = 19.18756 110.01232 52.93721
#
# Poissons Ratio (x) = 0.59868 0.59308
# Poissons Ratio (y) = 0.10442 0.26716
# Poissons Ratio (z) = 0.21497 0.55520
#
# Static dielectric constant tensor:
#      x y z
#    x 1.618640 0.000000 -0.035270 
#    y 0.000000 1.575940 0.000000 
#    z -0.035270 0.000000 1.617410 
# 
# From -- ./inp_files/159652.got.cif
#   From: 2010.05.17/outbox.cif.g08.bks.cpg/sg12_80_cif.got.tgz:159652.got - 2010.06.03 13:09:07.
