data_PCOD9169809
_publ_section_title
;
Structure prediction by ZEFSAII (Michael W. Deem and Ramdas Pophale) SiO2 
 PCOD9169809
Probable space group: C 2/M
;
_chemical_formula_sum "Si O2"
_cell_formula_units_Z 64
_cell_length_a 22.656013
_cell_length_b 13.745209
_cell_length_c 17.306716
_cell_angle_alpha 90.000000
_cell_angle_beta 48.972685
_cell_angle_gamma 90.000000
_cell_volume 4065.830745
_symmetry_space_group_name_H-M "C 2/M"
_symmetry_group_IT_number 12
_symmetry_cell_setting 'monoclinic'
loop_
_space_group_symop_operation_xyz
x,y,z
-x,y,-z
-x,-y,-z
x,-y,z
1/2+x,1/2+y,z
1/2-x,1/2+y,-z
1/2-x,1/2-y,-z
1/2+x,1/2-y,z
loop_
_atom_site_type_symbol
_atom_site_label
_atom_site_fract_x
_atom_site_fract_y
_atom_site_fract_z
Si Si1 0.836653 0.382092 0.294697
Si Si2 0.478702 0.882969 0.283478
Si Si3 0.794111 0.888440 0.948545
Si Si4 0.127376 0.109838 0.281540
Si Si5 0.129011 0.301128 0.064574
Si Si6 0.836778 0.114162 0.572360
Si Si7 0.484212 0.752915 0.424553
Si Si8 0.593744 0.114795 0.929158
O O1 0.836009 0.500000 0.292379
O O2 0.747361 0.352967 0.386944
O O3 0.865998 0.350664 0.184626
O O4 0.900121 0.354786 0.304285
O O5 0.551929 0.835733 0.175654
O O6 0.475783 0.840616 0.372139
O O7 0.486156 0.000000 0.275580
O O8 0.814433 0.879613 0.839948
O O9 0.850498 0.812175 0.942348
O O10 0.805938 0.000000 0.961405
O O11 0.704336 0.856758 0.035021
O O12 0.167937 0.118712 0.329965
O O13 0.058414 0.187518 0.336240
O O14 0.093938 0.000000 0.307084
O O15 0.119683 0.329356 0.983240
O O16 0.908267 0.183019 0.487686
O O17 0.851048 0.000000 0.540439
O O18 0.500000 0.782288 0.500000
O O19 0.612302 0.000000 0.924364
O O20 0.500000 0.122087 0.000000
#
# Coordination Sequence:
#
# PCOD9169809 Si02
#       8
#     8   8   8   8   8   8   8   8
#     4   9  18  31  49  75 100 124 158 205 256 293
#     4  11  21  34  50  70  99 131 167 205 242 291
#     4  10  20  32  50  76 104 131 162 200 241 295
#     4   9  16  30  50  73 101 125 153 198 249 299
#     4  11  20  32  51  76 103 134 162 193 250 299
#     4   9  17  30  50  74  98 123 155 205 258 298
#     4  10  20  33  49  71  96 128 169 200 243 290
#     4  10  17  28  49  77 105 129 158 199 248 299
#
# _framework density 15.740940999999999
#
# number of rings (size 3 to 8) (size 9 to 14) (size 15 to 20)
#    0.000    2.125    2.500    2.250    0.000    4.250 
#    0.000    0.000    0.000    0.375    0.000    0.000 
#    0.000    0.000    0.000    0.000    0.000    0.000 
#
# Total GULP energy -178418.059176 kJ/mol
# GULP energy per Si atom -5575.564349 kJ/mol
# Density = 1.570511 g / cm^3
# Si number density = 15.740941 Si / 1000 Ang^3
#
#
#
# Elastic Constant Matrix: (Units=GPa)
#
#
# Indices 1 2 3 4 5 6 
#
# 1 99.7070 48.7151 39.0770 0.0000 -9.1153 0.0000
# 2 48.7151 77.1255 20.1876 0.0000 2.1312 0.0000
# 3 39.0770 20.1876 49.7753 0.0000 -4.4501 0.0000
# 4 0.0000 0.0000 0.0000 16.6601 0.0000 3.6160
# 5 -9.1153 2.1312 -4.4501 0.0000 25.2240 0.0000
# 6 0.0000 0.0000 0.0000 3.6160 0.0000 18.2755
#
#
#
# Elastic Compliance Matrix: (Units=1/GPa)
#
#
# Indices 1 2 3 4 5 6 
#
# 1 0.019579 -0.009675 -0.010914 0.000000 0.005968 0.000000
# 2 -0.009675 0.019419 -0.000751 0.000000 -0.005270 0.000000
# 3 -0.010914 -0.000751 0.029075 0.000000 0.001249 0.000000
# 4 0.000000 0.000000 0.000000 0.062717 0.000000 -0.012409
# 5 0.005968 -0.005270 0.001249 0.000000 0.042467 0.000000
# 6 0.000000 0.000000 0.000000 -0.012409 0.000000 0.057173
#
#
# Mechanical properties :
#
#
# Convention : Reuss Voigt Hill
#
# Bulk Modulus (GPa) = 39.38114 49.17413 44.27764
# Shear Modulus (GPa) = 17.75725 19.94047 18.84886
#
# Velocity S-wave (km/s) = 3.36235 3.56306 3.46416
# Velocity P-wave (km/s) = 6.33613 6.94512 6.64760
#
# Compressibility (1/GPa) = 0.02539286
#
# Stress axis : x y z
#
# Youngs Moduli (GPa) = 51.07436 51.49496 34.39435
#
# Poissons Ratio (x) = 0.49823 0.37536
# Poissons Ratio (y) = 0.49416 0.02585
# Poissons Ratio (z) = 0.55740 0.03870
#
# Static dielectric constant tensor:
#      x y z
#    x 1.527050 0.000000 -0.010290 
#    y 0.000000 1.507860 0.000000 
#    z -0.010290 0.000000 1.524100 
# 
# From -- ./inp_files/225247.got.cif
#   From: 2010.05.17/outbox.cif.g08.bks.cpg/sg12_113_cif.got.tgz:225247.got - 2010.06.03 13:09:07.
