data_PCOD9169491
_publ_section_title
;
Structure prediction by ZEFSAII (Michael W. Deem and Ramdas Pophale) SiO2 
 PCOD9169491
Probable space group: C 2/M
;
_chemical_formula_sum "Si O2"
_cell_formula_units_Z 64
_cell_length_a 16.834904
_cell_length_b 32.078636
_cell_length_c 10.527891
_cell_angle_alpha 90.000000
_cell_angle_beta 128.708528
_cell_angle_gamma 90.000000
_cell_volume 4436.600303
_symmetry_space_group_name_H-M "C 2/M"
_symmetry_group_IT_number 12
_symmetry_cell_setting 'monoclinic'
loop_
_space_group_symop_operation_xyz
x,y,z
-x,y,-z
-x,-y,-z
x,-y,z
1/2+x,1/2+y,z
1/2-x,1/2+y,-z
1/2-x,1/2-y,-z
1/2+x,1/2-y,z
loop_
_atom_site_type_symbol
_atom_site_label
_atom_site_fract_x
_atom_site_fract_y
_atom_site_fract_z
Si Si1 0.913158 0.270883 0.514835
Si Si2 0.913158 0.270883 0.811481
Si Si3 0.125109 0.951906 0.875109
Si Si4 0.699453 0.683517 0.301086
Si Si5 0.199453 0.816483 0.597821
Si Si6 0.623223 0.400995 0.622987
Si Si7 0.876777 0.900995 0.876541
Si Si8 0.877815 0.047643 0.627815
O O1 0.945826 0.273843 0.695826
O O2 0.814840 0.300533 0.400511
O O3 0.871995 0.223766 0.452486
O O4 0.000000 0.280270 0.500000
O O5 0.871994 0.223766 0.791502
O O6 0.814840 0.300533 0.729171
O O7 0.000000 0.280270 0.000000
O O8 0.154520 0.926277 0.779367
O O9 0.001450 0.953496 0.751450
O O10 0.160313 0.000000 0.910313
O O11 0.154520 0.926277 0.029674
O O12 0.685858 0.671288 0.435858
O O13 0.670073 0.644784 0.184631
O O14 0.170073 0.855216 0.655515
O O15 0.500000 0.396957 0.500000
O O16 0.652683 0.427884 0.529013
O O17 0.847317 0.927883 0.723646
O O18 0.000000 0.896957 0.000000
O O19 0.841972 0.000000 0.591972
#
# Coordination Sequence:
#
# PCOD9169491 Si02
#       8
#     8   8   8   8   8   8   8   8
#     4   9  18  33  49  65  90 120 148 183 222 260
#     4   9  18  33  49  65  90 120 148 183 222 260
#     4   9  18  28  38  61  93 121 145 181 226 258
#     4   9  17  31  48  65  89 121 153 180 214 262
#     4   9  17  31  48  65  89 121 153 180 214 262
#     4  10  17  27  43  63  90 120 153 182 215 260
#     4  10  17  27  43  63  90 120 153 182 215 260
#     4   9  16  26  42  59  83 121 153 177 212 268
#
# _framework density 14.425459999999999
#
# number of rings (size 3 to 8) (size 9 to 14) (size 15 to 20)
#    0.000    2.750    1.250    3.000    0.000    3.000 
#    4.500    1.250    0.000    0.000    0.000    0.000 
#    0.000    6.000    0.000    0.000    0.000    0.000 
#
# Total GULP energy -178242.794804 kJ/mol
# GULP energy per Si atom -5570.087338 kJ/mol
# Density = 1.439263 g / cm^3
# Si number density = 14.425460 Si / 1000 Ang^3
#
#
#
# Elastic Constant Matrix: (Units=GPa)
#
#
# Indices 1 2 3 4 5 6 
#
# 1 56.7168 30.2347 33.6847 0.0000 -18.3458 0.0000
# 2 30.2347 116.1072 48.4640 0.0000 -21.5645 0.0000
# 3 33.6847 48.4640 89.2544 0.0000 -20.1438 0.0000
# 4 0.0000 0.0000 0.0000 23.4207 0.0000 -5.1472
# 5 -18.3458 -21.5645 -20.1438 0.0000 21.3980 0.0000
# 6 0.0000 0.0000 0.0000 -5.1472 0.0000 19.0694
#
#
#
# Elastic Compliance Matrix: (Units=1/GPa)
#
#
# Indices 1 2 3 4 5 6 
#
# 1 0.027149 -0.001689 -0.005663 0.000000 0.016243 0.000000
# 2 -0.001689 0.012140 -0.004470 0.000000 0.006579 0.000000
# 3 -0.005663 -0.004470 0.017340 0.000000 0.006964 0.000000
# 4 0.000000 0.000000 0.000000 0.045390 0.000000 0.012252
# 5 0.016243 0.006579 0.006964 0.000000 0.073845 0.000000
# 6 0.000000 0.000000 0.000000 0.012252 0.000000 0.055747
#
#
# Mechanical properties :
#
#
# Convention : Reuss Voigt Hill
#
# Bulk Modulus (GPa) = 30.31637 54.09391 42.20514
# Shear Modulus (GPa) = 18.77935 22.75731 20.76833
#
# Velocity S-wave (km/s) = 3.61199 3.97618 3.79845
# Velocity P-wave (km/s) = 6.20135 7.65901 6.96840
#
# Compressibility (1/GPa) = 0.03298547
#
# Stress axis : x y z
#
# Youngs Moduli (GPa) = 36.83332 82.37151 57.67072
#
# Poissons Ratio (x) = 0.13913 0.32659
# Poissons Ratio (y) = 0.06222 0.25777
# Poissons Ratio (z) = 0.20859 0.36818
#
# Static dielectric constant tensor:
#      x y z
#    x 1.456600 0.000000 -0.016710 
#    y 0.000000 1.473680 0.000000 
#    z -0.016710 0.000000 1.470730 
# 
# From -- ./inp_files/68269.got.cif
#   From: 2010.05.17/outbox.cif.g08.bks.cpg/sg12_35_cif.got.tgz:68269.got - 2010.06.03 13:09:07.
