data_PCOD9169236
_publ_section_title
;
Structure prediction by ZEFSAII (Michael W. Deem and Ramdas Pophale) SiO2 
 PCOD9169236
Probable space group: C 2/M
;
_chemical_formula_sum "Si O2"
_cell_formula_units_Z 44
_cell_length_a 19.336148
_cell_length_b 7.924463
_cell_length_c 12.093548
_cell_angle_alpha 90.000000
_cell_angle_beta 64.465953
_cell_angle_gamma 90.000000
_cell_volume 1672.085946
_symmetry_space_group_name_H-M "C 2/M"
_symmetry_group_IT_number 12
_symmetry_cell_setting 'monoclinic'
loop_
_space_group_symop_operation_xyz
x,y,z
-x,y,-z
-x,-y,-z
x,-y,z
1/2+x,1/2+y,z
1/2-x,1/2+y,-z
1/2-x,1/2-y,-z
1/2+x,1/2-y,z
loop_
_atom_site_type_symbol
_atom_site_label
_atom_site_fract_x
_atom_site_fract_y
_atom_site_fract_z
Si Si1 0.363350 0.697796 0.000211
Si Si2 0.053060 0.703405 0.363570
Si Si3 0.709328 0.697784 0.179522
Si Si4 0.019207 0.303721 0.823853
Si Si5 0.285546 0.500000 0.553871
Si Si6 0.182270 0.817732 0.679112
O O1 0.378580 0.500000 0.977602
O O2 0.326896 0.767984 0.910518
O O3 0.445364 0.784036 0.953937
O O4 0.292941 0.721784 0.132719
O O5 0.059343 0.500000 0.362822
O O6 0.138515 0.777326 0.310834
O O7 0.014607 0.748906 0.273109
O O8 0.000000 0.761283 0.500000
O O9 0.721297 0.500000 0.155919
O O10 0.040772 0.500000 0.803598
O O11 0.096783 0.200464 0.787410
O O12 0.232052 0.648630 0.649116
O O13 0.327910 0.352729 0.447182
O O14 0.221019 0.000000 0.680163
#
# Coordination Sequence:
#
# PCOD9169236 Si02
#       6
#     8   8   8   8   4   8
#     4   9  16  25  37  55  75 101 134 166 206 248
#     4   9  18  30  41  55  78 112 147 176 205 236
#     4   9  16  26  39  53  73 100 134 173 207 242
#     4  10  17  25  40  60  83 110 141 174 205 242
#     4   8  16  26  40  58  80 110 134 158 204 258
#     4   9  15  26  40  58  82 109 136 163 203 252
#
# _framework density 26.314439
#
# number of rings (size 3 to 8) (size 9 to 14) (size 15 to 20)
#    0.545    2.364    0.909    1.636    0.000    5.455 
#    0.000    0.000    0.000    0.000    0.000    0.000 
#    0.000    0.000    0.000    9.818    0.000    4.364 
#
# Total GULP energy -122544.353569 kJ/mol
# GULP energy per Si atom -5570.197890 kJ/mol
# Density = 2.625455 g / cm^3
# Si number density = 26.314439 Si / 1000 Ang^3
#
#
#
# Elastic Constant Matrix: (Units=GPa)
#
#
# Indices 1 2 3 4 5 6 
#
# 1 140.9899 36.5526 21.8844 0.0000 -39.8564 0.0000
# 2 36.5526 112.1404 21.4071 0.0000 -18.4902 0.0000
# 3 21.8844 21.4071 154.1055 0.0000 -29.1727 0.0000
# 4 0.0000 0.0000 0.0000 64.7036 0.0000 -2.1279
# 5 -39.8564 -18.4902 -29.1727 0.0000 42.6936 0.0000
# 6 0.0000 0.0000 0.0000 -2.1279 0.0000 19.8867
#
#
#
# Elastic Compliance Matrix: (Units=1/GPa)
#
#
# Indices 1 2 3 4 5 6 
#
# 1 0.010016 -0.001900 0.000524 0.000000 0.008885 0.000000
# 2 -0.001900 0.010017 -0.000731 0.000000 0.002065 0.000000
# 3 0.000524 -0.000731 0.007522 0.000000 0.005312 0.000000
# 4 0.000000 0.000000 0.000000 0.015510 0.000000 0.001660
# 5 0.008885 0.002065 0.005312 0.000000 0.036242 0.000000
# 6 0.000000 0.000000 0.000000 0.001660 0.000000 0.050463
#
#
# Mechanical properties :
#
#
# Convention : Reuss Voigt Hill
#
# Bulk Modulus (GPa) = 42.84366 62.99156 52.91761
# Shear Modulus (GPa) = 35.27050 47.28288 41.27669
#
# Velocity S-wave (km/s) = 3.66505 4.24352 3.96485
# Velocity P-wave (km/s) = 5.85037 6.92820 6.41197
#
# Compressibility (1/GPa) = 0.02334068
#
# Stress axis : x y z
#
# Youngs Moduli (GPa) = 99.84366 99.83418 132.94711
#
# Poissons Ratio (x) = 0.18964 -0.06960
# Poissons Ratio (y) = 0.18966 0.09714
# Poissons Ratio (z) = -0.05227 0.07295
#
# Static dielectric constant tensor:
#      x y z
#    x 2.218020 0.000000 0.211620 
#    y 0.000000 1.932300 0.000000 
#    z 0.211620 0.000000 2.165910 
# 
# From -- ./inp_files/286913.got.cif
#   From: 2010.05.17/outbox.cif.g08.bks.cpg/sg12_144_cif.got.tgz:286913.got - 2010.06.03 13:09:07.
