data_PCOD9169279
_publ_section_title
;
Structure prediction by ZEFSAII (Michael W. Deem and Ramdas Pophale) SiO2 
 PCOD9169279
Probable space group: C 2/M
;
_chemical_formula_sum "Si O2"
_cell_formula_units_Z 64
_cell_length_a 14.500201
_cell_length_b 9.332322
_cell_length_c 21.766087
_cell_angle_alpha 90.000000
_cell_angle_beta 91.707046
_cell_angle_gamma 90.000000
_cell_volume 2944.091596
_symmetry_space_group_name_H-M "C 2/M"
_symmetry_group_IT_number 12
_symmetry_cell_setting 'monoclinic'
loop_
_space_group_symop_operation_xyz
x,y,z
-x,y,-z
-x,-y,-z
x,-y,z
1/2+x,1/2+y,z
1/2-x,1/2+y,-z
1/2-x,1/2-y,-z
1/2+x,1/2-y,z
loop_
_atom_site_type_symbol
_atom_site_label
_atom_site_fract_x
_atom_site_fract_y
_atom_site_fract_z
Si Si1 0.968270 0.171559 0.810591
Si Si2 0.741264 0.841545 0.060563
Si Si3 0.979884 0.334744 0.687999
Si Si4 0.736788 0.658378 0.438988
Si Si5 0.483483 0.662318 0.568479
Si Si6 0.728878 0.174484 0.190698
Si Si7 0.753845 0.661889 0.675732
Si Si8 0.478880 0.836646 0.931335
O O1 0.005126 0.244276 0.749003
O O2 0.861297 0.225057 0.809092
O O3 0.006801 0.239102 0.874615
O O4 0.976329 0.000000 0.809395
O O5 0.779457 0.793094 0.127548
O O6 0.631884 0.848789 0.071740
O O7 0.777637 0.000000 0.048344
O O8 0.750000 0.750000 0.000000
O O9 0.009225 0.500000 0.693451
O O10 0.013034 0.259168 0.626166
O O11 0.866663 0.336591 0.682493
O O12 0.775471 0.500000 0.448059
O O13 0.750000 0.750000 0.500000
O O14 0.626782 0.649229 0.427682
O O15 0.774350 0.733761 0.378967
O O16 0.500000 0.720269 0.500000
O O17 0.522853 0.500000 0.571884
O O18 0.779068 0.198212 0.256310
O O19 0.706847 0.000000 0.189508
O O20 0.726445 0.500000 0.659915
O O21 0.516686 0.000000 0.927238
O O22 0.500000 0.780000 0.000000
#
# Coordination Sequence:
#
# PCOD9169279 Si02
#       8
#     8   8   8   8   8   8   8   8
#     4  10  17  25  42  68  94 117 148 192 234 269
#     4   9  17  29  46  69  94 120 150 185 227 272
#     4   9  16  27  44  66  92 121 153 187 225 272
#     4  10  19  30  46  68  94 122 150 184 226 272
#     4   9  18  32  49  70  95 121 152 192 234 271
#     4   8  15  28  44  63  89 120 153 187 225 270
#     4   8  14  26  44  64  86 113 149 191 226 260
#     4   9  18  33  50  66  89 123 159 191 225 270
#
# _framework density 21.738454999999998
#
# number of rings (size 3 to 8) (size 9 to 14) (size 15 to 20)
#    0.000    3.000    0.000    3.375    0.000    6.000 
#    0.000    0.000    0.000    1.500    0.000    5.250 
#    0.000    0.000    0.000    0.000    0.000    0.000 
#
# Total GULP energy -178448.224830 kJ/mol
# GULP energy per Si atom -5576.507026 kJ/mol
# Density = 2.168898 g / cm^3
# Si number density = 21.738455 Si / 1000 Ang^3
#
#
#
# Elastic Constant Matrix: (Units=GPa)
#
#
# Indices 1 2 3 4 5 6 
#
# 1 50.4341 6.2682 4.9227 0.0000 -2.1051 0.0000
# 2 6.2682 150.4985 141.6919 0.0000 -0.4985 0.0000
# 3 4.9227 141.6919 271.0132 0.0000 -8.0964 0.0000
# 4 0.0000 0.0000 0.0000 42.2138 0.0000 -2.5045
# 5 -2.1051 -0.4985 -8.0964 0.0000 20.3774 0.0000
# 6 0.0000 0.0000 0.0000 -2.5045 0.0000 0.6792
#
#
#
# Elastic Compliance Matrix: (Units=1/GPa)
#
#
# Indices 1 2 3 4 5 6 
#
# 1 0.020025 -0.001073 0.000261 0.000000 0.002146 0.000000
# 2 -0.001073 0.013263 -0.006991 0.000000 -0.002564 0.000000
# 3 0.000261 -0.006991 0.007424 0.000000 0.002806 0.000000
# 4 0.000000 0.000000 0.000000 0.030323 0.000000 0.111821
# 5 0.002146 -0.002564 0.002806 0.000000 0.050348 0.000000
# 6 0.000000 0.000000 0.000000 0.111821 0.000000 1.884777
#
#
# Mechanical properties :
#
#
# Convention : Reuss Voigt Hill
#
# Bulk Modulus (GPa) = 39.83028 86.41237 63.12133
# Shear Modulus (GPa) = 2.46289 33.92493 18.19391
#
# Velocity S-wave (km/s) = 1.06556 3.95472 2.89614
# Velocity P-wave (km/s) = 4.45827 7.79040 6.34691
#
# Compressibility (1/GPa) = 0.02510653
#
# Stress axis : x y z
#
# Youngs Moduli (GPa) = 49.93687 75.39792 134.69577
#
# Poissons Ratio (x) = 0.08090 -0.03521
# Poissons Ratio (y) = 0.05358 0.94170
# Poissons Ratio (z) = -0.01305 0.52713
#
# Static dielectric constant tensor:
#      x y z
#    x 1.882550 0.000000 0.019200 
#    y 0.000000 1.769660 0.000000 
#    z 0.019200 0.000000 1.821670 
# 
# From -- ./inp_files/319165.got.cif
#   From: 2010.05.17/outbox.cif.g08.bks.cpg/sg12_160_cif.got.tgz:319165.got - 2010.06.03 13:09:07.
