data_PCOD9169300
_publ_section_title
;
Structure prediction by ZEFSAII (Michael W. Deem and Ramdas Pophale) SiO2 
 PCOD9169300
Probable space group: C 2/M
;
_chemical_formula_sum "Si O2"
_cell_formula_units_Z 64
_cell_length_a 28.105216
_cell_length_b 8.767262
_cell_length_c 24.844228
_cell_angle_alpha 90.000000
_cell_angle_beta 44.330095
_cell_angle_gamma 90.000000
_cell_volume 4277.832651
_symmetry_space_group_name_H-M "C 2/M"
_symmetry_group_IT_number 12
_symmetry_cell_setting 'monoclinic'
loop_
_space_group_symop_operation_xyz
x,y,z
-x,y,-z
-x,-y,-z
x,-y,z
1/2+x,1/2+y,z
1/2-x,1/2+y,-z
1/2-x,1/2-y,-z
1/2+x,1/2-y,z
loop_
_atom_site_type_symbol
_atom_site_label
_atom_site_fract_x
_atom_site_fract_y
_atom_site_fract_z
Si Si1 0.891483 0.317019 0.442187
Si Si2 0.928807 0.684620 0.531096
Si Si3 0.942980 0.824039 0.998771
Si Si4 0.788594 0.178711 0.678071
Si Si5 0.750431 0.179309 0.583614
Si Si6 0.953386 0.682315 0.161378
Si Si7 0.657171 0.316709 0.831880
Si Si8 0.096300 0.685870 0.684065
O O1 0.895696 0.500000 0.439451
O O2 0.922524 0.262471 0.473796
O O3 0.812108 0.270361 0.507085
O O4 0.923643 0.262740 0.359819
O O5 0.925174 0.500000 0.534477
O O6 0.863377 0.748273 0.615551
O O7 0.000000 0.730762 0.500000
O O8 0.875701 0.768415 0.084258
O O9 0.934079 0.000000 0.989473
O O10 0.000000 0.822107 0.000000
O O11 0.976123 0.730792 0.923592
O O12 0.760333 0.193913 0.639819
O O13 0.733224 0.259476 0.760379
O O14 0.792652 0.000000 0.687356
O O15 0.674942 0.231254 0.629835
O O16 0.756952 0.000000 0.564660
O O17 0.946179 0.500000 0.165269
O O18 0.892121 0.751908 0.175121
O O19 0.945606 0.734528 0.229510
O O20 0.653841 0.500000 0.832382
O O21 0.094986 0.500000 0.685216
#
# Coordination Sequence:
#
# PCOD9169300 Si02
#       8
#     8   8   8   8   8   8   8   8
#     4   9  17  28  42  58  76 105 140 169 203 243
#     4   9  18  32  47  63  84 108 137 173 211 251
#     4   8  16  28  38  53  78 109 142 174 203 236
#     4  10  18  28  44  64  84 107 139 174 208 247
#     4   9  16  27  38  53  81 107 131 170 206 233
#     4  10  17  26  39  56  80 112 144 174 206 238
#     4  10  18  28  41  57  82 111 141 174 205 240
#     4   9  16  26  38  55  82 109 137 172 202 234
#
# _framework density 14.960846
#
# number of rings (size 3 to 8) (size 9 to 14) (size 15 to 20)
#    0.000    2.750    1.250    2.250    0.000    3.500 
#    0.000    1.250    0.000    0.000    0.000    0.000 
#    0.000    1.000    0.000    2.000    0.000    2.625 
#
# Total GULP energy -178189.121095 kJ/mol
# GULP energy per Si atom -5568.410034 kJ/mol
# Density = 1.492679 g / cm^3
# Si number density = 14.960846 Si / 1000 Ang^3
#
#
#
# Elastic Constant Matrix: (Units=GPa)
#
#
# Indices 1 2 3 4 5 6 
#
# 1 52.1000 17.7654 55.8059 0.0014 -4.8775 0.0001
# 2 17.7654 22.6783 32.2332 0.0080 -1.1342 0.0031
# 3 55.8059 32.2332 147.1735 0.0031 4.3577 -0.0023
# 4 0.0014 0.0080 0.0031 19.0616 -0.0028 -5.3490
# 5 -4.8775 -1.1342 4.3577 -0.0028 15.8470 0.0018
# 6 0.0001 0.0031 -0.0023 -5.3490 0.0018 8.9738
#
#
#
# Elastic Compliance Matrix: (Units=1/GPa)
#
#
# Indices 1 2 3 4 5 6 
#
# 1 0.037311 -0.011371 -0.012072 0.000006 0.013990 0.000002
# 2 -0.011371 0.068649 -0.010854 -0.000040 0.004398 -0.000051
# 3 -0.012072 -0.010854 0.013996 0.000005 -0.008341 0.000012
# 4 0.000006 -0.000040 0.000005 0.062999 0.000004 0.037552
# 5 0.013990 0.004398 -0.008341 0.000004 0.070018 -0.000015
# 6 0.000002 -0.000051 0.000012 0.037552 -0.000015 0.133819
#
#
# Mechanical properties :
#
#
# Convention : Reuss Voigt Hill
#
# Bulk Modulus (GPa) = 19.46889 48.17341 33.82115
# Shear Modulus (GPa) = 10.58185 16.51962 13.55073
#
# Velocity S-wave (km/s) = 2.66240 3.32654 3.01283
# Velocity P-wave (km/s) = 4.74264 6.85741 5.89562
#
# Compressibility (1/GPa) = 0.05136400
#
# Stress axis : x y z
#
# Youngs Moduli (GPa) = 26.80159 14.56675 71.44813
#
# Poissons Ratio (x) = 0.16564 0.86249
# Poissons Ratio (y) = 0.30476 0.77548
# Poissons Ratio (z) = 0.32354 0.15810
#
# Static dielectric constant tensor:
#      x y z
#    x 1.476190 0.000000 0.019690 
#    y 0.000000 1.504850 0.000000 
#    z 0.019690 0.000000 1.529140 
# 
# From -- ./inp_files/350946.got.cif
#   From: 2010.05.17/outbox.cif.g08.bks.cpg/sg12_176_cif.got.tgz:350946.got - 2010.06.03 13:09:07.
