data_PCOD9169638
_publ_section_title
;
Structure prediction by ZEFSAII (Michael W. Deem and Ramdas Pophale) SiO2 
 PCOD9169638
Probable space group: C 2/M
;
_chemical_formula_sum "Si O2"
_cell_formula_units_Z 56
_cell_length_a 27.989953
_cell_length_b 18.542525
_cell_length_c 7.847903
_cell_angle_alpha 90.000000
_cell_angle_beta 40.483854
_cell_angle_gamma 90.000000
_cell_volume 2644.391486
_symmetry_space_group_name_H-M "C 2/M"
_symmetry_group_IT_number 12
_symmetry_cell_setting 'monoclinic'
loop_
_space_group_symop_operation_xyz
x,y,z
-x,y,-z
-x,-y,-z
x,-y,z
1/2+x,1/2+y,z
1/2-x,1/2+y,-z
1/2-x,1/2-y,-z
1/2+x,1/2-y,z
loop_
_atom_site_type_symbol
_atom_site_label
_atom_site_fract_x
_atom_site_fract_y
_atom_site_fract_z
Si Si1 0.101841 0.803870 0.529968
Si Si2 0.271360 0.583330 0.852771
Si Si3 0.966373 0.733205 0.783185
Si Si4 0.986204 0.420992 0.331747
Si Si5 0.195201 0.277418 0.506442
Si Si6 0.832421 0.577210 0.555722
Si Si7 0.322855 0.219399 0.978568
O O1 0.148813 0.876985 0.372803
O O2 0.014284 0.795906 0.742926
O O3 0.127562 0.773908 0.642491
O O4 0.133344 0.745208 0.307377
O O5 0.272385 0.500000 0.785708
O O6 0.239973 0.578835 0.129532
O O7 0.212437 0.639003 0.925296
O O8 0.981634 0.654363 0.821422
O O9 0.000000 0.732339 0.500000
O O10 0.879970 0.734482 0.976975
O O11 0.985990 0.500000 0.802871
O O12 0.901406 0.418011 0.499620
O O13 0.000000 0.420377 0.500000
O O14 0.250000 0.250000 0.500000
O O15 0.169838 0.358904 0.571768
O O16 0.252097 0.269560 0.191866
O O17 0.837065 0.500000 0.456497
#
# Coordination Sequence:
#
# PCOD9169638 Si02
#       7
#     8   8   8   8   8   8   8
#     4  10  17  33  50  71 102 129 168 208 255 296
#     4  10  17  27  50  77 103 131 164 209 257 302
#     4   9  16  26  48  72  98 132 157 202 251 298
#     4   9  15  23  41  73 104 127 158 195 242 299
#     4  11  20  33  49  71  98 136 173 214 247 296
#     4  10  17  29  49  74 102 132 168 207 252 302
#     4  10  18  32  51  75 100 130 167 209 255 302
#
# _framework density 21.176895999999999
#
# number of rings (size 3 to 8) (size 9 to 14) (size 15 to 20)
#    0.000    2.143    4.286    2.571    0.000    1.714 
#    0.000    3.571    0.000    4.714    0.000    2.000 
#    0.000    5.714    0.000    0.000    0.000    0.000 
#
# Total GULP energy -155871.254607 kJ/mol
# GULP energy per Si atom -5566.830522 kJ/mol
# Density = 2.112870 g / cm^3
# Si number density = 21.176896 Si / 1000 Ang^3
#
#
#
# Elastic Constant Matrix: (Units=GPa)
#
#
# Indices 1 2 3 4 5 6 
#
# 1 137.6479 55.1957 22.9976 0.0000 -19.4830 0.0000
# 2 55.1957 138.5570 21.3462 0.0000 -13.9064 0.0000
# 3 22.9976 21.3462 53.1743 0.0000 -21.0524 0.0000
# 4 0.0000 0.0000 0.0000 2.3249 0.0000 -5.7980
# 5 -19.4830 -13.9064 -21.0524 0.0000 37.7893 0.0000
# 6 0.0000 0.0000 0.0000 -5.7980 0.0000 29.7442
#
#
#
# Elastic Compliance Matrix: (Units=1/GPa)
#
#
# Indices 1 2 3 4 5 6 
#
# 1 0.009174 -0.003133 -0.001660 0.000000 0.002652 0.000000
# 2 -0.003133 0.008823 -0.001977 0.000000 0.000530 0.000000
# 3 -0.001660 -0.001977 0.025263 0.000000 0.012490 0.000000
# 4 0.000000 0.000000 0.000000 0.837015 0.000000 0.163159
# 5 0.002652 0.000530 0.012490 0.000000 0.034983 0.000000
# 6 0.000000 0.000000 0.000000 0.163159 0.000000 0.065424
#
#
# Mechanical properties :
#
#
# Convention : Reuss Voigt Hill
#
# Bulk Modulus (GPa) = 33.64720 58.71758 46.18239
# Shear Modulus (GPa) = 4.97944 29.29434 17.13689
#
# Velocity S-wave (km/s) = 1.53508 3.72333 2.84778
# Velocity P-wave (km/s) = 4.36636 6.80233 5.71562
#
# Compressibility (1/GPa) = 0.02972016
#
# Stress axis : x y z
#
# Youngs Moduli (GPa) = 109.00631 113.34082 39.58378
#
# Poissons Ratio (x) = 0.35504 0.06571
# Poissons Ratio (y) = 0.34147 0.07826
# Poissons Ratio (z) = 0.18096 0.22409
#
# Static dielectric constant tensor:
#      x y z
#    x 1.897160 0.000000 0.088140 
#    y 0.000000 1.772810 0.000000 
#    z 0.088140 0.000000 1.924940 
# 
# From -- ./inp_files/97656.got.cif
#   From: 2010.05.17/outbox.cif.g08.bks.cpg/sg12_49_cif.got.tgz:97656.got - 2010.06.03 13:09:07.
