data_PCOD9169001
_publ_section_title
;
Structure prediction by ZEFSAII (Michael W. Deem and Ramdas Pophale) SiO2 
 PCOD9169001
Probable space group: C 2/M
;
_chemical_formula_sum "Si O2"
_cell_formula_units_Z 32
_cell_length_a 12.546640
_cell_length_b 18.455512
_cell_length_c 9.510049
_cell_angle_alpha 90.000000
_cell_angle_beta 144.407699
_cell_angle_gamma 90.000000
_cell_volume 1281.650177
_symmetry_space_group_name_H-M "C 2/M"
_symmetry_group_IT_number 12
_symmetry_cell_setting 'monoclinic'
loop_
_space_group_symop_operation_xyz
x,y,z
-x,y,-z
-x,-y,-z
x,-y,z
1/2+x,1/2+y,z
1/2-x,1/2+y,-z
1/2-x,1/2-y,-z
1/2+x,1/2-y,z
loop_
_atom_site_type_symbol
_atom_site_label
_atom_site_fract_x
_atom_site_fract_y
_atom_site_fract_z
Si Si1 0.185240 0.392990 0.631981
Si Si2 0.279165 0.421023 0.422085
Si Si3 0.478990 0.196180 0.765958
Si Si4 0.120777 0.145805 0.889146
O O1 0.249568 0.429154 0.558972
O O2 0.000000 0.423096 0.500000
O O3 0.119085 0.315887 0.492204
O O4 0.328518 0.391687 0.910166
O O5 0.238527 0.500000 0.312700
O O6 0.490990 0.398231 0.645754
O O7 0.145318 0.351064 0.260004
O O8 0.513818 0.280932 0.818840
O O9 0.682863 0.163056 0.969340
#
# Coordination Sequence:
#
# PCOD9169001 Si02
#       4
#     8   8   8   8
#     4   8  17  30  43  69  92 119 151 184 224 263
#     4  10  20  30  44  69  99 123 147 181 228 279
#     4   8  19  31  45  66  92 119 154 191 220 260
#     4  10  16  32  48  63  91 124 154 185 223 267
#
# _framework density 24.967811000000001
#
# number of rings (size 3 to 8) (size 9 to 14) (size 15 to 20)
#    1.500    1.500    0.000    1.500    0.000    3.500 
#    0.000    0.000    0.000    0.000    0.000    3.500 
#    0.000   10.000    0.000    0.000    0.000    0.000 
#
# Total GULP energy -89116.676738 kJ/mol
# GULP energy per Si atom -5569.792296 kJ/mol
# Density = 2.491098 g / cm^3
# Si number density = 24.967811 Si / 1000 Ang^3
#
#
#
# Elastic Constant Matrix: (Units=GPa)
#
#
# Indices 1 2 3 4 5 6 
#
# 1 56.0562 -26.0438 23.2575 0.0000 -11.0418 0.0000
# 2 -26.0438 76.7157 19.2674 0.0000 0.1365 0.0000
# 3 23.2575 19.2674 128.1310 0.0000 19.4722 0.0000
# 4 0.0000 0.0000 0.0000 12.8994 0.0000 3.8479
# 5 -11.0418 0.1365 19.4722 0.0000 38.8967 0.0000
# 6 0.0000 0.0000 0.0000 3.8479 0.0000 -1.1910
#
#
#
# Elastic Compliance Matrix: (Units=1/GPa)
#
#
# Indices 1 2 3 4 5 6 
#
# 1 0.030175 0.012576 -0.009377 0.000000 0.013216 0.000000
# 2 0.012576 0.018827 -0.006111 0.000000 0.006563 0.000000
# 3 -0.009377 -0.006111 0.011718 0.000000 -0.008507 0.000000
# 4 0.000000 0.000000 0.000000 0.039477 0.000000 0.127544
# 5 0.013216 0.006563 -0.008507 0.000000 0.033696 0.000000
# 6 0.000000 0.000000 0.000000 0.127544 0.000000 -0.427572
#
#
# Mechanical properties :
#
#
# Convention : Reuss Voigt Hill
#
# Bulk Modulus (GPa) = 18.21609 32.65168 25.43389
# Shear Modulus (GPa) = -18.54918 26.41582 3.93332
#
# Velocity S-wave (km/s) = -2.72862 3.25621 1.25649
# Velocity P-wave (km/s) = 1.61725 5.21949 3.50911
#
# Compressibility (1/GPa) = 0.05489653
#
# Stress axis : x y z
#
# Youngs Moduli (GPa) = 33.13950 53.11380 85.33708
#
# Poissons Ratio (x) = -0.66794 0.80018
# Poissons Ratio (y) = -0.41675 0.52151
# Poissons Ratio (z) = 0.31074 0.32459
#
# Static dielectric constant tensor:
#      x y z
#    x 1.988160 0.000000 0.021640 
#    y 0.000000 1.995360 0.000000 
#    z 0.021640 0.000000 2.005430 
# 
# From -- ./inp_files/71820.got.cif
#   From: 2010.05.17/outbox.cif.g08.bks.cpg/sg12_36_cif.got.tgz:71820.got - 2010.06.03 13:09:07.
