data_PCOD9169518
_publ_section_title
;
Structure prediction by ZEFSAII (Michael W. Deem and Ramdas Pophale) SiO2 
 PCOD9169518
Probable space group: C 2/M
;
_chemical_formula_sum "Si O2"
_cell_formula_units_Z 64
_cell_length_a 27.635779
_cell_length_b 13.405217
_cell_length_c 22.031470
_cell_angle_alpha 90.000000
_cell_angle_beta 28.309354
_cell_angle_gamma 90.000000
_cell_volume 3870.613821
_symmetry_space_group_name_H-M "C 2/M"
_symmetry_group_IT_number 12
_symmetry_cell_setting 'monoclinic'
loop_
_space_group_symop_operation_xyz
x,y,z
-x,y,-z
-x,-y,-z
x,-y,z
1/2+x,1/2+y,z
1/2-x,1/2+y,-z
1/2-x,1/2-y,-z
1/2+x,1/2-y,z
loop_
_atom_site_type_symbol
_atom_site_label
_atom_site_fract_x
_atom_site_fract_y
_atom_site_fract_z
Si Si1 0.556680 0.383473 0.173017
Si Si2 0.148816 0.801333 0.541488
Si Si3 0.092775 0.115093 0.361293
Si Si4 0.290846 0.619956 0.885730
Si Si5 0.889971 0.384061 0.092980
Si Si6 0.362014 0.118429 0.360774
Si Si7 0.204206 0.885940 0.363106
Si Si8 0.920695 0.303822 0.927361
O O1 0.565006 0.500000 0.149963
O O2 0.445834 0.360640 0.324636
O O3 0.645024 0.357030 0.124598
O O4 0.566900 0.311347 0.104367
O O5 0.259601 0.847102 0.437648
O O6 0.141182 0.689380 0.576008
O O7 0.142188 0.816493 0.476609
O O8 0.142751 0.157276 0.245597
O O9 0.172237 0.111306 0.328193
O O10 0.000000 0.165373 0.500000
O O11 0.059989 0.000000 0.382064
O O12 0.287175 0.500000 0.884621
O O13 0.174731 0.656383 0.007460
O O14 0.864826 0.500000 0.105978
O O15 0.819000 0.350808 0.227249
O O16 0.889932 0.323888 0.030657
O O17 0.000000 0.382735 0.000000
O O18 0.470473 0.143537 0.208270
O O19 0.356914 0.000000 0.377203
O O20 0.197419 0.000000 0.393880
#
# Coordination Sequence:
#
# PCOD9169518 Si02
#       8
#     8   8   8   8   8   8   8   8
#     4  10  21  34  51  72 101 138 172 210 247 293
#     4  10  20  33  50  73  99 129 169 207 249 298
#     4   9  16  25  41  66  95 125 152 187 239 294
#     4  10  18  31  49  74 105 131 163 206 254 302
#     4  10  19  30  47  72 100 127 154 195 252 305
#     4  10  20  33  51  72  98 132 166 208 252 293
#     4  10  17  27  44  67  94 122 153 192 242 293
#     4  11  20  33  51  75 105 133 169 205 252 305
#
# _framework density 16.534846000000002
#
# number of rings (size 3 to 8) (size 9 to 14) (size 15 to 20)
#    0.000    2.000    1.250    4.125    0.000    3.000 
#    0.000    0.000    0.000    1.125    0.000    0.000 
#    0.000    3.250    0.000    0.000    0.000    0.000 
#
# Total GULP energy -178143.182542 kJ/mol
# GULP energy per Si atom -5566.974454 kJ/mol
# Density = 1.649721 g / cm^3
# Si number density = 16.534846 Si / 1000 Ang^3
#
#
#
# Elastic Constant Matrix: (Units=GPa)
#
#
# Indices 1 2 3 4 5 6 
#
# 1 48.6433 29.6727 14.3769 0.0000 1.6235 0.0000
# 2 29.6727 75.3986 20.3019 0.0000 12.6584 0.0000
# 3 14.3769 20.3019 70.5090 0.0000 -5.2435 0.0000
# 4 0.0000 0.0000 0.0000 15.5087 0.0000 -1.6106
# 5 1.6235 12.6584 -5.2435 0.0000 38.0456 0.0000
# 6 0.0000 0.0000 0.0000 -1.6106 0.0000 17.9681
#
#
#
# Elastic Compliance Matrix: (Units=1/GPa)
#
#
# Indices 1 2 3 4 5 6 
#
# 1 0.027657 -0.010559 -0.002450 0.000000 0.001995 0.000000
# 2 -0.010559 0.019603 -0.003983 0.000000 -0.006620 0.000000
# 3 -0.002450 -0.003983 0.016101 0.000000 0.003649 0.000000
# 4 0.000000 0.000000 0.000000 0.065086 0.000000 0.005834
# 5 0.001995 -0.006620 0.003649 0.000000 0.028905 0.000000
# 6 0.000000 0.000000 0.000000 0.005834 0.000000 0.056177
#
#
# Mechanical properties :
#
#
# Convention : Reuss Voigt Hill
#
# Bulk Modulus (GPa) = 34.04463 35.91710 34.98087
# Shear Modulus (GPa) = 19.43218 22.98444 21.20831
#
# Velocity S-wave (km/s) = 3.43188 3.73240 3.58529
# Velocity P-wave (km/s) = 6.02810 6.35166 6.19200
#
# Compressibility (1/GPa) = 0.02937320
#
# Stress axis : x y z
#
# Youngs Moduli (GPa) = 36.15750 51.01387 62.10960
#
# Poissons Ratio (x) = 0.53867 0.15220
# Poissons Ratio (y) = 0.38180 0.24741
# Poissons Ratio (z) = 0.08860 0.20321
#
# Static dielectric constant tensor:
#      x y z
#    x 1.641630 0.000000 -0.119600 
#    y 0.000000 1.535820 0.000000 
#    z -0.119600 0.000000 1.836910 
# 
# From -- ./inp_files/327792.got.cif
#   From: 2010.05.17/outbox.cif.g08.bks.cpg/sg12_164_cif.got.tgz:327792.got - 2010.06.03 13:09:07.
