data_PCOD9169736
_publ_section_title
;
Structure prediction by ZEFSAII (Michael W. Deem and Ramdas Pophale) SiO2 
 PCOD9169736
Probable space group: C 2/M
;
_chemical_formula_sum "Si O2"
_cell_formula_units_Z 56
_cell_length_a 17.498706
_cell_length_b 13.367447
_cell_length_c 23.830089
_cell_angle_alpha 90.000000
_cell_angle_beta 37.099878
_cell_angle_gamma 90.000000
_cell_volume 3362.373319
_symmetry_space_group_name_H-M "C 2/M"
_symmetry_group_IT_number 12
_symmetry_cell_setting 'monoclinic'
loop_
_space_group_symop_operation_xyz
x,y,z
-x,y,-z
-x,-y,-z
x,-y,z
1/2+x,1/2+y,z
1/2-x,1/2+y,-z
1/2-x,1/2-y,-z
1/2+x,1/2-y,z
loop_
_atom_site_type_symbol
_atom_site_label
_atom_site_fract_x
_atom_site_fract_y
_atom_site_fract_z
Si Si1 0.756010 0.813672 0.576786
Si Si2 0.230761 0.879495 0.309053
Si Si3 0.642475 0.615231 0.599272
Si Si4 0.528059 0.121096 0.134123
Si Si5 0.967125 0.616288 0.743291
Si Si6 0.130203 0.620474 0.957037
Si Si7 0.871063 0.193966 0.747786
O O1 0.808910 0.837615 0.607111
O O2 0.726238 0.696587 0.583681
O O3 0.837578 0.856043 0.477812
O O4 0.619000 0.868442 0.652661
O O5 0.379835 0.851949 0.213999
O O6 0.155516 0.837382 0.300357
O O7 0.221938 0.000000 0.314774
O O8 0.675652 0.500000 0.589592
O O9 0.494844 0.635719 0.697899
O O10 0.571023 0.150580 0.171275
O O11 0.530224 0.000000 0.132364
O O12 0.609106 0.154993 0.033484
O O13 0.937471 0.500000 0.753071
O O14 0.904427 0.689642 0.735547
O O15 0.146646 0.500000 0.946851
O O16 0.248484 0.667271 0.856049
O O17 0.000000 0.641305 0.000000
#
# Coordination Sequence:
#
# PCOD9169736 Si02
#       7
#     8   8   8   8   8   8   8
#     4   9  19  33  53  72  93 134 167 184 233 292
#     4  10  17  30  49  73  98 123 159 199 236 284
#     4  10  19  33  50  74 103 126 155 200 240 279
#     4   8  15  28  49  68  89 124 162 192 230 283
#     4   9  18  34  50  67  92 128 169 201 228 283
#     4  10  17  28  46  72  99 124 151 191 248 297
#     4  11  21  29  47  76 100 122 156 202 252 283
#
# _framework density 16.654902
#
# number of rings (size 3 to 8) (size 9 to 14) (size 15 to 20)
#    0.000    2.429    1.429    3.429    0.000    1.143 
#    0.000    2.143    0.000    0.429    0.000    6.000 
#    0.000    0.000    0.000    0.000    0.000    0.000 
#
# Total GULP energy -156098.202212 kJ/mol
# GULP energy per Si atom -5574.935793 kJ/mol
# Density = 1.661700 g / cm^3
# Si number density = 16.654902 Si / 1000 Ang^3
#
#
#
# Elastic Constant Matrix: (Units=GPa)
#
#
# Indices 1 2 3 4 5 6 
#
# 1 51.6320 38.0150 9.6080 0.0000 13.5117 0.0000
# 2 38.0150 98.8978 14.4100 0.0000 9.1328 0.0000
# 3 9.6080 14.4100 67.9981 -0.0001 4.9240 0.0000
# 4 0.0000 0.0000 -0.0001 15.3072 0.0000 5.8454
# 5 13.5117 9.1328 4.9240 0.0000 22.3055 0.0000
# 6 0.0000 0.0000 0.0000 5.8454 0.0000 18.9047
#
#
#
# Elastic Compliance Matrix: (Units=1/GPa)
#
#
# Indices 1 2 3 4 5 6 
#
# 1 0.030987 -0.010430 -0.001136 0.000000 -0.014250 0.000000
# 2 -0.010430 0.014279 -0.001612 0.000000 0.000827 0.000000
# 3 -0.001136 -0.001612 0.015356 0.000000 -0.002042 0.000000
# 4 0.000000 0.000000 0.000000 0.074075 0.000000 -0.022904
# 5 -0.014250 0.000827 -0.002042 0.000000 0.053576 0.000000
# 6 0.000000 0.000000 0.000000 -0.022904 0.000000 0.059979
#
#
# Mechanical properties :
#
#
# Convention : Reuss Voigt Hill
#
# Bulk Modulus (GPa) = 29.18325 38.06600 33.62462
# Shear Modulus (GPa) = 17.48062 21.73647 19.60855
#
# Velocity S-wave (km/s) = 3.24323 3.61655 3.43497
# Velocity P-wave (km/s) = 5.62006 6.35174 5.99707
#
# Compressibility (1/GPa) = 0.03426623
#
# Stress axis : x y z
#
# Youngs Moduli (GPa) = 32.27129 70.03303 65.11966
#
# Poissons Ratio (x) = 0.73042 0.07400
# Poissons Ratio (y) = 0.33658 0.10498
# Poissons Ratio (z) = 0.03667 0.11291
#
# Static dielectric constant tensor:
#      x y z
#    x 1.557510 0.000000 0.015440 
#    y 0.000000 1.547470 0.000000 
#    z 0.015440 0.000000 1.592730 
# 
# From -- ./inp_files/224333.got.cif
#   From: 2010.05.17/outbox.cif.g08.bks.cpg/sg12_113_cif.got.tgz:224333.got - 2010.06.03 13:09:07.
