data_PCOD9169194
_publ_section_title
;
Structure prediction by ZEFSAII (Michael W. Deem and Ramdas Pophale) SiO2 
 PCOD9169194
Probable space group: C 2/M
;
_chemical_formula_sum "Si O2"
_cell_formula_units_Z 32
_cell_length_a 5.435577
_cell_length_b 35.556816
_cell_length_c 7.805860
_cell_angle_alpha 90.000000
_cell_angle_beta 122.477661
_cell_angle_gamma 90.000000
_cell_volume 1272.700729
_symmetry_space_group_name_H-M "C 2/M"
_symmetry_group_IT_number 12
_symmetry_cell_setting 'monoclinic'
loop_
_space_group_symop_operation_xyz
x,y,z
-x,y,-z
-x,-y,-z
x,-y,z
1/2+x,1/2+y,z
1/2-x,1/2+y,-z
1/2-x,1/2-y,-z
1/2+x,1/2-y,z
loop_
_atom_site_type_symbol
_atom_site_label
_atom_site_fract_x
_atom_site_fract_y
_atom_site_fract_z
Si Si1 0.353504 0.041275 0.133367
Si Si2 0.147658 0.378577 0.730666
Si Si3 0.048710 0.764272 0.265008
Si Si4 0.846181 0.848623 0.260484
O O1 0.439759 0.078354 0.268756
O O2 0.443269 0.000000 0.235379
O O3 0.500000 0.044472 0.000000
O O4 0.000000 0.041463 0.000000
O O5 0.489981 0.374721 0.816615
O O6 0.000000 0.364472 0.500000
O O7 0.992755 0.354371 0.820949
O O8 0.250000 0.750000 0.500000
O O9 0.262909 0.761352 0.183198
O O10 0.934905 0.806237 0.250441
O O11 0.000000 0.858193 0.500000
#
# Coordination Sequence:
#
# PCOD9169194 Si02
#       4
#     8   8   8   8
#     4  10  21  39  61  81 105 141 187 227 261 318
#     4  10  21  33  52  80 114 145 168 225 275 329
#     4  10  17  24  41  64 100 151 174 211 253 325
#     4  10  18  29  44  71 112 148 169 211 275 320
#
# _framework density 25.143383
#
# number of rings (size 3 to 8) (size 9 to 14) (size 15 to 20)
#    0.000    2.000    2.500    3.000    7.000    0.500 
#    0.000    0.000    0.000    9.000    0.000    0.000 
#    0.000   70.000    0.000    0.000    0.000    0.000 
#
# Total GULP energy -89454.588983 kJ/mol
# GULP energy per Si atom -5590.911811 kJ/mol
# Density = 2.508616 g / cm^3
# Si number density = 25.143383 Si / 1000 Ang^3
#
#
#
# Elastic Constant Matrix: (Units=GPa)
#
#
# Indices 1 2 3 4 5 6 
#
# 1 259.3555 61.3729 39.7941 0.0000 -26.0956 0.0000
# 2 61.3729 159.4915 1.1053 0.0000 -27.0620 0.0000
# 3 39.7941 1.1053 53.7840 0.0000 -14.5173 0.0000
# 4 0.0000 0.0000 0.0000 38.4109 0.0000 -13.2752
# 5 -26.0956 -27.0620 -14.5173 0.0000 55.0185 0.0000
# 6 0.0000 0.0000 0.0000 -13.2752 0.0000 54.7156
#
#
#
# Elastic Compliance Matrix: (Units=1/GPa)
#
#
# Indices 1 2 3 4 5 6 
#
# 1 0.004846 -0.001750 -0.003404 0.000000 0.000540 0.000000
# 2 -0.001750 0.007507 0.002060 0.000000 0.003406 0.000000
# 3 -0.003404 0.002060 0.022510 0.000000 0.005338 0.000000
# 4 0.000000 0.000000 0.000000 0.028417 0.000000 0.006895
# 5 0.000540 0.003406 0.005338 0.000000 0.021516 0.000000
# 6 0.000000 0.000000 0.000000 0.006895 0.000000 0.019949
#
#
# Mechanical properties :
#
#
# Convention : Reuss Voigt Hill
#
# Bulk Modulus (GPa) = 34.87368 75.24174 55.05771
# Shear Modulus (GPa) = 41.49663 54.31958 47.90810
#
# Velocity S-wave (km/s) = 4.06692 4.65304 4.36982
# Velocity P-wave (km/s) = 5.99609 7.67188 6.88516
#
# Compressibility (1/GPa) = 0.02867492
#
# Stress axis : x y z
#
# Youngs Moduli (GPa) = 206.33957 133.21146 44.42462
#
# Poissons Ratio (x) = 0.23308 0.15123
# Poissons Ratio (y) = 0.36104 -0.09150
# Poissons Ratio (z) = 0.70240 -0.27437
#
# Static dielectric constant tensor:
#      x y z
#    x 2.012130 0.000000 0.079540 
#    y 0.000000 1.927440 0.000000 
#    z 0.079540 0.000000 1.877870 
# 
# From -- ./inp_files/34323.got.cif
#   From: 2010.05.17/outbox.cif.g08.bks.cpg/sg12_18_cif.got.tgz:34323.got - 2010.06.03 13:09:07.
