data_PCOD9169088
_publ_section_title
;
Structure prediction by ZEFSAII (Michael W. Deem and Ramdas Pophale) SiO2 
 PCOD9169088
Probable space group: C 2/M
;
_chemical_formula_sum "Si O2"
_cell_formula_units_Z 56
_cell_length_a 15.684590
_cell_length_b 23.267523
_cell_length_c 13.794568
_cell_angle_alpha 90.000000
_cell_angle_beta 142.322843
_cell_angle_gamma 90.000000
_cell_volume 3076.967958
_symmetry_space_group_name_H-M "C 2/M"
_symmetry_group_IT_number 12
_symmetry_cell_setting 'monoclinic'
loop_
_space_group_symop_operation_xyz
x,y,z
-x,y,-z
-x,-y,-z
x,-y,z
1/2+x,1/2+y,z
1/2-x,1/2+y,-z
1/2-x,1/2-y,-z
1/2+x,1/2-y,z
loop_
_atom_site_type_symbol
_atom_site_label
_atom_site_fract_x
_atom_site_fract_y
_atom_site_fract_z
Si Si1 0.164652 0.159082 0.406689
Si Si2 0.246861 0.266373 0.882201
Si Si3 0.416050 0.837962 0.019658
Si Si4 0.439746 0.375453 0.045933
Si Si5 0.544405 0.566034 0.431056
Si Si6 0.767663 0.935230 0.049426
Si Si7 0.549222 0.213251 0.331377
O O1 0.147417 0.112352 0.476405
O O2 0.323768 0.172740 0.523163
O O3 0.099521 0.220671 0.378010
O O4 0.070036 0.136435 0.233802
O O5 0.090070 0.288701 0.728989
O O6 0.250000 0.250000 0.000000
O O7 0.296195 0.207307 0.878445
O O8 0.358137 0.315280 0.958225
O O9 0.509419 0.805187 0.184919
O O10 0.500000 0.855368 0.000000
O O11 0.343534 0.890273 0.010107
O O12 0.329641 0.415595 0.002171
O O13 0.500000 0.398026 0.000000
O O14 0.500000 0.580309 0.500000
O O15 0.598070 0.500000 0.477145
O O16 0.402276 0.567274 0.240745
O O17 0.714013 0.000000 0.998902
#
# Coordination Sequence:
#
# PCOD9169088 Si02
#       7
#     8   8   8   8   8   8   8
#     4  10  20  35  54  84 115 144 192 243 278 344
#     4  10  16  34  56  77 110 150 179 224 289 341
#     4  11  21  34  60  84 114 156 188 228 293 356
#     4  11  20  36  61  81 108 150 194 234 285 336
#     4   9  19  36  57  80 114 156 191 232 291 347
#     4  10  21  38  58  84 115 149 197 244 275 336
#     4  10  20  35  53  81 120 146 183 237 291 332
#
# _framework density 18.199733999999999
#
# number of rings (size 3 to 8) (size 9 to 14) (size 15 to 20)
#    0.000    1.857    5.714    1.286    2.000    0.571 
#    0.000    1.429    0.000    0.000    0.000    1.000 
#    0.000    0.000    0.000    0.000    0.000    0.000 
#
# Total GULP energy -156136.745815 kJ/mol
# GULP energy per Si atom -5576.312351 kJ/mol
# Density = 1.815831 g / cm^3
# Si number density = 18.199734 Si / 1000 Ang^3
#
#
#
# Elastic Constant Matrix: (Units=GPa)
#
#
# Indices 1 2 3 4 5 6 
#
# 1 126.0591 51.1686 30.5115 0.0000 8.3634 0.0000
# 2 51.1686 105.1447 25.2531 0.0000 4.4099 0.0000
# 3 30.5115 25.2531 43.7448 0.0000 22.4690 0.0000
# 4 0.0000 0.0000 0.0000 14.4678 0.0000 0.5183
# 5 8.3634 4.4099 22.4690 0.0000 22.6001 0.0000
# 6 0.0000 0.0000 0.0000 0.5183 0.0000 1.5216
#
#
#
# Elastic Compliance Matrix: (Units=1/GPa)
#
#
# Indices 1 2 3 4 5 6 
#
# 1 0.011028 -0.003665 -0.007862 0.000000 0.004451 0.000000
# 2 -0.003665 0.013132 -0.009001 0.000000 0.007743 0.000000
# 3 -0.007862 -0.009001 0.063644 0.000000 -0.058609 0.000000
# 4 0.000000 0.000000 0.000000 0.069973 0.000000 -0.023833
# 5 0.004451 0.007743 -0.058609 0.000000 0.099359 0.000000
# 6 0.000000 0.000000 0.000000 -0.023833 0.000000 0.665300
#
#
# Mechanical properties :
#
#
# Convention : Reuss Voigt Hill
#
# Bulk Modulus (GPa) = 21.39221 54.31278 37.85249
# Shear Modulus (GPa) = 5.10686 18.91892 12.01289
#
# Velocity S-wave (km/s) = 1.67693 3.22765 2.57195
# Velocity P-wave (km/s) = 3.94070 6.61798 5.44641
#
# Compressibility (1/GPa) = 0.04674599
#
# Stress axis : x y z
#
# Youngs Moduli (GPa) = 90.67618 76.15253 15.71239
#
# Poissons Ratio (x) = 0.27912 0.12354
# Poissons Ratio (y) = 0.33235 0.14143
# Poissons Ratio (z) = 0.71292 0.68548
#
# Static dielectric constant tensor:
#      x y z
#    x 1.623420 0.000000 0.006140 
#    y 0.000000 1.628860 0.000000 
#    z 0.006140 0.000000 1.660370 
# 
# From -- ./inp_files/217716.got.cif
#   From: 2010.05.17/outbox.cif.g08.bks.cpg/sg12_109_cif.got.tgz:217716.got - 2010.06.03 13:09:07.
