data_PCOD9169999
_publ_section_title
;
Structure prediction by ZEFSAII (Michael W. Deem and Ramdas Pophale) SiO2 
 PCOD9169999
Probable space group: C 2/M
;
_chemical_formula_sum "Si O2"
_cell_formula_units_Z 40
_cell_length_a 29.393237
_cell_length_b 8.548383
_cell_length_c 10.556244
_cell_angle_alpha 90.000000
_cell_angle_beta 119.788048
_cell_angle_gamma 90.000000
_cell_volume 2301.945495
_symmetry_space_group_name_H-M "C 2/M"
_symmetry_group_IT_number 12
_symmetry_cell_setting 'monoclinic'
loop_
_space_group_symop_operation_xyz
x,y,z
-x,y,-z
-x,-y,-z
x,-y,z
1/2+x,1/2+y,z
1/2-x,1/2+y,-z
1/2-x,1/2-y,-z
1/2+x,1/2-y,z
loop_
_atom_site_type_symbol
_atom_site_label
_atom_site_fract_x
_atom_site_fract_y
_atom_site_fract_z
Si Si1 0.863974 0.814030 0.035183
Si Si2 0.744910 0.813766 0.136773
Si Si3 0.526586 0.810618 0.904319
Si Si4 0.535924 0.190439 0.431595
Si Si5 0.854432 0.687802 0.308825
O O1 0.865269 0.741302 0.178935
O O2 0.916063 0.760599 0.035773
O O3 0.861511 0.000000 0.043934
O O4 0.810658 0.753471 0.895349
O O5 0.798650 0.756622 0.274679
O O6 0.742946 0.000000 0.132041
O O7 0.750000 0.750000 0.000000
O O8 0.490263 0.760452 0.735929
O O9 0.531288 0.000000 0.906370
O O10 0.500000 0.767573 0.000000
O O11 0.500000 0.241956 0.500000
O O12 0.595730 0.238584 0.539195
O O13 0.535706 0.000000 0.432552
O O14 0.851023 0.500000 0.304128
#
# Coordination Sequence:
#
# PCOD9169999 Si02
#       5
#     8   8   8   8   8
#     4  11  20  31  48  72 103 134 169 207 252 296
#     4  10  18  29  46  71 102 131 166 207 254 299
#     4  10  20  35  54  75 100 135 173 206 246 300
#     4   9  16  29  51  76 102 131 165 205 251 297
#     4  10  17  29  50  74 103 132 166 206 252 299
#
# _framework density 17.376605999999999
#
# number of rings (size 3 to 8) (size 9 to 14) (size 15 to 20)
#    0.000    2.000    2.000    6.600    0.000    0.400 
#    0.000    3.000    0.000    1.200    0.000    0.000 
#    0.000    0.000    0.000    0.000    0.000    0.000 
#
# Total GULP energy -111555.283628 kJ/mol
# GULP energy per Si atom -5577.764181 kJ/mol
# Density = 1.733706 g / cm^3
# Si number density = 17.376606 Si / 1000 Ang^3
#
#
#
# Elastic Constant Matrix: (Units=GPa)
#
#
# Indices 1 2 3 4 5 6 
#
# 1 151.2701 43.5196 82.7029 0.0000 38.5635 0.0000
# 2 43.5196 76.3357 25.7207 0.0000 11.0291 0.0000
# 3 82.7029 25.7207 98.9372 0.0000 21.7838 0.0000
# 4 0.0000 0.0000 0.0000 10.3574 0.0000 8.7114
# 5 38.5635 11.0291 21.7838 0.0000 36.3511 0.0000
# 6 0.0000 0.0000 0.0000 8.7114 0.0000 27.8987
#
#
#
# Elastic Compliance Matrix: (Units=1/GPa)
#
#
# Indices 1 2 3 4 5 6 
#
# 1 0.015626 -0.004219 -0.009904 0.000000 -0.009362 0.000000
# 2 -0.004219 0.015687 -0.000564 0.000000 0.000054 0.000000
# 3 -0.009904 -0.000564 0.018641 0.000000 -0.000494 0.000000
# 4 0.000000 0.000000 0.000000 0.130938 0.000000 -0.040886
# 5 -0.009362 0.000054 -0.000494 0.000000 0.037720 0.000000
# 6 0.000000 0.000000 0.000000 -0.040886 0.000000 0.048611
#
#
# Mechanical properties :
#
#
# Convention : Reuss Voigt Hill
#
# Bulk Modulus (GPa) = 48.58562 70.04774 59.31668
# Shear Modulus (GPa) = 16.47688 26.56143 21.51916
#
# Velocity S-wave (km/s) = 3.08266 3.91394 3.52291
# Velocity P-wave (km/s) = 6.37899 7.79899 7.12446
#
# Compressibility (1/GPa) = 0.02058222
#
# Stress axis : x y z
#
# Youngs Moduli (GPa) = 63.99790 63.74591 53.64478
#
# Poissons Ratio (x) = 0.26893 0.53128
# Poissons Ratio (y) = 0.26999 0.03023
# Poissons Ratio (z) = 0.63381 0.03592
#
# Static dielectric constant tensor:
#      x y z
#    x 1.598280 0.000000 0.043620 
#    y 0.000000 1.587270 0.000000 
#    z 0.043620 0.000000 1.585680 
# 
# From -- ./inp_files/178930.got.cif
#   From: 2010.05.17/outbox.cif.g08.bks.cpg/sg12_90_cif.got.tgz:178930.got - 2010.06.03 13:09:07.
