data_PCOD9169084
_publ_section_title
;
Structure prediction by ZEFSAII (Michael W. Deem and Ramdas Pophale) SiO2 
 PCOD9169084
Probable space group: C 2/M
;
_chemical_formula_sum "Si O2"
_cell_formula_units_Z 52
_cell_length_a 13.932894
_cell_length_b 19.646381
_cell_length_c 18.858740
_cell_angle_alpha 90.000000
_cell_angle_beta 30.865194
_cell_angle_gamma 90.000000
_cell_volume 2648.321952
_symmetry_space_group_name_H-M "C 2/M"
_symmetry_group_IT_number 12
_symmetry_cell_setting 'monoclinic'
loop_
_space_group_symop_operation_xyz
x,y,z
-x,y,-z
-x,-y,-z
x,-y,z
1/2+x,1/2+y,z
1/2-x,1/2+y,-z
1/2-x,1/2-y,-z
1/2+x,1/2-y,z
loop_
_atom_site_type_symbol
_atom_site_label
_atom_site_fract_x
_atom_site_fract_y
_atom_site_fract_z
Si Si1 0.705586 0.851301 0.581918
Si Si2 0.450412 0.699056 0.303196
Si Si3 0.430795 0.926219 0.125435
Si Si4 0.851308 0.422402 0.867551
Si Si5 0.403636 0.698440 0.937278
Si Si6 0.000000 0.186560 0.500000
Si Si7 0.258432 0.783088 0.221354
O O1 0.633898 0.774960 0.645568
O O2 0.810669 0.845931 0.439894
O O3 0.532756 0.901038 0.705895
O O4 0.867272 0.860687 0.536997
O O5 0.487235 0.671772 0.201707
O O6 0.648782 0.710986 0.217427
O O7 0.585887 0.920530 0.088954
O O8 0.307954 0.860022 0.210697
O O9 0.338772 0.000000 0.194278
O O10 0.500000 0.924310 0.000000
O O11 0.793924 0.500000 0.888063
O O12 0.698341 0.362954 0.957897
O O13 0.555880 0.739051 0.887188
O O14 0.250000 0.750000 0.000000
O O15 0.107059 0.235604 0.376934
#
# Coordination Sequence:
#
# PCOD9169084 Si02
#       7
#     8   8   8   8   8   4   8
#     4  10  19  37  54  84 114 149 188 240 286 342
#     4  10  21  34  59  85 117 145 198 242 284 338
#     4  10  19  31  48  77 115 152 184 224 283 345
#     4  11  22  38  57  80 120 159 188 237 298 345
#     4  12  20  37  57  88 117 150 196 242 283 344
#     4  10  16  34  53  80 109 140 178 234 282 334
#     4  11  21  32  57  82 114 148 191 235 287 337
#
# _framework density 19.635076000000002
#
# number of rings (size 3 to 8) (size 9 to 14) (size 15 to 20)
#    0.000    1.385    6.154    0.923    0.000    0.000 
#    0.000    4.615    0.000    1.846    0.000    0.538 
#    0.000    0.000    0.000    0.000    0.000    0.000 
#
# Total GULP energy -145015.956517 kJ/mol
# GULP energy per Si atom -5577.536789 kJ/mol
# Density = 1.959039 g / cm^3
# Si number density = 19.635076 Si / 1000 Ang^3
#
#
#
# Elastic Constant Matrix: (Units=GPa)
#
#
# Indices 1 2 3 4 5 6 
#
# 1 49.8965 18.8290 28.5164 0.0010 0.2402 -0.0018
# 2 18.8290 105.2148 42.7630 0.0107 -15.4758 -0.0021
# 3 28.5164 42.7630 107.2224 0.0230 3.5885 -0.0036
# 4 0.0010 0.0107 0.0230 12.4813 0.0026 -1.3054
# 5 0.2402 -15.4758 3.5885 0.0026 34.5059 -0.0015
# 6 -0.0018 -0.0021 -0.0036 -1.3054 -0.0015 11.0499
#
#
#
# Elastic Compliance Matrix: (Units=1/GPa)
#
#
# Indices 1 2 3 4 5 6 
#
# 1 0.024001 -0.002136 -0.005513 0.000010 -0.000552 0.000003
# 2 -0.002136 0.012714 -0.004710 -0.000003 0.006207 0.000001
# 3 -0.005513 -0.004710 0.012785 -0.000018 -0.003404 0.000000
# 4 0.000010 -0.000003 -0.000018 0.081122 -0.000005 0.009584
# 5 -0.000552 0.006207 -0.003404 -0.000005 0.032122 0.000004
# 6 0.000003 0.000001 0.000000 0.009584 0.000004 0.091631
#
#
# Mechanical properties :
#
#
# Convention : Reuss Voigt Hill
#
# Bulk Modulus (GPa) = 40.35188 49.17225 44.76206
# Shear Modulus (GPa) = 17.40014 23.08910 20.24462
#
# Velocity S-wave (km/s) = 2.98010 3.43288 3.21447
# Velocity P-wave (km/s) = 5.69534 6.38829 6.05174
#
# Compressibility (1/GPa) = 0.02478199
#
# Stress axis : x y z
#
# Youngs Moduli (GPa) = 41.66540 78.65355 78.21565
#
# Poissons Ratio (x) = 0.16797 0.43120
# Poissons Ratio (y) = 0.08898 0.36843
# Poissons Ratio (z) = 0.22970 0.37049
#
# Static dielectric constant tensor:
#      x y z
#    x 1.733830 0.000000 0.021750 
#    y 0.000000 1.667580 0.000010 
#    z 0.021750 0.000010 1.814780 
# 
# From -- ./inp_files/312028.got.cif
#   From: 2010.05.17/outbox.cif.g08.bks.cpg/sg12_157_cif.got.tgz:312028.got - 2010.06.03 13:09:07.
