data_PCOD9169504
_publ_section_title
;
Structure prediction by ZEFSAII (Michael W. Deem and Ramdas Pophale) SiO2 
 PCOD9169504
Probable space group: C 2/M
;
_chemical_formula_sum "Si O2"
_cell_formula_units_Z 56
_cell_length_a 31.218389
_cell_length_b 7.350418
_cell_length_c 13.129661
_cell_angle_alpha 90.000000
_cell_angle_beta 74.299833
_cell_angle_gamma 90.000000
_cell_volume 2900.433620
_symmetry_space_group_name_H-M "C 2/M"
_symmetry_group_IT_number 12
_symmetry_cell_setting 'monoclinic'
loop_
_space_group_symop_operation_xyz
x,y,z
-x,y,-z
-x,-y,-z
x,-y,z
1/2+x,1/2+y,z
1/2-x,1/2+y,-z
1/2-x,1/2-y,-z
1/2+x,1/2-y,z
loop_
_atom_site_type_symbol
_atom_site_label
_atom_site_fract_x
_atom_site_fract_y
_atom_site_fract_z
Si Si1 0.547702 0.721244 0.847203
Si Si2 0.145151 0.222831 0.100922
Si Si3 0.639917 0.277542 0.702944
Si Si4 0.797777 0.785375 0.747747
Si Si5 0.304116 0.718550 0.135344
Si Si6 0.701641 0.282480 0.482335
Si Si7 0.551249 0.278793 0.081603
O O1 0.547558 0.500000 0.846127
O O2 0.589054 0.780295 0.752292
O O3 0.497785 0.780306 0.851494
O O4 0.556180 0.773539 0.959584
O O5 0.168345 0.286700 0.189388
O O6 0.094200 0.279980 0.116763
O O7 0.145735 0.000000 0.100772
O O8 0.173649 0.281098 0.983946
O O9 0.640379 0.500000 0.702345
O O10 0.668594 0.219398 0.782946
O O11 0.664350 0.215434 0.584977
O O12 0.747432 0.765953 0.820067
O O13 0.800648 0.710236 0.631283
O O14 0.806907 0.000000 0.734189
O O15 0.307183 0.500000 0.133126
O O16 0.696567 0.500000 0.480019
O O17 0.750000 0.250000 0.500000
O O18 0.551222 0.500000 0.082620
#
# Coordination Sequence:
#
# PCOD9169504 Si02
#       7
#     8   8   8   8   8   8   8
#     4   8  12  19  34  57  80 102 131 166 203 239
#     4   9  16  26  39  58  85 113 136 163 205 249
#     4   9  15  24  39  58  80 105 134 169 204 235
#     4  10  20  30  40  58  86 115 139 166 204 246
#     4  10  17  27  44  62  82 111 140 167 200 241
#     4  10  19  30  43  58  80 111 142 172 203 237
#     4   8  12  19  34  56  81 104 128 163 204 244
#
# _framework density 19.307459000000001
#
# number of rings (size 3 to 8) (size 9 to 14) (size 15 to 20)
#    0.000    2.857    2.857    1.286    0.000    0.000 
#    0.000    0.000    0.000    0.857    0.000    6.000 
#    0.000    5.714    0.000    2.571    0.000    2.857 
#
# Total GULP energy -156252.475708 kJ/mol
# GULP energy per Si atom -5580.445561 kJ/mol
# Density = 1.926351 g / cm^3
# Si number density = 19.307459 Si / 1000 Ang^3
#
#
#
# Elastic Constant Matrix: (Units=GPa)
#
#
# Indices 1 2 3 4 5 6 
#
# 1 202.2361 1.3070 128.5183 0.0000 -8.4906 0.0000
# 2 1.3070 72.3905 8.4892 0.0000 3.2064 0.0000
# 3 128.5183 8.4892 146.1049 0.0000 -0.5076 0.0000
# 4 0.0000 0.0000 0.0000 -3.2948 0.0000 -4.3971
# 5 -8.4906 3.2064 -0.5076 0.0000 36.2049 0.0000
# 6 0.0000 0.0000 0.0000 -4.3971 0.0000 7.6471
#
#
#
# Elastic Compliance Matrix: (Units=1/GPa)
#
#
# Indices 1 2 3 4 5 6 
#
# 1 0.011496 0.000874 -0.010154 0.000000 0.002476 0.000000
# 2 0.000874 0.014031 -0.001587 0.000000 -0.001060 0.000000
# 3 -0.010154 -0.001587 0.015862 0.000000 -0.002018 0.000000
# 4 0.000000 0.000000 0.000000 -0.171730 0.000000 -0.098745
# 5 0.002476 -0.001060 -0.002018 0.000000 0.028267 0.000000
# 6 0.000000 0.000000 0.000000 -0.098745 0.000000 0.073991
#
#
# Mechanical properties :
#
#
# Convention : Reuss Voigt Hill
#
# Bulk Modulus (GPa) = 50.88371 77.48448 64.18410
# Shear Modulus (GPa) = 24508.95249 26.93923 12267.94586
#
# Velocity S-wave (km/s) = 112.79003 3.73939 79.79841
# Velocity P-wave (km/s) = 130.34007 7.67223 92.32388
#
# Compressibility (1/GPa) = 0.01965265
#
# Stress axis : x y z
#
# Youngs Moduli (GPa) = 86.98668 71.26927 63.04481
#
# Poissons Ratio (x) = -0.06226 0.64018
# Poissons Ratio (y) = -0.07599 0.10007
# Poissons Ratio (z) = 0.88330 0.11313
#
# Static dielectric constant tensor:
#      x y z
#    x 1.657030 0.000000 -0.004950 
#    y 0.000000 1.820760 0.000000 
#    z -0.004950 0.000000 1.655850 
# 
# From -- ./inp_files/181630.got.cif
#   From: 2010.05.17/outbox.cif.g08.bks.cpg/sg12_91_cif.got.tgz:181630.got - 2010.06.03 13:09:07.
