data_PCOD9169181
_publ_section_title
;
Structure prediction by ZEFSAII (Michael W. Deem and Ramdas Pophale) SiO2 
 PCOD9169181
Probable space group: C 2/M
;
_chemical_formula_sum "Si O2"
_cell_formula_units_Z 64
_cell_length_a 28.505065
_cell_length_b 8.911745
_cell_length_c 22.678481
_cell_angle_alpha 90.000000
_cell_angle_beta 47.696770
_cell_angle_gamma 90.000000
_cell_volume 4260.804729
_symmetry_space_group_name_H-M "C 2/M"
_symmetry_group_IT_number 12
_symmetry_cell_setting 'monoclinic'
loop_
_space_group_symop_operation_xyz
x,y,z
-x,y,-z
-x,-y,-z
x,-y,z
1/2+x,1/2+y,z
1/2-x,1/2+y,-z
1/2-x,1/2-y,-z
1/2+x,1/2-y,z
loop_
_atom_site_type_symbol
_atom_site_label
_atom_site_fract_x
_atom_site_fract_y
_atom_site_fract_z
Si Si1 0.028111 0.826734 0.909560
Si Si2 0.406265 0.179394 0.556335
Si Si3 0.629554 0.678607 0.228678
Si Si4 0.013491 0.179709 0.403176
Si Si5 0.680819 0.820323 0.066646
Si Si6 0.295209 0.319423 0.714083
Si Si7 0.904224 0.680560 0.972596
Si Si8 0.649656 0.180470 0.853984
O O1 0.096302 0.748806 0.856658
O O2 0.974800 0.747167 0.915422
O O3 0.034504 0.000000 0.887852
O O4 0.000000 0.818382 0.000000
O O5 0.445177 0.246392 0.579264
O O6 0.444104 0.248274 0.468658
O O7 0.335735 0.237936 0.629185
O O8 0.409493 0.000000 0.553029
O O9 0.636606 0.500000 0.212487
O O10 0.556579 0.707742 0.309347
O O11 0.651539 0.766879 0.153037
O O12 0.673185 0.715373 0.248844
O O13 0.010328 0.000000 0.414712
O O14 0.635804 0.772772 0.050398
O O15 0.685898 0.000000 0.060927
O O16 0.750000 0.750000 0.000000
O O17 0.300927 0.500000 0.701811
O O18 0.221499 0.276902 0.778019
O O19 0.908645 0.500000 0.969204
O O20 0.867983 0.725168 0.063770
O O21 0.645533 0.000000 0.855025
#
# Coordination Sequence:
#
# PCOD9169181 Si02
#       8
#     8   8   8   8   8   8   8   8
#     4   9  17  28  43  64  85 104 132 174 220 257
#     4  10  17  24  38  61  85 108 138 177 215 250
#     4   9  18  31  45  61  83 113 150 184 212 248
#     4   9  16  28  43  56  77 111 145 175 209 255
#     4  11  22  33  46  63  86 115 148 184 216 249
#     4   9  17  29  43  60  86 119 148 172 207 258
#     4   9  18  32  46  60  80 111 148 178 208 250
#     4   9  16  28  46  62  81 112 145 174 206 252
#
# _framework density 15.020637000000001
#
# number of rings (size 3 to 8) (size 9 to 14) (size 15 to 20)
#    0.000    2.625    0.000    4.500    0.000    7.500 
#    0.000    2.500    0.000    0.000    0.000    0.000 
#    0.000    1.000    0.000    3.250    0.000    4.250 
#
# Total GULP energy -178247.575597 kJ/mol
# GULP energy per Si atom -5570.236737 kJ/mol
# Density = 1.498645 g / cm^3
# Si number density = 15.020637 Si / 1000 Ang^3
#
#
#
# Elastic Constant Matrix: (Units=GPa)
#
#
# Indices 1 2 3 4 5 6 
#
# 1 97.2803 38.8441 57.4196 -0.0029 -21.9542 0.0080
# 2 38.8441 55.3123 50.3995 -0.0001 -12.3741 0.0053
# 3 57.4196 50.3995 113.2680 0.0040 -27.3053 -0.0087
# 4 -0.0029 -0.0001 0.0040 23.8866 0.0010 -0.9296
# 5 -21.9542 -12.3741 -27.3053 0.0010 23.1316 0.0005
# 6 0.0080 0.0053 -0.0087 -0.9296 0.0005 16.2533
#
#
#
# Elastic Compliance Matrix: (Units=1/GPa)
#
#
# Indices 1 2 3 4 5 6 
#
# 1 0.016975 -0.006806 -0.003593 0.000002 0.008229 -0.000008
# 2 -0.006806 0.033139 -0.011991 0.000001 -0.002887 -0.000014
# 3 -0.003593 -0.011991 0.019034 -0.000004 0.012643 0.000015
# 4 0.000002 0.000001 -0.000004 0.041958 -0.000004 0.002400
# 5 0.008229 -0.002887 0.012643 -0.000004 0.064420 0.000001
# 6 -0.000008 -0.000014 0.000015 0.002400 0.000001 0.061663
#
#
# Mechanical properties :
#
#
# Convention : Reuss Voigt Hill
#
# Bulk Modulus (GPa) = 41.03958 62.13190 51.58574
# Shear Modulus (GPa) = 17.23583 20.60079 18.91831
#
# Velocity S-wave (km/s) = 3.39112 3.70739 3.55278
# Velocity P-wave (km/s) = 6.53562 7.73179 7.15873
#
# Compressibility (1/GPa) = 0.02436672
#
# Stress axis : x y z
#
# Youngs Moduli (GPa) = 58.90928 30.17558 52.53887
#
# Poissons Ratio (x) = 0.20538 0.18878
# Poissons Ratio (y) = 0.40095 0.63001
# Poissons Ratio (z) = 0.21167 0.36184
#
# Static dielectric constant tensor:
#      x y z
#    x 1.486090 0.000000 -0.020820 
#    y 0.000000 1.500950 0.000000 
#    z -0.020820 0.000000 1.520220 
# 
# From -- ./inp_files/326874.got.cif
#   From: 2010.05.17/outbox.cif.g08.bks.cpg/sg12_164_cif.got.tgz:326874.got - 2010.06.03 13:09:07.
