data_PCOD9169404
_publ_section_title
;
Structure prediction by ZEFSAII (Michael W. Deem and Ramdas Pophale) SiO2 
 PCOD9169404
Probable space group: C 2/M
;
_chemical_formula_sum "Si O2"
_cell_formula_units_Z 48
_cell_length_a 14.133279
_cell_length_b 32.322629
_cell_length_c 14.963465
_cell_angle_alpha 90.000000
_cell_angle_beta 29.702805
_cell_angle_gamma 90.000000
_cell_volume 3387.088047
_symmetry_space_group_name_H-M "C 2/M"
_symmetry_group_IT_number 12
_symmetry_cell_setting 'monoclinic'
loop_
_space_group_symop_operation_xyz
x,y,z
-x,y,-z
-x,-y,-z
x,-y,z
1/2+x,1/2+y,z
1/2-x,1/2+y,-z
1/2-x,1/2-y,-z
1/2+x,1/2-y,z
loop_
_atom_site_type_symbol
_atom_site_label
_atom_site_fract_x
_atom_site_fract_y
_atom_site_fract_z
Si Si1 0.569919 0.453010 0.546259
Si Si2 0.150750 0.615022 0.741782
Si Si3 0.523034 0.256252 0.081406
Si Si4 0.169784 0.202307 0.433371
Si Si5 0.226865 0.890226 0.150485
Si Si6 0.387192 0.300834 0.814819
O O1 0.500000 0.454804 0.500000
O O2 0.609471 0.500000 0.541889
O O3 0.747890 0.421939 0.394365
O O4 0.407128 0.430472 0.738330
O O5 0.217544 0.658960 0.647927
O O6 0.224864 0.616277 0.783962
O O7 0.925913 0.607216 0.934734
O O8 0.325359 0.234764 0.271905
O O9 0.580853 0.289558 0.108435
O O10 0.500000 0.272376 0.000000
O O11 0.690456 0.221379 0.945755
O O12 0.000000 0.196616 0.500000
O O13 0.062144 0.215672 0.611647
O O14 0.125447 0.849221 0.197190
#
# Coordination Sequence:
#
# PCOD9169404 Si02
#       6
#     8   8   8   8   8   8
#     4   9  17  28  41  61  88 117 148 183 223 265
#     4  10  17  26  45  62  88 116 150 186 220 258
#     4  11  22  34  46  67  93 120 157 199 228 266
#     4  12  18  30  49  66  89 121 155 193 225 267
#     4  10  17  28  43  64  84 119 152 183 218 269
#     4  11  21  32  49  67  89 123 160 189 231 268
#
# _framework density 14.171465
#
# number of rings (size 3 to 8) (size 9 to 14) (size 15 to 20)
#    0.000    1.500    6.667    1.000    0.000    0.667 
#    0.000    3.333    0.000    0.000    0.000    0.000 
#    0.000    0.667    0.000    1.500    0.000    0.167 
#
# Total GULP energy -133759.265879 kJ/mol
# GULP energy per Si atom -5573.302745 kJ/mol
# Density = 1.413921 g / cm^3
# Si number density = 14.171465 Si / 1000 Ang^3
#
#
#
# Elastic Constant Matrix: (Units=GPa)
#
#
# Indices 1 2 3 4 5 6 
#
# 1 47.1195 15.0691 22.8804 0.0000 7.8155 0.0000
# 2 15.0691 61.0908 19.1712 0.0000 -1.5496 0.0000
# 3 22.8804 19.1712 89.9476 -0.0001 -9.2183 0.0000
# 4 0.0000 0.0000 -0.0001 18.8291 0.0000 3.1500
# 5 7.8155 -1.5496 -9.2183 0.0000 17.3467 0.0000
# 6 0.0000 0.0000 0.0000 3.1500 0.0000 7.0964
#
#
#
# Elastic Compliance Matrix: (Units=1/GPa)
#
#
# Indices 1 2 3 4 5 6 
#
# 1 0.030054 -0.005239 -0.008423 0.000000 -0.018485 0.000000
# 2 -0.005239 0.018459 -0.002317 0.000000 0.002778 0.000000
# 3 -0.008423 -0.002317 0.014935 0.000000 0.011525 0.000000
# 4 0.000000 0.000000 0.000000 0.057369 0.000000 -0.025465
# 5 -0.018485 0.002778 0.011525 0.000000 0.072349 0.000000
# 6 0.000000 0.000000 0.000000 -0.025465 0.000000 0.152220
#
#
# Mechanical properties :
#
#
# Convention : Reuss Voigt Hill
#
# Bulk Modulus (GPa) = 31.75550 34.71103 33.23327
# Shear Modulus (GPa) = 12.89191 18.05693 15.47442
#
# Velocity S-wave (km/s) = 3.01941 3.57343 3.30804
# Velocity P-wave (km/s) = 5.88324 6.44769 6.17192
#
# Compressibility (1/GPa) = 0.03149060
#
# Stress axis : x y z
#
# Youngs Moduli (GPa) = 33.27341 54.17440 66.95657
#
# Poissons Ratio (x) = 0.28382 0.56396
# Poissons Ratio (y) = 0.17432 0.15513
# Poissons Ratio (z) = 0.28025 0.12552
#
# Static dielectric constant tensor:
#      x y z
#    x 1.451700 0.000000 -0.008300 
#    y 0.000000 1.457550 0.000000 
#    z -0.008300 0.000000 1.495500 
# 
# From -- ./inp_files/209901.got.cif
#   From: 2010.05.17/outbox.cif.g08.bks.cpg/sg12_105_cif.got.tgz:209901.got - 2010.06.03 13:09:07.
