data_PCOD9169035
_publ_section_title
;
Structure prediction by ZEFSAII (Michael W. Deem and Ramdas Pophale) SiO2 
 PCOD9169035
Probable space group: C 2/M
;
_chemical_formula_sum "Si O2"
_cell_formula_units_Z 44
_cell_length_a 11.482980
_cell_length_b 19.536714
_cell_length_c 14.892074
_cell_angle_alpha 90.000000
_cell_angle_beta 140.731780
_cell_angle_gamma 90.000000
_cell_volume 2114.617307
_symmetry_space_group_name_H-M "C 2/M"
_symmetry_group_IT_number 12
_symmetry_cell_setting 'monoclinic'
loop_
_space_group_symop_operation_xyz
x,y,z
-x,y,-z
-x,-y,-z
x,-y,z
1/2+x,1/2+y,z
1/2-x,1/2+y,-z
1/2-x,1/2-y,-z
1/2+x,1/2-y,z
loop_
_atom_site_type_symbol
_atom_site_label
_atom_site_fract_x
_atom_site_fract_y
_atom_site_fract_z
Si Si1 0.653857 0.500000 0.677155
Si Si2 0.141460 0.852628 0.708453
Si Si3 0.860015 0.000000 0.999294
Si Si4 0.280123 0.146793 0.588673
Si Si5 0.089463 0.152869 0.954121
Si Si6 0.935500 0.500000 0.695697
Si Si7 0.578494 0.754278 0.801417
O O1 0.500000 0.500000 0.500000
O O2 0.644389 0.432848 0.730661
O O3 0.847284 0.500000 0.742055
O O4 0.247003 0.848707 0.676899
O O5 0.203154 0.796473 0.815806
O O6 0.922822 0.840555 0.568552
O O7 0.894579 0.926341 0.066110
O O8 0.653723 0.000000 0.835546
O O9 0.000000 0.000000 0.000000
O O10 0.427834 0.204334 0.655321
O O11 0.356302 0.071251 0.608631
O O12 0.291987 0.186632 0.081100
O O13 0.993053 0.203551 0.825362
O O14 0.000000 0.154870 0.000000
#
# Coordination Sequence:
#
# PCOD9169035 Si02
#       7
#     4   8   4   8   8   4   8
#     4  10  16  33  55  80 113 144 170 215 267 332
#     4  10  19  32  54  83 108 141 175 212 269 325
#     4  10  20  37  58  72  93 143 196 220 256 330
#     4  10  18  33  54  79 109 138 173 214 268 327
#     4  10  22  38  53  75 102 144 184 223 271 309
#     4  10  16  32  57  77 100 142 185 211 262 331
#     4  11  21  33  54  79 111 136 175 229 269 315
#
# _framework density 20.807547
#
# number of rings (size 3 to 8) (size 9 to 14) (size 15 to 20)
#    0.000    1.818    5.455    1.636    0.000    0.727 
#    0.000    0.000    0.000    2.182    0.000    2.545 
#    0.000    0.000    0.000    0.000    0.000    0.000 
#
# Total GULP energy -122533.142835 kJ/mol
# GULP energy per Si atom -5569.688311 kJ/mol
# Density = 2.076019 g / cm^3
# Si number density = 20.807547 Si / 1000 Ang^3
#
#
#
# Elastic Constant Matrix: (Units=GPa)
#
#
# Indices 1 2 3 4 5 6 
#
# 1 47.5055 26.9655 9.2338 0.0001 6.8670 0.0000
# 2 26.9655 194.9336 9.5354 0.0000 -1.3647 0.0000
# 3 9.2338 9.5354 19.2441 0.0000 16.4687 0.0000
# 4 0.0001 0.0000 0.0000 7.8649 0.0000 3.2093
# 5 6.8670 -1.3647 16.4687 0.0000 26.7595 0.0000
# 6 0.0000 0.0000 0.0000 3.2093 0.0000 30.4642
#
#
#
# Elastic Compliance Matrix: (Units=1/GPa)
#
#
# Indices 1 2 3 4 5 6 
#
# 1 0.024729 -0.002920 -0.010269 0.000000 -0.000175 0.000000
# 2 -0.002920 0.005808 -0.005010 0.000000 0.004129 0.000000
# 3 -0.010269 -0.005010 0.121137 0.000000 -0.072172 0.000000
# 4 0.000000 0.000000 0.000000 0.132858 0.000000 -0.013996
# 5 -0.000175 0.004129 -0.072172 0.000000 0.082042 0.000000
# 6 0.000000 0.000000 0.000000 -0.013996 0.000000 0.034300
#
#
# Mechanical properties :
#
#
# Convention : Reuss Voigt Hill
#
# Bulk Modulus (GPa) = 8.67489 39.23917 23.95703
# Shear Modulus (GPa) = 10.51090 27.41429 18.96259
#
# Velocity S-wave (km/s) = 2.24999 3.63370 3.02210
# Velocity P-wave (km/s) = 3.30577 6.04186 4.86992
#
# Compressibility (1/GPa) = 0.11527519
#
# Stress axis : x y z
#
# Youngs Moduli (GPa) = 40.43875 172.18161 8.25514
#
# Poissons Ratio (x) = 0.50271 0.08477
# Poissons Ratio (y) = 0.11807 0.04136
# Poissons Ratio (z) = 0.41527 0.86267
#
# Static dielectric constant tensor:
#      x y z
#    x 1.743370 0.000000 -0.018790 
#    y 0.000000 1.817480 0.000000 
#    z -0.018790 0.000000 1.768530 
# 
# From -- ./inp_files/264369.got.cif
#   From: 2010.05.17/outbox.cif.g08.bks.cpg/sg12_133_cif.got.tgz:264369.got - 2010.06.03 13:09:07.
