data_PCOD9169115
_publ_section_title
;
Structure prediction by ZEFSAII (Michael W. Deem and Ramdas Pophale) SiO2 
 PCOD9169115
Probable space group: C 2/M
;
_chemical_formula_sum "Si O2"
_cell_formula_units_Z 44
_cell_length_a 11.943219
_cell_length_b 20.032384
_cell_length_c 12.032274
_cell_angle_alpha 90.000000
_cell_angle_beta 132.437479
_cell_angle_gamma 90.000000
_cell_volume 2124.547302
_symmetry_space_group_name_H-M "C 2/M"
_symmetry_group_IT_number 12
_symmetry_cell_setting 'monoclinic'
loop_
_space_group_symop_operation_xyz
x,y,z
-x,y,-z
-x,-y,-z
x,-y,z
1/2+x,1/2+y,z
1/2-x,1/2+y,-z
1/2-x,1/2-y,-z
1/2+x,1/2-y,z
loop_
_atom_site_type_symbol
_atom_site_label
_atom_site_fract_x
_atom_site_fract_y
_atom_site_fract_z
Si Si1 0.500000 0.772740 0.000000
Si Si2 0.071921 0.153059 0.890305
Si Si3 0.722031 0.174048 0.439758
Si Si4 0.778149 0.077862 0.684478
Si Si5 0.176649 0.808774 0.729917
Si Si6 0.623980 0.842363 0.765136
O O1 0.512414 0.722611 0.903075
O O2 0.349990 0.814662 0.886717
O O3 0.081371 0.157549 0.763633
O O4 0.947385 0.098304 0.839300
O O5 0.239566 0.148004 0.055381
O O6 0.750000 0.250000 0.500000
O O7 0.756410 0.122758 0.560967
O O8 0.822186 0.167016 0.395516
O O9 0.543532 0.160423 0.296820
O O10 0.656001 0.102038 0.693666
O O11 0.766857 0.000000 0.655421
O O12 0.144473 0.729338 0.717485
#
# Coordination Sequence:
#
# PCOD9169115 Si02
#       6
#     4   8   8   8   8   8
#     4  10  16  36  59 102 129 156 214 270 334 384
#     4  11  21  39  63  96 128 168 214 273 332 383
#     4  12  24  41  63  97 135 175 218 270 334 398
#     4  12  26  44  65  93 131 178 228 272 323 391
#     4  11  20  34  63  96 130 164 208 272 331 385
#     4  11  22  39  65  93 128 168 221 272 325 386
#
# _framework density 20.710294999999999
#
# number of rings (size 3 to 8) (size 9 to 14) (size 15 to 20)
#    0.000    0.727    5.455    6.000    0.000    5.091 
#    0.000    1.818    0.000    0.000    0.000    5.091 
#    0.000    0.000    0.000    0.000    0.000    0.000 
#
# Total GULP energy -123001.403596 kJ/mol
# GULP energy per Si atom -5590.972891 kJ/mol
# Density = 2.066316 g / cm^3
# Si number density = 20.710295 Si / 1000 Ang^3
#
#
#
# Elastic Constant Matrix: (Units=GPa)
#
#
# Indices 1 2 3 4 5 6 
#
# 1 143.8759 26.4623 42.5560 0.0000 -18.2946 0.0000
# 2 26.4623 100.3990 32.5409 0.0000 -10.0623 0.0000
# 3 42.5560 32.5409 61.5593 0.0000 -11.8094 0.0000
# 4 0.0000 0.0000 0.0000 12.1335 0.0000 -3.3232
# 5 -18.2946 -10.0623 -11.8094 0.0000 56.1968 0.0000
# 6 0.0000 0.0000 0.0000 -3.3232 0.0000 15.2140
#
#
#
# Elastic Compliance Matrix: (Units=1/GPa)
#
#
# Indices 1 2 3 4 5 6 
#
# 1 0.008895 -0.000349 -0.005649 0.000000 0.001646 0.000000
# 2 -0.000349 0.012072 -0.005989 0.000000 0.000790 0.000000
# 3 -0.005649 -0.005989 0.023713 0.000000 0.002072 0.000000
# 4 0.000000 0.000000 0.000000 0.087661 0.000000 0.019148
# 5 0.001646 0.000790 0.002072 0.000000 0.018907 0.000000
# 6 0.000000 0.000000 0.000000 0.019148 0.000000 0.069911
#
#
# Mechanical properties :
#
#
# Convention : Reuss Voigt Hill
#
# Bulk Modulus (GPa) = 48.29314 56.55030 52.42172
# Shear Modulus (GPa) = 19.83851 30.32720 25.08286
#
# Velocity S-wave (km/s) = 3.09836 3.83084 3.48390
# Velocity P-wave (km/s) = 6.01405 6.85068 6.44595
#
# Compressibility (1/GPa) = 0.02070687
#
# Stress axis : x y z
#
# Youngs Moduli (GPa) = 112.42659 82.83322 42.17099
#
# Poissons Ratio (x) = 0.02887 0.23822
# Poissons Ratio (y) = 0.03918 0.25257
# Poissons Ratio (z) = 0.63509 0.49611
#
# Static dielectric constant tensor:
#      x y z
#    x 1.778310 0.000000 0.017020 
#    y 0.000000 1.671260 0.000000 
#    z 0.017020 0.000000 1.848420 
# 
# From -- ./inp_files/133482.got.cif
#   From: 2010.05.17/outbox.cif.g08.bks.cpg/sg12_67_cif.got.tgz:133482.got - 2010.06.03 13:09:07.
