data_PCOD9169679
_publ_section_title
;
Structure prediction by ZEFSAII (Michael W. Deem and Ramdas Pophale) SiO2 
 PCOD9169679
Probable space group: C 2/M
;
_chemical_formula_sum "Si O2"
_cell_formula_units_Z 56
_cell_length_a 29.713722
_cell_length_b 9.148650
_cell_length_c 17.785442
_cell_angle_alpha 90.000000
_cell_angle_beta 130.061632
_cell_angle_gamma 90.000000
_cell_volume 3700.328442
_symmetry_space_group_name_H-M "C 2/M"
_symmetry_group_IT_number 12
_symmetry_cell_setting 'monoclinic'
loop_
_space_group_symop_operation_xyz
x,y,z
-x,y,-z
-x,-y,-z
x,-y,z
1/2+x,1/2+y,z
1/2-x,1/2+y,-z
1/2-x,1/2-y,-z
1/2+x,1/2-y,z
loop_
_atom_site_type_symbol
_atom_site_label
_atom_site_fract_x
_atom_site_fract_y
_atom_site_fract_z
Si Si1 0.025054 0.173624 0.263729
Si Si2 0.713020 0.174618 0.636844
Si Si3 0.593626 0.177285 0.584184
Si Si4 0.016602 0.323850 0.639430
Si Si5 0.455837 0.324189 0.885776
Si Si6 0.352385 0.170290 0.587929
Si Si7 0.668910 0.828461 0.261521
O O1 0.983434 0.251849 0.279139
O O2 0.017798 0.213741 0.168090
O O3 0.090890 0.227259 0.354185
O O4 0.020253 0.000000 0.265850
O O5 0.658483 0.225446 0.630032
O O6 0.690873 0.199448 0.527447
O O7 0.774407 0.254799 0.714539
O O8 0.720682 0.000000 0.654502
O O9 0.543933 0.218098 0.469341
O O10 0.568933 0.220735 0.639122
O O11 0.594460 0.000000 0.584024
O O12 0.016867 0.500000 0.646249
O O13 0.447445 0.500000 0.877856
O O14 0.392583 0.248018 0.825072
O O15 0.500000 0.284038 0.000000
O O16 0.325182 0.187648 0.641318
O O17 0.371859 0.000000 0.601373
O O18 0.666109 0.000000 0.241771
#
# Coordination Sequence:
#
# PCOD9169679 Si02
#       7
#     8   8   8   8   8   8   8
#     4  10  18  27  44  69  92 114 145 187 231 268
#     4  10  17  28  44  62  87 124 161 183 207 251
#     4   8  15  26  44  63  84 122 165 190 205 246
#     4   9  15  28  45  62  87 121 158 189 217 254
#     4   9  19  36  53  67  86 115 150 185 223 273
#     4   9  17  29  43  59  86 124 158 182 208 255
#     4  10  20  30  43  67  93 116 145 184 230 269
#
# _framework density 15.133791
#
# number of rings (size 3 to 8) (size 9 to 14) (size 15 to 20)
#    0.000    2.714    1.429    2.143    0.000    2.000 
#    0.000    2.143    0.000    0.000    0.000    1.000 
#    0.000    0.000    0.000    0.000    0.000    0.000 
#
# Total GULP energy -155981.044902 kJ/mol
# GULP energy per Si atom -5570.751604 kJ/mol
# Density = 1.509935 g / cm^3
# Si number density = 15.133791 Si / 1000 Ang^3
#
#
#
# Elastic Constant Matrix: (Units=GPa)
#
#
# Indices 1 2 3 4 5 6 
#
# 1 134.8434 46.9490 64.0851 0.0000 0.5483 0.0000
# 2 46.9490 31.2426 36.8396 0.0000 -1.6390 0.0000
# 3 64.0851 36.8396 80.7421 0.0000 -3.7511 0.0000
# 4 0.0000 0.0000 0.0000 16.8370 0.0000 -1.1444
# 5 0.5483 -1.6390 -3.7511 0.0000 11.6161 0.0000
# 6 0.0000 0.0000 0.0000 -1.1444 0.0000 23.4836
#
#
#
# Elastic Compliance Matrix: (Units=1/GPa)
#
#
# Indices 1 2 3 4 5 6 
#
# 1 0.016335 -0.020017 -0.004060 0.000000 -0.004906 0.000000
# 2 -0.020017 0.093812 -0.026656 0.000000 0.005573 0.000000
# 3 -0.004060 -0.026656 0.028024 0.000000 0.005480 0.000000
# 4 0.000000 0.000000 0.000000 0.059590 0.000000 0.002904
# 5 -0.004906 0.005573 0.005480 0.000000 0.088875 0.000000
# 6 0.000000 0.000000 0.000000 0.002904 0.000000 0.042724
#
#
# Mechanical properties :
#
#
# Convention : Reuss Voigt Hill
#
# Bulk Modulus (GPa) = 27.24464 60.28615 43.76540
# Shear Modulus (GPa) = 11.28511 16.98431 14.13471
#
# Velocity S-wave (km/s) = 2.73369 3.35368 3.05943
# Velocity P-wave (km/s) = 5.29204 7.41068 6.43909
#
# Compressibility (1/GPa) = 0.03670447
#
# Stress axis : x y z
#
# Youngs Moduli (GPa) = 61.21877 10.65966 35.68323
#
# Poissons Ratio (x) = 0.21337 0.14487
# Poissons Ratio (y) = 1.22541 0.95118
# Poissons Ratio (z) = 0.24855 0.28415
#
# Static dielectric constant tensor:
#      x y z
#    x 1.524740 0.000000 -0.021910 
#    y 0.000000 1.504190 0.000000 
#    z -0.021910 0.000000 1.478420 
# 
# From -- ./inp_files/249267.got.cif
#   From: 2010.05.17/outbox.cif.g08.bks.cpg/sg12_125_cif.got.tgz:249267.got - 2010.06.03 13:09:07.
