data_PCOD9169479
_publ_section_title
;
Structure prediction by ZEFSAII (Michael W. Deem and Ramdas Pophale) SiO2 
 PCOD9169479
Probable space group: C 2/M
;
_chemical_formula_sum "Si O2"
_cell_formula_units_Z 48
_cell_length_a 33.087114
_cell_length_b 13.749111
_cell_length_c 32.970591
_cell_angle_alpha 90.000000
_cell_angle_beta 13.352020
_cell_angle_gamma 90.000000
_cell_volume 3463.750746
_symmetry_space_group_name_H-M "C 2/M"
_symmetry_group_IT_number 12
_symmetry_cell_setting 'monoclinic'
loop_
_space_group_symop_operation_xyz
x,y,z
-x,y,-z
-x,-y,-z
x,-y,z
1/2+x,1/2+y,z
1/2-x,1/2+y,-z
1/2-x,1/2-y,-z
1/2+x,1/2-y,z
loop_
_atom_site_type_symbol
_atom_site_label
_atom_site_fract_x
_atom_site_fract_y
_atom_site_fract_z
Si Si1 0.410615 0.303116 0.789222
Si Si2 0.542860 0.381733 0.503414
Si Si3 0.224975 0.882254 0.163840
Si Si4 0.718675 0.884619 0.587145
Si Si5 0.366509 0.887930 0.878303
Si Si6 0.626494 0.117989 0.769062
O O1 0.348413 0.335011 0.805443
O O2 0.615327 0.328211 0.592388
O O3 0.373996 0.190787 0.835302
O O4 0.297134 0.363147 0.932841
O O5 0.500000 0.347323 0.500000
O O6 0.547819 0.500000 0.497102
O O7 0.394219 0.356526 0.681313
O O8 0.729359 0.348932 0.339313
O O9 0.217035 0.000000 0.166499
O O10 0.427128 0.853641 0.972281
O O11 0.541927 0.873319 0.733962
O O12 0.681567 0.853364 0.669731
O O13 0.762047 0.000000 0.545595
O O14 0.359702 0.000000 0.872033
O O15 0.628978 0.000000 0.766881
#
# Coordination Sequence:
#
# PCOD9169479 Si02
#       6
#     8   8   8   8   8   8
#     4  11  19  29  47  63  81 116 150 174 215 254
#     4   9  17  27  39  58  84 113 142 171 204 244
#     4  10  17  27  43  61  83 113 146 173 204 248
#     4  10  17  28  45  63  84 111 147 180 208 247
#     4  10  21  32  42  63  89 110 145 187 213 245
#     4   9  16  25  40  59  81 110 141 174 203 240
#
# _framework density 13.857811
#
# number of rings (size 3 to 8) (size 9 to 14) (size 15 to 20)
#    0.000    2.167    3.333    2.000    0.000    0.667 
#    0.000    3.333    0.000    0.000    0.000    0.000 
#    0.000    0.667    0.000    1.667    0.000    0.333 
#
# Total GULP energy -133750.900296 kJ/mol
# GULP energy per Si atom -5572.954179 kJ/mol
# Density = 1.382627 g / cm^3
# Si number density = 13.857811 Si / 1000 Ang^3
#
#
#
# Elastic Constant Matrix: (Units=GPa)
#
#
# Indices 1 2 3 4 5 6 
#
# 1 74.5831 26.7546 29.2342 -0.0112 7.6817 -0.0029
# 2 26.7546 44.9925 21.4939 -0.0378 2.4977 0.0103
# 3 29.2342 21.4939 81.4386 -0.0122 -5.5371 -0.0116
# 4 -0.0112 -0.0378 -0.0122 9.3925 -0.0017 3.1596
# 5 7.6817 2.4977 -5.5371 -0.0017 16.2608 0.0012
# 6 -0.0029 0.0103 -0.0116 3.1596 0.0012 11.6865
#
#
#
# Elastic Compliance Matrix: (Units=1/GPa)
#
#
# Indices 1 2 3 4 5 6 
#
# 1 0.019612 -0.008508 -0.005462 -0.000025 -0.009818 0.000015
# 2 -0.008508 0.029778 -0.004958 0.000125 -0.002243 -0.000067
# 3 -0.005462 -0.004958 0.016150 -0.000011 0.008841 0.000021
# 4 -0.000025 0.000125 -0.000011 0.117120 0.000003 -0.031666
# 5 -0.009818 -0.002243 0.008841 0.000003 0.069491 0.000001
# 6 0.000015 -0.000067 0.000021 -0.031666 0.000001 0.094131
#
#
# Mechanical properties :
#
#
# Convention : Reuss Voigt Hill
#
# Bulk Modulus (GPa) = 36.12167 39.55328 37.83748
# Shear Modulus (GPa) = 12.71083 15.70338 14.20711
#
# Velocity S-wave (km/s) = 3.03187 3.36992 3.20536
# Velocity P-wave (km/s) = 6.19507 6.61408 6.40800
#
# Compressibility (1/GPa) = 0.02768421
#
# Stress axis : x y z
#
# Youngs Moduli (GPa) = 50.98907 33.58173 61.92105
#
# Poissons Ratio (x) = 0.28571 0.33823
# Poissons Ratio (y) = 0.43380 0.30699
# Poissons Ratio (z) = 0.27852 0.16649
#
# Static dielectric constant tensor:
#      x y z
#    x 1.449440 -0.000010 -0.011770 
#    y -0.000010 1.429400 0.000010 
#    z -0.011770 0.000010 1.470530 
# 
# From -- ./inp_files/103646.got.cif
#   From: 2010.05.17/outbox.cif.g08.bks.cpg/sg12_52_cif.got.tgz:103646.got - 2010.06.03 13:09:07.
