data_PCOD9169458
_publ_section_title
;
Structure prediction by ZEFSAII (Michael W. Deem and Ramdas Pophale) SiO2 
 PCOD9169458
Probable space group: C 2/M
;
_chemical_formula_sum "Si O2"
_cell_formula_units_Z 56
_cell_length_a 25.124476
_cell_length_b 9.023369
_cell_length_c 18.243989
_cell_angle_alpha 90.000000
_cell_angle_beta 63.075491
_cell_angle_gamma 90.000000
_cell_volume 3687.716260
_symmetry_space_group_name_H-M "C 2/M"
_symmetry_group_IT_number 12
_symmetry_cell_setting 'monoclinic'
loop_
_space_group_symop_operation_xyz
x,y,z
-x,y,-z
-x,-y,-z
x,-y,z
1/2+x,1/2+y,z
1/2-x,1/2+y,-z
1/2-x,1/2-y,-z
1/2+x,1/2-y,z
loop_
_atom_site_type_symbol
_atom_site_label
_atom_site_fract_x
_atom_site_fract_y
_atom_site_fract_z
Si Si1 0.567911 0.819676 0.952800
Si Si2 0.219201 0.678430 0.275311
Si Si3 0.337076 0.822868 0.985581
Si Si4 0.687878 0.829289 0.452822
Si Si5 0.704964 0.324228 0.132951
Si Si6 0.346880 0.177723 0.232362
Si Si7 0.668389 0.669935 0.609878
O O1 0.601526 0.778782 0.856805
O O2 0.567011 0.000000 0.954855
O O3 0.500000 0.766929 0.000000
O O4 0.609057 0.774071 0.995635
O O5 0.224175 0.500000 0.270660
O O6 0.182199 0.718734 0.371858
O O7 0.193233 0.741097 0.216260
O O8 0.284969 0.748670 0.244533
O O9 0.332740 0.739050 0.911353
O O10 0.341361 0.000000 0.970277
O O11 0.274450 0.797528 0.067180
O O12 0.658478 0.732743 0.534786
O O13 0.759633 0.825964 0.422263
O O14 0.668880 0.000000 0.472118
O O15 0.696993 0.500000 0.146039
O O16 0.358253 0.233117 0.307758
O O17 0.339941 0.000000 0.235364
O O18 0.649450 0.500000 0.628127
#
# Coordination Sequence:
#
# PCOD9169458 Si02
#       7
#     8   8   8   8   8   8   8
#     4   9  17  30  47  65  85 111 148 188 220 252
#     4  10  18  27  41  61  86 114 143 176 213 255
#     4   9  17  30  44  62  84 111 145 180 219 255
#     4   8  15  25  36  54  79 109 141 171 206 248
#     4  10  18  28  43  64  86 113 145 177 215 259
#     4  10  17  27  42  60  82 111 146 180 216 256
#     4   9  16  25  37  55  79 110 142 173 210 251
#
# _framework density 15.185551
#
# number of rings (size 3 to 8) (size 9 to 14) (size 15 to 20)
#    0.000    2.714    1.429    2.571    0.000    4.571 
#    0.000    0.000    0.000    3.857    0.000    0.000 
#    0.000    1.143    0.000   13.143    0.000    4.000 
#
# Total GULP energy -155946.309233 kJ/mol
# GULP energy per Si atom -5569.511044 kJ/mol
# Density = 1.515099 g / cm^3
# Si number density = 15.185551 Si / 1000 Ang^3
#
#
#
# Elastic Constant Matrix: (Units=GPa)
#
#
# Indices 1 2 3 4 5 6 
#
# 1 64.0591 26.1080 53.2081 0.0000 12.8583 -0.0001
# 2 26.1080 51.3176 49.1806 0.0000 16.1557 -0.0001
# 3 53.2081 49.1806 119.5235 0.0000 34.8581 0.0000
# 4 0.0000 0.0000 0.0000 22.4535 0.0000 9.0206
# 5 12.8583 16.1557 34.8581 0.0000 24.5748 0.0000
# 6 -0.0001 -0.0001 0.0000 9.0206 0.0000 13.5933
#
#
#
# Elastic Compliance Matrix: (Units=1/GPa)
#
#
# Indices 1 2 3 4 5 6 
#
# 1 0.025503 -0.003760 -0.011317 0.000000 0.005180 0.000000
# 2 -0.003760 0.032966 -0.010479 0.000000 -0.004841 0.000000
# 3 -0.011317 -0.010479 0.023844 0.000000 -0.021011 0.000000
# 4 0.000000 0.000000 0.000000 0.060726 0.000000 -0.040298
# 5 0.005180 -0.004841 -0.021011 0.000000 0.070968 0.000000
# 6 0.000000 0.000000 0.000000 -0.040298 0.000000 0.100308
#
#
# Mechanical properties :
#
#
# Convention : Reuss Voigt Hill
#
# Bulk Modulus (GPa) = 32.04963 54.65482 43.35223
# Shear Modulus (GPa) = 13.30401 19.21789 16.26095
#
# Velocity S-wave (km/s) = 2.96310 3.56130 3.27588
# Velocity P-wave (km/s) = 5.73217 7.27873 6.55125
#
# Compressibility (1/GPa) = 0.03120161
#
# Stress axis : x y z
#
# Youngs Moduli (GPa) = 39.21105 30.33428 41.93932
#
# Poissons Ratio (x) = 0.11406 0.47462
# Poissons Ratio (y) = 0.14744 0.43948
# Poissons Ratio (z) = 0.44374 0.31787
#
# Static dielectric constant tensor:
#      x y z
#    x 1.484440 0.000000 0.022930 
#    y 0.000000 1.505710 0.000000 
#    z 0.022930 0.000000 1.515990 
# 
# From -- ./inp_files/287397.got.cif
#   From: 2010.05.17/outbox.cif.g08.bks.cpg/sg12_144_cif.got.tgz:287397.got - 2010.06.03 13:09:07.
