data_PCOD9169454
_publ_section_title
;
Structure prediction by ZEFSAII (Michael W. Deem and Ramdas Pophale) SiO2 
 PCOD9169454
Probable space group: C 2/M
;
_chemical_formula_sum "Si O2"
_cell_formula_units_Z 64
_cell_length_a 25.788443
_cell_length_b 7.366664
_cell_length_c 34.984459
_cell_angle_alpha 90.000000
_cell_angle_beta 148.855570
_cell_angle_gamma 90.000000
_cell_volume 3437.377915
_symmetry_space_group_name_H-M "C 2/M"
_symmetry_group_IT_number 12
_symmetry_cell_setting 'monoclinic'
loop_
_space_group_symop_operation_xyz
x,y,z
-x,y,-z
-x,-y,-z
x,-y,z
1/2+x,1/2+y,z
1/2-x,1/2+y,-z
1/2-x,1/2-y,-z
1/2+x,1/2-y,z
loop_
_atom_site_type_symbol
_atom_site_label
_atom_site_fract_x
_atom_site_fract_y
_atom_site_fract_z
Si Si1 0.432647 0.778809 0.421340
Si Si2 0.226396 0.780758 0.408244
Si Si3 0.782372 0.778053 0.686024
Si Si4 0.983248 0.288815 0.683720
Si Si5 0.385558 0.780274 0.164119
Si Si6 0.443538 0.777765 0.574422
Si Si7 0.500455 0.285444 0.156960
Si Si8 0.692041 0.716482 0.003289
O O1 0.500000 0.722557 0.500000
O O2 0.318460 0.721327 0.356097
O O3 0.484218 0.721499 0.414538
O O4 0.433268 0.000000 0.421788
O O5 0.222903 0.722765 0.361778
O O6 0.127650 0.720617 0.368181
O O7 0.329813 0.721380 0.493072
O O8 0.225838 0.000000 0.407922
O O9 0.886766 0.713918 0.770037
O O10 0.783690 0.000000 0.686770
O O11 0.010644 0.500000 0.696848
O O12 0.978354 0.213097 0.637923
O O13 0.059856 0.211749 0.763432
O O14 0.451824 0.734031 0.168546
O O15 0.271485 0.716126 0.084785
O O16 0.383647 0.000000 0.164113
O O17 0.442450 0.000000 0.574216
O O18 0.508118 0.500000 0.154352
O O19 0.419539 0.211334 0.075417
O O20 0.683363 0.500000 0.003246
O O21 0.750000 0.750000 0.000000
#
# Coordination Sequence:
#
# PCOD9169454 Si02
#       8
#     8   8   8   8   8   8   8   8
#     4   9  14  23  38  56  77  99 125 163 202 226
#     4  10  17  27  42  59  79 102 130 161 193 229
#     4   9  15  22  37  60  79  96 123 161 200 227
#     4  10  19  28  38  57  83 107 131 156 186 232
#     4   9  16  25  36  52  77 107 130 147 180 231
#     4   9  17  27  39  56  78 104 133 163 193 225
#     4   9  15  24  38  57  78  96 123 161 193 223
#     4   8  14  23  35  51  73 101 126 150 183 223
#
# _framework density 18.618842999999998
#
# number of rings (size 3 to 8) (size 9 to 14) (size 15 to 20)
#    0.000    2.875    2.500    0.375    0.000    0.000 
#    0.000    0.000    0.000    0.000    0.000    5.250 
#    0.000    7.000    0.000    0.000    0.000   45.625 
#
# Total GULP energy -178428.621393 kJ/mol
# GULP energy per Si atom -5575.894419 kJ/mol
# Density = 1.857647 g / cm^3
# Si number density = 18.618843 Si / 1000 Ang^3
#
#
#
# Elastic Constant Matrix: (Units=GPa)
#
#
# Indices 1 2 3 4 5 6 
#
# 1 94.3362 -2.4874 94.7158 0.0008 -7.3047 0.0010
# 2 -2.4874 67.1530 3.9112 -0.0011 1.7492 0.0087
# 3 94.7158 3.9112 214.4398 -0.0007 17.9122 0.0011
# 4 0.0008 -0.0011 -0.0007 1.3930 0.0004 2.6211
# 5 -7.3047 1.7492 17.9122 0.0004 20.9285 -0.0014
# 6 0.0010 0.0087 0.0011 2.6211 -0.0014 7.0953
#
#
#
# Elastic Compliance Matrix: (Units=1/GPa)
#
#
# Indices 1 2 3 4 5 6 
#
# 1 0.024726 0.001145 -0.012553 -0.000085 0.019278 0.000032
# 2 0.001145 0.014983 -0.000762 0.000148 -0.000200 -0.000073
# 3 -0.012553 -0.000762 0.011397 0.000063 -0.014072 -0.000025
# 4 -0.000085 0.000148 0.000063 2.354352 -0.000196 -0.869742
# 5 0.019278 -0.000200 -0.014072 -0.000196 0.066571 0.000085
# 6 0.000032 -0.000073 -0.000025 -0.869742 0.000085 0.462237
#
#
# Mechanical properties :
#
#
# Convention : Reuss Voigt Hill
#
# Bulk Modulus (GPa) = 37.35959 63.13424 50.24691
# Shear Modulus (GPa) = 1.68490 24.53598 13.11044
#
# Velocity S-wave (km/s) = 0.95232 3.63409 2.65646
# Velocity P-wave (km/s) = 4.61717 7.18271 6.03778
#
# Compressibility (1/GPa) = 0.02676689
#
# Stress axis : x y z
#
# Youngs Moduli (GPa) = 40.44265 66.74050 87.74263
#
# Poissons Ratio (x) = -0.07641 1.10139
# Poissons Ratio (y) = -0.04630 0.06688
# Poissons Ratio (z) = 0.50766 0.05087
#
# Static dielectric constant tensor:
#      x y z
#    x 1.587310 0.000000 0.007920 
#    y 0.000000 1.613950 0.000000 
#    z 0.007920 0.000000 1.687260 
# 
# From -- ./inp_files/282899.got.cif
#   From: 2010.05.17/outbox.cif.g08.bks.cpg/sg12_142_cif.got.tgz:282899.got - 2010.06.03 13:09:07.
