data_PCOD9169567
_publ_section_title
;
Structure prediction by ZEFSAII (Michael W. Deem and Ramdas Pophale) SiO2 
 PCOD9169567
Probable space group: C 2/M
;
_chemical_formula_sum "Si O2"
_cell_formula_units_Z 64
_cell_length_a 14.558879
_cell_length_b 19.139373
_cell_length_c 15.248832
_cell_angle_alpha 90.000000
_cell_angle_beta 64.257160
_cell_angle_gamma 90.000000
_cell_volume 3827.345866
_symmetry_space_group_name_H-M "C 2/M"
_symmetry_group_IT_number 12
_symmetry_cell_setting 'monoclinic'
loop_
_space_group_symop_operation_xyz
x,y,z
-x,y,-z
-x,-y,-z
x,-y,z
1/2+x,1/2+y,z
1/2-x,1/2+y,-z
1/2-x,1/2-y,-z
1/2+x,1/2-y,z
loop_
_atom_site_type_symbol
_atom_site_label
_atom_site_fract_x
_atom_site_fract_y
_atom_site_fract_z
Si Si1 0.400520 0.085377 0.927988
Si Si2 0.770264 0.859066 0.656248
Si Si3 0.379469 0.082141 0.747960
Si Si4 0.532133 0.709901 0.387152
Si Si5 0.816859 0.417048 0.583204
Si Si6 0.424350 0.845156 0.379491
Si Si7 0.388030 0.420261 0.442625
Si Si8 0.133928 0.416465 0.865619
O O1 0.353528 0.110579 0.855433
O O2 0.519809 0.106757 0.884946
O O3 0.399282 0.000000 0.926310
O O4 0.349234 0.107383 0.040825
O O5 0.676603 0.833500 0.635547
O O6 0.837817 0.904824 0.559424
O O7 0.718108 0.896107 0.760129
O O8 0.847570 0.801633 0.661178
O O9 0.328544 0.107701 0.678665
O O10 0.500753 0.094900 0.687180
O O11 0.357515 0.000000 0.758648
O O12 0.500000 0.725125 0.500000
O O13 0.489964 0.774866 0.351332
O O14 0.473825 0.637585 0.389174
O O15 0.846048 0.500000 0.566032
O O16 0.887695 0.371250 0.490114
O O17 0.703626 0.412447 0.589554
O O18 0.425386 0.500000 0.425001
O O19 0.129521 0.500000 0.869826
#
# Coordination Sequence:
#
# PCOD9169567 Si02
#       8
#     8   8   8   8   8   8   8   8
#     4   8  15  25  43  72 101 121 146 188 238 282
#     4  10  20  31  49  70  90 125 160 187 235 286
#     4  10  17  27  45  72  99 125 155 188 233 281
#     4  10  22  34  46  67  94 127 164 192 228 276
#     4   9  18  29  46  69  94 127 161 189 227 276
#     4  11  20  31  46  66  97 127 154 198 229 274
#     4   9  19  34  48  68  97 125 157 195 227 269
#     4   9  15  27  46  72  99 120 147 191 239 282
#
# _framework density 16.721769999999999
#
# number of rings (size 3 to 8) (size 9 to 14) (size 15 to 20)
#    0.000    2.500    1.250    2.625    0.000   10.250 
#    0.000    0.000    0.000    0.750    0.000    0.875 
#    0.000    5.000    0.000    0.000    0.000    0.000 
#
# Total GULP energy -178177.454931 kJ/mol
# GULP energy per Si atom -5568.045467 kJ/mol
# Density = 1.668371 g / cm^3
# Si number density = 16.721770 Si / 1000 Ang^3
#
#
#
# Elastic Constant Matrix: (Units=GPa)
#
#
# Indices 1 2 3 4 5 6 
#
# 1 63.7424 13.4893 33.0344 0.0000 18.3314 0.0000
# 2 13.4893 26.5479 7.2072 0.0000 10.4053 0.0000
# 3 33.0344 7.2072 103.4691 0.0000 30.1789 0.0000
# 4 0.0000 0.0000 0.0000 1.1327 0.0000 2.5410
# 5 18.3314 10.4053 30.1789 0.0000 22.4804 0.0000
# 6 0.0000 0.0000 0.0000 2.5410 0.0000 20.6358
#
#
#
# Elastic Compliance Matrix: (Units=1/GPa)
#
#
# Indices 1 2 3 4 5 6 
#
# 1 0.021737 -0.006115 -0.003566 0.000000 -0.010108 0.000000
# 2 -0.006115 0.049327 0.006116 0.000000 -0.026055 0.000000
# 3 -0.003566 0.006116 0.017018 0.000000 -0.022769 0.000000
# 4 0.000000 0.000000 0.000000 1.219823 0.000000 -0.150203
# 5 -0.010108 -0.026055 -0.022769 0.000000 0.095352 0.000000
# 6 0.000000 0.000000 0.000000 -0.150203 0.000000 0.066955
#
#
# Mechanical properties :
#
#
# Convention : Reuss Voigt Hill
#
# Bulk Modulus (GPa) = 12.35298 33.46903 22.91100
# Shear Modulus (GPa) = 3.32375 18.18503 10.75439
#
# Velocity S-wave (km/s) = 1.41138 3.30131 2.53877
# Velocity P-wave (km/s) = 3.17165 5.88135 4.72492
#
# Compressibility (1/GPa) = 0.08095215
#
# Stress axis : x y z
#
# Youngs Moduli (GPa) = 46.00434 20.27300 58.76024
#
# Poissons Ratio (x) = 0.12397 0.20953
# Poissons Ratio (y) = 0.28132 -0.35938
# Poissons Ratio (z) = 0.16404 -0.12399
#
# Static dielectric constant tensor:
#      x y z
#    x 1.590800 0.000000 0.028100 
#    y 0.000000 1.577650 0.000000 
#    z 0.028100 0.000000 1.585890 
# 
# From -- ./inp_files/217197.got.cif
#   From: 2010.05.17/outbox.cif.g08.bks.cpg/sg12_109_cif.got.tgz:217197.got - 2010.06.03 13:09:07.
