data_PCOD9169550
_publ_section_title
;
Structure prediction by ZEFSAII (Michael W. Deem and Ramdas Pophale) SiO2 
 PCOD9169550
Probable space group: C 2/M
;
_chemical_formula_sum "Si O2"
_cell_formula_units_Z 40
_cell_length_a 9.636027
_cell_length_b 24.360091
_cell_length_c 9.081750
_cell_angle_alpha 90.000000
_cell_angle_beta 48.292013
_cell_angle_gamma 90.000000
_cell_volume 1591.485571
_symmetry_space_group_name_H-M "C 2/M"
_symmetry_group_IT_number 12
_symmetry_cell_setting 'monoclinic'
loop_
_space_group_symop_operation_xyz
x,y,z
-x,y,-z
-x,-y,-z
x,-y,z
1/2+x,1/2+y,z
1/2-x,1/2+y,-z
1/2-x,1/2-y,-z
1/2+x,1/2-y,z
loop_
_atom_site_type_symbol
_atom_site_label
_atom_site_fract_x
_atom_site_fract_y
_atom_site_fract_z
Si Si1 0.618333 0.937197 0.567043
Si Si2 0.284259 0.715398 0.305620
Si Si3 0.406126 0.824314 0.274707
Si Si4 0.685830 0.325489 0.044638
Si Si5 0.465174 0.440454 0.848932
O O1 0.500000 0.926136 0.500000
O O2 0.599224 0.890081 0.704096
O O3 0.833873 0.936027 0.367565
O O4 0.570950 0.000000 0.645249
O O5 0.263211 0.781033 0.301604
O O6 0.135830 0.693256 0.525863
O O7 0.293675 0.682964 0.147021
O O8 0.493154 0.704007 0.222533
O O9 0.604846 0.810014 0.064532
O O10 0.656087 0.388589 0.106820
O O11 0.383441 0.500000 0.871471
O O12 0.500000 0.438079 0.000000
#
# Coordination Sequence:
#
# PCOD9169550 Si02
#       5
#     8   8   8   8   8
#     4  10  19  30  47  71  97 129 158 192 245 298
#     4  10  21  32  46  71  96 131 167 195 235 280
#     4  11  20  32  50  70  99 129 164 199 233 287
#     4  11  19  34  48  68 101 133 160 198 241 285
#     4  10  17  27  45  68  96 128 157 188 236 293
#
# _framework density 25.133749000000002
#
# number of rings (size 3 to 8) (size 9 to 14) (size 15 to 20)
#    0.000    1.600    4.000    3.600    0.000    2.400 
#    0.000    0.000    0.000    0.000    0.000    2.800 
#    0.000   16.000    0.000    0.000    0.000    0.200 
#
# Total GULP energy -111668.577386 kJ/mol
# GULP energy per Si atom -5583.428869 kJ/mol
# Density = 2.507654 g / cm^3
# Si number density = 25.133749 Si / 1000 Ang^3
#
#
#
# Elastic Constant Matrix: (Units=GPa)
#
#
# Indices 1 2 3 4 5 6 
#
# 1 49.9340 11.7258 15.9485 0.0000 -9.3745 0.0000
# 2 11.7258 198.9847 14.9026 0.0000 -7.1892 0.0000
# 3 15.9485 14.9026 134.6992 0.0000 -2.3659 0.0000
# 4 0.0000 0.0000 0.0000 44.2235 0.0000 1.6849
# 5 -9.3745 -7.1892 -2.3659 0.0000 30.9088 0.0000
# 6 0.0000 0.0000 0.0000 1.6849 0.0000 11.7254
#
#
#
# Elastic Compliance Matrix: (Units=1/GPa)
#
#
# Indices 1 2 3 4 5 6 
#
# 1 0.022200 -0.000898 -0.002418 0.000000 0.006339 0.000000
# 2 -0.000898 0.005144 -0.000447 0.000000 0.000890 0.000000
# 3 -0.002418 -0.000447 0.007755 0.000000 -0.000244 0.000000
# 4 0.000000 0.000000 0.000000 0.022737 0.000000 -0.003267
# 5 0.006339 0.000890 -0.000244 0.000000 0.034464 0.000000
# 6 0.000000 0.000000 0.000000 -0.003267 0.000000 0.085755
#
#
# Mechanical properties :
#
#
# Convention : Reuss Voigt Hill
#
# Bulk Modulus (GPa) = 36.26719 52.08575 44.17647
# Shear Modulus (GPa) = 25.67106 40.10760 32.88933
#
# Velocity S-wave (km/s) = 3.19937 3.99904 3.62134
# Velocity P-wave (km/s) = 5.30179 6.48780 5.92454
#
# Compressibility (1/GPa) = 0.02757313
#
# Stress axis : x y z
#
# Youngs Moduli (GPa) = 45.04580 194.39840 128.94236
#
# Poissons Ratio (x) = 0.17459 0.31175
# Poissons Ratio (y) = 0.04045 0.05766
# Poissons Ratio (z) = 0.10891 0.08693
#
# Static dielectric constant tensor:
#      x y z
#    x 0.930880 0.000000 -0.326260 
#    y 0.000000 2.039750 0.000000 
#    z -0.326260 0.000000 1.814270 
# 
# From -- ./inp_files/62120.got.cif
#   From: 2010.05.17/outbox.cif.g08.bks.cpg/sg12_32_cif.got.tgz:62120.got - 2010.06.03 13:09:07.
