data_PCOD9169986
_publ_section_title
;
Structure prediction by ZEFSAII (Michael W. Deem and Ramdas Pophale) SiO2 
 PCOD9169986
Probable space group: C 2/M
;
_chemical_formula_sum "Si O2"
_cell_formula_units_Z 64
_cell_length_a 15.049064
_cell_length_b 22.233723
_cell_length_c 22.920216
_cell_angle_alpha 90.000000
_cell_angle_beta 155.862569
_cell_angle_gamma 90.000000
_cell_volume 3136.070936
_symmetry_space_group_name_H-M "C 2/M"
_symmetry_group_IT_number 12
_symmetry_cell_setting 'monoclinic'
loop_
_space_group_symop_operation_xyz
x,y,z
-x,y,-z
-x,-y,-z
x,-y,z
1/2+x,1/2+y,z
1/2-x,1/2+y,-z
1/2-x,1/2-y,-z
1/2+x,1/2-y,z
loop_
_atom_site_type_symbol
_atom_site_label
_atom_site_fract_x
_atom_site_fract_y
_atom_site_fract_z
Si Si1 0.266072 0.770367 0.887337
Si Si2 0.631695 0.564535 0.666937
Si Si3 0.134160 0.145908 0.903279
Si Si4 0.767798 0.567257 0.879353
Si Si5 0.042469 0.430707 0.830436
Si Si6 0.499704 0.690332 0.378220
Si Si7 0.215722 0.274644 0.660443
Si Si8 0.910776 0.678905 0.684400
O O1 0.273279 0.800447 0.955775
O O2 0.106025 0.809715 0.749180
O O3 0.148401 0.706635 0.819107
O O4 0.500000 0.766937 0.000000
O O5 0.531700 0.500000 0.587409
O O6 0.645777 0.561971 0.745252
O O7 0.536424 0.630916 0.602750
O O8 0.868339 0.567123 0.779123
O O9 0.134344 0.098142 0.850393
O O10 0.905540 0.176547 0.781321
O O11 0.257459 0.110091 0.027627
O O12 0.823372 0.500000 0.933964
O O13 0.000000 0.596794 0.000000
O O14 0.094025 0.500000 0.846395
O O15 0.929437 0.390661 0.712730
O O16 0.371003 0.743745 0.333001
O O17 0.759818 0.692834 0.538197
O O18 0.306334 0.220635 0.673138
O O19 0.000000 0.300128 0.500000
#
# Coordination Sequence:
#
# PCOD9169986 Si02
#       8
#     8   8   8   8   8   8   8   8
#     4  11  23  35  58  87 113 146 190 238 288 336
#     4  10  19  30  51  81 115 147 180 225 280 340
#     4  11  20  33  57  86 115 146 182 236 292 338
#     4  10  17  29  49  78 112 142 175 224 284 339
#     4  11  22  36  57  85 116 152 189 231 283 341
#     4  11  20  39  56  82 116 154 188 232 281 346
#     4   9  21  36  55  82 115 150 191 235 285 339
#     4  10  23  38  56  80 118 152 190 234 280 340
#
# _framework density 20.407700999999999
#
# number of rings (size 3 to 8) (size 9 to 14) (size 15 to 20)
#    0.000    1.625    3.750    1.875    1.750    1.500 
#    0.000    1.250    0.000    1.875    0.000    0.000 
#    0.000    0.000    0.000    0.000    0.000    0.000 
#
# Total GULP energy -178440.780825 kJ/mol
# GULP energy per Si atom -5576.274401 kJ/mol
# Density = 2.036125 g / cm^3
# Si number density = 20.407701 Si / 1000 Ang^3
#
#
#
# Elastic Constant Matrix: (Units=GPa)
#
#
# Indices 1 2 3 4 5 6 
#
# 1 39.3680 32.3928 26.0861 -0.0118 -1.8119 -0.0078
# 2 32.3928 129.6289 51.9018 0.0005 9.0834 -0.0004
# 3 26.0861 51.9018 88.2032 -0.0072 -0.8109 -0.0104
# 4 -0.0118 0.0005 -0.0072 15.1277 -0.0177 6.2703
# 5 -1.8119 9.0834 -0.8109 -0.0177 28.7303 -0.0105
# 6 -0.0078 -0.0004 -0.0104 6.2703 -0.0105 23.3106
#
#
#
# Elastic Compliance Matrix: (Units=1/GPa)
#
#
# Indices 1 2 3 4 5 6 
#
# 1 0.035274 -0.006461 -0.006593 0.000028 0.004081 0.000003
# 2 -0.006461 0.011610 -0.004960 -0.000011 -0.004218 -0.000003
# 3 -0.006593 -0.004960 0.016221 0.000003 0.001610 0.000005
# 4 0.000028 -0.000011 0.000003 0.074399 0.000044 -0.020013
# 5 0.004081 -0.004218 0.001610 0.000044 0.036443 0.000007
# 6 0.000003 -0.000003 0.000005 -0.020013 0.000007 0.048282
#
#
# Mechanical properties :
#
#
# Convention : Reuss Voigt Hill
#
# Bulk Modulus (GPa) = 36.93090 53.10681 45.01886
# Shear Modulus (GPa) = 18.70682 23.22168 20.96425
#
# Velocity S-wave (km/s) = 3.03092 3.37692 3.20859
# Velocity P-wave (km/s) = 5.51221 6.42528 5.98618
#
# Compressibility (1/GPa) = 0.02707760
#
# Stress axis : x y z
#
# Youngs Moduli (GPa) = 28.34954 86.13078 61.64961
#
# Poissons Ratio (x) = 0.55647 0.40646
# Poissons Ratio (y) = 0.18316 0.30577
# Poissons Ratio (z) = 0.18691 0.42720
#
# Static dielectric constant tensor:
#      x y z
#    x 1.713390 0.000000 -0.039930 
#    y 0.000000 1.850080 -0.000010 
#    z -0.039930 -0.000010 1.795680 
# 
# From -- ./inp_files/364806.got.cif
#   From: 2010.05.17/outbox.cif.g08.bks.cpg/sg12_183_cif.got.tgz:364806.got - 2010.06.03 13:09:07.
