data_PCOD9169049
_publ_section_title
;
Structure prediction by ZEFSAII (Michael W. Deem and Ramdas Pophale) SiO2 
 PCOD9169049
Probable space group: C 2/M
;
_chemical_formula_sum "Si O2"
_cell_formula_units_Z 50
_cell_length_a 5.240257
_cell_length_b 27.344054
_cell_length_c 16.423065
_cell_angle_alpha 90.000000
_cell_angle_beta 68.769206
_cell_angle_gamma 90.000000
_cell_volume 2193.541551
_symmetry_space_group_name_H-M "C 2/M"
_symmetry_group_IT_number 12
_symmetry_cell_setting 'monoclinic'
loop_
_space_group_symop_operation_xyz
x,y,z
-x,y,-z
-x,-y,-z
x,-y,z
1/2+x,1/2+y,z
1/2-x,1/2+y,-z
1/2-x,1/2-y,-z
1/2+x,1/2-y,z
loop_
_atom_site_type_symbol
_atom_site_label
_atom_site_fract_x
_atom_site_fract_y
_atom_site_fract_z
Si Si1 0.203896 0.559526 0.194506
Si Si2 0.295438 0.193901 0.960237
Si Si3 0.311133 0.940974 0.098826
Si Si4 0.500000 0.000000 0.500000
Si Si5 0.675102 0.655675 0.406714
Si Si6 0.807321 0.406574 0.618275
Si Si7 0.900584 0.719566 0.236529
O O1 0.189422 0.500000 0.200941
O O2 0.498464 0.574485 0.124902
O O3 0.198198 0.580723 0.285421
O O4 0.958853 0.576713 0.164325
O O5 0.431108 0.194624 0.856212
O O6 0.500000 0.170724 0.000000
O O7 0.250000 0.250000 0.000000
O O8 0.000000 0.170782 0.000000
O O9 0.298715 0.000000 0.108344
O O10 0.500000 0.931893 0.000000
O O11 0.325364 0.957000 0.567366
O O12 0.500000 0.680254 0.500000
O O13 0.456292 0.623786 0.380573
O O14 0.836578 0.689701 0.325163
O O15 0.906107 0.622551 0.422833
O O16 0.606802 0.736551 0.236347
#
# Coordination Sequence:
#
# PCOD9169049 Si02
#       7
#     8   8   8   2   8   8   8
#     4  10  19  33  57  89 115 153 210 270 320 401
#     4  10  16  32  61 101 134 159 225 281 315 383
#     4   9  17  30  51  83 116 151 199 252 313 383
#     4  12  24  46  80  98 118 182 244 290 356 442
#     4  12  27  46  64  95 145 179 220 297 347 409
#     4  12  25  45  68  99 131 171 229 294 367 399
#     4  12  23  40  70 102 133 189 233 262 342 421
#
# _framework density 22.794188999999999
#
# number of rings (size 3 to 8) (size 9 to 14) (size 15 to 20)
#    0.000    1.120    5.600    2.400    0.000    3.840 
#    0.000    0.000    0.000    9.600    0.000    0.000 
#    0.000    0.000    0.000    0.000    0.000    0.000 
#
# Total GULP energy -139524.400828 kJ/mol
# GULP energy per Si atom -5580.976033 kJ/mol
# Density = 2.274231 g / cm^3
# Si number density = 22.794189 Si / 1000 Ang^3
#
#
#
# Elastic Constant Matrix: (Units=GPa)
#
#
# Indices 1 2 3 4 5 6 
#
# 1 112.7847 7.9894 5.6290 0.0000 -0.8441 0.0000
# 2 7.9894 38.7055 29.2107 0.0000 -7.2517 0.0000
# 3 5.6290 29.2107 142.4624 0.0000 -19.1457 0.0000
# 4 0.0000 0.0000 0.0000 63.7367 0.0000 -5.2155
# 5 -0.8441 -7.2517 -19.1457 0.0000 43.8072 0.0000
# 6 0.0000 0.0000 0.0000 -5.2155 0.0000 1.9821
#
#
#
# Elastic Compliance Matrix: (Units=1/GPa)
#
#
# Indices 1 2 3 4 5 6 
#
# 1 0.008999 -0.001894 0.000015 0.000000 -0.000134 0.000000
# 2 -0.001894 0.031217 -0.005988 0.000000 0.002514 0.000000
# 3 0.000015 -0.005988 0.008620 0.000000 0.002776 0.000000
# 4 0.000000 0.000000 0.000000 0.019995 0.000000 0.052611
# 5 -0.000134 0.002514 0.002776 0.000000 0.024454 0.000000
# 6 0.000000 0.000000 0.000000 0.052611 0.000000 0.642947
#
#
# Mechanical properties :
#
#
# Convention : Reuss Voigt Hill
#
# Bulk Modulus (GPa) = 30.20991 42.17897 36.19444
# Shear Modulus (GPa) = 6.55308 38.64678 22.59993
#
# Velocity S-wave (km/s) = 1.69739 4.12207 3.15219
# Velocity P-wave (km/s) = 4.13807 6.41870 5.40016
#
# Compressibility (1/GPa) = 0.03310172
#
# Stress axis : x y z
#
# Youngs Moduli (GPa) = 111.12525 32.03361 116.01289
#
# Poissons Ratio (x) = 0.06066 -0.00171
# Poissons Ratio (y) = 0.21043 0.69470
# Poissons Ratio (z) = -0.00164 0.19182
#
# Static dielectric constant tensor:
#      x y z
#    x 1.849140 0.000000 0.009400 
#    y 0.000000 2.049550 0.000000 
#    z 0.009400 0.000000 1.871790 
# 
# From -- ./inp_files/192565.got.cif
#   From: 2010.05.17/outbox.cif.g08.bks.cpg/sg12_97_cif.got.tgz:192565.got - 2010.06.03 13:09:07.
