data_PCOD9169656
_publ_section_title
;
Structure prediction by ZEFSAII (Michael W. Deem and Ramdas Pophale) SiO2 
 PCOD9169656
Probable space group: C 2/M
;
_chemical_formula_sum "Si O2"
_cell_formula_units_Z 32
_cell_length_a 21.669981
_cell_length_b 5.682897
_cell_length_c 15.883400
_cell_angle_alpha 90.000000
_cell_angle_beta 141.584453
_cell_angle_gamma 90.000000
_cell_volume 1215.389183
_symmetry_space_group_name_H-M "C 2/M"
_symmetry_group_IT_number 12
_symmetry_cell_setting 'monoclinic'
loop_
_space_group_symop_operation_xyz
x,y,z
-x,y,-z
-x,-y,-z
x,-y,z
1/2+x,1/2+y,z
1/2-x,1/2+y,-z
1/2-x,1/2-y,-z
1/2+x,1/2-y,z
loop_
_atom_site_type_symbol
_atom_site_label
_atom_site_fract_x
_atom_site_fract_y
_atom_site_fract_z
Si Si1 0.392773 0.000000 0.341670
Si Si2 0.331386 0.500000 0.777289
Si Si3 0.066982 0.500000 0.153414
Si Si4 0.842422 0.500000 0.536220
Si Si5 0.303380 0.500000 0.293519
Si Si6 0.132648 0.500000 0.973204
Si Si7 0.206429 0.000000 0.057777
Si Si8 0.660271 0.500000 0.473906
O O1 0.500000 0.000000 0.500000
O O2 0.359873 0.264859 0.330679
O O3 0.326809 0.000000 0.183993
O O4 0.381855 0.260119 0.796695
O O5 0.221837 0.500000 0.618699
O O6 0.324792 0.500000 0.872968
O O7 0.985186 0.500000 0.139385
O O8 0.000000 0.500000 0.000000
O O9 0.756757 0.500000 0.516362
O O10 0.894922 0.752114 0.596497
O O11 0.199042 0.500000 0.132290
O O12 0.297339 0.500000 0.387079
O O13 0.163525 0.240809 0.974283
#
# Coordination Sequence:
#
# PCOD9169656 Si02
#       8
#     4   4   4   4   4   4   4   4
#     4  10  20  31  46  67  88 117 152 190 235 277
#     4  12  20  30  43  63  92 123 158 184 220 253
#     4  12  21  28  41  64  89 122 162 182 209 265
#     4  10  20  31  47  66  91 120 162 207 217 258
#     4  10  19  32  50  64  92 125 153 187 226 281
#     4  10  18  28  40  61  83 118 152 176 207 253
#     4  10  17  28  42  56  84 117 147 176 217 262
#     4  10  19  33  48  67  86 122 165 193 233 262
#
# _framework density 26.329015999999999
#
# number of rings (size 3 to 8) (size 9 to 14) (size 15 to 20)
#    0.000    1.500    2.500    6.000    0.000    0.000 
#    0.000    0.000    0.000    0.000    0.000    0.000 
#    0.000    0.000    0.000   90.000    0.000    9.500 
#
# Total GULP energy -89157.938476 kJ/mol
# GULP energy per Si atom -5572.371155 kJ/mol
# Density = 2.626909 g / cm^3
# Si number density = 26.329016 Si / 1000 Ang^3
#
#
#
# Elastic Constant Matrix: (Units=GPa)
#
#
# Indices 1 2 3 4 5 6 
#
# 1 42.9417 41.5055 11.7549 0.0000 -17.7814 0.0000
# 2 41.5055 367.5080 84.1230 0.0000 13.3448 0.0000
# 3 11.7549 84.1230 81.5034 0.0000 12.7192 0.0000
# 4 0.0000 0.0000 0.0000 35.7536 0.0000 7.7101
# 5 -17.7814 13.3448 12.7192 0.0000 31.2845 0.0000
# 6 0.0000 0.0000 0.0000 7.7101 0.0000 30.1673
#
#
#
# Elastic Compliance Matrix: (Units=1/GPa)
#
#
# Indices 1 2 3 4 5 6 
#
# 1 0.039985 -0.004205 -0.005609 0.000000 0.026801 0.000000
# 2 -0.004205 0.004005 -0.003083 0.000000 -0.002845 0.000000
# 3 -0.005609 -0.003083 0.017674 0.000000 -0.009059 0.000000
# 4 0.000000 0.000000 0.000000 0.029601 0.000000 -0.007565
# 5 0.026801 -0.002845 -0.009059 0.000000 0.052094 0.000000
# 6 0.000000 0.000000 0.000000 -0.007565 0.000000 0.035082
#
#
# Mechanical properties :
#
#
# Convention : Reuss Voigt Hill
#
# Bulk Modulus (GPa) = 27.87884 85.19112 56.53498
# Shear Modulus (GPa) = 23.12754 43.07906 33.10330
#
# Velocity S-wave (km/s) = 2.96701 4.04936 3.54968
# Velocity P-wave (km/s) = 4.72749 7.36816 6.19027
#
# Compressibility (1/GPa) = 0.03586949
#
# Stress axis : x y z
#
# Youngs Moduli (GPa) = 25.00944 249.68718 56.57873
#
# Poissons Ratio (x) = 1.04995 0.31736
# Poissons Ratio (y) = 0.10517 0.17445
# Poissons Ratio (z) = 0.14028 0.76986
#
# Static dielectric constant tensor:
#      x y z
#    x 2.150610 0.000000 0.031270 
#    y 0.000000 2.074430 0.000000 
#    z 0.031270 0.000000 2.047400 
# 
# From -- ./inp_files/326478.got.cif
#   From: 2010.05.17/outbox.cif.g08.bks.cpg/sg12_164_cif.got.tgz:326478.got - 2010.06.03 13:09:07.
