data_PCOD9169331
_publ_section_title
;
Structure prediction by ZEFSAII (Michael W. Deem and Ramdas Pophale) SiO2 
 PCOD9169331
Probable space group: C 2/M
;
_chemical_formula_sum "Si O2"
_cell_formula_units_Z 64
_cell_length_a 24.908378
_cell_length_b 30.981211
_cell_length_c 5.232112
_cell_angle_alpha 90.000000
_cell_angle_beta 94.123601
_cell_angle_gamma 90.000000
_cell_volume 4027.125191
_symmetry_space_group_name_H-M "C 2/M"
_symmetry_group_IT_number 12
_symmetry_cell_setting 'monoclinic'
loop_
_space_group_symop_operation_xyz
x,y,z
-x,y,-z
-x,-y,-z
x,-y,z
1/2+x,1/2+y,z
1/2-x,1/2+y,-z
1/2-x,1/2-y,-z
1/2+x,1/2-y,z
loop_
_atom_site_type_symbol
_atom_site_label
_atom_site_fract_x
_atom_site_fract_y
_atom_site_fract_z
Si Si1 0.420595 0.551542 0.043700
Si Si2 0.157423 0.162537 0.420232
Si Si3 0.699942 0.190875 0.028224
Si Si4 0.264498 0.050079 0.608031
Si Si5 0.173392 0.214370 0.927799
Si Si6 0.199857 0.950244 0.070894
Si Si7 0.055878 0.100170 0.443900
Si Si8 0.714541 0.138980 0.535817
O O1 0.424164 0.500000 0.006864
O O2 0.436174 0.564327 0.333935
O O3 0.358948 0.568041 0.985234
O O4 0.450467 0.576417 0.828356
O O5 0.155841 0.197899 0.645046
O O6 0.109459 0.129122 0.455874
O O7 0.219049 0.143290 0.441877
O O8 0.148875 0.185510 0.145154
O O9 0.666786 0.234752 0.973967
O O10 0.693590 0.157247 0.795677
O O11 0.762683 0.204746 0.037544
O O12 0.693174 0.168764 0.299621
O O13 0.219092 0.049486 0.369086
O O14 0.300932 0.089250 0.520834
O O15 0.284029 0.000000 0.633380
O O16 0.241796 0.066310 0.874376
O O17 0.194701 0.000000 0.988341
O O18 0.000000 0.123596 0.500000
#
# Coordination Sequence:
#
# PCOD9169331 Si02
#       8
#     8   8   8   8   8   8   8   8
#     4  11  22  36  51  62  76 100 130 171 221 260
#     4  10  19  31  47  61  78 104 128 157 206 251
#     4   9  17  27  42  65  84  98 120 155 197 240
#     4  10  18  27  39  58  84 111 137 164 195 231
#     4   9  17  30  46  63  82 100 120 150 198 258
#     4   9  17  28  42  57  72  95 132 171 202 241
#     4  12  25  37  48  63  81 101 134 173 206 249
#     4  10  17  26  42  61  82 104 129 160 195 237
#
# _framework density 15.892231000000001
#
# number of rings (size 3 to 8) (size 9 to 14) (size 15 to 20)
#    0.000    2.000    0.000    5.250    0.000    8.500 
#    0.000    0.000    0.000    0.000    0.000    0.000 
#    0.000    0.000    0.000    0.000    0.000    0.000 
#
# Total GULP energy -178331.043695 kJ/mol
# GULP energy per Si atom -5572.845115 kJ/mol
# Density = 1.585606 g / cm^3
# Si number density = 15.892231 Si / 1000 Ang^3
#
#
#
# Elastic Constant Matrix: (Units=GPa)
#
#
# Indices 1 2 3 4 5 6 
#
# 1 12.5851 6.4206 4.0245 0.0000 -1.7984 0.0000
# 2 6.4206 58.3083 -3.4975 0.0000 0.3080 0.0000
# 3 4.0245 -3.4975 55.6762 0.0000 -2.6647 0.0000
# 4 0.0000 0.0000 0.0000 21.1268 0.0000 0.5995
# 5 -1.7984 0.3080 -2.6647 0.0000 10.4005 0.0000
# 6 0.0000 0.0000 0.0000 0.5995 0.0000 -0.2980
#
#
#
# Elastic Compliance Matrix: (Units=1/GPa)
#
#
# Indices 1 2 3 4 5 6 
#
# 1 0.088720 -0.010226 -0.006385 0.000000 0.014008 0.000000
# 2 -0.010226 0.018394 0.001806 0.000000 -0.001850 0.000000
# 3 -0.006385 0.001806 0.018710 0.000000 0.003636 0.000000
# 4 0.000000 0.000000 0.000000 0.044777 0.000000 0.090087
# 5 0.014008 -0.001850 0.003636 0.000000 0.099558 0.000000
# 6 0.000000 0.000000 0.000000 0.090087 0.000000 -3.174687
#
#
# Mechanical properties :
#
#
# Convention : Reuss Voigt Hill
#
# Bulk Modulus (GPa) = 10.39352 15.60720 13.00036
# Shear Modulus (GPa) = -1.75880 14.22067 6.23093
#
# Velocity S-wave (km/s) = -1.05314 2.99460 1.98223
# Velocity P-wave (km/s) = 2.25286 4.66892 3.66566
#
# Compressibility (1/GPa) = 0.09621380
#
# Stress axis : x y z
#
# Youngs Moduli (GPa) = 11.27145 54.36443 53.44729
#
# Poissons Ratio (x) = 0.55595 0.34126
# Poissons Ratio (y) = 0.11527 -0.09653
# Poissons Ratio (z) = 0.07197 -0.09819
#
# Static dielectric constant tensor:
#      x y z
#    x 1.528720 0.000000 -0.012070 
#    y 0.000000 1.573080 0.000000 
#    z -0.012070 0.000000 1.554970 
# 
# From -- ./inp_files/26408.got.cif
#   From: 2010.05.17/outbox.cif.g08.bks.cpg/sg12_14_cif.got.tgz:26408.got - 2010.06.03 13:09:07.
