data_PCOD9169395
_publ_section_title
;
Structure prediction by ZEFSAII (Michael W. Deem and Ramdas Pophale) SiO2 
 PCOD9169395
Probable space group: C 2/M
;
_chemical_formula_sum "Si O2"
_cell_formula_units_Z 48
_cell_length_a 15.954129
_cell_length_b 8.378945
_cell_length_c 14.709285
_cell_angle_alpha 90.000000
_cell_angle_beta 101.930832
_cell_angle_gamma 90.000000
_cell_volume 1923.842458
_symmetry_space_group_name_H-M "C 2/M"
_symmetry_group_IT_number 12
_symmetry_cell_setting 'monoclinic'
loop_
_space_group_symop_operation_xyz
x,y,z
-x,y,-z
-x,-y,-z
x,-y,z
1/2+x,1/2+y,z
1/2-x,1/2+y,-z
1/2-x,1/2-y,-z
1/2+x,1/2-y,z
loop_
_atom_site_type_symbol
_atom_site_label
_atom_site_fract_x
_atom_site_fract_y
_atom_site_fract_z
Si Si1 0.954872 0.315219 0.372622
Si Si2 0.001207 0.814704 0.200986
Si Si3 0.250311 0.810169 0.864047
Si Si4 0.108920 0.313638 0.969317
Si Si5 0.197132 0.810063 0.308864
Si Si6 0.866056 0.187606 0.516467
O O1 0.976478 0.500000 0.390911
O O2 0.947486 0.281844 0.264553
O O3 0.876126 0.273865 0.421712
O O4 0.036979 0.210826 0.421863
O O5 0.973862 0.767043 0.093607
O O6 0.099816 0.789116 0.249249
O O7 0.981127 0.000000 0.209337
O O8 0.180531 0.718373 0.907599
O O9 0.248856 0.774495 0.757092
O O10 0.240019 0.000000 0.876897
O O11 0.341534 0.759574 0.929067
O O12 0.091299 0.500000 0.974370
O O13 0.192265 0.750464 0.412503
O O14 0.215184 0.000000 0.314325
O O15 0.850040 0.000000 0.500477
#
# Coordination Sequence:
#
# PCOD9169395 Si02
#       6
#     8   8   8   8   8   8
#     4  10  17  26  44  71 101 133 168 207 250 295
#     4  10  20  34  52  76 105 136 170 209 255 301
#     4  10  21  36  55  76 100 133 170 209 253 304
#     4  10  21  37  55  75 100 132 171 211 252 303
#     4   9  19  33  51  76 105 136 169 209 252 296
#     4   9  16  28  45  68 100 136 170 204 247 297
#
# _framework density 24.950068000000002
#
# number of rings (size 3 to 8) (size 9 to 14) (size 15 to 20)
#    0.000    2.333    0.000    5.500    0.000    6.667 
#    0.000    3.333    0.000    1.000    0.000    0.000 
#    0.000    0.000    0.000    0.000    0.000    0.000 
#
# Total GULP energy -134216.769748 kJ/mol
# GULP energy per Si atom -5592.365406 kJ/mol
# Density = 2.489328 g / cm^3
# Si number density = 24.950068 Si / 1000 Ang^3
#
#
#
# Elastic Constant Matrix: (Units=GPa)
#
#
# Indices 1 2 3 4 5 6 
#
# 1 62.5612 13.9150 7.6713 0.0000 -8.8075 0.0000
# 2 13.9150 20.8202 16.7199 0.0000 2.5389 0.0000
# 3 7.6713 16.7199 168.8569 0.0000 -0.1571 0.0000
# 4 0.0000 0.0000 0.0000 30.5662 0.0000 2.1142
# 5 -8.8075 2.5389 -0.1571 0.0000 53.7942 0.0000
# 6 0.0000 0.0000 0.0000 2.1142 0.0000 2.7237
#
#
#
# Elastic Compliance Matrix: (Units=1/GPa)
#
#
# Indices 1 2 3 4 5 6 
#
# 1 0.019570 -0.013949 0.000496 0.000000 0.003864 0.000000
# 2 -0.013949 0.062454 -0.005555 0.000000 -0.005248 0.000000
# 3 0.000496 -0.005555 0.006450 0.000000 0.000362 0.000000
# 4 0.000000 0.000000 0.000000 0.034572 0.000000 -0.026835
# 5 0.003864 -0.005248 0.000362 0.000000 0.019471 0.000000
# 6 0.000000 0.000000 0.000000 -0.026835 0.000000 0.387979
#
#
# Mechanical properties :
#
#
# Convention : Reuss Voigt Hill
#
# Bulk Modulus (GPa) = 19.81865 36.53896 28.17881
# Shear Modulus (GPa) = 8.54217 31.67895 20.11056
#
# Velocity S-wave (km/s) = 1.85233 3.56714 2.84215
# Velocity P-wave (km/s) = 3.54054 5.62518 4.69990
#
# Compressibility (1/GPa) = 0.05045751
#
# Stress axis : x y z
#
# Youngs Moduli (GPa) = 51.09845 16.01175 155.03723
#
# Poissons Ratio (x) = 0.22334 -0.07685
# Poissons Ratio (y) = 0.71276 0.86127
# Poissons Ratio (z) = -0.02533 0.08895
#
# Static dielectric constant tensor:
#      x y z
#    x 2.102550 0.000000 0.023800 
#    y 0.000000 1.841990 0.000000 
#    z 0.023800 0.000000 1.981950 
# 
# From -- ./inp_files/229271.got.cif
#   From: 2010.05.17/outbox.cif.g08.bks.cpg/sg12_115_cif.got.tgz:229271.got - 2010.06.03 13:09:07.
