data_PCOD9169044
_publ_section_title
;
Structure prediction by ZEFSAII (Michael W. Deem and Ramdas Pophale) SiO2 
 PCOD9169044
Probable space group: C 2/M
;
_chemical_formula_sum "Si O2"
_cell_formula_units_Z 40
_cell_length_a 5.290305
_cell_length_b 26.410041
_cell_length_c 13.314337
_cell_angle_alpha 90.000000
_cell_angle_beta 106.406313
_cell_angle_gamma 90.000000
_cell_volume 1784.497797
_symmetry_space_group_name_H-M "C 2/M"
_symmetry_group_IT_number 12
_symmetry_cell_setting 'monoclinic'
loop_
_space_group_symop_operation_xyz
x,y,z
-x,y,-z
-x,-y,-z
x,-y,z
1/2+x,1/2+y,z
1/2-x,1/2+y,-z
1/2-x,1/2-y,-z
1/2+x,1/2-y,z
loop_
_atom_site_type_symbol
_atom_site_label
_atom_site_fract_x
_atom_site_fract_y
_atom_site_fract_z
Si Si1 0.790834 0.938742 0.764680
Si Si2 0.285260 0.307278 0.047245
Si Si3 0.800555 0.123181 0.565948
Si Si4 0.555738 0.282560 0.708589
Si Si5 0.872061 0.439613 0.877140
O O1 0.774998 0.918384 0.650513
O O2 0.556004 0.918620 0.808999
O O3 0.073090 0.921202 0.839239
O O4 0.782445 0.000000 0.765098
O O5 0.375292 0.301815 0.171479
O O6 0.500000 0.332155 0.000000
O O7 0.250000 0.250000 0.000000
O O8 0.000000 0.331007 0.000000
O O9 0.500000 0.134850 0.500000
O O10 0.938970 0.172443 0.629339
O O11 0.000000 0.106186 0.500000
O O12 0.823999 0.259029 0.694483
O O13 0.855023 0.500000 0.856186
O O14 0.000000 0.435182 0.000000
#
# Coordination Sequence:
#
# PCOD9169044 Si02
#       5
#     8   8   8   8   8
#     4  10  21  40  66  93 126 169 212 259 318 376
#     4  10  16  32  59  90 117 151 185 238 299 365
#     4  12  28  46  62  89 125 163 222 281 312 362
#     4  12  23  40  67  90 121 164 204 252 318 383
#     4   9  17  33  63  97 131 164 197 246 314 388
#
# _framework density 22.41527
#
# number of rings (size 3 to 8) (size 9 to 14) (size 15 to 20)
#    0.000    1.400    4.000    3.000    0.000    5.600 
#    0.000    3.000    0.000    0.000    0.000    0.000 
#    0.000    0.000    0.000    0.000    0.000    0.000 
#
# Total GULP energy -111916.112531 kJ/mol
# GULP energy per Si atom -5595.805627 kJ/mol
# Density = 2.236425 g / cm^3
# Si number density = 22.415270 Si / 1000 Ang^3
#
#
#
# Elastic Constant Matrix: (Units=GPa)
#
#
# Indices 1 2 3 4 5 6 
#
# 1 133.5339 15.0429 21.0322 0.0000 4.2306 0.0000
# 2 15.0429 37.3788 -3.6817 0.0000 -0.4315 0.0000
# 3 21.0322 -3.6817 78.5517 0.0000 2.5263 0.0000
# 4 0.0000 0.0000 0.0000 25.6596 0.0000 -2.6657
# 5 4.2306 -0.4315 2.5263 0.0000 51.2312 0.0000
# 6 0.0000 0.0000 0.0000 -2.6657 0.0000 25.3767
#
#
#
# Elastic Compliance Matrix: (Units=1/GPa)
#
#
# Indices 1 2 3 4 5 6 
#
# 1 0.008283 -0.003573 -0.002366 0.000000 -0.000597 0.000000
# 2 -0.003573 0.028420 0.002275 0.000000 0.000422 0.000000
# 3 -0.002366 0.002275 0.013485 0.000000 -0.000450 0.000000
# 4 0.000000 0.000000 0.000000 0.039402 0.000000 0.004139
# 5 -0.000597 0.000422 -0.000450 0.000000 0.019594 0.000000
# 6 0.000000 0.000000 0.000000 0.004139 0.000000 0.039841
#
#
# Mechanical properties :
#
#
# Convention : Reuss Voigt Hill
#
# Bulk Modulus (GPa) = 23.33184 34.91681 29.12432
# Shear Modulus (GPa) = 29.30144 34.92491 32.11318
#
# Velocity S-wave (km/s) = 3.61946 3.95154 3.78914
# Velocity P-wave (km/s) = 5.28193 6.03578 5.67139
#
# Compressibility (1/GPa) = 0.04285988
#
# Stress axis : x y z
#
# Youngs Moduli (GPa) = 120.73122 35.18630 74.15595
#
# Poissons Ratio (x) = 0.12573 0.17545
# Poissons Ratio (y) = 0.43141 -0.16872
# Poissons Ratio (z) = 0.28565 -0.08006
#
# Static dielectric constant tensor:
#      x y z
#    x 1.806780 0.000000 0.011830 
#    y 0.000000 1.798930 0.000000 
#    z 0.011830 0.000000 1.778740 
# 
# From -- ./inp_files/116172.got.cif
#   From: 2010.05.17/outbox.cif.g08.bks.cpg/sg12_59_cif.got.tgz:116172.got - 2010.06.03 13:09:07.
