data_PCOD9169971
_publ_section_title
;
Structure prediction by ZEFSAII (Michael W. Deem and Ramdas Pophale) SiO2 
 PCOD9169971
Probable space group: C 2/M
;
_chemical_formula_sum "Si O2"
_cell_formula_units_Z 56
_cell_length_a 23.047517
_cell_length_b 19.848004
_cell_length_c 7.585103
_cell_angle_alpha 90.000000
_cell_angle_beta 124.003647
_cell_angle_gamma 90.000000
_cell_volume 2876.457963
_symmetry_space_group_name_H-M "C 2/M"
_symmetry_group_IT_number 12
_symmetry_cell_setting 'monoclinic'
loop_
_space_group_symop_operation_xyz
x,y,z
-x,y,-z
-x,-y,-z
x,-y,z
1/2+x,1/2+y,z
1/2-x,1/2+y,-z
1/2-x,1/2-y,-z
1/2+x,1/2-y,z
loop_
_atom_site_type_symbol
_atom_site_label
_atom_site_fract_x
_atom_site_fract_y
_atom_site_fract_z
Si Si1 0.389661 0.923462 0.290169
Si Si2 0.530771 0.204145 0.737872
Si Si3 0.939394 0.393143 0.772371
Si Si4 0.232385 0.922721 0.130553
Si Si5 0.710425 0.731653 0.665928
Si Si6 0.848654 0.794300 0.076253
Si Si7 0.290311 0.139574 0.574074
O O1 0.427373 0.864744 0.245507
O O2 0.418959 0.922151 0.543254
O O3 0.306423 0.908175 0.157031
O O4 0.400584 0.000000 0.243428
O O5 0.500000 0.228121 0.500000
O O6 0.471640 0.179196 0.770360
O O7 0.583362 0.261237 0.892991
O O8 0.865944 0.389554 0.751546
O O9 0.000000 0.423513 0.000000
O O10 0.253953 0.908069 0.369211
O O11 0.215024 0.000000 0.072748
O O12 0.170376 0.872361 0.975117
O O13 0.653811 0.724791 0.721876
O O14 0.691981 0.789211 0.494014
O O15 0.733763 0.661122 0.621807
O O16 0.781682 0.758728 0.875014
#
# Coordination Sequence:
#
# PCOD9169971 Si02
#       7
#     8   8   8   8   8   8   8
#     4   9  18  32  46  62  89 125 160 190 224 268
#     4  10  19  30  46  68  95 126 154 183 224 276
#     4  10  19  28  41  63  94 125 156 185 216 264
#     4   9  18  32  49  67  90 121 155 196 240 275
#     4   9  16  27  48  70  90 117 150 196 241 267
#     4  10  17  29  49  72  93 116 156 197 231 270
#     4   9  17  30  45  66  95 123 152 188 231 277
#
# _framework density 19.468387
#
# number of rings (size 3 to 8) (size 9 to 14) (size 15 to 20)
#    0.000    2.571    0.000    5.143    0.000    2.857 
#    0.000    0.714    0.000    6.429    0.000    0.000 
#    0.000   28.000    0.000    0.000    0.000    1.571 
#
# Total GULP energy -156127.983768 kJ/mol
# GULP energy per Si atom -5575.999420 kJ/mol
# Density = 1.942408 g / cm^3
# Si number density = 19.468387 Si / 1000 Ang^3
#
#
#
# Elastic Constant Matrix: (Units=GPa)
#
#
# Indices 1 2 3 4 5 6 
#
# 1 31.9239 5.8767 0.4506 0.0000 11.9048 0.0000
# 2 5.8767 61.2644 15.8000 0.0000 25.1770 0.0000
# 3 0.4506 15.8000 47.5815 0.0000 6.1151 0.0000
# 4 0.0000 0.0000 0.0000 16.7228 0.0000 4.7905
# 5 11.9048 25.1770 6.1151 0.0000 23.5584 0.0000
# 6 0.0000 0.0000 0.0000 4.7905 0.0000 18.8611
#
#
#
# Elastic Compliance Matrix: (Units=1/GPa)
#
#
# Indices 1 2 3 4 5 6 
#
# 1 0.040767 0.007923 0.000744 0.000000 -0.029261 0.000000
# 2 0.007923 0.032317 -0.006055 0.000000 -0.036969 0.000000
# 3 0.000744 -0.006055 0.023004 0.000000 0.000124 0.000000
# 4 0.000000 0.000000 0.000000 0.064491 0.000000 -0.016380
# 5 -0.029261 -0.036969 0.000124 0.000000 0.096712 0.000000
# 6 0.000000 0.000000 0.000000 -0.016380 0.000000 0.057180
#
#
# Mechanical properties :
#
#
# Convention : Reuss Voigt Hill
#
# Bulk Modulus (GPa) = 9.87057 20.55830 15.21443
# Shear Modulus (GPa) = 14.57645 19.73793 17.15719
#
# Velocity S-wave (km/s) = 2.73925 3.18755 2.97186
# Velocity P-wave (km/s) = 3.88403 4.91223 4.42808
#
# Compressibility (1/GPa) = 0.10131126
#
# Stress axis : x y z
#
# Youngs Moduli (GPa) = 24.52938 30.94336 43.47026
#
# Poissons Ratio (x) = -0.24516 -0.03233
# Poissons Ratio (y) = -0.19434 0.26322
# Poissons Ratio (z) = -0.01824 0.18737
#
# Static dielectric constant tensor:
#      x y z
#    x 1.720930 0.000000 -0.031170 
#    y 0.000000 1.695280 0.000000 
#    z -0.031170 0.000000 1.743860 
# 
# From -- ./inp_files/106263.got.cif
#   From: 2010.05.17/outbox.cif.g08.bks.cpg/sg12_54_cif.got.tgz:106263.got - 2010.06.03 13:09:07.
