data_PCOD9169328
_publ_section_title
;
Structure prediction by ZEFSAII (Michael W. Deem and Ramdas Pophale) SiO2 
 PCOD9169328
Probable space group: C 2/M
;
_chemical_formula_sum "Si O2"
_cell_formula_units_Z 56
_cell_length_a 29.554786
_cell_length_b 7.677614
_cell_length_c 14.442244
_cell_angle_alpha 90.000000
_cell_angle_beta 106.095036
_cell_angle_gamma 90.000000
_cell_volume 3148.641397
_symmetry_space_group_name_H-M "C 2/M"
_symmetry_group_IT_number 12
_symmetry_cell_setting 'monoclinic'
loop_
_space_group_symop_operation_xyz
x,y,z
-x,y,-z
-x,-y,-z
x,-y,z
1/2+x,1/2+y,z
1/2-x,1/2+y,-z
1/2-x,1/2-y,-z
1/2+x,1/2-y,z
loop_
_atom_site_type_symbol
_atom_site_label
_atom_site_fract_x
_atom_site_fract_y
_atom_site_fract_z
Si Si1 0.351919 0.213789 0.616811
Si Si2 0.261424 0.290669 0.111805
Si Si3 0.792962 0.704009 0.410158
Si Si4 0.202898 0.699121 0.247221
Si Si5 0.646622 0.288075 0.729751
Si Si6 0.057122 0.298784 0.441374
Si Si7 0.454628 0.300682 0.355805
O O1 0.312542 0.267699 0.519225
O O2 0.337623 0.276996 0.710692
O O3 0.402338 0.266342 0.604232
O O4 0.351055 0.000000 0.618471
O O5 0.261539 0.500000 0.122636
O O6 0.222615 0.221082 0.163200
O O7 0.313142 0.231591 0.175072
O O8 0.250000 0.250000 0.000000
O O9 0.781040 0.500000 0.410486
O O10 0.748766 0.800583 0.340302
O O11 0.834913 0.725223 0.359481
O O12 0.189145 0.500000 0.218834
O O13 0.645542 0.500000 0.726672
O O14 0.593260 0.228140 0.715926
O O15 0.067880 0.500000 0.469343
O O16 0.055067 0.203533 0.538823
O O17 0.004648 0.289798 0.369939
O O18 0.460579 0.500000 0.329911
#
# Coordination Sequence:
#
# PCOD9169328 Si02
#       7
#     8   8   8   8   8   8   8
#     4   9  17  28  42  61  88 121 151 177 211 255
#     4   9  18  32  49  67  86 110 140 181 227 268
#     4  10  17  26  41  64  89 115 149 183 211 246
#     4   9  18  32  45  60  86 119 148 174 216 269
#     4   9  18  31  46  63  88 121 150 177 219 266
#     4  10  18  28  42  62  90 121 151 184 216 246
#     4  10  18  29  43  62  87 119 155 184 211 253
#
# _framework density 17.785447000000001
#
# number of rings (size 3 to 8) (size 9 to 14) (size 15 to 20)
#    0.000    2.571    1.429    3.429    0.000    2.857 
#    0.000    2.143    0.000    0.000    0.000    1.000 
#    0.000    8.000    0.000    0.000    0.000    0.000 
#
# Total GULP energy -156057.977505 kJ/mol
# GULP energy per Si atom -5573.499197 kJ/mol
# Density = 1.774497 g / cm^3
# Si number density = 17.785447 Si / 1000 Ang^3
#
#
#
# Elastic Constant Matrix: (Units=GPa)
#
#
# Indices 1 2 3 4 5 6 
#
# 1 93.1498 -4.1158 45.3336 0.0000 -17.1175 0.0000
# 2 -4.1158 37.7715 -2.8738 0.0000 0.1690 0.0000
# 3 45.3336 -2.8738 100.9100 0.0000 -11.7789 0.0000
# 4 0.0000 0.0000 0.0000 13.9944 0.0000 4.5206
# 5 -17.1175 0.1690 -11.7789 0.0000 18.8275 0.0000
# 6 0.0000 0.0000 0.0000 4.5206 0.0000 9.1981
#
#
#
# Elastic Compliance Matrix: (Units=1/GPa)
#
#
# Indices 1 2 3 4 5 6 
#
# 1 0.015494 0.001208 -0.005699 0.000000 0.010510 0.000000
# 2 0.001208 0.026628 0.000341 0.000000 0.001072 0.000000
# 3 -0.005699 0.000341 0.012810 0.000000 0.002830 0.000000
# 4 0.000000 0.000000 0.000000 0.084943 0.000000 -0.041747
# 5 0.010510 0.001072 0.002830 0.000000 0.064430 0.000000
# 6 0.000000 0.000000 0.000000 -0.041747 0.000000 0.129236
#
#
# Mechanical properties :
#
#
# Convention : Reuss Voigt Hill
#
# Bulk Modulus (GPa) = 21.44529 34.27994 27.86262
# Shear Modulus (GPa) = 13.99048 21.30315 17.64682
#
# Velocity S-wave (km/s) = 2.80773 3.46466 3.15335
# Velocity P-wave (km/s) = 4.75343 5.94316 5.38127
#
# Compressibility (1/GPa) = 0.04663028
#
# Stress axis : x y z
#
# Youngs Moduli (GPa) = 64.54157 37.55487 78.06246
#
# Poissons Ratio (x) = -0.04535 0.44491
# Poissons Ratio (y) = -0.07794 -0.02662
# Poissons Ratio (z) = 0.36785 -0.01280
#
# Static dielectric constant tensor:
#      x y z
#    x 1.662510 0.000000 -0.007710 
#    y 0.000000 1.743860 0.000000 
#    z -0.007710 0.000000 1.588350 
# 
# From -- ./inp_files/247896.got.cif
#   From: 2010.05.17/outbox.cif.g08.bks.cpg/sg12_124_cif.got.tgz:247896.got - 2010.06.03 13:09:07.
