data_PCOD9169427
_publ_section_title
;
Structure prediction by ZEFSAII (Michael W. Deem and Ramdas Pophale) SiO2 
 PCOD9169427
Probable space group: C 2/M
;
_chemical_formula_sum "Si O2"
_cell_formula_units_Z 44
_cell_length_a 7.838701
_cell_length_b 25.098904
_cell_length_c 13.674207
_cell_angle_alpha 90.000000
_cell_angle_beta 131.657880
_cell_angle_gamma 90.000000
_cell_volume 2009.997168
_symmetry_space_group_name_H-M "C 2/M"
_symmetry_group_IT_number 12
_symmetry_cell_setting 'monoclinic'
loop_
_space_group_symop_operation_xyz
x,y,z
-x,y,-z
-x,-y,-z
x,-y,z
1/2+x,1/2+y,z
1/2-x,1/2+y,-z
1/2-x,1/2-y,-z
1/2+x,1/2-y,z
loop_
_atom_site_type_symbol
_atom_site_label
_atom_site_fract_x
_atom_site_fract_y
_atom_site_fract_z
Si Si1 0.224017 0.000000 0.875591
Si Si2 0.910592 0.500000 0.755784
Si Si3 0.505986 0.115744 0.745395
Si Si4 0.838656 0.310084 0.031814
Si Si5 0.815716 0.000000 0.521057
Si Si6 0.261303 0.883506 0.458081
Si Si7 0.018753 0.888979 0.184854
O O1 0.108092 0.054048 0.867533
O O2 0.193732 0.000000 0.746026
O O3 0.500000 0.000000 0.000000
O O4 0.903922 0.500000 0.636678
O O5 0.992507 0.561081 0.803961
O O6 0.296118 0.123185 0.588244
O O7 0.731560 0.107343 0.766575
O O8 0.534947 0.167026 0.824569
O O9 0.624662 0.348319 0.933440
O O10 0.750000 0.250000 0.000000
O O11 0.000000 0.317101 0.000000
O O12 0.778488 0.946738 0.566652
O O13 0.000000 0.000000 0.500000
O O14 0.500000 0.866025 0.500000
O O15 0.055491 0.864962 0.309153
#
# Coordination Sequence:
#
# PCOD9169427 Si02
#       7
#     4   4   8   8   4   8   8
#     4  12  23  34  53  88 129 164 202 246 292 350
#     4  10  19  32  51  83 123 160 192 234 284 343
#     4  10  21  39  62  90 122 157 198 244 296 354
#     4  12  26  45  65  86 113 152 199 247 297 355
#     4  10  17  26  46  77 117 158 192 226 277 339
#     4   9  19  34  56  85 119 154 193 238 291 351
#     4  11  21  38  62  90 121 159 198 243 296 351
#
# _framework density 21.890575999999999
#
# number of rings (size 3 to 8) (size 9 to 14) (size 15 to 20)
#    0.000    1.455    0.000    6.818    0.000    4.364 
#    0.000    3.636    0.000    0.000    0.000    0.000 
#    0.000    0.000    0.000    0.000    0.000    0.000 
#
# Total GULP energy -122606.079457 kJ/mol
# GULP energy per Si atom -5573.003612 kJ/mol
# Density = 2.184075 g / cm^3
# Si number density = 21.890576 Si / 1000 Ang^3
#
#
#
# Elastic Constant Matrix: (Units=GPa)
#
#
# Indices 1 2 3 4 5 6 
#
# 1 56.0426 10.8683 -7.5327 0.0000 -4.3643 0.0000
# 2 10.8683 110.3704 23.5657 0.0000 -8.6804 0.0000
# 3 -7.5327 23.5657 90.9882 0.0000 -16.0493 0.0000
# 4 0.0000 0.0000 0.0000 6.2369 0.0000 -11.4229
# 5 -4.3643 -8.6804 -16.0493 0.0000 29.1246 0.0000
# 6 0.0000 0.0000 0.0000 -11.4229 0.0000 19.1825
#
#
#
# Elastic Compliance Matrix: (Units=1/GPa)
#
#
# Indices 1 2 3 4 5 6 
#
# 1 0.018928 -0.002165 0.002785 0.000000 0.003726 0.000000
# 2 -0.002165 0.009911 -0.002528 0.000000 0.001236 0.000000
# 3 0.002785 -0.002528 0.013089 0.000000 0.006876 0.000000
# 4 0.000000 0.000000 0.000000 -1.769038 0.000000 -1.053440
# 5 0.003726 0.001236 0.006876 0.000000 0.039051 0.000000
# 6 0.000000 0.000000 0.000000 -1.053440 0.000000 -0.575179
#
#
# Mechanical properties :
#
#
# Convention : Reuss Voigt Hill
#
# Bulk Modulus (GPa) = 26.23963 34.57818 30.40890
# Shear Modulus (GPa) = -2.22547 26.27546 12.02500
#
# Velocity S-wave (km/s) = -1.00938 3.46831 2.34631
# Velocity P-wave (km/s) = 3.26409 5.64527 4.61104
#
# Compressibility (1/GPa) = 0.03811029
#
# Stress axis : x y z
#
# Youngs Moduli (GPa) = 52.83178 100.90165 76.40190
#
# Poissons Ratio (x) = 0.21850 -0.21278
# Poissons Ratio (y) = 0.11441 0.19315
# Poissons Ratio (z) = -0.14714 0.25508
#
# Static dielectric constant tensor:
#      x y z
#    x 1.873110 0.000000 0.093360 
#    y 0.000000 1.734610 0.000000 
#    z 0.093360 0.000000 2.200520 
# 
# From -- ./inp_files/198629.got.cif
#   From: 2010.05.17/outbox.cif.g08.bks.cpg/sg12_100_cif.got.tgz:198629.got - 2010.06.03 13:09:07.
