data_PCOD9169129
_publ_section_title
;
Structure prediction by ZEFSAII (Michael W. Deem and Ramdas Pophale) SiO2 
 PCOD9169129
Probable space group: C 2/M
;
_chemical_formula_sum "Si O2"
_cell_formula_units_Z 38
_cell_length_a 11.298664
_cell_length_b 21.525595
_cell_length_c 11.411241
_cell_angle_alpha 90.000000
_cell_angle_beta 41.667462
_cell_angle_gamma 90.000000
_cell_volume 1845.058838
_symmetry_space_group_name_H-M "C 2/M"
_symmetry_group_IT_number 12
_symmetry_cell_setting 'monoclinic'
loop_
_space_group_symop_operation_xyz
x,y,z
-x,y,-z
-x,-y,-z
x,-y,z
1/2+x,1/2+y,z
1/2-x,1/2+y,-z
1/2-x,1/2-y,-z
1/2+x,1/2-y,z
loop_
_atom_site_type_symbol
_atom_site_label
_atom_site_fract_x
_atom_site_fract_y
_atom_site_fract_z
Si Si1 0.318191 0.867036 0.434504
Si Si2 0.970392 0.500000 0.381578
Si Si3 0.000000 0.287075 0.500000
Si Si4 0.681615 0.197152 0.813703
Si Si5 0.577696 0.397211 0.243704
Si Si6 0.867223 0.000000 0.989524
Si Si7 0.500000 0.500000 0.500000
O O1 0.363306 0.939653 0.417802
O O2 0.432358 0.829326 0.443683
O O3 0.354490 0.842120 0.277868
O O4 0.108850 0.860355 0.617215
O O5 0.000000 0.500000 0.500000
O O6 0.164520 0.500000 0.181430
O O7 0.165000 0.245533 0.334362
O O8 0.763787 0.150103 0.848360
O O9 0.500000 0.224747 0.000000
O O10 0.598473 0.438725 0.113216
O O11 0.566467 0.445654 0.359053
O O12 0.000000 0.000000 0.000000
#
# Coordination Sequence:
#
# PCOD9169129 Si02
#       7
#     8   4   4   8   8   4   2
#     4  12  24  46  75  99 144 187 232 296 363 422
#     4  12  24  45  65 107 140 185 231 283 373 428
#     4  12  27  49  70 101 143 188 244 300 348 416
#     4  12  26  47  73 104 137 188 245 293 353 419
#     4  11  22  43  71 102 143 183 233 290 354 422
#     4  11  25  41  66 110 147 179 237 288 356 439
#     4  10  16  38  72 100 134 188 210 290 354 408
#
# _framework density 20.595548000000001
#
# number of rings (size 3 to 8) (size 9 to 14) (size 15 to 20)
#    0.000    0.421    5.263    4.421    0.000    0.842 
#    3.789    2.632    0.000    0.000    0.000    0.000 
#    0.000    0.000    0.000    0.000    0.000    0.000 
#
# Total GULP energy -106105.240492 kJ/mol
# GULP energy per Si atom -5584.486342 kJ/mol
# Density = 2.054867 g / cm^3
# Si number density = 20.595548 Si / 1000 Ang^3
#
#
#
# Elastic Constant Matrix: (Units=GPa)
#
#
# Indices 1 2 3 4 5 6 
#
# 1 92.9891 43.5154 40.1688 0.0000 -3.7790 0.0001
# 2 43.5154 103.8027 27.4992 0.0000 -0.7929 0.0000
# 3 40.1688 27.4992 137.4537 0.0000 -11.4374 0.0001
# 4 0.0000 0.0000 0.0000 12.0538 0.0000 -10.8022
# 5 -3.7790 -0.7929 -11.4374 0.0000 34.4419 -0.0001
# 6 0.0001 0.0000 0.0001 -10.8022 -0.0001 -10.3119
#
#
#
# Elastic Compliance Matrix: (Units=1/GPa)
#
#
# Indices 1 2 3 4 5 6 
#
# 1 0.014616 -0.005282 -0.003179 0.000000 0.000426 0.000000
# 2 -0.005282 0.012088 -0.000926 0.000000 -0.000609 0.000000
# 3 -0.003179 -0.000926 0.008596 0.000000 0.002484 0.000000
# 4 0.000000 0.000000 0.000000 0.042791 0.000000 -0.044825
# 5 0.000426 -0.000609 0.002484 0.000000 0.029892 0.000000
# 6 0.000000 0.000000 0.000000 -0.044825 0.000000 -0.050019
#
#
# Mechanical properties :
#
#
# Convention : Reuss Voigt Hill
#
# Bulk Modulus (GPa) = 60.50456 61.84582 61.17519
# Shear Modulus (GPa) = 60.79216 22.10756 41.44986
#
# Velocity S-wave (km/s) = 5.43886 3.27985 4.49103
# Velocity P-wave (km/s) = 8.29957 6.66612 7.52729
#
# Compressibility (1/GPa) = 0.01652768
#
# Stress axis : x y z
#
# Youngs Moduli (GPa) = 68.41659 82.72379 116.33112
#
# Poissons Ratio (x) = 0.43694 0.36984
# Poissons Ratio (y) = 0.36137 0.10767
# Poissons Ratio (z) = 0.21751 0.07656
#
# Static dielectric constant tensor:
#      x y z
#    x 2.036700 0.000000 -0.192700 
#    y 0.000000 1.715270 0.000000 
#    z -0.192700 0.000000 1.810710 
# 
# From -- ./inp_files/133697.got.cif
#   From: 2010.05.17/outbox.cif.g08.bks.cpg/sg12_67_cif.got.tgz:133697.got - 2010.06.03 13:09:07.
