data_PCOD9169758
_publ_section_title
;
Structure prediction by ZEFSAII (Michael W. Deem and Ramdas Pophale) SiO2 
 PCOD9169758
Probable space group: C 2/M
;
_chemical_formula_sum "Si O2"
_cell_formula_units_Z 48
_cell_length_a 14.423950
_cell_length_b 15.821031
_cell_length_c 10.402312
_cell_angle_alpha 90.000000
_cell_angle_beta 110.022828
_cell_angle_gamma 90.000000
_cell_volume 2230.343032
_symmetry_space_group_name_H-M "C 2/M"
_symmetry_group_IT_number 12
_symmetry_cell_setting 'monoclinic'
loop_
_space_group_symop_operation_xyz
x,y,z
-x,y,-z
-x,-y,-z
x,-y,z
1/2+x,1/2+y,z
1/2-x,1/2+y,-z
1/2-x,1/2-y,-z
1/2+x,1/2-y,z
loop_
_atom_site_type_symbol
_atom_site_label
_atom_site_fract_x
_atom_site_fract_y
_atom_site_fract_z
Si Si1 0.797908 0.500000 0.198475
Si Si2 0.791976 0.191168 0.137421
Si Si3 0.510910 0.000000 0.159223
Si Si4 0.018129 0.179725 0.159225
Si Si5 0.704348 0.500000 0.892244
Si Si6 0.481741 0.500000 0.837550
Si Si7 0.155495 0.329153 0.646840
Si Si8 0.566100 0.163848 0.334435
O O1 0.900343 0.500000 0.165842
O O2 0.796866 0.415396 0.280051
O O3 0.714977 0.500000 0.051374
O O4 0.907457 0.179589 0.161513
O O5 0.791114 0.248248 0.265089
O O6 0.753422 0.093334 0.127697
O O7 0.750000 0.250000 0.000000
O O8 0.564540 0.081279 0.244971
O O9 0.500000 0.000000 0.000000
O O10 0.066503 0.089580 0.213004
O O11 0.075622 0.255862 0.248306
O O12 0.000000 0.191112 0.000000
O O13 0.586925 0.500000 0.813166
O O14 0.500000 0.500000 0.000000
O O15 0.142078 0.332745 0.487840
O O16 0.043688 0.331206 0.653185
#
# Coordination Sequence:
#
# PCOD9169758 Si02
#       8
#     4   8   4   8   4   4   8   8
#     4  10  17  28  47  71  94 127 160 192 242 277
#     4  10  18  30  48  72  96 123 160 201 240 281
#     4  10  19  29  44  72 100 128 163 197 234 281
#     4   9  17  30  49  72  95 121 158 200 241 279
#     4  10  18  29  47  73  94 120 157 200 241 278
#     4   8  16  30  48  72  91 113 155 205 240 272
#     4   9  17  29  46  68  96 124 158 198 235 285
#     4   9  17  29  45  68  97 126 157 194 237 287
#
# _framework density 21.521353000000001
#
# number of rings (size 3 to 8) (size 9 to 14) (size 15 to 20)
#    0.000    2.667    1.667    1.000    0.000    2.000 
#    0.000    0.833    0.000    6.000    0.000    0.000 
#    0.000    0.000    0.000    0.000    0.000    0.000 
#
# Total GULP energy -133878.887190 kJ/mol
# GULP energy per Si atom -5578.286966 kJ/mol
# Density = 2.147237 g / cm^3
# Si number density = 21.521353 Si / 1000 Ang^3
#
#
#
# Elastic Constant Matrix: (Units=GPa)
#
#
# Indices 1 2 3 4 5 6 
#
# 1 65.7321 14.3902 8.4469 0.0000 2.1299 0.0000
# 2 14.3902 266.5659 120.3188 0.0000 0.4076 0.0000
# 3 8.4469 120.3188 168.6057 0.0000 2.7619 0.0000
# 4 0.0000 0.0000 0.0000 -132.9783 0.0000 -263.8108
# 5 2.1299 0.4076 2.7619 0.0000 18.5835 0.0000
# 6 0.0000 0.0000 0.0000 -263.8108 0.0000 -445.7192
#
#
#
# Elastic Compliance Matrix: (Units=1/GPa)
#
#
# Indices 1 2 3 4 5 6 
#
# 1 0.015458 -0.000730 -0.000225 0.000000 -0.001722 0.000000
# 2 -0.000730 0.005572 -0.003949 0.000000 0.000548 0.000000
# 3 -0.000225 -0.003949 0.008780 0.000000 -0.001192 0.000000
# 4 0.000000 0.000000 0.000000 0.043168 0.000000 -0.025550
# 5 -0.001722 0.000548 -0.001192 0.000000 0.054174 0.000000
# 6 0.000000 0.000000 0.000000 -0.025550 0.000000 0.012879
#
#
# Mechanical properties :
#
#
# Convention : Reuss Voigt Hill
#
# Bulk Modulus (GPa) = 49.99612 87.46838 68.73225
# Shear Modulus (GPa) = 31.94748 -88.17296 -28.11274
#
# Velocity S-wave (km/s) = 3.85704 -6.40772 -3.61816
# Velocity P-wave (km/s) = 6.56636 3.74358 3.81462
#
# Compressibility (1/GPa) = 0.02000155
#
# Stress axis : x y z
#
# Youngs Moduli (GPa) = 64.69196 179.45544 113.89771
#
# Poissons Ratio (x) = 0.13105 0.02564
# Poissons Ratio (y) = 0.04724 0.44977
# Poissons Ratio (z) = 0.01456 0.70866
#
# Static dielectric constant tensor:
#      x y z
#    x 1.884330 0.000000 -0.009760 
#    y 0.000000 1.817410 0.000000 
#    z -0.009760 0.000000 1.725820 
# 
# From -- ./inp_files/87475.got.cif
#   From: 2010.05.17/outbox.cif.g08.bks.cpg/sg12_44_cif.got.tgz:87475.got - 2010.06.03 13:09:07.
