data_PCOD9169100
_publ_section_title
;
Structure prediction by ZEFSAII (Michael W. Deem and Ramdas Pophale) SiO2 
 PCOD9169100
Probable space group: C 2/M
;
_chemical_formula_sum "Si O2"
_cell_formula_units_Z 44
_cell_length_a 19.678131
_cell_length_b 11.837127
_cell_length_c 12.076643
_cell_angle_alpha 90.000000
_cell_angle_beta 140.364731
_cell_angle_gamma 90.000000
_cell_volume 1794.435021
_symmetry_space_group_name_H-M "C 2/M"
_symmetry_group_IT_number 12
_symmetry_cell_setting 'monoclinic'
loop_
_space_group_symop_operation_xyz
x,y,z
-x,y,-z
-x,-y,-z
x,-y,z
1/2+x,1/2+y,z
1/2-x,1/2+y,-z
1/2-x,1/2-y,-z
1/2+x,1/2-y,z
loop_
_atom_site_type_symbol
_atom_site_label
_atom_site_fract_x
_atom_site_fract_y
_atom_site_fract_z
Si Si1 0.125966 0.500000 0.183946
Si Si2 0.157172 0.256811 0.772464
Si Si3 0.941979 0.246038 0.597618
Si Si4 0.386753 0.000000 0.577098
Si Si5 0.584783 0.366056 0.226531
Si Si6 0.373360 0.000000 0.317775
Si Si7 0.358096 0.239895 0.904347
O O1 0.156957 0.500000 0.352679
O O2 0.156128 0.616413 0.164286
O O3 0.000000 0.500000 0.000000
O O4 0.115335 0.243727 0.592775
O O5 0.154605 0.390877 0.785271
O O6 0.281800 0.233750 0.915595
O O7 0.062535 0.203160 0.724722
O O8 0.944228 0.377027 0.641449
O O9 0.880156 0.168800 0.607263
O O10 0.325213 0.000000 0.381449
O O11 0.564406 0.500000 0.191748
O O12 0.662305 0.323328 0.226645
O O13 0.476151 0.288651 0.081950
O O14 0.500000 0.000000 0.500000
#
# Coordination Sequence:
#
# PCOD9169100 Si02
#       7
#     4   8   8   4   8   4   8
#     4  12  20  40  62  85 109 157 202 253 308 342
#     4  10  21  36  62  95 118 155 201 249 300 345
#     4  10  19  41  61  88 124 155 196 247 297 356
#     4  10  16  34  62  88 111 148 203 246 289 346
#     4  11  24  42  59  85 121 167 195 236 304 363
#     4  10  16  34  60  91 118 158 197 243 302 351
#     4  11  23  40  63  86 121 154 204 251 295 358
#
# _framework density 24.520251999999999
#
# number of rings (size 3 to 8) (size 9 to 14) (size 15 to 20)
#    0.000    1.455    7.273    1.091    2.545    1.455 
#    3.273    0.909    0.000    0.000    0.000    0.000 
#    0.000    0.000    0.000    0.000    0.000    0.000 
#
# Total GULP energy -122628.361548 kJ/mol
# GULP energy per Si atom -5574.016434 kJ/mol
# Density = 2.446444 g / cm^3
# Si number density = 24.520252 Si / 1000 Ang^3
#
#
#
# Elastic Constant Matrix: (Units=GPa)
#
#
# Indices 1 2 3 4 5 6 
#
# 1 63.9748 24.7997 3.2204 0.0000 18.9987 0.0000
# 2 24.7997 125.3970 4.3635 0.0000 -1.8373 0.0000
# 3 3.2204 4.3635 52.4076 0.0000 5.9313 0.0000
# 4 0.0000 0.0000 0.0000 20.1404 0.0000 3.6940
# 5 18.9987 -1.8373 5.9313 0.0000 34.5941 0.0000
# 6 0.0000 0.0000 0.0000 3.6940 0.0000 27.8915
#
#
#
# Elastic Compliance Matrix: (Units=1/GPa)
#
#
# Indices 1 2 3 4 5 6 
#
# 1 0.020745 -0.004288 0.000405 0.000000 -0.011690 0.000000
# 2 -0.004288 0.008894 -0.000813 0.000000 0.002967 0.000000
# 3 0.000405 -0.000813 0.019533 0.000000 -0.003615 0.000000
# 4 0.000000 0.000000 0.000000 0.050888 0.000000 -0.006740
# 5 -0.011690 0.002967 -0.003615 0.000000 0.036104 0.000000
# 6 0.000000 0.000000 0.000000 -0.006740 0.000000 0.036746
#
#
# Mechanical properties :
#
#
# Convention : Reuss Voigt Hill
#
# Bulk Modulus (GPa) = 25.13758 34.06073 29.59915
# Shear Modulus (GPa) = 25.56747 30.48492 28.02620
#
# Velocity S-wave (km/s) = 3.23260 3.52981 3.38447
# Velocity P-wave (km/s) = 4.92006 5.52573 5.23167
#
# Compressibility (1/GPa) = 0.03978107
#
# Stress axis : x y z
#
# Youngs Moduli (GPa) = 48.20533 112.42950 51.19516
#
# Poissons Ratio (x) = 0.48210 -0.02075
# Poissons Ratio (y) = 0.20671 0.04161
# Poissons Ratio (z) = -0.01954 0.09139
#
# Static dielectric constant tensor:
#      x y z
#    x 2.034250 0.000000 -0.004550 
#    y 0.000000 1.684910 0.000000 
#    z -0.004550 0.000000 2.171190 
# 
# From -- ./inp_files/223522.got.cif
#   From: 2010.05.17/outbox.cif.g08.bks.cpg/sg12_112_cif.got.tgz:223522.got - 2010.06.03 13:09:07.
