data_PCOD9169899
_publ_section_title
;
Structure prediction by ZEFSAII (Michael W. Deem and Ramdas Pophale) SiO2 
 PCOD9169899
Probable space group: C 2/M
;
_chemical_formula_sum "Si O2"
_cell_formula_units_Z 56
_cell_length_a 28.818839
_cell_length_b 12.741819
_cell_length_c 27.406907
_cell_angle_alpha 90.000000
_cell_angle_beta 159.541633
_cell_angle_gamma 90.000000
_cell_volume 3517.614642
_symmetry_space_group_name_H-M "C 2/M"
_symmetry_group_IT_number 12
_symmetry_cell_setting 'monoclinic'
loop_
_space_group_symop_operation_xyz
x,y,z
-x,y,-z
-x,-y,-z
x,-y,z
1/2+x,1/2+y,z
1/2-x,1/2+y,-z
1/2-x,1/2-y,-z
1/2+x,1/2-y,z
loop_
_atom_site_type_symbol
_atom_site_label
_atom_site_fract_x
_atom_site_fract_y
_atom_site_fract_z
Si Si1 0.523543 0.249859 0.266674
Si Si2 0.155002 0.375401 0.638567
Si Si3 0.708541 0.807042 0.584062
Si Si4 0.496306 0.377521 0.147757
Si Si5 0.062387 0.622363 0.730815
Si Si6 0.268009 0.376167 0.464769
Si Si7 0.727406 0.373271 0.144685
O O1 0.457558 0.306021 0.155566
O O2 0.430257 0.193800 0.214008
O O3 0.614661 0.336373 0.383954
O O4 0.629789 0.163674 0.352142
O O5 0.181617 0.500000 0.656095
O O6 0.185292 0.315832 0.618584
O O7 0.239248 0.336653 0.768087
O O8 0.000000 0.367080 0.500000
O O9 0.586889 0.864343 0.436967
O O10 0.714104 0.690171 0.567270
O O11 0.847784 0.860602 0.707496
O O12 0.469022 0.500000 0.130720
O O13 0.413177 0.346568 0.017851
O O14 0.088078 0.500000 0.766771
O O15 0.160795 0.657397 0.784590
O O16 0.270041 0.500000 0.460734
O O17 0.735353 0.500000 0.155858
#
# Coordination Sequence:
#
# PCOD9169899 Si02
#       7
#     8   8   8   8   8   8   8
#     4   9  18  27  46  69  89 127 157 182 232 266
#     4  10  17  29  49  72  94 117 150 191 230 273
#     4  10  19  29  49  72  89 122 155 184 235 273
#     4  10  19  31  43  66 100 123 148 186 229 278
#     4  10  17  29  46  69  94 121 159 190 217 270
#     4   9  17  30  45  70  98 118 153 197 227 267
#     4   9  19  30  44  67  96 125 148 184 234 273
#
# _framework density 15.919878000000001
#
# number of rings (size 3 to 8) (size 9 to 14) (size 15 to 20)
#    0.000    2.429    1.429    3.000    0.000    1.143 
#    0.000    2.143    0.000    0.429    0.000   18.000 
#    0.000    0.000    0.000    0.000    0.000    0.000 
#
# Total GULP energy -156089.640079 kJ/mol
# GULP energy per Si atom -5574.630003 kJ/mol
# Density = 1.588364 g / cm^3
# Si number density = 15.919878 Si / 1000 Ang^3
#
#
#
# Elastic Constant Matrix: (Units=GPa)
#
#
# Indices 1 2 3 4 5 6 
#
# 1 88.8476 27.4452 3.3941 0.0004 -22.1729 0.0001
# 2 27.4452 77.1510 4.2112 0.0008 -12.8452 0.0005
# 3 3.3941 4.2112 46.9304 0.0007 -13.7087 0.0004
# 4 0.0004 0.0008 0.0007 7.3846 0.0005 -3.7064
# 5 -22.1729 -12.8452 -13.7087 0.0005 28.5264 0.0002
# 6 0.0001 0.0005 0.0004 -3.7064 0.0002 19.4842
#
#
#
# Elastic Compliance Matrix: (Units=1/GPa)
#
#
# Indices 1 2 3 4 5 6 
#
# 1 0.015106 -0.003626 0.002543 -0.000002 0.011331 0.000000
# 2 -0.003626 0.014901 0.000072 -0.000002 0.003926 -0.000001
# 3 0.002543 0.000072 0.025249 -0.000004 0.014142 -0.000001
# 4 -0.000002 -0.000002 -0.000004 0.149711 -0.000007 0.028479
# 5 0.011331 0.003926 0.014142 -0.000007 0.052427 -0.000002
# 6 0.000000 -0.000001 -0.000001 0.028479 -0.000002 0.056741
#
#
# Mechanical properties :
#
#
# Convention : Reuss Voigt Hill
#
# Bulk Modulus (GPa) = 18.78525 31.44778 25.11651
# Shear Modulus (GPa) = 14.97445 22.93760 18.95602
#
# Velocity S-wave (km/s) = 3.07027 3.79992 3.45442
# Velocity P-wave (km/s) = 4.93905 6.24894 5.63220
#
# Compressibility (1/GPa) = 0.05323326
#
# Stress axis : x y z
#
# Youngs Moduli (GPa) = 66.19957 67.10866 39.60563
#
# Poissons Ratio (x) = 0.24333 -0.10070
# Poissons Ratio (y) = 0.24004 -0.00285
# Poissons Ratio (z) = -0.16832 -0.00483
#
# Static dielectric constant tensor:
#      x y z
#    x 1.542230 0.000000 -0.002390 
#    y 0.000000 1.503630 0.000000 
#    z -0.002390 0.000000 1.557140 
# 
# From -- ./inp_files/109873.got.cif
#   From: 2010.05.17/outbox.cif.g08.bks.cpg/sg12_55_cif.got.tgz:109873.got - 2010.06.03 13:09:07.
