data_PCOD9169132
_publ_section_title
;
Structure prediction by ZEFSAII (Michael W. Deem and Ramdas Pophale) SiO2 
 PCOD9169132
Probable space group: C 2/M
;
_chemical_formula_sum "Si O2"
_cell_formula_units_Z 64
_cell_length_a 25.166422
_cell_length_b 8.722748
_cell_length_c 28.840758
_cell_angle_alpha 90.000000
_cell_angle_beta 41.462486
_cell_angle_gamma 90.000000
_cell_volume 4192.030465
_symmetry_space_group_name_H-M "C 2/M"
_symmetry_group_IT_number 12
_symmetry_cell_setting 'monoclinic'
loop_
_space_group_symop_operation_xyz
x,y,z
-x,y,-z
-x,-y,-z
x,-y,z
1/2+x,1/2+y,z
1/2-x,1/2+y,-z
1/2-x,1/2-y,-z
1/2+x,1/2-y,z
loop_
_atom_site_type_symbol
_atom_site_label
_atom_site_fract_x
_atom_site_fract_y
_atom_site_fract_z
Si Si1 0.603081 0.817551 0.241211
Si Si2 0.843168 0.684424 0.987259
Si Si3 0.413688 0.186813 0.038789
Si Si4 0.084893 0.819485 0.472028
Si Si5 0.015202 0.184592 0.379375
Si Si6 0.667907 0.818208 0.335574
Si Si7 0.153564 0.817591 0.114056
Si Si8 0.744486 0.815739 0.802395
O O1 0.528930 0.748335 0.319050
O O2 0.606243 0.765115 0.186052
O O3 0.684143 0.751191 0.212222
O O4 0.603215 0.000000 0.245273
O O5 0.849272 0.500000 0.978343
O O6 0.869086 0.762545 0.922520
O O7 0.892026 0.734050 0.000623
O O8 0.748748 0.719470 0.057011
O O9 0.340480 0.230852 0.120313
O O10 0.414748 0.000000 0.037804
O O11 0.500000 0.240420 0.000000
O O12 0.151707 0.730776 0.399095
O O13 0.000000 0.800692 0.500000
O O14 0.063089 0.773889 0.538982
O O15 0.103760 0.000000 0.458407
O O16 0.090397 0.253975 0.358528
O O17 0.021756 0.000000 0.375402
O O18 0.740764 0.743788 0.259373
O O19 0.671001 0.000000 0.329555
O O20 0.144856 0.000000 0.124319
O O21 0.751082 0.000000 0.799036
#
# Coordination Sequence:
#
# PCOD9169132 Si02
#       8
#     8   8   8   8   8   8   8   8
#     4  11  19  26  39  59  82 108 138 173 209 244
#     4   9  17  30  45  64  83 104 136 174 213 252
#     4   9  17  30  48  66  83 106 139 178 217 255
#     4   8  14  24  35  48  68  99 134 166 200 240
#     4   9  16  25  36  50  73 103 135 167 202 244
#     4  10  17  23  34  52  73 100 133 171 206 238
#     4  10  18  29  44  62  83 110 138 171 212 251
#     4  10  17  28  42  57  78 105 138 173 210 252
#
# _framework density 15.267064
#
# number of rings (size 3 to 8) (size 9 to 14) (size 15 to 20)
#    0.000    2.500    1.250    5.625    0.000    3.250 
#    0.000    0.000    0.000    3.375    0.000    0.000 
#    0.000    0.000    0.000    1.125    0.000   12.375 
#
# Total GULP energy -178200.233870 kJ/mol
# GULP energy per Si atom -5568.757308 kJ/mol
# Density = 1.523232 g / cm^3
# Si number density = 15.267064 Si / 1000 Ang^3
#
#
#
# Elastic Constant Matrix: (Units=GPa)
#
#
# Indices 1 2 3 4 5 6 
#
# 1 51.9791 16.8600 43.3431 -0.0161 8.5960 -0.0014
# 2 16.8600 64.6820 49.9145 -0.0266 11.9170 -0.0029
# 3 43.3431 49.9145 139.5268 0.0127 30.5498 0.0015
# 4 -0.0161 -0.0266 0.0127 89.5314 0.0001 -5.8566
# 5 8.5960 11.9170 30.5498 0.0001 15.8516 0.0001
# 6 -0.0014 -0.0029 0.0015 -5.8566 0.0001 13.2620
#
#
#
# Elastic Compliance Matrix: (Units=1/GPa)
#
#
# Indices 1 2 3 4 5 6 
#
# 1 0.026053 -0.000809 -0.008380 0.000006 0.002630 0.000006
# 2 -0.000809 0.021430 -0.006892 0.000008 -0.002390 0.000009
# 3 -0.008380 -0.006892 0.017484 -0.000006 -0.023971 -0.000007
# 4 0.000006 0.000008 -0.000006 0.011502 0.000003 0.005079
# 5 0.002630 -0.002390 -0.023971 0.000003 0.109653 0.000003
# 6 0.000006 0.000009 -0.000007 0.005079 0.000003 0.077646
#
#
# Mechanical properties :
#
#
# Convention : Reuss Voigt Hill
#
# Bulk Modulus (GPa) = 30.48181 52.93590 41.70885
# Shear Modulus (GPa) = 16.29385 33.46703 24.88044
#
# Velocity S-wave (km/s) = 3.27043 4.68707 4.04131
# Velocity P-wave (km/s) = 5.85406 8.00250 7.01107
#
# Compressibility (1/GPa) = 0.03280645
#
# Stress axis : x y z
#
# Youngs Moduli (GPa) = 38.38256 46.66420 57.19483
#
# Poissons Ratio (x) = 0.03775 0.47928
# Poissons Ratio (y) = 0.03105 0.39417
# Poissons Ratio (z) = 0.32163 0.32159
#
# Static dielectric constant tensor:
#      x y z
#    x 1.481290 0.000000 0.031670 
#    y 0.000000 1.512300 0.000000 
#    z 0.031670 0.000000 1.562610 
# 
# From -- ./inp_files/367035.got.cif
#   From: 2010.05.17/outbox.cif.g08.bks.cpg/sg12_184_cif.got.tgz:367035.got - 2010.06.03 13:09:07.
