data_PCOD9169782
_publ_section_title
;
Structure prediction by ZEFSAII (Michael W. Deem and Ramdas Pophale) SiO2 
 PCOD9169782
Probable space group: C 2/M
;
_chemical_formula_sum "Si O2"
_cell_formula_units_Z 48
_cell_length_a 21.535117
_cell_length_b 15.217216
_cell_length_c 15.339583
_cell_angle_alpha 90.000000
_cell_angle_beta 23.990519
_cell_angle_gamma 90.000000
_cell_volume 2043.844486
_symmetry_space_group_name_H-M "C 2/M"
_symmetry_group_IT_number 12
_symmetry_cell_setting 'monoclinic'
loop_
_space_group_symop_operation_xyz
x,y,z
-x,y,-z
-x,-y,-z
x,-y,z
1/2+x,1/2+y,z
1/2-x,1/2+y,-z
1/2-x,1/2-y,-z
1/2+x,1/2-y,z
loop_
_atom_site_type_symbol
_atom_site_label
_atom_site_fract_x
_atom_site_fract_y
_atom_site_fract_z
Si Si1 0.717276 0.686318 0.123790
Si Si2 0.901285 0.171530 0.987487
Si Si3 0.484797 0.097206 0.259236
Si Si4 0.158439 0.290207 0.697978
Si Si5 0.391089 0.897812 0.562745
Si Si6 0.438448 0.606134 0.399249
O O1 0.548733 0.647886 0.331291
O O2 0.750000 0.750000 0.000000
O O3 0.785921 0.747416 0.111702
O O4 0.834078 0.605271 0.963931
O O5 0.039348 0.211720 0.866231
O O6 0.975926 0.130006 0.803485
O O7 0.784672 0.107205 0.184659
O O8 0.441261 0.136519 0.222846
O O9 0.419019 0.143425 0.431285
O O10 0.422437 0.000000 0.339063
O O11 0.250000 0.250000 0.500000
O O12 0.277812 0.340840 0.605711
O O13 0.500000 0.861185 0.500000
O O14 0.438690 0.000000 0.493261
O O15 0.422005 0.500000 0.426937
#
# Coordination Sequence:
#
# PCOD9169782 Si02
#       6
#     8   8   8   8   8   8
#     4   9  17  29  48  72 102 131 167 209 242 291
#     4   9  18  32  47  69 105 137 168 203 245 302
#     4  10  19  32  50  75 107 135 161 200 251 302
#     4   9  19  33  48  67 100 137 172 208 241 290
#     4  10  19  30  49  78 109 137 163 198 248 306
#     4  10  17  28  48  72  97 127 167 212 253 291
#
# _framework density 23.485153
#
# number of rings (size 3 to 8) (size 9 to 14) (size 15 to 20)
#    0.000    2.500    0.000    4.500    0.000    1.333 
#    0.000    3.333    0.000   11.000    0.000    2.333 
#    0.000  412.000    0.000    0.000    0.000    0.000 
#
# Total GULP energy -133740.335522 kJ/mol
# GULP energy per Si atom -5572.513980 kJ/mol
# Density = 2.343170 g / cm^3
# Si number density = 23.485153 Si / 1000 Ang^3
#
#
#
# Elastic Constant Matrix: (Units=GPa)
#
#
# Indices 1 2 3 4 5 6 
#
# 1 33.5319 -0.1896 31.0612 -0.0003 -6.9984 0.0003
# 2 -0.1896 78.0922 2.0355 -0.0002 -14.6877 0.0002
# 3 31.0612 2.0355 81.7032 -0.0006 -40.4565 0.0005
# 4 -0.0003 -0.0002 -0.0006 33.8558 0.0002 -9.5367
# 5 -6.9984 -14.6877 -40.4565 0.0002 36.7231 -0.0003
# 6 0.0003 0.0002 0.0005 -9.5367 -0.0003 -8.7132
#
#
#
# Elastic Compliance Matrix: (Units=1/GPa)
#
#
# Indices 1 2 3 4 5 6 
#
# 1 0.058852 -0.005201 -0.038990 0.000000 -0.033818 0.000001
# 2 -0.005201 0.015423 0.009146 0.000000 0.015253 0.000000
# 3 -0.038990 0.009146 0.054932 0.000000 0.056744 -0.000001
# 4 0.000000 0.000000 0.000000 0.022577 0.000000 -0.024710
# 5 -0.033818 0.015253 0.056744 0.000000 0.089399 -0.000001
# 6 0.000001 0.000000 -0.000001 -0.024710 -0.000001 -0.087723
#
#
# Mechanical properties :
#
#
# Convention : Reuss Voigt Hill
#
# Bulk Modulus (GPa) = 16.91577 28.79350 22.85463
# Shear Modulus (GPa) = 20.55449 23.06782 21.81116
#
# Velocity S-wave (km/s) = 2.96161 3.13745 3.05080
# Velocity P-wave (km/s) = 4.34893 5.04101 4.70770
#
# Compressibility (1/GPa) = 0.05911644
#
# Stress axis : x y z
#
# Youngs Moduli (GPa) = 16.99186 64.83743 18.20437
#
# Poissons Ratio (x) = 0.33725 0.70978
# Poissons Ratio (y) = 0.08838 -0.16650
# Poissons Ratio (z) = 0.66251 -0.59300
#
# Static dielectric constant tensor:
#      x y z
#    x 1.542050 0.000000 0.032450 
#    y 0.000000 1.490740 0.000000 
#    z 0.032450 0.000000 1.944650 
# 
# From -- ./inp_files/316365.got.cif
#   From: 2010.05.17/outbox.cif.g08.bks.cpg/sg12_159_cif.got.tgz:316365.got - 2010.06.03 13:09:07.
