data_PCOD9169872
_publ_section_title
;
Structure prediction by ZEFSAII (Michael W. Deem and Ramdas Pophale) SiO2 
 PCOD9169872
Probable space group: C 2/M
;
_chemical_formula_sum "Si O2"
_cell_formula_units_Z 40
_cell_length_a 25.856438
_cell_length_b 17.305137
_cell_length_c 8.180136
_cell_angle_alpha 90.000000
_cell_angle_beta 35.313901
_cell_angle_gamma 90.000000
_cell_volume 2115.796468
_symmetry_space_group_name_H-M "C 2/M"
_symmetry_group_IT_number 12
_symmetry_cell_setting 'monoclinic'
loop_
_space_group_symop_operation_xyz
x,y,z
-x,y,-z
-x,-y,-z
x,-y,z
1/2+x,1/2+y,z
1/2-x,1/2+y,-z
1/2-x,1/2-y,-z
1/2+x,1/2-y,z
loop_
_atom_site_type_symbol
_atom_site_label
_atom_site_fract_x
_atom_site_fract_y
_atom_site_fract_z
Si Si1 0.213402 0.357741 0.252550
Si Si2 0.729142 0.680836 0.229233
Si Si3 0.689984 0.328144 0.676588
Si Si4 0.518524 0.084330 0.759327
Si Si5 0.570986 0.770712 0.182918
O O1 0.185314 0.266307 0.331777
O O2 0.263042 0.373818 0.296225
O O3 0.124452 0.406529 0.462033
O O4 0.275701 0.362048 0.931386
O O5 0.693245 0.639212 0.484976
O O6 0.834727 0.701693 0.981727
O O7 0.750000 0.250000 0.500000
O O8 0.596996 0.295505 0.985963
O O9 0.469235 0.154139 0.799120
O O10 0.488257 0.000000 0.778234
O O11 0.500000 0.089407 0.000000
O O12 0.500000 0.743938 0.500000
#
# Coordination Sequence:
#
# PCOD9169872 Si02
#       5
#     8   8   8   8   8
#     4   9  16  29  45  58  81 118 155 182 216 260
#     4   9  16  29  46  60  79 116 154 190 226 257
#     4   8  16  28  45  61  80 112 154 191 224 258
#     4  11  21  30  42  64  97 130 154 181 217 268
#     4  10  17  29  42  63  90 118 152 187 225 266
#
# _framework density 18.905408999999999
#
# number of rings (size 3 to 8) (size 9 to 14) (size 15 to 20)
#    0.000    3.000    2.000    3.600    0.000    0.400 
#    0.000    0.000    0.000    0.000    0.000    0.000 
#    0.000   12.800    0.000    9.600    4.800  104.400 
#
# Total GULP energy -111357.912100 kJ/mol
# GULP energy per Si atom -5567.895605 kJ/mol
# Density = 1.886238 g / cm^3
# Si number density = 18.905409 Si / 1000 Ang^3
#
#
#
# Elastic Constant Matrix: (Units=GPa)
#
#
# Indices 1 2 3 4 5 6 
#
# 1 77.3077 7.1251 19.5029 0.0000 29.4667 0.0000
# 2 7.1251 4.2913 4.0047 0.0000 -11.2302 0.0000
# 3 19.5029 4.0047 92.2144 0.0000 26.8685 0.0000
# 4 0.0000 0.0000 0.0000 -31.2365 0.0000 -16.9976
# 5 29.4667 -11.2302 26.8685 0.0000 38.2533 0.0000
# 6 0.0000 0.0000 0.0000 -16.9976 0.0000 2.9475
#
#
#
# Elastic Compliance Matrix: (Units=1/GPa)
#
#
# Indices 1 2 3 4 5 6 
#
# 1 0.003052 0.052187 -0.008412 0.000000 0.018878 0.000000
# 2 0.052187 -0.178396 0.029777 0.000000 -0.113487 0.000000
# 3 -0.008412 0.029777 0.008669 0.000000 0.009133 0.000000
# 4 0.000000 0.000000 0.000000 -0.007736 0.000000 -0.044614
# 5 0.018878 -0.113487 0.009133 0.000000 -0.028132 0.000000
# 6 0.000000 0.000000 0.000000 -0.044614 0.000000 0.081988
#
#
# Mechanical properties :
#
#
# Convention : Reuss Voigt Hill
#
# Bulk Modulus (GPa) = -51.09263 26.11986 -12.48639
# Shear Modulus (GPa) = -18.23614 11.53825 -3.34895
#
# Velocity S-wave (km/s) = -3.10917 2.47314 -1.33239
# Velocity P-wave (km/s) = 6.32245 4.69055 2.99767
#
# Compressibility (1/GPa) = -0.01957229
#
# Stress axis : x y z
#
# Youngs Moduli (GPa) = 327.64223 -5.60552 115.34883
#
# Poissons Ratio (x) = 0.29253 0.97037
# Poissons Ratio (y) = -17.09851 -3.43472
# Poissons Ratio (z) = 2.75627 0.16691
#
# Static dielectric constant tensor:
#      x y z
#    x 1.775140 0.000000 0.050230 
#    y 0.000000 1.661830 0.000000 
#    z 0.050230 0.000000 1.708850 
# 
# From -- ./inp_files/106322.got.cif
#   From: 2010.05.17/outbox.cif.g08.bks.cpg/sg12_54_cif.got.tgz:106322.got - 2010.06.03 13:09:07.
