data_PCOD9169047
_publ_section_title
;
Structure prediction by ZEFSAII (Michael W. Deem and Ramdas Pophale) SiO2 
 PCOD9169047
Probable space group: C 2/M
;
_chemical_formula_sum "Si O2"
_cell_formula_units_Z 28
_cell_length_a 8.573870
_cell_length_b 12.123391
_cell_length_c 16.938807
_cell_angle_alpha 90.000000
_cell_angle_beta 135.587991
_cell_angle_gamma 90.000000
_cell_volume 1232.156519
_symmetry_space_group_name_H-M "C 2/M"
_symmetry_group_IT_number 12
_symmetry_cell_setting 'monoclinic'
loop_
_space_group_symop_operation_xyz
x,y,z
-x,y,-z
-x,-y,-z
x,-y,z
1/2+x,1/2+y,z
1/2-x,1/2+y,-z
1/2-x,1/2-y,-z
1/2+x,1/2-y,z
loop_
_atom_site_type_symbol
_atom_site_label
_atom_site_fract_x
_atom_site_fract_y
_atom_site_fract_z
Si Si1 0.026706 0.813460 0.840207
Si Si2 0.000000 0.717858 0.000000
Si Si3 0.560290 0.162451 0.609763
Si Si4 0.804596 0.374375 0.675222
O O1 0.273553 0.851719 0.908726
O O2 0.809152 0.873298 0.727070
O O3 0.998742 0.690006 0.792695
O O4 0.016192 0.795043 0.929300
O O5 0.500000 0.126404 0.500000
O O6 0.595045 0.295748 0.618440
O O7 0.384093 0.132543 0.612994
O O8 0.770723 0.500000 0.685260
#
# Coordination Sequence:
#
# PCOD9169047 Si02
#       4
#     8   4   8   8
#     4   9  18  32  57  84 106 155 183 231 286 329
#     4  10  16  32  60  76 116 152 186 232 288 326
#     4  10  20  38  61  84 119 150 188 239 286 338
#     4  10  21  38  58  87 117 150 192 231 288 343
#
# _framework density 22.724385999999999
#
# number of rings (size 3 to 8) (size 9 to 14) (size 15 to 20)
#    1.714    0.571    2.857    0.857    0.000    1.143 
#    0.000    2.857    0.000    0.000    0.000    0.000 
#    0.000    0.000    0.000    0.000    0.000    0.000 
#
# Total GULP energy -78001.718297 kJ/mol
# GULP energy per Si atom -5571.551307 kJ/mol
# Density = 2.267266 g / cm^3
# Si number density = 22.724386 Si / 1000 Ang^3
#
#
#
# Elastic Constant Matrix: (Units=GPa)
#
#
# Indices 1 2 3 4 5 6 
#
# 1 58.9127 4.0553 24.2263 0.0000 15.0546 0.0000
# 2 4.0553 123.0747 3.6266 0.0000 -2.6309 0.0000
# 3 24.2263 3.6266 145.0225 0.0000 3.3978 0.0000
# 4 0.0000 0.0000 0.0000 -3.8474 0.0000 -11.6387
# 5 15.0546 -2.6309 3.3978 0.0000 53.0146 0.0000
# 6 0.0000 0.0000 0.0000 -11.6387 0.0000 23.8204
#
#
#
# Elastic Compliance Matrix: (Units=1/GPa)
#
#
# Indices 1 2 3 4 5 6 
#
# 1 0.019701 -0.000672 -0.003147 0.000000 -0.005426 0.000000
# 2 -0.000672 0.008163 -0.000106 0.000000 0.000603 0.000000
# 3 -0.003147 -0.000106 0.007414 0.000000 0.000413 0.000000
# 4 0.000000 0.000000 0.000000 -0.104888 0.000000 -0.051248
# 5 -0.005426 0.000603 0.000413 0.000000 0.020407 0.000000
# 6 0.000000 0.000000 0.000000 -0.051248 0.000000 0.016941
#
#
# Mechanical properties :
#
#
# Convention : Reuss Voigt Hill
#
# Bulk Modulus (GPa) = 36.45939 43.42514 39.94226
# Shear Modulus (GPa) = -327.50390 34.27099 -146.61646
#
# Velocity S-wave (km/s) = -12.01802 3.88766 -8.04111
# Velocity P-wave (km/s) = 13.28526 6.26920 8.28237
#
# Compressibility (1/GPa) = 0.02742778
#
# Stress axis : x y z
#
# Youngs Moduli (GPa) = 50.75784 122.49929 134.87643
#
# Poissons Ratio (x) = 0.08237 0.42448
# Poissons Ratio (y) = 0.03413 0.01429
# Poissons Ratio (z) = 0.15975 0.01298
#
# Static dielectric constant tensor:
#      x y z
#    x 1.869090 0.000000 0.047200 
#    y 0.000000 1.821930 0.000000 
#    z 0.047200 0.000000 1.877820 
# 
# From -- ./inp_files/117375.got.cif
#   From: 2010.05.17/outbox.cif.g08.bks.cpg/sg12_59_cif.got.tgz:117375.got - 2010.06.03 13:09:07.
