data_PCOD9169151
_publ_section_title
;
Structure prediction by ZEFSAII (Michael W. Deem and Ramdas Pophale) SiO2 
 PCOD9169151
Probable space group: C 2/M
;
_chemical_formula_sum "Si O2"
_cell_formula_units_Z 56
_cell_length_a 25.085574
_cell_length_b 8.483269
_cell_length_c 26.542494
_cell_angle_alpha 90.000000
_cell_angle_beta 141.483981
_cell_angle_gamma 90.000000
_cell_volume 3517.476307
_symmetry_space_group_name_H-M "C 2/M"
_symmetry_group_IT_number 12
_symmetry_cell_setting 'monoclinic'
loop_
_space_group_symop_operation_xyz
x,y,z
-x,y,-z
-x,-y,-z
x,-y,z
1/2+x,1/2+y,z
1/2-x,1/2+y,-z
1/2-x,1/2-y,-z
1/2+x,1/2-y,z
loop_
_atom_site_type_symbol
_atom_site_label
_atom_site_fract_x
_atom_site_fract_y
_atom_site_fract_z
Si Si1 0.657736 0.688769 0.489673
Si Si2 0.143343 0.311462 0.369943
Si Si3 0.132902 0.813560 0.103690
Si Si4 0.261456 0.308170 0.727310
Si Si5 0.409041 0.190873 0.454790
Si Si6 0.019842 0.685282 0.940400
Si Si7 0.925760 0.188384 0.782093
O O1 0.656119 0.500000 0.487094
O O2 0.757837 0.739755 0.567240
O O3 0.623030 0.754766 0.411228
O O4 0.608312 0.750212 0.501749
O O5 0.140202 0.500000 0.365334
O O6 0.084353 0.240632 0.282784
O O7 0.212760 0.758858 0.196954
O O8 0.052831 0.779687 0.081994
O O9 0.139038 0.000000 0.099370
O O10 0.108247 0.729210 0.033473
O O11 0.261909 0.500000 0.727896
O O12 0.170598 0.255237 0.638799
O O13 0.337877 0.259604 0.745833
O O14 0.500000 0.242621 0.500000
O O15 0.407945 0.000000 0.454580
O O16 0.004236 0.500000 0.934792
O O17 0.003531 0.736007 0.871035
O O18 0.931350 0.000000 0.789737
#
# Coordination Sequence:
#
# PCOD9169151 Si02
#       7
#     8   8   8   8   8   8   8
#     4  10  20  32  46  65  89 118 150 187 230 272
#     4  10  19  30  46  67  89 116 150 188 225 269
#     4   9  15  25  38  53  77 112 149 180 217 263
#     4   8  15  26  41  60  82 112 149 186 220 263
#     4  10  19  32  49  67  89 119 156 195 230 264
#     4  10  17  24  35  56  84 111 143 179 217 261
#     4  10  17  27  43  61  87 118 148 180 218 267
#
# _framework density 15.920505
#
# number of rings (size 3 to 8) (size 9 to 14) (size 15 to 20)
#    0.000    2.429    1.429    4.714    0.000    1.429 
#    0.000    0.714    0.000    0.000    0.000    0.000 
#    0.000    1.143    0.000    3.143    0.000    4.857 
#
# Total GULP energy -155991.449302 kJ/mol
# GULP energy per Si atom -5571.123189 kJ/mol
# Density = 1.588427 g / cm^3
# Si number density = 15.920505 Si / 1000 Ang^3
#
#
#
# Elastic Constant Matrix: (Units=GPa)
#
#
# Indices 1 2 3 4 5 6 
#
# 1 62.9712 12.5316 51.1037 0.0000 -11.6955 0.0000
# 2 12.5316 27.5865 21.6447 0.0000 -6.1585 0.0000
# 3 51.1037 21.6447 142.0655 0.0000 -35.0759 0.0000
# 4 0.0000 0.0000 0.0000 21.2379 0.0000 -9.0050
# 5 -11.6955 -6.1585 -35.0759 0.0000 21.5020 0.0000
# 6 0.0000 0.0000 0.0000 -9.0050 0.0000 12.4344
#
#
#
# Elastic Compliance Matrix: (Units=1/GPa)
#
#
# Indices 1 2 3 4 5 6 
#
# 1 0.022952 -0.004549 -0.008041 0.000000 -0.001936 0.000000
# 2 -0.004549 0.042161 -0.004046 0.000000 0.003000 0.000000
# 3 -0.008041 -0.004046 0.015374 0.000000 0.019547 0.000000
# 4 0.000000 0.000000 0.000000 0.067951 0.000000 0.049210
# 5 -0.001936 0.003000 0.019547 0.000000 0.078200 0.000000
# 6 0.000000 0.000000 0.000000 0.049210 0.000000 0.116060
#
#
# Mechanical properties :
#
#
# Convention : Reuss Voigt Hill
#
# Bulk Modulus (GPa) = 21.18045 44.79812 32.98928
# Shear Modulus (GPa) = 12.76459 20.85775 16.81117
#
# Velocity S-wave (km/s) = 2.83463 3.62348 3.25306
# Velocity P-wave (km/s) = 4.90370 6.76061 5.90560
#
# Compressibility (1/GPa) = 0.04721336
#
# Stress axis : x y z
#
# Youngs Moduli (GPa) = 43.56981 23.71877 65.04442
#
# Poissons Ratio (x) = 0.10790 0.52303
# Poissons Ratio (y) = 0.19821 0.26318
# Poissons Ratio (z) = 0.35035 0.09597
#
# Static dielectric constant tensor:
#      x y z
#    x 1.495820 0.000000 -0.016780 
#    y 0.000000 1.531180 0.000000 
#    z -0.016780 0.000000 1.589320 
# 
# From -- ./inp_files/348637.got.cif
#   From: 2010.05.17/outbox.cif.g08.bks.cpg/sg12_175_cif.got.tgz:348637.got - 2010.06.03 13:09:07.
