data_PCOD9169884
_publ_section_title
;
Structure prediction by ZEFSAII (Michael W. Deem and Ramdas Pophale) SiO2 
 PCOD9169884
Probable space group: C 2/M
;
_chemical_formula_sum "Si O2"
_cell_formula_units_Z 64
_cell_length_a 27.736886
_cell_length_b 7.634307
_cell_length_c 20.702294
_cell_angle_alpha 90.000000
_cell_angle_beta 59.021679
_cell_angle_gamma 90.000000
_cell_volume 3758.461297
_symmetry_space_group_name_H-M "C 2/M"
_symmetry_group_IT_number 12
_symmetry_cell_setting 'monoclinic'
loop_
_space_group_symop_operation_xyz
x,y,z
-x,y,-z
-x,-y,-z
x,-y,z
1/2+x,1/2+y,z
1/2-x,1/2+y,-z
1/2-x,1/2-y,-z
1/2+x,1/2-y,z
loop_
_atom_site_type_symbol
_atom_site_label
_atom_site_fract_x
_atom_site_fract_y
_atom_site_fract_z
Si Si1 0.971756 0.703980 0.185171
Si Si2 0.631152 0.215631 0.662091
Si Si3 0.806086 0.707568 0.502352
Si Si4 0.740252 0.206819 0.668058
Si Si5 0.595363 0.706676 0.895684
Si Si6 0.417293 0.787657 0.950548
Si Si7 0.775224 0.701756 0.182959
Si Si8 0.210518 0.710594 0.967192
O O1 0.978860 0.500000 0.197370
O O2 0.927336 0.777731 0.267286
O O3 0.940907 0.715802 0.137129
O O4 0.033811 0.778998 0.130412
O O5 0.644597 0.271021 0.579318
O O6 0.683630 0.274169 0.671287
O O7 0.631790 0.000000 0.662766
O O8 0.811474 0.500000 0.504011
O O9 0.750000 0.750000 0.500000
O O10 0.792266 0.774532 0.583200
O O11 0.748176 0.281597 0.734404
O O12 0.730097 0.000000 0.683404
O O13 0.601779 0.500000 0.880080
O O14 0.657147 0.792190 0.854488
O O15 0.570065 0.735493 0.984232
O O16 0.417948 0.000000 0.947962
O O17 0.353832 0.726984 0.979506
O O18 0.755779 0.500000 0.193079
O O19 0.766491 0.779991 0.117641
O O20 0.206989 0.500000 0.963158
O O21 0.250000 0.750000 0.000000
#
# Coordination Sequence:
#
# PCOD9169884 Si02
#       8
#     8   8   8   8   8   8   8   8
#     4  10  17  29  45  57  77 113 150 175 196 236
#     4   8  14  24  39  56  76 108 143 170 199 231
#     4   9  16  25  36  54  80 110 142 172 204 242
#     4   9  15  26  42  58  78 106 141 178 204 235
#     4  11  20  27  38  60  88 111 136 174 215 243
#     4   9  19  32  46  60  76 107 147 173 199 249
#     4   9  17  31  47  61  81 111 148 175 202 252
#     4   9  18  32  48  65  82 104 133 171 215 259
#
# _framework density 17.028244000000001
#
# number of rings (size 3 to 8) (size 9 to 14) (size 15 to 20)
#    0.000    2.750    1.250    3.375    0.000    4.500 
#    0.000    0.625    0.000    0.000    0.000    0.000 
#    0.000    1.000    0.000   12.500    0.000    1.000 
#
# Total GULP energy -178197.827600 kJ/mol
# GULP energy per Si atom -5568.682113 kJ/mol
# Density = 1.698949 g / cm^3
# Si number density = 17.028244 Si / 1000 Ang^3
#
#
#
# Elastic Constant Matrix: (Units=GPa)
#
#
# Indices 1 2 3 4 5 6 
#
# 1 50.9047 -4.7608 52.2912 0.0003 9.9859 0.0000
# 2 -4.7608 37.2759 -0.2540 0.0004 0.8883 0.0008
# 3 52.2912 -0.2540 186.2449 0.0000 2.0452 -0.0002
# 4 0.0003 0.0004 0.0000 12.6630 -0.0002 3.8557
# 5 9.9859 0.8883 2.0452 -0.0002 18.7646 0.0000
# 6 0.0000 0.0008 -0.0002 3.8557 0.0000 9.2378
#
#
#
# Elastic Compliance Matrix: (Units=1/GPa)
#
#
# Indices 1 2 3 4 5 6 
#
# 1 0.032480 0.004481 -0.008932 -0.000001 -0.016523 0.000000
# 2 0.004481 0.027476 -0.001182 0.000000 -0.003557 -0.000002
# 3 -0.008932 -0.001182 0.007832 0.000000 0.003955 0.000000
# 4 -0.000001 0.000000 0.000000 0.090467 0.000002 -0.037759
# 5 -0.016523 -0.003557 0.003955 0.000002 0.061822 0.000000
# 6 0.000000 -0.000002 0.000000 -0.037759 0.000000 0.124011
#
#
# Mechanical properties :
#
#
# Convention : Reuss Voigt Hill
#
# Bulk Modulus (GPa) = 17.69171 40.99759 29.34465
# Shear Modulus (GPa) = 13.36207 23.27638 18.31922
#
# Velocity S-wave (km/s) = 2.80429 3.70121 3.28352
# Velocity P-wave (km/s) = 4.57139 6.51105 5.62545
#
# Compressibility (1/GPa) = 0.05652366
#
# Stress axis : x y z
#
# Youngs Moduli (GPa) = 30.78819 36.39540 127.68226
#
# Poissons Ratio (x) = -0.16310 1.14042
# Poissons Ratio (y) = -0.13797 0.15088
# Poissons Ratio (z) = 0.27499 0.04301
#
# Static dielectric constant tensor:
#      x y z
#    x 1.535930 0.000000 -0.003290 
#    y 0.000000 1.658560 0.000000 
#    z -0.003290 0.000000 1.653350 
# 
# From -- ./inp_files/323641.got.cif
#   From: 2010.05.17/outbox.cif.g08.bks.cpg/sg12_162_cif.got.tgz:323641.got - 2010.06.03 13:09:07.
