data_PCOD9169997
_publ_section_title
;
Structure prediction by ZEFSAII (Michael W. Deem and Ramdas Pophale) SiO2 
 PCOD9169997
Probable space group: C 2/M
;
_chemical_formula_sum "Si O2"
_cell_formula_units_Z 64
_cell_length_a 30.491799
_cell_length_b 7.875478
_cell_length_c 15.628650
_cell_angle_alpha 90.000000
_cell_angle_beta 80.568292
_cell_angle_gamma 90.000000
_cell_volume 3702.290019
_symmetry_space_group_name_H-M "C 2/M"
_symmetry_group_IT_number 12
_symmetry_cell_setting 'monoclinic'
loop_
_space_group_symop_operation_xyz
x,y,z
-x,y,-z
-x,-y,-z
x,-y,z
1/2+x,1/2+y,z
1/2-x,1/2+y,-z
1/2-x,1/2-y,-z
1/2+x,1/2-y,z
loop_
_atom_site_type_symbol
_atom_site_label
_atom_site_fract_x
_atom_site_fract_y
_atom_site_fract_z
Si Si1 0.467174 0.293619 0.389095
Si Si2 0.030643 0.801240 0.801912
Si Si3 0.308634 0.298320 0.062866
Si Si4 0.404415 0.198098 0.072145
Si Si5 0.628952 0.301055 0.257325
Si Si6 0.789593 0.794329 0.875018
Si Si7 0.432783 0.802175 0.876906
Si Si8 0.065528 0.207684 0.421598
O O1 0.465399 0.500000 0.391375
O O2 0.455953 0.237694 0.296938
O O3 0.437362 0.235978 0.478820
O O4 0.518221 0.245974 0.393847
O O5 0.069168 0.781273 0.858862
O O6 0.985401 0.713285 0.846938
O O7 0.019368 0.000000 0.797217
O O8 0.315276 0.500000 0.058774
O O9 0.351475 0.218473 0.093159
O O10 0.261235 0.259486 0.120543
O O11 0.304553 0.236391 0.965422
O O12 0.416526 0.000000 0.069858
O O13 0.419309 0.267311 0.974390
O O14 0.636869 0.500000 0.271721
O O15 0.675119 0.229993 0.205818
O O16 0.593478 0.287075 0.191384
O O17 0.605467 0.228532 0.349388
O O18 0.790971 0.000000 0.875751
O O19 0.419733 0.000000 0.877954
O O20 0.066868 0.000000 0.420415
#
# Coordination Sequence:
#
# PCOD9169997 Si02
#       8
#     8   8   8   8   8   8   8   8
#     4   8  14  25  44  70  95 120 153 196 236 273
#     4  11  21  33  50  69  92 126 167 201 231 274
#     4  10  19  32  50  70  93 123 159 196 233 279
#     4  11  23  36  48  65  94 129 163 199 239 277
#     4  10  17  29  50  73  96 126 161 193 228 277
#     4   9  18  30  47  71  98 123 153 193 236 280
#     4  11  22  33  45  65  97 131 162 195 233 274
#     4   8  13  24  45  71  96 120 152 193 236 275
#
# _framework density 17.286598000000001
#
# number of rings (size 3 to 8) (size 9 to 14) (size 15 to 20)
#    0.000    2.250    2.500    2.625    0.000    4.000 
#    0.000    0.000    0.000    2.250    0.000    0.875 
#    0.000    0.000    0.000    0.000    0.000    0.000 
#
# Total GULP energy -178485.795141 kJ/mol
# GULP energy per Si atom -5577.681098 kJ/mol
# Density = 1.724725 g / cm^3
# Si number density = 17.286598 Si / 1000 Ang^3
#
#
#
# Elastic Constant Matrix: (Units=GPa)
#
#
# Indices 1 2 3 4 5 6 
#
# 1 77.7825 -8.4574 62.0001 0.0000 -18.0322 0.0000
# 2 -8.4574 20.3226 0.8163 0.0000 -3.3658 0.0000
# 3 62.0001 0.8163 121.0366 0.0000 -25.2597 0.0000
# 4 0.0000 0.0000 0.0000 -4.7627 0.0000 -12.8326
# 5 -18.0322 -3.3658 -25.2597 0.0000 27.6432 0.0000
# 6 0.0000 0.0000 0.0000 -12.8326 0.0000 8.1065
#
#
#
# Elastic Compliance Matrix: (Units=1/GPa)
#
#
# Indices 1 2 3 4 5 6 
#
# 1 0.024863 0.012022 -0.011277 0.000000 0.007377 0.000000
# 2 0.012022 0.056163 -0.004291 0.000000 0.010759 0.000000
# 3 -0.011277 -0.004291 0.015351 0.000000 0.006148 0.000000
# 4 0.000000 0.000000 0.000000 -0.039878 0.000000 -0.063126
# 5 0.007377 0.010759 0.006148 0.000000 0.047916 0.000000
# 6 0.000000 0.000000 0.000000 -0.063126 0.000000 0.023428
#
#
# Mechanical properties :
#
#
# Convention : Reuss Voigt Hill
#
# Bulk Modulus (GPa) = 11.20036 36.42886 23.81461
# Shear Modulus (GPa) = 30.35848 17.18293 23.77070
#
# Velocity S-wave (km/s) = 4.19523 3.15620 3.71225
# Velocity P-wave (km/s) = 5.47357 5.86527 5.67280
#
# Compressibility (1/GPa) = 0.08928283
#
# Stress axis : x y z
#
# Youngs Moduli (GPa) = 40.22064 17.80518 65.14355
#
# Poissons Ratio (x) = -0.21405 0.73464
# Poissons Ratio (y) = -0.48352 0.27956
# Poissons Ratio (z) = 0.45358 0.07641
#
# Static dielectric constant tensor:
#      x y z
#    x 1.558280 0.000000 -0.028460 
#    y 0.000000 1.641040 0.000000 
#    z -0.028460 0.000000 1.613550 
# 
# From -- ./inp_files/248295.got.cif
#   From: 2010.05.17/outbox.cif.g08.bks.cpg/sg12_125_cif.got.tgz:248295.got - 2010.06.03 13:09:07.
