data_PCOD9169840
_publ_section_title
;
Structure prediction by ZEFSAII (Michael W. Deem and Ramdas Pophale) SiO2 
 PCOD9169840
Probable space group: C 2/M
;
_chemical_formula_sum "Si O2"
_cell_formula_units_Z 48
_cell_length_a 20.856829
_cell_length_b 14.042371
_cell_length_c 16.412347
_cell_angle_alpha 90.000000
_cell_angle_beta 28.670787
_cell_angle_gamma 90.000000
_cell_volume 2306.206139
_symmetry_space_group_name_H-M "C 2/M"
_symmetry_group_IT_number 12
_symmetry_cell_setting 'monoclinic'
loop_
_space_group_symop_operation_xyz
x,y,z
-x,y,-z
-x,-y,-z
x,-y,z
1/2+x,1/2+y,z
1/2-x,1/2+y,-z
1/2-x,1/2-y,-z
1/2+x,1/2-y,z
loop_
_atom_site_type_symbol
_atom_site_label
_atom_site_fract_x
_atom_site_fract_y
_atom_site_fract_z
Si Si1 0.805515 0.889035 0.674671
Si Si2 0.720164 0.781169 0.625132
Si Si3 0.580318 0.605413 0.826612
Si Si4 0.347693 0.613551 0.952964
Si Si5 0.558614 0.110173 0.058274
Si Si6 0.188766 0.790333 0.168966
O O1 0.818225 0.844403 0.571290
O O2 0.863395 0.828677 0.686125
O O3 0.844523 0.000000 0.634352
O O4 0.645571 0.885200 0.877415
O O5 0.750000 0.750000 0.500000
O O6 0.694428 0.683186 0.701053
O O7 0.579450 0.836192 0.782688
O O8 0.635661 0.500000 0.752737
O O9 0.500000 0.609180 0.000000
O O10 0.471805 0.623401 0.876644
O O11 0.320116 0.500000 0.975190
O O12 0.224409 0.678663 0.123925
O O13 0.384163 0.663429 0.826554
O O14 0.539354 0.000000 0.098729
O O15 0.664438 0.159324 0.000434
#
# Coordination Sequence:
#
# PCOD9169840 Si02
#       6
#     8   8   8   8   8   8
#     4   9  18  34  56  77 101 131 175 226 267 306
#     4  12  22  31  47  74 107 139 172 208 262 308
#     4  10  20  35  52  72 102 138 173 208 255 313
#     4  10  17  28  50  81 111 133 163 219 273 313
#     4   9  17  32  53  76  99 130 175 221 263 305
#     4   9  17  30  53  82 105 128 173 224 267 310
#
# _framework density 20.813404999999999
#
# number of rings (size 3 to 8) (size 9 to 14) (size 15 to 20)
#    1.000    1.167    1.667    4.000    0.000    2.667 
#    0.000    0.000    0.000    1.000    0.000    3.500 
#    0.000    9.667    0.000    0.000    0.000    0.000 
#
# Total GULP energy -133729.175236 kJ/mol
# GULP energy per Si atom -5572.048968 kJ/mol
# Density = 2.076603 g / cm^3
# Si number density = 20.813405 Si / 1000 Ang^3
#
#
#
# Elastic Constant Matrix: (Units=GPa)
#
#
# Indices 1 2 3 4 5 6 
#
# 1 82.0058 10.6518 24.4229 0.0000 17.7748 0.0000
# 2 10.6518 136.3220 31.2135 0.0000 6.4909 0.0000
# 3 24.4229 31.2135 49.4533 0.0000 5.3172 0.0000
# 4 0.0000 0.0000 0.0000 -8.8988 0.0000 4.8322
# 5 17.7748 6.4909 5.3172 0.0000 16.1201 0.0000
# 6 0.0000 0.0000 0.0000 4.8322 0.0000 18.2952
#
#
#
# Elastic Compliance Matrix: (Units=1/GPa)
#
#
# Indices 1 2 3 4 5 6 
#
# 1 0.018296 0.001233 -0.007870 0.000000 -0.018074 0.000000
# 2 0.001233 0.008705 -0.005785 0.000000 -0.002956 0.000000
# 3 -0.007870 -0.005785 0.027553 0.000000 0.001920 0.000000
# 4 0.000000 0.000000 0.000000 -0.098279 0.000000 0.025958
# 5 -0.018074 -0.002956 0.001920 0.000000 0.082521 0.000000
# 6 0.000000 0.000000 0.000000 0.025958 0.000000 0.047803
#
#
# Mechanical properties :
#
#
# Convention : Reuss Voigt Hill
#
# Bulk Modulus (GPa) = 33.66072 44.48417 39.07244
# Shear Modulus (GPa) = 41.20442 18.53616 29.87029
#
# Velocity S-wave (km/s) = 4.45422 2.98751 3.79244
# Velocity P-wave (km/s) = 6.53155 5.77231 6.16363
#
# Compressibility (1/GPa) = 0.02970822
#
# Stress axis : x y z
#
# Youngs Moduli (GPa) = 54.65781 114.88144 36.29360
#
# Poissons Ratio (x) = -0.14166 0.28565
# Poissons Ratio (y) = -0.06740 0.20997
# Poissons Ratio (z) = 0.43018 0.66461
#
# Static dielectric constant tensor:
#      x y z
#    x 1.809300 0.000000 -0.010260 
#    y 0.000000 1.754400 0.000000 
#    z -0.010260 0.000000 1.778440 
# 
# From -- ./inp_files/225092.got.cif
#   From: 2010.05.17/outbox.cif.g08.bks.cpg/sg12_113_cif.got.tgz:225092.got - 2010.06.03 13:09:07.
