data_PCOD9169776
_publ_section_title
;
Structure prediction by ZEFSAII (Michael W. Deem and Ramdas Pophale) SiO2 
 PCOD9169776
Probable space group: C 2/M
;
_chemical_formula_sum "Si O2"
_cell_formula_units_Z 48
_cell_length_a 17.435404
_cell_length_b 13.726790
_cell_length_c 25.937607
_cell_angle_alpha 90.000000
_cell_angle_beta 151.749923
_cell_angle_gamma 90.000000
_cell_volume 2938.235130
_symmetry_space_group_name_H-M "C 2/M"
_symmetry_group_IT_number 12
_symmetry_cell_setting 'monoclinic'
loop_
_space_group_symop_operation_xyz
x,y,z
-x,y,-z
-x,-y,-z
x,-y,z
1/2+x,1/2+y,z
1/2-x,1/2+y,-z
1/2-x,1/2-y,-z
1/2+x,1/2-y,z
loop_
_atom_site_type_symbol
_atom_site_label
_atom_site_fract_x
_atom_site_fract_y
_atom_site_fract_z
Si Si1 0.874357 0.299094 0.244504
Si Si2 0.707569 0.114508 0.407906
Si Si3 0.335101 0.384353 0.785612
Si Si4 0.679143 0.274417 0.625490
Si Si5 0.127179 0.111693 0.027570
Si Si6 0.569922 0.387036 0.661936
O O1 0.785442 0.356649 0.238500
O O2 0.774404 0.322058 0.133455
O O3 0.875303 0.186368 0.261078
O O4 0.055815 0.338128 0.346524
O O5 0.736015 0.169389 0.370843
O O6 0.876180 0.122656 0.538924
O O7 0.677427 0.000000 0.381432
O O8 0.326565 0.500000 0.771180
O O9 0.279078 0.317600 0.705319
O O10 0.516597 0.360670 0.913374
O O11 0.500000 0.243974 0.500000
O O12 0.649492 0.347298 0.656063
O O13 0.183739 0.000000 0.054975
O O14 0.000000 0.112108 0.000000
O O15 0.608479 0.500000 0.693182
#
# Coordination Sequence:
#
# PCOD9169776 Si02
#       6
#     8   8   8   8   8   8
#     4  10  17  28  48  70  89 110 148 190 222 256
#     4  10  18  29  46  68  91 115 148 186 219 256
#     4   9  17  30  48  68  90 116 147 183 222 262
#     4   9  18  31  46  64  89 122 153 177 212 264
#     4   8  14  26  45  67  88 113 144 179 221 263
#     4   9  18  31  46  64  90 122 149 177 218 266
#
# _framework density 16.336337
#
# number of rings (size 3 to 8) (size 9 to 14) (size 15 to 20)
#    0.000    2.833    0.000    3.500    0.000    2.333 
#    0.000    1.667    0.000   13.500    0.000    0.000 
#    0.000    0.000    0.000    0.000    0.000    0.000 
#
# Total GULP energy -133698.589026 kJ/mol
# GULP energy per Si atom -5570.774543 kJ/mol
# Density = 1.629916 g / cm^3
# Si number density = 16.336337 Si / 1000 Ang^3
#
#
#
# Elastic Constant Matrix: (Units=GPa)
#
#
# Indices 1 2 3 4 5 6 
#
# 1 19.1502 15.2802 14.8425 0.0003 -2.1130 -0.0001
# 2 15.2802 123.1141 62.4637 0.0019 -17.6387 0.0000
# 3 14.8425 62.4637 57.2289 0.0030 -16.0859 0.0003
# 4 0.0003 0.0019 0.0030 25.5787 0.0001 -2.8186
# 5 -2.1130 -17.6387 -16.0859 0.0001 18.1355 -0.0001
# 6 -0.0001 0.0000 0.0003 -2.8186 -0.0001 16.4365
#
#
#
# Elastic Compliance Matrix: (Units=1/GPa)
#
#
# Indices 1 2 3 4 5 6 
#
# 1 0.066781 0.001103 -0.021361 0.000002 -0.010093 0.000001
# 2 0.001103 0.018221 -0.020190 0.000001 -0.000058 0.000001
# 3 -0.021361 -0.020190 0.051728 -0.000005 0.023756 -0.000002
# 4 0.000002 0.000001 -0.000005 0.039848 -0.000003 0.006833
# 5 -0.010093 -0.000058 0.023756 -0.000003 0.074979 -0.000001
# 6 0.000001 0.000001 -0.000002 0.006833 -0.000001 0.062012
#
#
# Mechanical properties :
#
#
# Convention : Reuss Voigt Hill
#
# Bulk Modulus (GPa) = 17.91017 42.74066 30.32541
# Shear Modulus (GPa) = 12.10431 19.15725 15.63078
#
# Velocity S-wave (km/s) = 2.72498 3.42815 3.09659
# Velocity P-wave (km/s) = 4.57033 6.47220 5.60256
#
# Compressibility (1/GPa) = 0.05583420
#
# Stress axis : x y z
#
# Youngs Moduli (GPa) = 14.97443 54.88136 19.33188
#
# Poissons Ratio (x) = -0.06055 0.41294
# Poissons Ratio (y) = -0.01652 0.39032
# Poissons Ratio (z) = 0.31987 1.10807
#
# Static dielectric constant tensor:
#      x y z
#    x 1.533010 0.000000 -0.007530 
#    y 0.000000 1.532100 0.000000 
#    z -0.007530 0.000000 1.565990 
# 
# From -- ./inp_files/166147.got.cif
#   From: 2010.05.17/outbox.cif.g08.bks.cpg/sg12_84_cif.got.tgz:166147.got - 2010.06.03 13:09:07.
