data_PCOD9169787
_publ_section_title
;
Structure prediction by ZEFSAII (Michael W. Deem and Ramdas Pophale) SiO2 
 PCOD9169787
Probable space group: C 2/M
;
_chemical_formula_sum "Si O2"
_cell_formula_units_Z 44
_cell_length_a 21.322177
_cell_length_b 7.691963
_cell_length_c 12.640330
_cell_angle_alpha 90.000000
_cell_angle_beta 100.798789
_cell_angle_gamma 90.000000
_cell_volume 2036.420223
_symmetry_space_group_name_H-M "C 2/M"
_symmetry_group_IT_number 12
_symmetry_cell_setting 'monoclinic'
loop_
_space_group_symop_operation_xyz
x,y,z
-x,y,-z
-x,-y,-z
x,-y,z
1/2+x,1/2+y,z
1/2-x,1/2+y,-z
1/2-x,1/2-y,-z
1/2+x,1/2-y,z
loop_
_atom_site_type_symbol
_atom_site_label
_atom_site_fract_x
_atom_site_fract_y
_atom_site_fract_z
Si Si1 0.309215 0.288865 0.786994
Si Si2 0.867759 0.792092 0.027455
Si Si3 0.442350 0.695545 0.753477
Si Si4 0.000000 0.252532 0.000000
Si Si5 0.330752 0.210351 0.253443
Si Si6 0.960975 0.701369 0.390099
O O1 0.310939 0.500000 0.779667
O O2 0.371353 0.226402 0.742421
O O3 0.239126 0.228319 0.732297
O O4 0.321533 0.249972 0.914966
O O5 0.839690 0.756713 0.133163
O O6 0.933117 0.686084 0.029898
O O7 0.883895 0.000000 0.026607
O O8 0.437669 0.500000 0.708891
O O9 0.469015 0.681219 0.881403
O O10 0.492688 0.792574 0.696612
O O11 0.392387 0.277902 0.336324
O O12 0.330989 0.000000 0.259556
O O13 0.948410 0.500000 0.414250
O O14 0.000000 0.780842 0.500000
#
# Coordination Sequence:
#
# PCOD9169787 Si02
#       6
#     8   8   8   4   8   8
#     4   8  17  31  50  75 103 133 161 199 254 310
#     4  10  17  28  48  74 104 134 163 196 249 307
#     4  10  18  33  56  78 101 131 171 210 251 304
#     4  10  17  28  49  78 107 132 155 198 257 306
#     4  10  19  33  50  71 100 134 171 206 248 300
#     4  10  22  38  53  71 101 140 176 213 256 296
#
# _framework density 21.606542000000001
#
# number of rings (size 3 to 8) (size 9 to 14) (size 15 to 20)
#    0.000    2.364    1.818    3.273    0.000    0.364 
#    0.000    6.364    0.000    0.000    0.000    0.000 
#    0.000    0.000    0.000    0.000    0.000    0.000 
#
# Total GULP energy -122485.030929 kJ/mol
# GULP energy per Si atom -5567.501406 kJ/mol
# Density = 2.155736 g / cm^3
# Si number density = 21.606542 Si / 1000 Ang^3
#
#
#
# Elastic Constant Matrix: (Units=GPa)
#
#
# Indices 1 2 3 4 5 6 
#
# 1 197.0898 8.9089 49.4378 0.0000 38.7358 0.0000
# 2 8.9089 49.8256 1.9193 0.0000 6.5516 0.0000
# 3 49.4378 1.9193 61.5654 0.0000 17.6519 0.0000
# 4 0.0000 0.0000 0.0000 4.1523 0.0000 -3.2210
# 5 38.7358 6.5516 17.6519 0.0000 25.6019 0.0000
# 6 0.0000 0.0000 0.0000 -3.2210 0.0000 -4.4707
#
#
#
# Elastic Compliance Matrix: (Units=1/GPa)
#
#
# Indices 1 2 3 4 5 6 
#
# 1 0.007811 -0.000031 -0.003596 0.000000 -0.009331 0.000000
# 2 -0.000031 0.020828 0.001110 0.000000 -0.006048 0.000000
# 3 -0.003596 0.001110 0.021958 0.000000 -0.009983 0.000000
# 4 0.000000 0.000000 0.000000 0.154490 0.000000 -0.111304
# 5 -0.009331 -0.006048 -0.009983 0.000000 0.061608 0.000000
# 6 0.000000 0.000000 0.000000 -0.111304 0.000000 -0.143489
#
#
# Mechanical properties :
#
#
# Convention : Reuss Voigt Hill
#
# Bulk Modulus (GPa) = 21.94795 47.66807 34.80801
# Shear Modulus (GPa) = 34.86042 21.60436 28.23239
#
# Velocity S-wave (km/s) = 4.02110 3.16555 3.61870
# Velocity P-wave (km/s) = 5.63374 5.95573 5.79697
#
# Compressibility (1/GPa) = 0.04556235
#
# Stress axis : x y z
#
# Youngs Moduli (GPa) = 128.02171 48.01208 45.54093
#
# Poissons Ratio (x) = 0.00150 0.16377
# Poissons Ratio (y) = 0.00399 -0.05054
# Poissons Ratio (z) = 0.46039 -0.05328
#
# Static dielectric constant tensor:
#      x y z
#    x 1.822420 0.000000 0.024360 
#    y 0.000000 1.864800 0.000000 
#    z 0.024360 0.000000 1.741750 
# 
# From -- ./inp_files/163237.got.cif
#   From: 2010.05.17/outbox.cif.g08.bks.cpg/sg12_82_cif.got.tgz:163237.got - 2010.06.03 13:09:07.
