data_PCOD9169189
_publ_section_title
;
Structure prediction by ZEFSAII (Michael W. Deem and Ramdas Pophale) SiO2 
 PCOD9169189
Probable space group: C 2/M
;
_chemical_formula_sum "Si O2"
_cell_formula_units_Z 48
_cell_length_a 28.596377
_cell_length_b 8.862280
_cell_length_c 15.471315
_cell_angle_alpha 90.000000
_cell_angle_beta 149.139103
_cell_angle_gamma 90.000000
_cell_volume 2011.237790
_symmetry_space_group_name_H-M "C 2/M"
_symmetry_group_IT_number 12
_symmetry_cell_setting 'monoclinic'
loop_
_space_group_symop_operation_xyz
x,y,z
-x,y,-z
-x,-y,-z
x,-y,z
1/2+x,1/2+y,z
1/2-x,1/2+y,-z
1/2-x,1/2-y,-z
1/2+x,1/2-y,z
loop_
_atom_site_type_symbol
_atom_site_label
_atom_site_fract_x
_atom_site_fract_y
_atom_site_fract_z
Si Si1 0.692396 0.676443 0.831750
Si Si2 0.109147 0.673075 0.149281
Si Si3 0.569900 0.676762 0.915167
Si Si4 0.172879 0.674471 0.624746
Si Si5 0.872320 0.683649 0.631374
Si Si6 0.546214 0.173804 0.700590
O O1 0.703980 0.500000 0.852575
O O2 0.712631 0.735987 0.768144
O O3 0.589985 0.724009 0.696466
O O4 0.750000 0.750000 0.000000
O O5 0.130724 0.500000 0.159962
O O6 0.156460 0.711555 0.315579
O O7 0.120882 0.777026 0.084224
O O8 0.000000 0.675957 0.000000
O O9 0.580041 0.500000 0.912890
O O10 0.464561 0.720298 0.766960
O O11 0.588662 0.774358 0.859559
O O12 0.199228 0.500000 0.675721
O O13 0.186601 0.722087 0.546897
O O14 0.062528 0.684205 0.461477
O O15 0.890808 0.500000 0.654924
O O16 0.568858 0.000000 0.717550
#
# Coordination Sequence:
#
# PCOD9169189 Si02
#       6
#     8   8   8   8   8   8
#     4  12  25  39  55  76 102 132 168 210 256 306
#     4   8  13  23  38  59  92 133 169 199 240 293
#     4  10  17  24  39  67 100 131 165 206 249 292
#     4   9  18  34  55  78 104 135 170 209 254 301
#     4   8  15  27  43  64  95 134 169 202 245 296
#     4  10  20  36  56  76 102 136 171 209 254 303
#
# _framework density 23.8659
#
# number of rings (size 3 to 8) (size 9 to 14) (size 15 to 20)
#    0.000    2.500    0.000    6.000    0.000    8.333 
#    0.000    0.000    0.000    0.000    0.000    1.167 
#    0.000    0.000    0.000    0.000    0.000    0.000 
#
# Total GULP energy -134202.416216 kJ/mol
# GULP energy per Si atom -5591.767342 kJ/mol
# Density = 2.381158 g / cm^3
# Si number density = 23.865900 Si / 1000 Ang^3
#
#
#
# Elastic Constant Matrix: (Units=GPa)
#
#
# Indices 1 2 3 4 5 6 
#
# 1 104.1072 41.7050 40.7764 0.0000 -26.8476 0.0000
# 2 41.7050 88.8905 62.6371 0.0000 -37.0146 0.0000
# 3 40.7764 62.6371 163.6413 0.0000 -39.7890 0.0000
# 4 0.0000 0.0000 0.0000 27.1390 0.0000 -16.3104
# 5 -26.8476 -37.0146 -39.7890 0.0000 52.8487 0.0000
# 6 0.0000 0.0000 0.0000 -16.3104 0.0000 25.4067
#
#
#
# Elastic Compliance Matrix: (Units=1/GPa)
#
#
# Indices 1 2 3 4 5 6 
#
# 1 0.012256 -0.003990 -0.000848 0.000000 0.002794 0.000000
# 2 -0.003990 0.019844 -0.004547 0.000000 0.008448 0.000000
# 3 -0.000848 -0.004547 0.008793 0.000000 0.003005 0.000000
# 4 0.000000 0.000000 0.000000 0.059994 0.000000 0.038515
# 5 0.002794 0.008448 0.003005 0.000000 0.028520 0.000000
# 6 0.000000 0.000000 0.000000 0.038515 0.000000 0.064085
#
#
# Mechanical properties :
#
#
# Convention : Reuss Voigt Hill
#
# Bulk Modulus (GPa) = 45.19972 71.87510 58.53741
# Shear Modulus (GPa) = 22.76484 35.18026 28.97255
#
# Velocity S-wave (km/s) = 3.09182 3.84354 3.48799
# Velocity P-wave (km/s) = 5.63258 7.06248 6.38767
#
# Compressibility (1/GPa) = 0.02212403
#
# Stress axis : x y z
#
# Youngs Moduli (GPa) = 81.59146 50.39384 113.72216
#
# Poissons Ratio (x) = 0.20105 0.09639
# Poissons Ratio (y) = 0.32552 0.51714
# Poissons Ratio (z) = 0.06916 0.22916
#
# Static dielectric constant tensor:
#      x y z
#    x 1.994020 0.000000 0.063410 
#    y 0.000000 1.798750 0.000000 
#    z 0.063410 0.000000 1.989500 
# 
# From -- ./inp_files/249347.got.cif
#   From: 2010.05.17/outbox.cif.g08.bks.cpg/sg12_125_cif.got.tgz:249347.got - 2010.06.03 13:09:07.
