data_PCOD9169140
_publ_section_title
;
Structure prediction by ZEFSAII (Michael W. Deem and Ramdas Pophale) SiO2 
 PCOD9169140
Probable space group: C 2/M
;
_chemical_formula_sum "Si O2"
_cell_formula_units_Z 56
_cell_length_a 15.722065
_cell_length_b 7.588334
_cell_length_c 17.257387
_cell_angle_alpha 90.000000
_cell_angle_beta 78.942851
_cell_angle_gamma 90.000000
_cell_volume 2020.659859
_symmetry_space_group_name_H-M "C 2/M"
_symmetry_group_IT_number 12
_symmetry_cell_setting 'monoclinic'
loop_
_space_group_symop_operation_xyz
x,y,z
-x,y,-z
-x,-y,-z
x,-y,z
1/2+x,1/2+y,z
1/2-x,1/2+y,-z
1/2-x,1/2-y,-z
1/2+x,1/2-y,z
loop_
_atom_site_type_symbol
_atom_site_label
_atom_site_fract_x
_atom_site_fract_y
_atom_site_fract_z
Si Si1 0.670145 0.209965 0.730305
Si Si2 0.553315 0.288729 0.879397
Si Si3 0.788623 0.794112 0.582980
Si Si4 0.200817 0.793709 0.161944
Si Si5 0.133232 0.785144 0.019383
Si Si6 0.428545 0.792744 0.691599
Si Si7 0.929506 0.787984 0.447578
O O1 0.579489 0.231578 0.789303
O O2 0.705669 0.285853 0.642965
O O3 0.734426 0.285169 0.785902
O O4 0.683570 0.000000 0.720640
O O5 0.555230 0.500000 0.880316
O O6 0.459751 0.236274 0.926424
O O7 0.621732 0.223454 0.933109
O O8 0.863478 0.783472 0.637070
O O9 0.838027 0.719194 0.498581
O O10 0.775981 0.000000 0.570404
O O11 0.197860 0.718001 0.075325
O O12 0.107376 0.784247 0.221692
O O13 0.220735 0.000000 0.151482
O O14 0.137867 0.000000 0.017840
O O15 0.525400 0.764388 0.640955
O O16 0.415442 0.000000 0.698385
O O17 0.000000 0.728916 0.500000
O O18 0.927192 0.000000 0.449330
#
# Coordination Sequence:
#
# PCOD9169140 Si02
#       7
#     8   8   8   8   8   8   8
#     4   9  17  28  43  66  93 118 144 177 218 260
#     4   9  17  31  50  69  87 110 145 186 223 259
#     4   8  15  27  40  55  82 120 154 177 204 256
#     4   9  17  31  47  61  85 122 155 178 208 261
#     4   8  16  32  51  66  83 114 153 184 211 256
#     4  10  17  23  35  60  90 113 139 182 228 258
#     4   8  13  23  38  54  77 115 154 178 204 253
#
# _framework density 27.713719999999999
#
# number of rings (size 3 to 8) (size 9 to 14) (size 15 to 20)
#    0.000    3.286    0.000    3.857    0.000    5.429 
#    0.000    2.857    0.000    0.000    0.000    1.000 
#    0.000    0.000    0.000    0.000    0.000    0.000 
#
# Total GULP energy -156520.348253 kJ/mol
# GULP energy per Si atom -5590.012438 kJ/mol
# Density = 2.765064 g / cm^3
# Si number density = 27.713720 Si / 1000 Ang^3
#
#
#
# Elastic Constant Matrix: (Units=GPa)
#
#
# Indices 1 2 3 4 5 6 
#
# 1 64.8275 13.0693 11.6689 0.0000 -16.5105 0.0000
# 2 13.0693 99.1592 2.1711 0.0000 -2.0108 0.0000
# 3 11.6689 2.1711 247.3320 0.0000 -0.2338 0.0000
# 4 0.0000 0.0000 0.0000 23.1986 0.0000 -10.2057
# 5 -16.5105 -2.0108 -0.2338 0.0000 62.1611 0.0000
# 6 0.0000 0.0000 0.0000 -10.2057 0.0000 21.6104
#
#
#
# Elastic Compliance Matrix: (Units=1/GPa)
#
#
# Indices 1 2 3 4 5 6 
#
# 1 0.017142 -0.002151 -0.000786 0.000000 0.004480 0.000000
# 2 -0.002151 0.010363 0.000010 0.000000 -0.000236 0.000000
# 3 -0.000786 0.000010 0.004080 0.000000 -0.000193 0.000000
# 4 0.000000 0.000000 0.000000 0.054410 0.000000 0.025696
# 5 0.004480 -0.000236 -0.000193 0.000000 0.017269 0.000000
# 6 0.000000 0.000000 0.000000 0.025696 0.000000 0.058409
#
#
# Mechanical properties :
#
#
# Convention : Reuss Voigt Hill
#
# Bulk Modulus (GPa) = 38.86228 51.68192 45.27210
# Shear Modulus (GPa) = 28.39236 47.02130 37.70683
#
# Velocity S-wave (km/s) = 3.20423 4.12355 3.69261
# Velocity P-wave (km/s) = 5.26713 6.43121 5.87806
#
# Compressibility (1/GPa) = 0.02573189
#
# Stress axis : x y z
#
# Youngs Moduli (GPa) = 58.33713 96.49422 245.10164
#
# Poissons Ratio (x) = 0.20758 0.19256
# Poissons Ratio (y) = 0.12550 -0.00252
# Poissons Ratio (z) = 0.04583 -0.00099
#
# Static dielectric constant tensor:
#      x y z
#    x 2.381980 0.000000 -0.028000 
#    y 0.000000 1.974890 0.000000 
#    z -0.028000 0.000000 2.194390 
# 
# From -- ./inp_files/287416.got.cif
#   From: 2010.05.17/outbox.cif.g08.bks.cpg/sg12_144_cif.got.tgz:287416.got - 2010.06.03 13:09:07.
