data_PCOD9169831
_publ_section_title
;
Structure prediction by ZEFSAII (Michael W. Deem and Ramdas Pophale) SiO2 
 PCOD9169831
Probable space group: C 2/M
;
_chemical_formula_sum "Si O2"
_cell_formula_units_Z 64
_cell_length_a 22.164058
_cell_length_b 7.447198
_cell_length_c 17.561963
_cell_angle_alpha 90.000000
_cell_angle_beta 96.391858
_cell_angle_gamma 90.000000
_cell_volume 2880.760326
_symmetry_space_group_name_H-M "C 2/M"
_symmetry_group_IT_number 12
_symmetry_cell_setting 'monoclinic'
loop_
_space_group_symop_operation_xyz
x,y,z
-x,y,-z
-x,-y,-z
x,-y,z
1/2+x,1/2+y,z
1/2-x,1/2+y,-z
1/2-x,1/2-y,-z
1/2+x,1/2-y,z
loop_
_atom_site_type_symbol
_atom_site_label
_atom_site_fract_x
_atom_site_fract_y
_atom_site_fract_z
Si Si1 0.493261 0.291639 0.164597
Si Si2 0.091975 0.215185 0.973426
Si Si3 0.664537 0.784070 0.123969
Si Si4 0.125010 0.716329 0.750928
Si Si5 0.934507 0.280418 0.582917
Si Si6 0.113430 0.296100 0.267082
Si Si7 0.206822 0.792137 0.896267
Si Si8 0.075137 0.281671 0.587650
O O1 0.511008 0.500000 0.158378
O O2 0.467078 0.219407 0.080433
O O3 0.434477 0.280195 0.211370
O O4 0.548179 0.197774 0.215296
O O5 0.152273 0.287952 0.938613
O O6 0.089720 0.000000 0.962330
O O7 0.106212 0.247485 0.063241
O O8 0.655928 0.713179 0.208150
O O9 0.725832 0.713531 0.093076
O O10 0.669923 0.000000 0.129699
O O11 0.125247 0.500000 0.753172
O O12 0.182492 0.783034 0.806376
O O13 0.117840 0.775905 0.662742
O O14 0.934159 0.500000 0.585563
O O15 0.898636 0.214506 0.651863
O O16 0.910652 0.224786 0.496523
O O17 0.005550 0.228177 0.596164
O O18 0.134661 0.500000 0.282992
O O19 0.211501 0.000000 0.919896
O O20 0.075324 0.500000 0.587127
#
# Coordination Sequence:
#
# PCOD9169831 Si02
#       8
#     8   8   8   8   8   8   8   8
#     4  10  20  33  48  70 100 131 155 187 241 292
#     4   9  19  34  51  68  90 122 160 198 240 288
#     4  10  21  34  50  71  94 123 162 203 241 276
#     4  10  17  28  50  77  97 120 159 202 236 274
#     4   8  13  24  43  69  99 124 150 189 232 274
#     4  10  19  32  50  71  96 128 163 197 229 278
#     4   9  19  35  50  69  97 126 156 196 245 289
#     4   8  13  22  43  73  98 120 150 192 234 271
#
# _framework density 22.216356999999999
#
# number of rings (size 3 to 8) (size 9 to 14) (size 15 to 20)
#    0.000    2.750    1.250    2.625    0.000    4.000 
#    0.000    2.500    0.000    3.000    0.000    0.000 
#    0.000    0.000    0.000    0.000    0.000    0.125 
#
# Total GULP energy -178579.929991 kJ/mol
# GULP energy per Si atom -5580.622812 kJ/mol
# Density = 2.216579 g / cm^3
# Si number density = 22.216357 Si / 1000 Ang^3
#
#
#
# Elastic Constant Matrix: (Units=GPa)
#
#
# Indices 1 2 3 4 5 6 
#
# 1 45.8120 -1.0583 5.7993 0.0000 0.1934 0.0000
# 2 -1.0583 79.1891 -2.6732 0.0000 -5.7935 0.0000
# 3 5.7993 -2.6732 149.5637 0.0000 -6.4926 0.0000
# 4 0.0000 0.0000 0.0000 36.3754 0.0000 2.3370
# 5 0.1934 -5.7935 -6.4926 0.0000 30.5844 0.0000
# 6 0.0000 0.0000 0.0000 2.3370 0.0000 3.1176
#
#
#
# Elastic Compliance Matrix: (Units=1/GPa)
#
#
# Indices 1 2 3 4 5 6 
#
# 1 0.021944 0.000244 -0.000858 0.000000 -0.000275 0.000000
# 2 0.000244 0.012825 0.000328 0.000000 0.002498 0.000000
# 3 -0.000858 0.000328 0.006791 0.000000 0.001509 0.000000
# 4 0.000000 0.000000 0.000000 0.028882 0.000000 -0.021650
# 5 -0.000275 0.002498 0.001509 0.000000 0.033492 0.000000
# 6 0.000000 0.000000 0.000000 -0.021650 0.000000 0.336986
#
#
# Mechanical properties :
#
#
# Convention : Reuss Voigt Hill
#
# Bulk Modulus (GPa) = 24.39766 30.96670 27.68218
# Shear Modulus (GPa) = 10.98530 32.18194 21.58362
#
# Velocity S-wave (km/s) = 2.22608 3.81014 3.12030
# Velocity P-wave (km/s) = 4.19677 5.77279 5.04669
#
# Compressibility (1/GPa) = 0.04098754
#
# Stress axis : x y z
#
# Youngs Moduli (GPa) = 45.57090 77.97231 147.25848
#
# Poissons Ratio (x) = -0.01904 0.12641
# Poissons Ratio (y) = -0.01113 -0.04833
# Poissons Ratio (z) = 0.03912 -0.02559
#
# Static dielectric constant tensor:
#      x y z
#    x 1.809470 0.000000 -0.031220 
#    y 0.000000 1.833340 0.000000 
#    z -0.031220 0.000000 1.855350 
# 
# From -- ./inp_files/287770.got.cif
#   From: 2010.05.17/outbox.cif.g08.bks.cpg/sg12_144_cif.got.tgz:287770.got - 2010.06.03 13:09:07.
