data_PCOD9169066
_publ_section_title
;
Structure prediction by ZEFSAII (Michael W. Deem and Ramdas Pophale) SiO2 
 PCOD9169066
Probable space group: C 2/M
;
_chemical_formula_sum "Si O2"
_cell_formula_units_Z 56
_cell_length_a 22.525584
_cell_length_b 33.817373
_cell_length_c 9.189073
_cell_angle_alpha 90.000000
_cell_angle_beta 155.433551
_cell_angle_gamma 90.000000
_cell_volume 2910.168296
_symmetry_space_group_name_H-M "C 2/M"
_symmetry_group_IT_number 12
_symmetry_cell_setting 'monoclinic'
loop_
_space_group_symop_operation_xyz
x,y,z
-x,y,-z
-x,-y,-z
x,-y,z
1/2+x,1/2+y,z
1/2-x,1/2+y,-z
1/2-x,1/2-y,-z
1/2+x,1/2-y,z
loop_
_atom_site_type_symbol
_atom_site_label
_atom_site_fract_x
_atom_site_fract_y
_atom_site_fract_z
Si Si1 0.065614 0.199826 0.983867
Si Si2 0.453700 0.086559 0.730518
Si Si3 0.943263 0.720320 0.214025
Si Si4 0.843426 0.500000 0.075401
Si Si5 0.799527 0.666971 0.328868
Si Si6 0.845023 0.586535 0.075310
Si Si7 0.811813 0.167450 0.232006
Si Si8 0.036538 0.500000 0.249178
O O1 0.078222 0.243410 0.942216
O O2 0.957141 0.175392 0.639551
O O3 0.220721 0.180551 0.300311
O O4 0.000000 0.200430 0.000000
O O5 0.347738 0.121506 0.449320
O O6 0.601012 0.089163 0.969484
O O7 0.392650 0.042430 0.561146
O O8 0.500000 0.090025 0.000000
O O9 0.000000 0.734045 0.500000
O O10 0.059159 0.691627 0.397830
O O11 0.802668 0.695646 0.941424
O O12 0.781689 0.543190 0.969491
O O13 0.000000 0.500000 0.500000
O O14 0.888254 0.500000 0.006716
O O15 0.698214 0.675605 0.963090
O O16 0.000000 0.591069 0.500000
O O17 0.742410 0.622569 0.877399
O O18 0.000000 0.500000 0.000000
#
# Coordination Sequence:
#
# PCOD9169066 Si02
#       8
#     8   8   8   4   8   8   8   4
#     4  12  28  40  54  82 114 148 189 235 284 331
#     4  10  19  31  56  86 119 148 183 229 278 327
#     4  10  21  41  65  84 106 142 188 233 281 338
#     4   8  16  24  50  83 120 137 171 231 277 313
#     4  11  22  39  60  84 112 152 188 226 279 335
#     4  10  16  33  54  88 114 146 182 226 277 330
#     4  11  21  39  61  82 114 148 189 227 276 343
#     4   8  16  30  46  81 120 149 175 219 279 331
#
# _framework density 19.242871999999998
#
# number of rings (size 3 to 8) (size 9 to 14) (size 15 to 20)
#    0.000    1.714    2.857    2.571    2.000    5.143 
#    0.000    0.000    0.000    0.857    0.000    3.000 
#    0.000    0.000    0.000    0.000    0.000    0.000 
#
# Total GULP energy -156099.104006 kJ/mol
# GULP energy per Si atom -5574.968000 kJ/mol
# Density = 1.919907 g / cm^3
# Si number density = 19.242872 Si / 1000 Ang^3
#
#
#
# Elastic Constant Matrix: (Units=GPa)
#
#
# Indices 1 2 3 4 5 6 
#
# 1 119.0206 31.1886 13.6973 0.0000 6.4446 0.0000
# 2 31.1886 153.8327 21.0637 0.0000 7.7306 0.0000
# 3 13.6973 21.0637 32.0828 0.0000 4.0996 0.0000
# 4 0.0000 0.0000 0.0000 -4.5837 0.0000 -10.9722
# 5 6.4446 7.7306 4.0996 0.0000 19.8732 0.0000
# 6 0.0000 0.0000 0.0000 -10.9722 0.0000 31.9143
#
#
#
# Elastic Compliance Matrix: (Units=1/GPa)
#
#
# Indices 1 2 3 4 5 6 
#
# 1 0.009186 -0.001389 -0.002771 0.000000 -0.001867 0.000000
# 2 -0.001389 0.007420 -0.004075 0.000000 -0.001595 0.000000
# 3 -0.002771 -0.004075 0.035650 0.000000 -0.004870 0.000000
# 4 0.000000 0.000000 0.000000 -0.119675 0.000000 -0.041145
# 5 -0.001867 -0.001595 -0.004870 0.000000 0.052550 0.000000
# 6 0.000000 0.000000 0.000000 -0.041145 0.000000 0.017188
#
#
# Mechanical properties :
#
#
# Convention : Reuss Voigt Hill
#
# Bulk Modulus (GPa) = 27.94387 48.53725 38.24056
# Shear Modulus (GPa) = 162.76984 25.37320 94.07152
#
# Velocity S-wave (km/s) = 9.20710 3.63516 6.99947
# Velocity P-wave (km/s) = 11.29517 6.54961 9.23250
#
# Compressibility (1/GPa) = 0.03578603
#
# Stress axis : x y z
#
# Youngs Moduli (GPa) = 108.86225 134.76486 28.05038
#
# Poissons Ratio (x) = 0.18720 0.07773
# Poissons Ratio (y) = 0.15122 0.11430
# Poissons Ratio (z) = 0.30168 0.54914
#
# Static dielectric constant tensor:
#      x y z
#    x 1.726750 0.000000 -0.025370 
#    y 0.000000 1.725550 0.000000 
#    z -0.025370 0.000000 1.630880 
# 
# From -- ./inp_files/91661.got.cif
#   From: 2010.05.17/outbox.cif.g08.bks.cpg/sg12_46_cif.got.tgz:91661.got - 2010.06.03 13:09:07.
