data_PCOD9169361
_publ_section_title
;
Structure prediction by ZEFSAII (Michael W. Deem and Ramdas Pophale) SiO2 
 PCOD9169361
Probable space group: C 2/M
;
_chemical_formula_sum "Si O2"
_cell_formula_units_Z 64
_cell_length_a 25.042593
_cell_length_b 7.275016
_cell_length_c 14.504160
_cell_angle_alpha 90.000000
_cell_angle_beta 78.680230
_cell_angle_gamma 90.000000
_cell_volume 2591.040732
_symmetry_space_group_name_H-M "C 2/M"
_symmetry_group_IT_number 12
_symmetry_cell_setting 'monoclinic'
loop_
_space_group_symop_operation_xyz
x,y,z
-x,y,-z
-x,-y,-z
x,-y,z
1/2+x,1/2+y,z
1/2-x,1/2+y,-z
1/2-x,1/2-y,-z
1/2+x,1/2-y,z
loop_
_atom_site_type_symbol
_atom_site_label
_atom_site_fract_x
_atom_site_fract_y
_atom_site_fract_z
Si Si1 0.923239 0.223764 0.880672
Si Si2 0.071809 0.208099 0.923586
Si Si3 0.806406 0.720318 0.141678
Si Si4 0.811623 0.223585 0.839433
Si Si5 0.899499 0.792791 0.442905
Si Si6 0.706618 0.779465 0.636771
Si Si7 0.326386 0.724386 0.621472
Si Si8 0.027796 0.224091 0.744378
O O1 0.862160 0.287346 0.882520
O O2 0.965229 0.271940 0.785435
O O3 0.922175 0.000000 0.884515
O O4 0.945845 0.287779 0.971934
O O5 0.137106 0.201661 0.911592
O O6 0.058647 0.287390 0.827468
O O7 0.050643 0.000000 0.925828
O O8 0.809613 0.500000 0.131323
O O9 0.749597 0.784260 0.116664
O O10 0.802133 0.761779 0.252130
O O11 0.824350 0.275233 0.729101
O O12 0.810718 0.000000 0.842130
O O13 0.843197 0.800253 0.403418
O O14 0.878152 0.710054 0.545863
O O15 0.943579 0.708901 0.358456
O O16 0.918243 0.000000 0.457705
O O17 0.768560 0.718394 0.596122
O O18 0.704201 0.000000 0.627256
O O19 0.326785 0.500000 0.618763
O O20 0.032333 0.000000 0.739026
#
# Coordination Sequence:
#
# PCOD9169361 Si02
#       8
#     8   8   8   8   8   8   8   8
#     4   9  17  29  46  64  86 122 158 183 216 265
#     4  10  18  29  47  70  92 115 147 186 227 266
#     4   9  17  29  46  67  92 119 146 182 224 265
#     4   8  15  29  45  63  90 122 153 181 214 264
#     4  10  17  26  43  67  92 115 141 180 226 259
#     4   9  16  27  42  62  90 121 147 171 212 270
#     4   8  15  26  41  62  89 118 145 177 218 263
#     4   9  17  28  42  65  94 117 145 186 225 261
#
# _framework density 24.700498
#
# number of rings (size 3 to 8) (size 9 to 14) (size 15 to 20)
#    0.000    3.000    1.250    2.250    0.000    2.000 
#    0.000    0.625    0.000    6.000    0.000    0.000 
#    0.000    1.000    0.000    0.000    0.000    0.000 
#
# Total GULP energy -178741.105292 kJ/mol
# GULP energy per Si atom -5585.659540 kJ/mol
# Density = 2.464428 g / cm^3
# Si number density = 24.700498 Si / 1000 Ang^3
#
#
#
# Elastic Constant Matrix: (Units=GPa)
#
#
# Indices 1 2 3 4 5 6 
#
# 1 81.4859 -4.0760 -9.9960 0.0000 -8.1763 0.0000
# 2 -4.0760 103.2161 1.1696 0.0000 -3.2710 0.0000
# 3 -9.9960 1.1696 45.0389 0.0000 -21.8492 0.0000
# 4 0.0000 0.0000 0.0000 -8.4472 0.0000 0.8739
# 5 -8.1763 -3.2710 -21.8492 0.0000 46.4459 0.0000
# 6 0.0000 0.0000 0.0000 0.8739 0.0000 7.6332
#
#
#
# Elastic Compliance Matrix: (Units=1/GPa)
#
#
# Indices 1 2 3 4 5 6 
#
# 1 0.013457 0.000627 0.005366 0.000000 0.004937 0.000000
# 2 0.000627 0.009740 0.000353 0.000000 0.000962 0.000000
# 3 0.005366 0.000353 0.030909 0.000000 0.015510 0.000000
# 4 0.000000 0.000000 0.000000 -0.116997 0.000000 0.013395
# 5 0.004937 0.000962 0.015510 0.000000 0.029763 0.000000
# 6 0.000000 0.000000 0.000000 0.013395 0.000000 0.129473
#
#
# Mechanical properties :
#
#
# Convention : Reuss Voigt Hill
#
# Bulk Modulus (GPa) = 14.97073 22.65956 18.81514
# Shear Modulus (GPa) = 47.20580 25.30260 36.25420
#
# Velocity S-wave (km/s) = 4.37639 3.20406 3.83528
# Velocity P-wave (km/s) = 5.62237 4.78348 5.21980
#
# Compressibility (1/GPa) = 0.06679701
#
# Stress axis : x y z
#
# Youngs Moduli (GPa) = 74.31055 102.67286 32.35332
#
# Poissons Ratio (x) = -0.06438 -0.17359
# Poissons Ratio (y) = -0.04660 -0.01143
# Poissons Ratio (z) = -0.39872 -0.03626
#
# Static dielectric constant tensor:
#      x y z
#    x 1.938820 0.000000 -0.022750 
#    y 0.000000 1.936110 0.000000 
#    z -0.022750 0.000000 1.954860 
# 
# From -- ./inp_files/243996.got.cif
#   From: 2010.05.17/outbox.cif.g08.bks.cpg/sg12_122_cif.got.tgz:243996.got - 2010.06.03 13:09:07.
