data_PCOD9169794
_publ_section_title
;
Structure prediction by ZEFSAII (Michael W. Deem and Ramdas Pophale) SiO2 
 PCOD9169794
Probable space group: C 2/M
;
_chemical_formula_sum "Si O2"
_cell_formula_units_Z 64
_cell_length_a 30.835254
_cell_length_b 7.483726
_cell_length_c 21.828972
_cell_angle_alpha 90.000000
_cell_angle_beta 151.860271
_cell_angle_gamma 90.000000
_cell_volume 2375.713528
_symmetry_space_group_name_H-M "C 2/M"
_symmetry_group_IT_number 12
_symmetry_cell_setting 'monoclinic'
loop_
_space_group_symop_operation_xyz
x,y,z
-x,y,-z
-x,-y,-z
x,-y,z
1/2+x,1/2+y,z
1/2-x,1/2+y,-z
1/2-x,1/2-y,-z
1/2+x,1/2-y,z
loop_
_atom_site_type_symbol
_atom_site_label
_atom_site_fract_x
_atom_site_fract_y
_atom_site_fract_z
Si Si1 0.583169 0.216230 0.362504
Si Si2 0.814605 0.712710 0.764889
Si Si3 0.645046 0.796968 0.313666
Si Si4 0.058467 0.206857 0.972711
Si Si5 0.883922 0.209175 0.148927
Si Si6 0.574278 0.203647 0.661198
Si Si7 0.228604 0.780192 0.103295
Si Si8 0.616856 0.786647 0.541610
O O1 0.642241 0.282391 0.378413
O O2 0.476264 0.267312 0.223240
O O3 0.608653 0.283839 0.461696
O O4 0.588502 0.000000 0.368969
O O5 0.823043 0.500000 0.771122
O O6 0.807500 0.788042 0.686727
O O7 0.903069 0.783021 0.910502
O O8 0.722702 0.756223 0.688322
O O9 0.677863 0.000000 0.360140
O O10 0.537345 0.800795 0.159533
O O11 0.145053 0.279365 0.041846
O O12 0.044005 0.000000 0.938379
O O13 0.905139 0.302043 0.239677
O O14 0.872936 0.000000 0.148158
O O15 0.800834 0.271645 0.002518
O O16 0.668825 0.285323 0.754050
O O17 0.471033 0.281606 0.529548
O O18 0.572543 0.000000 0.635969
O O19 0.230214 0.000000 0.107373
O O20 0.603336 0.000000 0.523261
#
# Coordination Sequence:
#
# PCOD9169794 Si02
#       8
#     8   8   8   8   8   8   8   8
#     4   9  18  34  56  81 111 146 180 218 271 330
#     4  11  24  40  57  78 107 147 187 228 278 326
#     4  10  21  38  59  83 112 143 178 222 278 335
#     4  11  22  38  59  84 112 142 181 229 273 320
#     4  10  17  28  48  80 116 143 176 219 266 319
#     4   9  18  34  54  77 109 147 181 216 266 327
#     4   9  18  32  52  80 111 141 178 222 268 322
#     4   9  19  36  57  80 107 143 187 225 263 319
#
# _framework density 26.939274999999999
#
# number of rings (size 3 to 8) (size 9 to 14) (size 15 to 20)
#    0.000    2.250    1.250    2.625    0.000    5.000 
#    0.000    2.500    0.000    3.750    0.000    0.000 
#    0.000    0.000    0.000    0.000    0.000    0.000 
#
# Total GULP energy -179075.927323 kJ/mol
# GULP energy per Si atom -5596.122729 kJ/mol
# Density = 2.687796 g / cm^3
# Si number density = 26.939275 Si / 1000 Ang^3
#
#
#
# Elastic Constant Matrix: (Units=GPa)
#
#
# Indices 1 2 3 4 5 6 
#
# 1 151.2549 2.4401 24.4503 0.0000 15.6128 0.0000
# 2 2.4401 103.6214 6.8754 0.0000 2.3236 0.0000
# 3 24.4503 6.8754 147.5486 0.0000 25.3780 0.0000
# 4 0.0000 0.0000 0.0000 21.6274 0.0000 -0.2341
# 5 15.6128 2.3236 25.3780 0.0000 54.3016 0.0000
# 6 0.0000 0.0000 0.0000 -0.2341 0.0000 0.1981
#
#
#
# Elastic Compliance Matrix: (Units=1/GPa)
#
#
# Indices 1 2 3 4 5 6 
#
# 1 0.006916 -0.000070 -0.000871 0.000000 -0.001578 0.000000
# 2 -0.000070 0.009684 -0.000404 0.000000 -0.000205 0.000000
# 3 -0.000871 -0.000404 0.007497 0.000000 -0.003236 0.000000
# 4 0.000000 0.000000 0.000000 0.046837 0.000000 0.055361
# 5 -0.001578 -0.000205 -0.003236 0.000000 0.020391 0.000000
# 6 0.000000 0.000000 0.000000 0.055361 0.000000 5.113643
#
#
# Mechanical properties :
#
#
# Convention : Reuss Voigt Hill
#
# Bulk Modulus (GPa) = 46.71521 52.21738 49.46630
# Shear Modulus (GPa) = 0.95881 39.80270 20.38075
#
# Velocity S-wave (km/s) = 0.59723 3.84799 2.75352
# Velocity P-wave (km/s) = 4.22542 6.25845 5.33958
#
# Compressibility (1/GPa) = 0.02140630
#
# Stress axis : x y z
#
# Youngs Moduli (GPa) = 144.58686 103.26745 133.38216
#
# Poissons Ratio (x) = 0.00719 0.11623
# Poissons Ratio (y) = 0.01007 0.05394
# Poissons Ratio (z) = 0.12599 0.04176
#
# Static dielectric constant tensor:
#      x y z
#    x 2.166890 0.000000 -0.012950 
#    y 0.000000 2.079110 0.000000 
#    z -0.012950 0.000000 2.097470 
# 
# From -- ./inp_files/353473.got.cif
#   From: 2010.05.17/outbox.cif.g08.bks.cpg/sg12_177_cif.got.tgz:353473.got - 2010.06.03 13:09:07.
