data_PCOD9169836
_publ_section_title
;
Structure prediction by ZEFSAII (Michael W. Deem and Ramdas Pophale) SiO2 
 PCOD9169836
Probable space group: C 2/M
;
_chemical_formula_sum "Si O2"
_cell_formula_units_Z 64
_cell_length_a 29.548442
_cell_length_b 20.632827
_cell_length_c 12.937509
_cell_angle_alpha 90.000000
_cell_angle_beta 27.418069
_cell_angle_gamma 90.000000
_cell_volume 3632.072606
_symmetry_space_group_name_H-M "C 2/M"
_symmetry_group_IT_number 12
_symmetry_cell_setting 'monoclinic'
loop_
_space_group_symop_operation_xyz
x,y,z
-x,y,-z
-x,-y,-z
x,-y,z
1/2+x,1/2+y,z
1/2-x,1/2+y,-z
1/2-x,1/2-y,-z
1/2+x,1/2-y,z
loop_
_atom_site_type_symbol
_atom_site_label
_atom_site_fract_x
_atom_site_fract_y
_atom_site_fract_z
Si Si1 0.638426 0.260891 0.700059
Si Si2 0.269142 0.182697 0.085329
Si Si3 0.057902 0.625164 0.792985
Si Si4 0.490200 0.190065 0.722228
Si Si5 0.799499 0.667443 0.790585
Si Si6 0.440326 0.382951 0.021985
Si Si7 0.750448 0.573337 0.705352
Si Si8 0.413654 0.324425 0.411435
O O1 0.750000 0.250000 0.500000
O O2 0.595644 0.189635 0.774896
O O3 0.588565 0.309023 0.883921
O O4 0.630214 0.294404 0.605231
O O5 0.237255 0.258646 0.149895
O O6 0.178687 0.153175 0.333698
O O7 0.380280 0.180813 0.903352
O O8 0.272430 0.153422 0.963642
O O9 0.998429 0.652666 0.814961
O O10 0.150401 0.587727 0.559168
O O11 0.000000 0.587909 0.000000
O O12 0.582188 0.164415 0.466844
O O13 0.520811 0.265963 0.673296
O O14 0.751152 0.623177 0.800123
O O15 0.340663 0.415579 0.187144
O O16 0.500000 0.409903 0.000000
O O17 0.512775 0.379142 0.777757
O O18 0.749954 0.500000 0.744764
#
# Coordination Sequence:
#
# PCOD9169836 Si02
#       8
#     8   8   8   8   8   8   8   8
#     4  10  17  28  50  79 117 143 166 209 272 329
#     4  10  18  31  54  77 109 134 167 231 288 324
#     4  10  20  31  51  82 111 142 178 220 270 320
#     4   9  17  29  48  76 111 140 167 206 272 335
#     4   9  20  34  50  78 103 138 180 222 275 331
#     4  10  20  34  52  79 109 141 183 215 265 324
#     4  11  23  39  56  72 105 153 188 224 261 320
#     4   9  19  27  45  81 109 141 170 210 266 327
#
# _framework density 17.620792999999999
#
# number of rings (size 3 to 8) (size 9 to 14) (size 15 to 20)
#    0.000    2.250    1.250    3.750    3.500    0.500 
#    0.000    1.875    0.000    7.500    0.000    0.000 
#    0.000    0.000    0.000    0.000    0.000    0.000 
#
# Total GULP energy -178282.103593 kJ/mol
# GULP energy per Si atom -5571.315737 kJ/mol
# Density = 1.758069 g / cm^3
# Si number density = 17.620793 Si / 1000 Ang^3
#
#
#
# Elastic Constant Matrix: (Units=GPa)
#
#
# Indices 1 2 3 4 5 6 
#
# 1 80.5123 11.0680 61.8932 0.0000 -6.2077 0.0000
# 2 11.0680 30.4446 6.0917 0.0000 7.2114 0.0000
# 3 61.8932 6.0917 117.3561 0.0000 13.4394 0.0000
# 4 0.0000 0.0000 0.0000 -9.1027 0.0000 12.0043
# 5 -6.2077 7.2114 13.4394 0.0000 35.8931 0.0000
# 6 0.0000 0.0000 0.0000 12.0043 0.0000 -1.9793
#
#
#
# Elastic Compliance Matrix: (Units=1/GPa)
#
#
# Indices 1 2 3 4 5 6 
#
# 1 0.025642 -0.009209 -0.014382 0.000000 0.011670 0.000000
# 2 -0.009209 0.037917 0.004120 0.000000 -0.010753 0.000000
# 3 -0.014382 0.004120 0.017001 0.000000 -0.009681 0.000000
# 4 0.000000 0.000000 0.000000 0.015698 0.000000 0.095207
# 5 0.011670 -0.010753 -0.009681 0.000000 0.035664 0.000000
# 6 0.000000 0.000000 0.000000 0.095207 0.000000 0.072194
#
#
# Mechanical properties :
#
#
# Convention : Reuss Voigt Hill
#
# Bulk Modulus (GPa) = 24.02779 42.93542 33.48161
# Shear Modulus (GPa) = 19.46048 14.91290 17.18669
#
# Velocity S-wave (km/s) = 3.32686 2.91232 3.12647
# Velocity P-wave (km/s) = 5.33132 5.97730 5.66353
#
# Compressibility (1/GPa) = 0.04161848
#
# Stress axis : x y z
#
# Youngs Moduli (GPa) = 38.99815 26.37336 58.82047
#
# Poissons Ratio (x) = 0.24286 0.84596
# Poissons Ratio (y) = 0.35912 -0.24233
# Poissons Ratio (z) = 0.56087 -0.10865
#
# Static dielectric constant tensor:
#      x y z
#    x 1.602360 0.000000 0.014010 
#    y 0.000000 1.592300 0.000000 
#    z 0.014010 0.000000 1.643550 
# 
# From -- ./inp_files/184952.got.cif
#   From: 2010.05.17/outbox.cif.g08.bks.cpg/sg12_93_cif.got.tgz:184952.got - 2010.06.03 13:09:07.
