data_PCOD9169667
_publ_section_title
;
Structure prediction by ZEFSAII (Michael W. Deem and Ramdas Pophale) SiO2 
 PCOD9169667
Probable space group: C 2/M
;
_chemical_formula_sum "Si O2"
_cell_formula_units_Z 48
_cell_length_a 25.706679
_cell_length_b 15.168594
_cell_length_c 5.446766
_cell_angle_alpha 90.000000
_cell_angle_beta 88.696562
_cell_angle_gamma 90.000000
_cell_volume 2123.330655
_symmetry_space_group_name_H-M "C 2/M"
_symmetry_group_IT_number 12
_symmetry_cell_setting 'monoclinic'
loop_
_space_group_symop_operation_xyz
x,y,z
-x,y,-z
-x,-y,-z
x,-y,z
1/2+x,1/2+y,z
1/2-x,1/2+y,-z
1/2-x,1/2-y,-z
1/2+x,1/2-y,z
loop_
_atom_site_type_symbol
_atom_site_label
_atom_site_fract_x
_atom_site_fract_y
_atom_site_fract_z
Si Si1 0.644232 0.140859 0.730622
Si Si2 0.800603 0.166162 0.266128
Si Si3 0.649715 0.350118 0.237297
Si Si4 0.033846 0.722319 0.749578
Si Si5 0.678209 0.852428 0.226845
Si Si6 0.940549 0.094696 0.425087
O O1 0.676107 0.234745 0.726064
O O2 0.582648 0.156987 0.739107
O O3 0.661257 0.099651 0.474408
O O4 0.662635 0.099684 0.980937
O O5 0.813799 0.126835 0.531746
O O6 0.739331 0.168162 0.228380
O O7 0.827784 0.121501 0.027141
O O8 0.648268 0.242823 0.228032
O O9 0.594572 0.386218 0.332554
O O10 0.060898 0.819540 0.745257
O O11 0.000000 0.715459 0.500000
O O12 0.000000 0.712639 0.000000
O O13 0.000000 0.089658 0.500000
O O14 0.925462 0.000000 0.318265
#
# Coordination Sequence:
#
# PCOD9169667 Si02
#       6
#     8   8   8   8   8   8
#     4  10  17  28  43  62  83 105 129 168 218 273
#     4  10  18  28  46  67  84 102 124 167 234 292
#     4  10  18  31  45  62  85 105 135 180 231 273
#     4  11  22  33  47  60  81 112 151 191 231 263
#     4  10  17  28  46  67  85 101 125 164 234 291
#     4  10  22  36  49  62  82 117 163 204 237 265
#
# _framework density 22.605993000000002
#
# number of rings (size 3 to 8) (size 9 to 14) (size 15 to 20)
#    0.000    1.833    3.333    6.000    7.000    0.333 
#    0.000    4.167    0.000    0.000    0.000    0.000 
#    0.000    0.000    0.000    0.000    0.000    0.000 
#
# Total GULP energy -134019.078312 kJ/mol
# GULP energy per Si atom -5584.128263 kJ/mol
# Density = 2.255454 g / cm^3
# Si number density = 22.605993 Si / 1000 Ang^3
#
#
#
# Elastic Constant Matrix: (Units=GPa)
#
#
# Indices 1 2 3 4 5 6 
#
# 1 116.5274 38.6764 55.3802 0.0000 -18.5463 0.0000
# 2 38.6764 37.2905 9.2714 0.0000 0.2088 0.0000
# 3 55.3802 9.2714 205.0845 0.0000 1.0004 0.0000
# 4 0.0000 0.0000 0.0000 6.2548 0.0000 64.8163
# 5 -18.5463 0.2088 1.0004 0.0000 42.8037 0.0000
# 6 0.0000 0.0000 0.0000 64.8163 0.0000 131.7146
#
#
#
# Elastic Compliance Matrix: (Units=1/GPa)
#
#
# Indices 1 2 3 4 5 6 
#
# 1 0.017340 -0.017045 -0.003949 0.000000 0.007689 0.000000
# 2 -0.017045 0.043878 0.002657 0.000000 -0.007662 0.000000
# 3 -0.003949 0.002657 0.005831 0.000000 -0.001860 0.000000
# 4 0.000000 0.000000 0.000000 -0.039000 0.000000 0.019192
# 5 0.007689 -0.007662 -0.001860 0.000000 0.026775 0.000000
# 6 0.000000 0.000000 0.000000 0.019192 0.000000 -0.001852
#
#
# Mechanical properties :
#
#
# Convention : Reuss Voigt Hill
#
# Bulk Modulus (GPa) = 32.92404 62.83982 47.88193
# Shear Modulus (GPa) = 50.11417 53.19291 51.65354
#
# Velocity S-wave (km/s) = 4.71346 4.85608 4.78530
# Velocity P-wave (km/s) = 6.64967 7.70067 7.19439
#
# Compressibility (1/GPa) = 0.03037294
#
# Stress axis : x y z
#
# Youngs Moduli (GPa) = 57.67082 22.79058 171.48348
#
# Poissons Ratio (x) = 0.38847 0.67724
# Poissons Ratio (y) = 0.98302 -0.45557
# Poissons Ratio (z) = 0.22776 -0.06055
#
# Static dielectric constant tensor:
#      x y z
#    x 1.816310 0.000000 0.037040 
#    y 0.000000 1.857050 0.000000 
#    z 0.037040 0.000000 1.951390 
# 
# From -- ./inp_files/25228.got.cif
#   From: 2010.05.17/outbox.cif.g08.bks.cpg/sg12_13_cif.got.tgz:25228.got - 2010.06.03 13:09:07.
