data_PCOD9169543
_publ_section_title
;
Structure prediction by ZEFSAII (Michael W. Deem and Ramdas Pophale) SiO2 
 PCOD9169543
Probable space group: C 2/M
;
_chemical_formula_sum "Si O2"
_cell_formula_units_Z 56
_cell_length_a 20.503466
_cell_length_b 19.091575
_cell_length_c 10.185255
_cell_angle_alpha 90.000000
_cell_angle_beta 33.391057
_cell_angle_gamma 90.000000
_cell_volume 2194.220429
_symmetry_space_group_name_H-M "C 2/M"
_symmetry_group_IT_number 12
_symmetry_cell_setting 'monoclinic'
loop_
_space_group_symop_operation_xyz
x,y,z
-x,y,-z
-x,-y,-z
x,-y,z
1/2+x,1/2+y,z
1/2-x,1/2+y,-z
1/2-x,1/2-y,-z
1/2+x,1/2-y,z
loop_
_atom_site_type_symbol
_atom_site_label
_atom_site_fract_x
_atom_site_fract_y
_atom_site_fract_z
Si Si1 0.023456 0.423687 0.614472
Si Si2 0.655508 0.278746 0.464054
Si Si3 0.372430 0.162660 0.269515
Si Si4 0.267711 0.919566 0.059091
Si Si5 0.323863 0.577778 0.280148
Si Si6 0.740743 0.340743 0.844708
Si Si7 0.070063 0.078360 0.612234
O O1 0.038419 0.500000 0.649994
O O2 0.000000 0.431500 0.500000
O O3 0.142558 0.381306 0.402350
O O4 0.899419 0.392451 0.873641
O O5 0.610878 0.222329 0.646547
O O6 0.773912 0.308377 0.335052
O O7 0.711755 0.238354 0.244516
O O8 0.554200 0.337293 0.609796
O O9 0.303458 0.095814 0.442227
O O10 0.500000 0.145697 0.000000
O O11 0.185965 0.925285 0.323274
O O12 0.281916 0.000000 0.985881
O O13 0.213497 0.873342 0.032124
O O14 0.327159 0.500000 0.217694
O O15 0.346588 0.634833 0.127087
O O16 0.406345 0.578696 0.270901
O O17 0.011697 0.000000 0.682163
#
# Coordination Sequence:
#
# PCOD9169543 Si02
#       7
#     8   8   8   8   8   8   8
#     4   8  14  25  41  65  99 131 153 179 227 295
#     4   9  19  32  47  73  99 124 166 206 240 290
#     4   9  18  33  50  69 103 138 155 190 252 298
#     4   9  17  29  46  70 101 135 162 186 237 307
#     4   9  17  28  45  72 100 126 157 190 230 291
#     4  10  17  27  45  67 100 133 160 196 229 271
#     4   9  18  32  47  64  93 128 159 201 251 290
#
# _framework density 25.521592999999999
#
# number of rings (size 3 to 8) (size 9 to 14) (size 15 to 20)
#    0.000    3.000    0.000    3.000    0.000    5.429 
#    0.000    2.857    0.000    0.429    0.000    0.000 
#    0.000    7.429    0.000    0.000    0.000    0.000 
#
# Total GULP energy -155883.005836 kJ/mol
# GULP energy per Si atom -5567.250208 kJ/mol
# Density = 2.546350 g / cm^3
# Si number density = 25.521593 Si / 1000 Ang^3
#
#
#
# Elastic Constant Matrix: (Units=GPa)
#
#
# Indices 1 2 3 4 5 6 
#
# 1 61.6219 10.8041 26.7434 -0.0001 12.0504 0.0000
# 2 10.8041 110.4917 14.5058 -0.0001 10.1133 0.0000
# 3 26.7434 14.5058 122.9323 -0.0002 1.0816 0.0001
# 4 -0.0001 -0.0001 -0.0002 -283.6894 0.0002 85.7059
# 5 12.0504 10.1133 1.0816 0.0002 29.9421 -0.0001
# 6 0.0000 0.0000 0.0001 85.7059 -0.0001 7.3759
#
#
#
# Elastic Compliance Matrix: (Units=1/GPa)
#
#
# Indices 1 2 3 4 5 6 
#
# 1 0.019604 -0.000689 -0.004117 0.000000 -0.007508 0.000000
# 2 -0.000689 0.009508 -0.000946 0.000000 -0.002900 0.000000
# 3 -0.004117 -0.000946 0.009127 0.000000 0.001647 0.000000
# 4 0.000000 0.000000 0.000000 -0.000782 0.000000 0.009081
# 5 -0.007508 -0.002900 0.001647 0.000000 0.037340 0.000000
# 6 0.000000 0.000000 0.000000 0.009081 0.000000 0.030058
#
#
# Mechanical properties :
#
#
# Convention : Reuss Voigt Hill
#
# Bulk Modulus (GPa) = 37.40686 44.35027 40.87857
# Shear Modulus (GPa) = 39.91307 -33.07478 3.41915
#
# Velocity S-wave (km/s) = 3.95890 -3.60384 1.15871
# Velocity P-wave (km/s) = 5.96540 0.31367 4.22400
#
# Compressibility (1/GPa) = 0.02673306
#
# Stress axis : x y z
#
# Youngs Moduli (GPa) = 51.01000 105.18008 109.55944
#
# Poissons Ratio (x) = 0.07248 0.45110
# Poissons Ratio (y) = 0.03515 0.10369
# Poissons Ratio (z) = 0.21003 0.09955
#
# Static dielectric constant tensor:
#      x y z
#    x 2.148230 0.000000 -0.063430 
#    y 0.000000 2.181340 0.000000 
#    z -0.063430 0.000000 2.042560 
# 
# From -- ./inp_files/184585.got.cif
#   From: 2010.05.17/outbox.cif.g08.bks.cpg/sg12_93_cif.got.tgz:184585.got - 2010.06.03 13:09:07.
