data_PCOD9169034
_publ_section_title
;
Structure prediction by ZEFSAII (Michael W. Deem and Ramdas Pophale) SiO2 
 PCOD9169034
Probable space group: C 2/M
;
_chemical_formula_sum "Si O2"
_cell_formula_units_Z 48
_cell_length_a 15.724175
_cell_length_b 16.996296
_cell_length_c 19.117457
_cell_angle_alpha 90.000000
_cell_angle_beta 150.066536
_cell_angle_gamma 90.000000
_cell_volume 2549.456320
_symmetry_space_group_name_H-M "C 2/M"
_symmetry_group_IT_number 12
_symmetry_cell_setting 'monoclinic'
loop_
_space_group_symop_operation_xyz
x,y,z
-x,y,-z
-x,-y,-z
x,-y,z
1/2+x,1/2+y,z
1/2-x,1/2+y,-z
1/2-x,1/2-y,-z
1/2+x,1/2-y,z
loop_
_atom_site_type_symbol
_atom_site_label
_atom_site_fract_x
_atom_site_fract_y
_atom_site_fract_z
Si Si1 0.025817 0.356925 0.194981
Si Si2 0.509298 0.500000 0.591655
Si Si3 0.599991 0.820157 0.642845
Si Si4 0.492172 0.275787 0.917700
Si Si5 0.405191 0.668038 0.508340
Si Si6 0.602128 0.000000 0.143912
Si Si7 0.226111 0.590742 0.863454
O O1 0.944773 0.284020 0.095827
O O2 0.203611 0.326728 0.354539
O O3 0.071496 0.424191 0.170996
O O4 0.902984 0.392447 0.165354
O O5 0.500000 0.500000 0.500000
O O6 0.433854 0.582712 0.563501
O O7 0.706342 0.500000 0.746217
O O8 0.500000 0.841720 0.500000
O O9 0.793592 0.794563 0.762258
O O10 0.496598 0.745957 0.603007
O O11 0.629493 0.885442 0.722912
O O12 0.500000 0.236264 0.000000
O O13 0.611316 0.352173 0.010002
O O14 0.500000 0.663599 0.500000
O O15 0.500000 0.000000 0.000000
O O16 0.277282 0.500000 0.898465
#
# Coordination Sequence:
#
# PCOD9169034 Si02
#       7
#     8   4   8   8   8   4   8
#     4  12  20  39  62  91 128 160 198 252 306 366
#     4  10  16  32  56  90 118 168 195 233 297 362
#     4  10  20  41  66  92 114 155 216 261 292 358
#     4  10  21  39  65  90 119 165 209 246 301 363
#     4  10  17  32  63  89 121 157 204 241 302 360
#     4  12  22  32  60  94 128 164 200 241 291 373
#     4  11  26  41  62  89 125 165 202 249 321 360
#
# _framework density 18.827542999999999
#
# number of rings (size 3 to 8) (size 9 to 14) (size 15 to 20)
#    0.000    1.333    7.500    1.000    0.000    5.333 
#    0.000    0.000    0.000    0.000    0.000    0.000 
#    0.000    0.000    0.000    0.000    0.000    0.000 
#
# Total GULP energy -133809.018995 kJ/mol
# GULP energy per Si atom -5575.375791 kJ/mol
# Density = 1.878469 g / cm^3
# Si number density = 18.827543 Si / 1000 Ang^3
#
#
#
# Elastic Constant Matrix: (Units=GPa)
#
#
# Indices 1 2 3 4 5 6 
#
# 1 35.5702 18.7235 15.4061 -0.0012 -3.1815 -0.0010
# 2 18.7235 129.4749 39.8036 -0.0040 -5.5481 0.0003
# 3 15.4061 39.8036 128.5973 -0.0024 -1.2413 0.0001
# 4 -0.0012 -0.0040 -0.0024 33.1786 0.0008 -10.7648
# 5 -3.1815 -5.5481 -1.2413 0.0008 20.4824 0.0022
# 6 -0.0010 0.0003 0.0001 -10.7648 0.0022 57.9331
#
#
#
# Elastic Compliance Matrix: (Units=1/GPa)
#
#
# Indices 1 2 3 4 5 6 
#
# 1 0.031473 -0.003583 -0.002625 0.000001 0.003759 0.000001
# 2 -0.003583 0.009040 -0.002352 0.000001 0.001749 0.000000
# 3 -0.002625 -0.002352 0.008814 0.000000 -0.000511 0.000000
# 4 0.000001 0.000001 0.000000 0.032074 -0.000002 0.005960
# 5 0.003759 0.001749 -0.000511 -0.000002 0.049849 -0.000002
# 6 0.000001 0.000000 0.000000 0.005960 -0.000002 0.018369
#
#
# Mechanical properties :
#
#
# Convention : Reuss Voigt Hill
#
# Bulk Modulus (GPa) = 31.05024 49.05654 40.05339
# Shear Modulus (GPa) = 28.17327 36.96609 32.56968
#
# Velocity S-wave (km/s) = 3.87251 4.43584 4.16371
# Velocity P-wave (km/s) = 6.04341 7.23518 6.66598
#
# Compressibility (1/GPa) = 0.03220587
#
# Stress axis : x y z
#
# Youngs Moduli (GPa) = 31.77350 110.62384 113.45964
#
# Poissons Ratio (x) = 0.39639 0.29784
# Poissons Ratio (y) = 0.11385 0.26683
# Poissons Ratio (z) = 0.08341 0.26017
#
# Static dielectric constant tensor:
#      x y z
#    x 1.644930 0.000000 -0.002980 
#    y 0.000000 1.703350 0.000000 
#    z -0.002980 0.000000 1.641520 
# 
# From -- ./inp_files/271803.got.cif
#   From: 2010.05.17/outbox.cif.g08.bks.cpg/sg12_136_cif.got.tgz:271803.got - 2010.06.03 13:09:07.
