data_PCOD9169097
_publ_section_title
;
Structure prediction by ZEFSAII (Michael W. Deem and Ramdas Pophale) SiO2 
 PCOD9169097
Probable space group: C 2/M
;
_chemical_formula_sum "Si O2"
_cell_formula_units_Z 52
_cell_length_a 28.996842
_cell_length_b 20.053569
_cell_length_c 15.032346
_cell_angle_alpha 90.000000
_cell_angle_beta 160.547261
_cell_angle_gamma 90.000000
_cell_volume 2911.061994
_symmetry_space_group_name_H-M "C 2/M"
_symmetry_group_IT_number 12
_symmetry_cell_setting 'monoclinic'
loop_
_space_group_symop_operation_xyz
x,y,z
-x,y,-z
-x,-y,-z
x,-y,z
1/2+x,1/2+y,z
1/2-x,1/2+y,-z
1/2-x,1/2-y,-z
1/2+x,1/2-y,z
loop_
_atom_site_type_symbol
_atom_site_label
_atom_site_fract_x
_atom_site_fract_y
_atom_site_fract_z
Si Si1 0.653418 0.145262 0.821802
Si Si2 0.594584 0.000000 0.760773
Si Si3 0.151125 0.500000 0.221364
Si Si4 0.362349 0.263355 0.486426
Si Si5 0.655274 0.728088 0.954923
Si Si6 0.530805 0.000000 0.271499
Si Si7 0.711613 0.855581 0.347592
Si Si8 0.918164 0.357481 0.709145
O O1 0.500000 0.146844 0.500000
O O2 0.762006 0.169617 0.945049
O O3 0.674581 0.070880 0.899561
O O4 0.659349 0.203633 0.905587
O O5 0.500000 0.000000 0.500000
O O6 0.505227 0.000000 0.689702
O O7 0.236220 0.434472 0.397613
O O8 0.110664 0.500000 0.043942
O O9 0.000000 0.500000 0.000000
O O10 0.235031 0.246001 0.190719
O O11 0.316837 0.312408 0.482557
O O12 0.412938 0.194299 0.620705
O O13 0.495582 0.291278 0.677551
O O14 0.602407 0.931804 0.367684
O O15 0.688907 0.835843 0.408635
O O16 0.565749 0.853753 0.028033
#
# Coordination Sequence:
#
# PCOD9169097 Si02
#       8
#     8   4   4   8   8   4   8   8
#     4  10  21  40  60  86 117 148 198 249 302 347
#     4  10  22  34  59  91 116 141 198 258 292 341
#     4  10  16  34  59  86 115 154 201 243 285 341
#     4  12  22  36  57  89 119 156 197 235 295 349
#     4  11  23  38  60  83 118 160 194 237 297 365
#     4  10  18  32  60  84 115 149 199 244 292 339
#     4  10  19  34  56  87 122 151 195 248 285 337
#     4  10  19  34  56  88 117 153 193 242 290 334
#
# _framework density 17.862895999999999
#
# number of rings (size 3 to 8) (size 9 to 14) (size 15 to 20)
#    0.000    1.538    6.154    1.385    4.308    0.000 
#    0.000    0.769    0.000    0.923    0.000    2.154 
#    0.000    0.000    0.000    0.000    0.000    0.000 
#
# Total GULP energy -144886.223817 kJ/mol
# GULP energy per Si atom -5572.547070 kJ/mol
# Density = 1.782224 g / cm^3
# Si number density = 17.862896 Si / 1000 Ang^3
#
#
#
# Elastic Constant Matrix: (Units=GPa)
#
#
# Indices 1 2 3 4 5 6 
#
# 1 87.8002 28.3210 -1.2501 0.0000 8.0197 0.0000
# 2 28.3210 106.5848 8.4766 0.0000 18.3979 0.0000
# 3 -1.2501 8.4766 20.9742 0.0000 4.3089 0.0000
# 4 0.0000 0.0000 0.0000 14.3662 0.0000 0.6985
# 5 8.0197 18.3979 4.3089 0.0000 32.1839 0.0000
# 6 0.0000 0.0000 0.0000 0.6985 0.0000 28.4677
#
#
#
# Elastic Compliance Matrix: (Units=1/GPa)
#
#
# Indices 1 2 3 4 5 6 
#
# 1 0.012624 -0.003270 0.002402 0.000000 -0.001598 0.000000
# 2 -0.003270 0.011452 -0.003749 0.000000 -0.005230 0.000000
# 3 0.002402 -0.003749 0.050405 0.000000 -0.005204 0.000000
# 4 0.000000 0.000000 0.000000 0.069691 0.000000 -0.001710
# 5 -0.001598 -0.005230 -0.005204 0.000000 0.035156 0.000000
# 6 0.000000 0.000000 0.000000 -0.001710 0.000000 0.035169
#
#
# Mechanical properties :
#
#
# Convention : Reuss Voigt Hill
#
# Bulk Modulus (GPa) = 15.32593 31.82826 23.57709
# Shear Modulus (GPa) = 20.36829 26.99100 23.67965
#
# Velocity S-wave (km/s) = 3.38043 3.89139 3.64487
# Velocity P-wave (km/s) = 4.88209 6.16825 5.56247
#
# Compressibility (1/GPa) = 0.06524889
#
# Stress axis : x y z
#
# Youngs Moduli (GPa) = 79.21211 87.32217 19.83931
#
# Poissons Ratio (x) = 0.28551 -0.04766
# Poissons Ratio (y) = 0.25899 0.07437
# Poissons Ratio (z) = -0.19028 0.32734
#
# Static dielectric constant tensor:
#      x y z
#    x 1.655370 0.000000 0.026440 
#    y 0.000000 1.634480 0.000000 
#    z 0.026440 0.000000 1.608350 
# 
# From -- ./inp_files/247245.got.cif
#   From: 2010.05.17/outbox.cif.g08.bks.cpg/sg12_124_cif.got.tgz:247245.got - 2010.06.03 13:09:07.
