data_PCOD9169348
_publ_section_title
;
Structure prediction by ZEFSAII (Michael W. Deem and Ramdas Pophale) SiO2 
 PCOD9169348
Probable space group: C 2/M
;
_chemical_formula_sum "Si O2"
_cell_formula_units_Z 48
_cell_length_a 15.831954
_cell_length_b 7.893389
_cell_length_c 18.989167
_cell_angle_alpha 90.000000
_cell_angle_beta 49.396166
_cell_angle_gamma 90.000000
_cell_volume 1801.673196
_symmetry_space_group_name_H-M "C 2/M"
_symmetry_group_IT_number 12
_symmetry_cell_setting 'monoclinic'
loop_
_space_group_symop_operation_xyz
x,y,z
-x,y,-z
-x,-y,-z
x,-y,z
1/2+x,1/2+y,z
1/2-x,1/2+y,-z
1/2-x,1/2-y,-z
1/2+x,1/2-y,z
loop_
_atom_site_type_symbol
_atom_site_label
_atom_site_fract_x
_atom_site_fract_y
_atom_site_fract_z
Si Si1 0.412811 0.694827 0.633585
Si Si2 0.691342 0.701568 0.809483
Si Si3 0.140444 0.300278 0.982395
Si Si4 0.891858 0.802513 0.852008
Si Si5 0.149669 0.305188 0.486610
Si Si6 0.122632 0.207819 0.688951
O O1 0.395943 0.500000 0.623635
O O2 0.321253 0.742377 0.741120
O O3 0.543713 0.714992 0.579153
O O4 0.383238 0.799793 0.579407
O O5 0.685012 0.500000 0.817537
O O6 0.617736 0.777693 0.912056
O O7 0.656332 0.755619 0.750398
O O8 0.138071 0.500000 0.999926
O O9 0.268266 0.228968 0.914946
O O10 0.080448 0.207450 0.079088
O O11 0.996461 0.728831 0.753529
O O12 0.882665 0.000000 0.837201
O O13 0.149950 0.500000 0.507642
O O14 0.276074 0.234266 0.415794
O O15 0.122352 0.000000 0.685333
#
# Coordination Sequence:
#
# PCOD9169348 Si02
#       6
#     8   8   8   8   8   8
#     4  10  17  26  42  67  98 127 156 191 234 279
#     4  10  19  32  50  71  96 125 159 197 236 279
#     4  10  20  33  50  72  96 123 156 195 238 283
#     4   9  18  35  54  69  91 125 162 194 230 282
#     4   9  15  26  44  67  95 126 160 192 229 278
#     4   8  16  30  50  73  93 122 162 198 230 270
#
# _framework density 26.641902000000002
#
# number of rings (size 3 to 8) (size 9 to 14) (size 15 to 20)
#    0.000    2.667    0.000    5.000    0.000    1.333 
#    0.000    8.333    0.000    1.000    0.000    0.000 
#    0.000    0.000    0.000    0.000    0.000    0.000 
#
# Total GULP energy -134211.512823 kJ/mol
# GULP energy per Si atom -5592.146368 kJ/mol
# Density = 2.658126 g / cm^3
# Si number density = 26.641902 Si / 1000 Ang^3
#
#
#
# Elastic Constant Matrix: (Units=GPa)
#
#
# Indices 1 2 3 4 5 6 
#
# 1 71.0486 1.2768 19.5158 0.0000 -13.2841 0.0000
# 2 1.2768 86.1828 -2.4757 0.0000 1.3150 0.0000
# 3 19.5158 -2.4757 203.0082 0.0000 -10.9323 0.0000
# 4 0.0000 0.0000 0.0000 26.6655 0.0000 4.4342
# 5 -13.2841 1.3150 -10.9323 0.0000 57.1984 0.0000
# 6 0.0000 0.0000 0.0000 4.4342 0.0000 10.2875
#
#
#
# Elastic Compliance Matrix: (Units=1/GPa)
#
#
# Indices 1 2 3 4 5 6 
#
# 1 0.015039 -0.000309 -0.001274 0.000000 0.003256 0.000000
# 2 -0.000309 0.011617 0.000155 0.000000 -0.000309 0.000000
# 3 -0.001274 0.000155 0.005087 0.000000 0.000673 0.000000
# 4 0.000000 0.000000 0.000000 0.040397 0.000000 -0.017412
# 5 0.003256 -0.000309 0.000673 0.000000 0.018375 0.000000
# 6 0.000000 0.000000 0.000000 -0.017412 0.000000 0.104711
#
#
# Mechanical properties :
#
#
# Convention : Reuss Voigt Hill
#
# Bulk Modulus (GPa) = 34.61924 44.09705 39.35814
# Shear Modulus (GPa) = 24.07185 41.62510 32.84848
#
# Velocity S-wave (km/s) = 3.00914 3.95700 3.51517
# Velocity P-wave (km/s) = 5.00957 6.12085 5.59288
#
# Compressibility (1/GPa) = 0.02888567
#
# Stress axis : x y z
#
# Youngs Moduli (GPa) = 66.49253 86.08084 196.59834
#
# Poissons Ratio (x) = 0.02661 0.25050
# Poissons Ratio (y) = 0.02055 -0.03042
# Poissons Ratio (z) = 0.08472 -0.01332
#
# Static dielectric constant tensor:
#      x y z
#    x 2.308400 0.000000 0.012750 
#    y 0.000000 1.905940 0.000000 
#    z 0.012750 0.000000 2.082010 
# 
# From -- ./inp_files/345397.got.cif
#   From: 2010.05.17/outbox.cif.g08.bks.cpg/sg12_173_cif.got.tgz:345397.got - 2010.06.03 13:09:07.
