data_PCOD9169105
_publ_section_title
;
Structure prediction by ZEFSAII (Michael W. Deem and Ramdas Pophale) SiO2 
 PCOD9169105
Probable space group: C 2/M
;
_chemical_formula_sum "Si O2"
_cell_formula_units_Z 32
_cell_length_a 15.071248
_cell_length_b 14.087567
_cell_length_c 10.077973
_cell_angle_alpha 90.000000
_cell_angle_beta 43.116494
_cell_angle_gamma 90.000000
_cell_volume 1462.469158
_symmetry_space_group_name_H-M "C 2/M"
_symmetry_group_IT_number 12
_symmetry_cell_setting 'monoclinic'
loop_
_space_group_symop_operation_xyz
x,y,z
-x,y,-z
-x,-y,-z
x,-y,z
1/2+x,1/2+y,z
1/2-x,1/2+y,-z
1/2-x,1/2-y,-z
1/2+x,1/2-y,z
loop_
_atom_site_type_symbol
_atom_site_label
_atom_site_fract_x
_atom_site_fract_y
_atom_site_fract_z
Si Si1 0.486998 0.389861 0.313848
Si Si2 0.095861 0.500000 0.520654
Si Si3 0.289490 0.666346 0.765155
Si Si4 0.091639 0.500000 0.026835
Si Si5 0.711369 0.322029 0.662062
O O1 0.528424 0.500000 0.270279
O O2 0.604929 0.323955 0.233402
O O3 0.374706 0.377113 0.549070
O O4 0.424636 0.363209 0.241434
O O5 0.187633 0.407799 0.431069
O O6 0.000000 0.500000 0.500000
O O7 0.001321 0.500000 0.747806
O O8 0.182609 0.591502 0.923947
O O9 0.221942 0.760078 0.782954
O O10 0.000000 0.500000 0.000000
O O11 0.750000 0.250000 0.500000
#
# Coordination Sequence:
#
# PCOD9169105 Si02
#       5
#     8   4   8   4   8
#     4  10  16  34  63  95 125 174 227 269 328 399
#     4  12  28  45  67  99 149 180 214 284 359 398
#     4  10  20  35  67  97 126 171 233 277 318 400
#     4  12  22  42  71 105 135 175 233 286 328 400
#     4  10  22  38  66  95 130 182 222 266 335 413
#
# _framework density 21.880804000000001
#
# number of rings (size 3 to 8) (size 9 to 14) (size 15 to 20)
#    0.000    1.500    3.750    3.750    7.000    0.000 
#    0.000    1.250    5.500    1.500    0.000    0.000 
#    0.000    0.000    0.000    0.000    0.000    0.000 
#
# Total GULP energy -89466.073327 kJ/mol
# GULP energy per Si atom -5591.629583 kJ/mol
# Density = 2.183100 g / cm^3
# Si number density = 21.880804 Si / 1000 Ang^3
#
#
#
# Elastic Constant Matrix: (Units=GPa)
#
#
# Indices 1 2 3 4 5 6 
#
# 1 226.9520 75.3324 52.6901 0.0000 -18.7949 0.0000
# 2 75.3324 129.1244 37.6672 0.0000 -2.9015 0.0000
# 3 52.6901 37.6672 52.7439 0.0000 0.1410 0.0000
# 4 0.0000 0.0000 0.0000 9.1122 0.0000 4.4992
# 5 -18.7949 -2.9015 0.1410 0.0000 23.6453 0.0000
# 6 0.0000 0.0000 0.0000 4.4992 0.0000 61.8669
#
#
#
# Elastic Compliance Matrix: (Units=1/GPa)
#
#
# Indices 1 2 3 4 5 6 
#
# 1 0.006807 -0.002359 -0.005129 0.000000 0.005151 0.000000
# 2 -0.002359 0.010637 -0.005238 0.000000 -0.000539 0.000000
# 3 -0.005129 -0.005238 0.027837 0.000000 -0.004885 0.000000
# 4 0.000000 0.000000 0.000000 0.113831 0.000000 -0.008278
# 5 0.005151 -0.000539 -0.004885 0.000000 0.046349 0.000000
# 6 0.000000 0.000000 0.000000 -0.008278 0.000000 0.016766
#
#
# Mechanical properties :
#
#
# Convention : Reuss Voigt Hill
#
# Bulk Modulus (GPa) = 50.43269 82.24443 66.33856
# Shear Modulus (GPa) = 19.66280 35.13358 27.39819
#
# Velocity S-wave (km/s) = 3.00097 4.01144 3.54242
# Velocity P-wave (km/s) = 5.92509 7.68925 6.86408
#
# Compressibility (1/GPa) = 0.01982841
#
# Stress axis : x y z
#
# Youngs Moduli (GPa) = 146.91609 94.01381 35.92376
#
# Poissons Ratio (x) = 0.22180 0.18424
# Poissons Ratio (y) = 0.34660 0.18817
# Poissons Ratio (z) = 0.75348 0.49245
#
# Static dielectric constant tensor:
#      x y z
#    x 1.826350 0.000000 0.007450 
#    y 0.000000 1.758230 0.000000 
#    z 0.007450 0.000000 1.766710 
# 
# From -- ./inp_files/142480.got.cif
#   From: 2010.05.17/outbox.cif.g08.bks.cpg/sg12_72_cif.got.tgz:142480.got - 2010.06.03 13:09:07.
