data_PCOD9169701
_publ_section_title
;
Structure prediction by ZEFSAII (Michael W. Deem and Ramdas Pophale) SiO2 
 PCOD9169701
Probable space group: C 2/M
;
_chemical_formula_sum "Si O2"
_cell_formula_units_Z 44
_cell_length_a 17.177878
_cell_length_b 19.342941
_cell_length_c 7.253892
_cell_angle_alpha 90.000000
_cell_angle_beta 105.590725
_cell_angle_gamma 90.000000
_cell_volume 2321.572896
_symmetry_space_group_name_H-M "C 2/M"
_symmetry_group_IT_number 12
_symmetry_cell_setting 'monoclinic'
loop_
_space_group_symop_operation_xyz
x,y,z
-x,y,-z
-x,-y,-z
x,-y,z
1/2+x,1/2+y,z
1/2-x,1/2+y,-z
1/2-x,1/2-y,-z
1/2+x,1/2-y,z
loop_
_atom_site_type_symbol
_atom_site_label
_atom_site_fract_x
_atom_site_fract_y
_atom_site_fract_z
Si Si1 0.330349 0.500000 0.471023
Si Si2 0.304806 0.348279 0.478339
Si Si3 0.787929 0.000000 0.863520
Si Si4 0.483388 0.355118 0.708076
Si Si5 0.138783 0.225937 0.859277
Si Si6 0.057313 0.000000 0.780346
Si Si7 0.270232 0.154092 0.198775
O O1 0.290792 0.426770 0.399031
O O2 0.331996 0.500000 0.692759
O O3 0.414728 0.500000 0.416735
O O4 0.387550 0.346775 0.653044
O O5 0.324308 0.304782 0.309215
O O6 0.236318 0.332155 0.584762
O O7 0.738517 0.071936 0.839148
O O8 0.857187 0.000000 0.060331
O O9 0.500000 0.354227 0.500000
O O10 0.546855 0.299273 0.825538
O O11 0.511166 0.429878 0.795933
O O12 0.153374 0.307590 0.844461
O O13 0.194898 0.192442 0.051328
#
# Coordination Sequence:
#
# PCOD9169701 Si02
#       7
#     4   8   4   8   8   4   8
#     4  10  17  28  45  66  96 125 154 174 216 269
#     4  10  19  31  45  69  93 124 150 189 222 269
#     4  10  20  31  45  70  89 126 156 187 223 271
#     4  10  18  28  48  68  93 124 155 180 224 269
#     4  10  19  32  47  64  90 126 153 189 222 270
#     4  12  16  32  44  66 100 130 145 183 214 276
#     4  10  20  33  46  65  93 121 158 185 227 269
#
# _framework density 18.952667000000002
#
# number of rings (size 3 to 8) (size 9 to 14) (size 15 to 20)
#    0.000    1.818    5.455    1.364    0.000    0.727 
#    0.000    1.818    0.000    0.000    0.000    5.727 
#    0.000    5.818    0.000    0.000    0.000    4.364 
#
# Total GULP energy -122667.553453 kJ/mol
# GULP energy per Si atom -5575.797884 kJ/mol
# Density = 1.890953 g / cm^3
# Si number density = 18.952667 Si / 1000 Ang^3
#
#
#
# Elastic Constant Matrix: (Units=GPa)
#
#
# Indices 1 2 3 4 5 6 
#
# 1 28.8371 23.1849 5.8766 0.0000 -9.3011 0.0000
# 2 23.1849 94.4480 17.6809 0.0000 -13.5711 0.0000
# 3 5.8766 17.6809 52.8587 0.0000 -10.2489 0.0000
# 4 0.0000 0.0000 0.0000 17.0650 0.0000 3.2864
# 5 -9.3011 -13.5711 -10.2489 0.0000 20.4461 0.0000
# 6 0.0000 0.0000 0.0000 3.2864 0.0000 18.1603
#
#
#
# Elastic Compliance Matrix: (Units=1/GPa)
#
#
# Indices 1 2 3 4 5 6 
#
# 1 0.047171 -0.009515 0.000969 0.000000 0.015628 0.000000
# 2 -0.009515 0.013973 -0.002943 0.000000 0.003471 0.000000
# 3 0.000969 -0.002943 0.021601 0.000000 0.009315 0.000000
# 4 0.000000 0.000000 0.000000 0.060715 0.000000 -0.010987
# 5 0.015628 0.003471 0.009315 0.000000 0.062992 0.000000
# 6 0.000000 0.000000 0.000000 -0.010987 0.000000 0.057054
#
#
# Mechanical properties :
#
#
# Convention : Reuss Voigt Hill
#
# Bulk Modulus (GPa) = 16.73178 29.95874 23.34526
# Shear Modulus (GPa) = 16.31813 19.76105 18.03959
#
# Velocity S-wave (km/s) = 2.93745 3.23252 3.08851
# Velocity P-wave (km/s) = 4.51134 5.45652 5.00629
#
# Compressibility (1/GPa) = 0.05976649
#
# Stress axis : x y z
#
# Youngs Moduli (GPa) = 21.19938 71.56498 46.29361
#
# Poissons Ratio (x) = 0.68096 -0.04485
# Poissons Ratio (y) = 0.20172 0.13625
# Poissons Ratio (z) = -0.02054 0.21063
#
# Static dielectric constant tensor:
#      x y z
#    x 1.670910 0.000000 -0.012840 
#    y 0.000000 1.719600 0.000000 
#    z -0.012840 0.000000 1.714350 
# 
# From -- ./inp_files/74434.got.cif
#   From: 2010.05.17/outbox.cif.g08.bks.cpg/sg12_38_cif.got.tgz:74434.got - 2010.06.03 13:09:07.
