data_PCOD9169716
_publ_section_title
;
Structure prediction by ZEFSAII (Michael W. Deem and Ramdas Pophale) SiO2 
 PCOD9169716
Probable space group: C 2/M
;
_chemical_formula_sum "Si O2"
_cell_formula_units_Z 56
_cell_length_a 25.923764
_cell_length_b 7.403401
_cell_length_c 26.400465
_cell_angle_alpha 90.000000
_cell_angle_beta 35.095355
_cell_angle_gamma 90.000000
_cell_volume 2913.148471
_symmetry_space_group_name_H-M "C 2/M"
_symmetry_group_IT_number 12
_symmetry_cell_setting 'monoclinic'
loop_
_space_group_symop_operation_xyz
x,y,z
-x,y,-z
-x,-y,-z
x,-y,z
1/2+x,1/2+y,z
1/2-x,1/2+y,-z
1/2-x,1/2-y,-z
1/2+x,1/2-y,z
loop_
_atom_site_type_symbol
_atom_site_label
_atom_site_fract_x
_atom_site_fract_y
_atom_site_fract_z
Si Si1 0.171059 0.720647 0.894974
Si Si2 0.982551 0.219666 0.594679
Si Si3 0.646006 0.213385 0.096228
Si Si4 0.838573 0.279495 0.214397
Si Si5 0.363951 0.712211 0.779120
Si Si6 0.532318 0.221045 0.092316
Si Si7 0.357157 0.719666 0.600433
O O1 0.171049 0.500000 0.895387
O O2 0.159993 0.775568 0.845730
O O3 0.266504 0.783911 0.840630
O O4 0.091273 0.776336 0.996354
O O5 0.943640 0.283490 0.679497
O O6 0.909702 0.267636 0.609957
O O7 0.079399 0.281110 0.496611
O O8 0.987556 0.000000 0.591214
O O9 0.624053 0.272273 0.170681
O O10 0.582333 0.285028 0.102835
O O11 0.635141 0.000000 0.104488
O O12 0.750000 0.250000 0.000000
O O13 0.837901 0.500000 0.215102
O O14 0.745257 0.219248 0.314381
O O15 0.929687 0.221741 0.168460
O O16 0.359224 0.500000 0.771218
O O17 0.532991 0.000000 0.092200
O O18 0.355400 0.500000 0.600794
#
# Coordination Sequence:
#
# PCOD9169716 Si02
#       7
#     8   8   8   8   8   8   8
#     4   9  14  22  37  61  89 114 138 171 218 266
#     4   8  13  21  36  61  92 117 138 173 220 265
#     4  11  21  33  47  64  87 117 152 187 217 251
#     4   9  14  21  36  60  91 118 138 173 225 267
#     4  10  17  28  46  67  92 118 143 177 220 261
#     4   9  17  26  37  57  86 116 146 178 216 260
#     4   8  12  19  34  60  92 118 138 170 223 269
#
# _framework density 19.223189000000001
#
# number of rings (size 3 to 8) (size 9 to 14) (size 15 to 20)
#    0.000    2.857    2.857    1.714    0.000    1.714 
#    0.000    0.000    0.000    0.857    0.000    5.000 
#    0.000    0.000    0.000    0.000    0.000    0.143 
#
# Total GULP energy -156200.333999 kJ/mol
# GULP energy per Si atom -5578.583357 kJ/mol
# Density = 1.917944 g / cm^3
# Si number density = 19.223189 Si / 1000 Ang^3
#
#
#
# Elastic Constant Matrix: (Units=GPa)
#
#
# Indices 1 2 3 4 5 6 
#
# 1 135.6498 -2.7196 106.6645 -0.0069 -17.7805 0.0018
# 2 -2.7196 57.8790 0.4994 -0.0116 -2.8443 0.0226
# 3 106.6645 0.4994 219.0907 -0.0064 -8.0967 0.0202
# 4 -0.0069 -0.0116 -0.0064 -5.4902 0.0008 6.5651
# 5 -17.7805 -2.8443 -8.0967 0.0008 28.3177 -0.0057
# 6 0.0018 0.0226 0.0202 6.5651 -0.0057 6.6408
#
#
#
# Elastic Compliance Matrix: (Units=1/GPa)
#
#
# Indices 1 2 3 4 5 6 
#
# 1 0.013062 0.000989 -0.006120 0.000005 0.006551 0.000013
# 2 0.000989 0.017438 -0.000438 -0.000048 0.002247 -0.000009
# 3 -0.006120 -0.000438 0.007480 -0.000012 -0.001748 -0.000010
# 4 0.000005 -0.000048 -0.000012 -0.083469 0.000014 0.082518
# 5 0.006551 0.002247 -0.001748 0.000014 0.039153 0.000016
# 6 0.000013 -0.000009 -0.000010 0.082518 0.000016 0.069007
#
#
# Mechanical properties :
#
#
# Convention : Reuss Voigt Hill
#
# Bulk Modulus (GPa) = 37.25441 69.05647 53.15544
# Shear Modulus (GPa) = 60.41719 26.43866 43.42793
#
# Velocity S-wave (km/s) = 5.61227 3.71260 4.75820
# Velocity P-wave (km/s) = 7.83701 7.37424 7.60914
#
# Compressibility (1/GPa) = 0.02684246
#
# Stress axis : x y z
#
# Youngs Moduli (GPa) = 76.55520 57.34583 133.68852
#
# Poissons Ratio (x) = -0.05669 0.81812
# Poissons Ratio (y) = -0.07568 0.05855
# Poissons Ratio (z) = 0.46849 0.02512
#
# Static dielectric constant tensor:
#      x y z
#    x 1.635940 -0.000010 -0.007340 
#    y -0.000010 1.760010 0.000010 
#    z -0.007340 0.000010 1.668250 
# 
# From -- ./inp_files/239350.got.cif
#   From: 2010.05.17/outbox.cif.g08.bks.cpg/sg12_120_cif.got.tgz:239350.got - 2010.06.03 13:09:07.
