data_PCOD9169730
_publ_section_title
;
Structure prediction by ZEFSAII (Michael W. Deem and Ramdas Pophale) SiO2 
 PCOD9169730
Probable space group: C 2/M
;
_chemical_formula_sum "Si O2"
_cell_formula_units_Z 48
_cell_length_a 18.611184
_cell_length_b 32.328463
_cell_length_c 10.271271
_cell_angle_alpha 90.000000
_cell_angle_beta 154.955856
_cell_angle_gamma 90.000000
_cell_volume 2616.063918
_symmetry_space_group_name_H-M "C 2/M"
_symmetry_group_IT_number 12
_symmetry_cell_setting 'monoclinic'
loop_
_space_group_symop_operation_xyz
x,y,z
-x,y,-z
-x,-y,-z
x,-y,z
1/2+x,1/2+y,z
1/2-x,1/2+y,-z
1/2-x,1/2-y,-z
1/2+x,1/2-y,z
loop_
_atom_site_type_symbol
_atom_site_label
_atom_site_fract_x
_atom_site_fract_y
_atom_site_fract_z
Si Si1 0.484730 0.707727 0.632670
Si Si2 0.987948 0.377202 0.635988
Si Si3 0.647939 0.792273 0.632669
Si Si4 0.596226 0.453174 0.364367
Si Si5 0.648040 0.377202 0.635987
Si Si6 0.731858 0.046826 0.635632
O O1 0.500000 0.706909 0.500000
O O2 0.385062 0.750000 0.500001
O O3 0.395128 0.664304 0.516410
O O4 0.670541 0.709269 0.000001
O O5 0.000000 0.382580 0.500000
O O6 0.878718 0.335696 0.483591
O O7 0.900787 0.417611 0.551615
O O8 0.174834 0.371037 0.000000
O O9 0.500000 0.793091 0.500000
O O10 0.618057 0.500000 0.451629
O O11 0.650828 0.417611 0.551614
O O12 0.700995 0.450337 0.401991
O O13 0.398611 0.447933 1.000000
O O14 0.500000 0.382580 0.500000
O O15 0.666428 0.000000 0.548370
#
# Coordination Sequence:
#
# PCOD9169730 Si02
#       6
#     8   8   8   8   8   8
#     4  10  17  28  46  70 101 134 169 207 251 301
#     4  11  21  33  51  77 107 137 172 213 256 300
#     4  10  17  28  46  70 101 134 169 207 251 301
#     4   9  19  37  58  77 100 133 171 210 256 310
#     4  11  21  33  51  77 107 137 172 213 256 300
#     4   9  19  37  58  77 100 133 171 210 256 310
#
# _framework density 18.348175000000001
#
# number of rings (size 3 to 8) (size 9 to 14) (size 15 to 20)
#    0.000    2.000    0.000   10.000    0.000    2.000 
#    0.000    1.667    0.000    1.000    0.000    0.000 
#    0.000    0.000    0.000    0.000    0.000    0.000 
#
# Total GULP energy -133908.980660 kJ/mol
# GULP energy per Si atom -5579.540861 kJ/mol
# Density = 1.830641 g / cm^3
# Si number density = 18.348175 Si / 1000 Ang^3
#
#
#
# Elastic Constant Matrix: (Units=GPa)
#
#
# Indices 1 2 3 4 5 6 
#
# 1 12.1134 29.7545 24.3679 0.0000 -3.9218 0.0000
# 2 29.7545 163.2157 83.6249 0.0000 -4.6761 0.0000
# 3 24.3679 83.6249 166.8011 0.0000 -9.5050 0.0002
# 4 0.0000 0.0000 0.0000 43.5227 0.0000 -8.0251
# 5 -3.9218 -4.6761 -9.5050 0.0000 16.9483 0.0000
# 6 0.0000 0.0000 0.0002 -8.0251 0.0000 -48.9335
#
#
#
# Elastic Compliance Matrix: (Units=1/GPa)
#
#
# Indices 1 2 3 4 5 6 
#
# 1 0.177854 -0.025737 -0.011507 0.000000 0.027601 0.000000
# 2 -0.025737 0.011969 -0.002471 0.000000 -0.004039 0.000000
# 3 -0.011507 -0.002471 0.009012 0.000000 0.001710 0.000000
# 4 0.000000 0.000000 0.000000 0.022302 0.000000 -0.003658
# 5 0.027601 -0.004039 0.001710 0.000000 0.065234 0.000000
# 6 0.000000 0.000000 0.000000 -0.003658 0.000000 -0.019836
#
#
# Mechanical properties :
#
#
# Convention : Reuss Voigt Hill
#
# Bulk Modulus (GPa) = 8.37473 68.62497 38.49985
# Shear Modulus (GPa) = 12.96118 15.93303 14.44710
#
# Velocity S-wave (km/s) = 2.66070 2.95001 2.80908
# Velocity P-wave (km/s) = 3.74344 7.00615 5.61692
#
# Compressibility (1/GPa) = 0.11940684
#
# Stress axis : x y z
#
# Youngs Moduli (GPa) = 5.62257 83.54942 110.95827
#
# Poissons Ratio (x) = 2.15029 1.27679
# Poissons Ratio (y) = 0.14471 0.27416
# Poissons Ratio (z) = 0.06470 0.20644
#
# Static dielectric constant tensor:
#      x y z
#    x 1.609670 0.000000 -0.000360 
#    y 0.000000 1.690060 0.000000 
#    z -0.000360 0.000000 1.613770 
# 
# From -- ./inp_files/170835.got.cif
#   From: 2010.05.17/outbox.cif.g08.bks.cpg/sg12_86_cif.got.tgz:170835.got - 2010.06.03 13:09:07.
