data_PCOD9169102
_publ_section_title
;
Structure prediction by ZEFSAII (Michael W. Deem and Ramdas Pophale) SiO2 
 PCOD9169102
Probable space group: C 2/M
;
_chemical_formula_sum "Si O2"
_cell_formula_units_Z 34
_cell_length_a 15.653001
_cell_length_b 9.027742
_cell_length_c 26.115519
_cell_angle_alpha 90.000000
_cell_angle_beta 23.953255
_cell_angle_gamma 90.000000
_cell_volume 1498.276682
_symmetry_space_group_name_H-M "C 2/M"
_symmetry_group_IT_number 12
_symmetry_cell_setting 'monoclinic'
loop_
_space_group_symop_operation_xyz
x,y,z
-x,y,-z
-x,-y,-z
x,-y,z
1/2+x,1/2+y,z
1/2-x,1/2+y,-z
1/2-x,1/2-y,-z
1/2+x,1/2-y,z
loop_
_atom_site_type_symbol
_atom_site_label
_atom_site_fract_x
_atom_site_fract_y
_atom_site_fract_z
Si Si1 0.000000 0.247639 0.500000
Si Si2 0.660488 0.000000 0.694011
Si Si3 0.523086 0.000000 0.104735
Si Si4 0.209314 0.250308 0.826404
Si Si5 0.000000 0.000000 0.000000
Si Si6 0.547888 0.000000 0.636375
Si Si7 0.829286 0.000000 0.842601
Si Si8 0.790461 0.500000 0.554112
O O1 0.191172 0.142004 0.379335
O O2 0.079389 0.355791 0.501001
O O3 0.465578 0.000000 0.840002
O O4 0.596173 0.000000 0.669997
O O5 0.384445 0.857583 0.164804
O O6 0.722296 0.000000 0.957071
O O7 0.259996 0.357691 0.846953
O O8 0.040475 0.129217 0.935164
O O9 0.411088 0.149038 0.702866
O O10 0.737705 0.000000 0.491755
O O11 0.080243 0.000000 0.702718
#
# Coordination Sequence:
#
# PCOD9169102 Si02
#       8
#     4   4   4   8   2   4   4   4
#     4  10  24  46  66  94 128 180 214 280 318 394
#     4  11  24  42  67  97 136 165 227 261 333 382
#     4  11  21  41  67  98 130 183 203 264 325 403
#     4  10  20  37  65  93 130 166 220 261 323 379
#     4  10  16  34  60  92 126 156 210 266 306 390
#     4  11  24  40  67 103 126 173 214 286 310 383
#     4  11  21  38  66  99 129 173 213 271 314 398
#     4  11  24  44  69  94 134 167 228 264 336 371
#
# _framework density 22.692737999999999
#
# number of rings (size 3 to 8) (size 9 to 14) (size 15 to 20)
#    0.000    1.412    2.353    3.529    0.000    7.529 
#    0.000    4.706   10.353    0.000    0.000    0.000 
#    0.000    0.000    0.000    0.000    0.000    0.000 
#
# Total GULP energy -94718.668417 kJ/mol
# GULP energy per Si atom -5571.686377 kJ/mol
# Density = 2.264109 g / cm^3
# Si number density = 22.692738 Si / 1000 Ang^3
#
#
#
# Elastic Constant Matrix: (Units=GPa)
#
#
# Indices 1 2 3 4 5 6 
#
# 1 83.4500 26.3838 68.8595 -0.0017 27.9398 -0.0001
# 2 26.3838 172.8757 37.3271 -0.0004 3.4543 -0.0002
# 3 68.8595 37.3271 141.0777 -0.0119 37.1885 0.0013
# 4 -0.0017 -0.0004 -0.0119 5.1288 0.0011 -20.7986
# 5 27.9398 3.4543 37.1885 0.0011 37.1968 0.0018
# 6 -0.0001 -0.0002 0.0013 -20.7986 0.0018 11.4333
#
#
#
# Elastic Compliance Matrix: (Units=1/GPa)
#
#
# Indices 1 2 3 4 5 6 
#
# 1 0.021898 -0.001416 -0.008164 0.000000 -0.008155 0.000003
# 2 -0.001416 0.006283 -0.001491 0.000001 0.001971 0.000001
# 3 -0.008164 -0.001491 0.013327 -0.000004 -0.007053 -0.000008
# 4 0.000000 0.000001 -0.000004 -0.030575 0.000008 -0.055620
# 5 -0.008155 0.001971 -0.007053 0.000008 0.039878 0.000009
# 6 0.000003 0.000001 -0.000008 -0.055620 0.000009 -0.013715
#
#
# Mechanical properties :
#
#
# Convention : Reuss Voigt Hill
#
# Bulk Modulus (GPa) = 51.63707 73.61603 62.62655
# Shear Modulus (GPa) = 76.11294 28.40730 52.26012
#
# Velocity S-wave (km/s) = 5.79771 3.54195 4.80411
# Velocity P-wave (km/s) = 8.22327 7.01698 7.64396
#
# Compressibility (1/GPa) = 0.01936593
#
# Stress axis : x y z
#
# Youngs Moduli (GPa) = 45.66687 159.15646 75.03753
#
# Poissons Ratio (x) = 0.22541 0.61260
# Poissons Ratio (y) = 0.06468 0.11185
# Poissons Ratio (z) = 0.37282 0.23724
#
# Static dielectric constant tensor:
#      x y z
#    x 1.861240 0.000000 -0.009990 
#    y 0.000000 1.779620 0.000000 
#    z -0.009990 0.000000 1.900610 
# 
# From -- ./inp_files/338426.got.cif
#   From: 2010.05.17/outbox.cif.g08.bks.cpg/sg12_170_cif.got.tgz:338426.got - 2010.06.03 13:09:07.
