data_PCOD9169663
_publ_section_title
;
Structure prediction by ZEFSAII (Michael W. Deem and Ramdas Pophale) SiO2 
 PCOD9169663
Probable space group: C 2/M
;
_chemical_formula_sum "Si O2"
_cell_formula_units_Z 56
_cell_length_a 29.448122
_cell_length_b 8.750001
_cell_length_c 29.810078
_cell_angle_alpha 90.000000
_cell_angle_beta 151.094309
_cell_angle_gamma 90.000000
_cell_volume 3712.854382
_symmetry_space_group_name_H-M "C 2/M"
_symmetry_group_IT_number 12
_symmetry_cell_setting 'monoclinic'
loop_
_space_group_symop_operation_xyz
x,y,z
-x,y,-z
-x,-y,-z
x,-y,z
1/2+x,1/2+y,z
1/2-x,1/2+y,-z
1/2-x,1/2-y,-z
1/2+x,1/2-y,z
loop_
_atom_site_type_symbol
_atom_site_label
_atom_site_fract_x
_atom_site_fract_y
_atom_site_fract_z
Si Si1 0.128527 0.819054 0.701188
Si Si2 0.539330 0.814740 0.775068
Si Si3 0.346190 0.815428 0.564378
Si Si4 0.329682 0.816308 0.035726
Si Si5 0.614027 0.823281 0.595519
Si Si6 0.419432 0.185066 0.530526
Si Si7 0.287361 0.816831 0.139866
O O1 0.150883 0.771691 0.669363
O O2 0.197371 0.745110 0.797183
O O3 0.023842 0.754700 0.620814
O O4 0.128268 0.000000 0.705584
O O5 0.437254 0.761561 0.671400
O O6 0.574603 0.772784 0.855436
O O7 0.619988 0.768220 0.809054
O O8 0.538038 0.000000 0.772252
O O9 0.250000 0.750000 0.500000
O O10 0.365837 0.773504 0.529543
O O11 0.343178 0.000000 0.563944
O O12 0.323398 0.000000 0.028906
O O13 0.250000 0.750000 0.000000
O O14 0.302746 0.748300 0.964374
O O15 0.500000 0.819831 0.500000
O O16 0.632358 0.769927 0.560526
O O17 0.642923 0.000000 0.625550
O O18 0.430354 0.000000 0.538689
O O19 0.284429 0.000000 0.137120
#
# Coordination Sequence:
#
# PCOD9169663 Si02
#       7
#     8   8   8   8   8   8   8
#     4  11  19  25  39  64  89 111 139 178 214 254
#     4   8  15  28  44  56  79 113 142 174 216 252
#     4  10  19  32  46  63  84 113 150 186 217 249
#     4   9  16  26  40  61  82 109 143 176 212 256
#     4   8  15  27  42  58  77 111 147 171 205 259
#     4   9  17  31  46  56  79 116 149 177 213 259
#     4  10  17  28  43  59  83 117 145 173 209 257
#
# _framework density 15.082734
#
# number of rings (size 3 to 8) (size 9 to 14) (size 15 to 20)
#    0.000    2.714    1.429    3.857    0.000    3.143 
#    0.000    1.429    0.000    0.000    0.000    0.000 
#    0.000    1.143    0.000   13.143    0.000    4.000 
#
# Total GULP energy -155881.544678 kJ/mol
# GULP energy per Si atom -5567.198024 kJ/mol
# Density = 1.504841 g / cm^3
# Si number density = 15.082734 Si / 1000 Ang^3
#
#
#
# Elastic Constant Matrix: (Units=GPa)
#
#
# Indices 1 2 3 4 5 6 
#
# 1 78.5268 28.1772 64.0368 0.0000 -23.9406 0.0000
# 2 28.1772 42.3058 31.2355 0.0000 -16.7053 0.0001
# 3 64.0368 31.2355 107.9070 0.0000 -32.3696 0.0000
# 4 0.0000 0.0000 0.0000 21.9835 0.0000 -4.3726
# 5 -23.9406 -16.7053 -32.3696 0.0000 29.6754 0.0000
# 6 0.0000 0.0001 0.0000 -4.3726 0.0000 17.4633
#
#
#
# Elastic Compliance Matrix: (Units=1/GPa)
#
#
# Indices 1 2 3 4 5 6 
#
# 1 0.026766 -0.006919 -0.012741 0.000000 0.003800 0.000000
# 2 -0.006919 0.034502 -0.002570 0.000000 0.011037 0.000000
# 3 -0.012741 -0.002570 0.020891 0.000000 0.011061 0.000000
# 4 0.000000 0.000000 0.000000 0.047873 0.000000 0.011987
# 5 0.003800 0.011037 0.011061 0.000000 0.055043 0.000000
# 6 0.000000 0.000000 0.000000 0.011987 0.000000 0.060264
#
#
# Mechanical properties :
#
#
# Convention : Reuss Voigt Hill
#
# Bulk Modulus (GPa) = 26.52738 52.84873 39.68805
# Shear Modulus (GPa) = 16.53630 20.84378 18.69004
#
# Velocity S-wave (km/s) = 3.31474 3.72151 3.52400
# Velocity P-wave (km/s) = 5.68121 7.31994 6.55201
#
# Compressibility (1/GPa) = 0.03769690
#
# Stress axis : x y z
#
# Youngs Moduli (GPa) = 37.36060 28.98424 47.86838
#
# Poissons Ratio (x) = 0.20055 0.60990
# Poissons Ratio (y) = 0.25851 0.12303
# Poissons Ratio (z) = 0.47602 0.07449
#
# Static dielectric constant tensor:
#      x y z
#    x 1.499080 0.000000 -0.046300 
#    y 0.000000 1.507900 0.000000 
#    z -0.046300 0.000000 1.519740 
# 
# From -- ./inp_files/247719.got.cif
#   From: 2010.05.17/outbox.cif.g08.bks.cpg/sg12_124_cif.got.tgz:247719.got - 2010.06.03 13:09:07.
