data_PCOD9169717
_publ_section_title
;
Structure prediction by ZEFSAII (Michael W. Deem and Ramdas Pophale) SiO2 
 PCOD9169717
Probable space group: C 2/M
;
_chemical_formula_sum "Si O2"
_cell_formula_units_Z 64
_cell_length_a 29.919167
_cell_length_b 7.401872
_cell_length_c 14.838353
_cell_angle_alpha 90.000000
_cell_angle_beta 72.263504
_cell_angle_gamma 90.000000
_cell_volume 3129.874980
_symmetry_space_group_name_H-M "C 2/M"
_symmetry_group_IT_number 12
_symmetry_cell_setting 'monoclinic'
loop_
_space_group_symop_operation_xyz
x,y,z
-x,y,-z
-x,-y,-z
x,-y,z
1/2+x,1/2+y,z
1/2-x,1/2+y,-z
1/2-x,1/2-y,-z
1/2+x,1/2-y,z
loop_
_atom_site_type_symbol
_atom_site_label
_atom_site_fract_x
_atom_site_fract_y
_atom_site_fract_z
Si Si1 0.311329 0.783119 0.377398
Si Si2 0.051771 0.720490 0.002843
Si Si3 0.466930 0.217429 0.313451
Si Si4 0.202536 0.715561 0.413733
Si Si5 0.069066 0.721346 0.197228
Si Si6 0.103469 0.720037 0.797197
Si Si7 0.636550 0.796484 0.303088
Si Si8 0.552505 0.291265 0.479819
O O1 0.258244 0.744427 0.379733
O O2 0.315936 0.715277 0.477848
O O3 0.349690 0.717145 0.282383
O O4 0.316563 0.000000 0.378908
O O5 0.050605 0.500000 0.005150
O O6 0.090462 0.777660 0.905778
O O7 0.064054 0.777345 0.096608
O O8 0.000000 0.776191 0.000000
O O9 0.520865 0.277608 0.276405
O O10 0.439957 0.271580 0.240109
O O11 0.439747 0.281275 0.418212
O O12 0.466927 0.000000 0.316140
O O13 0.193767 0.500000 0.418823
O O14 0.176601 0.789493 0.341112
O O15 0.069864 0.500000 0.198724
O O16 0.114233 0.784138 0.225935
O O17 0.105144 0.500000 0.798083
O O18 0.592018 0.804021 0.398070
O O19 0.652065 0.000000 0.270322
O O20 0.500000 0.215740 0.500000
O O21 0.552310 0.500000 0.451599
#
# Coordination Sequence:
#
# PCOD9169717 Si02
#       8
#     8   8   8   8   8   8   8   8
#     4   9  17  30  47  69  93 119 152 190 237 286
#     4   9  14  23  40  69 102 124 149 192 238 274
#     4  10  17  28  46  67  92 124 159 190 224 271
#     4   9  18  32  49  68  91 118 153 197 237 276
#     4   9  16  25  42  68  94 122 154 188 229 273
#     4   9  16  26  45  71  99 124 150 194 242 277
#     4  10  19  32  49  68  91 123 161 195 231 276
#     4  11  22  31  40  62  96 129 157 186 224 274
#
# _framework density 20.448101000000001
#
# number of rings (size 3 to 8) (size 9 to 14) (size 15 to 20)
#    0.000    2.500    2.500    1.125    0.000    3.000 
#    0.000    3.125    0.000    0.750    0.000    4.375 
#    0.000    0.000    0.000    0.000    0.000    0.000 
#
# Total GULP energy -178594.471748 kJ/mol
# GULP energy per Si atom -5581.077242 kJ/mol
# Density = 2.040156 g / cm^3
# Si number density = 20.448101 Si / 1000 Ang^3
#
#
#
# Elastic Constant Matrix: (Units=GPa)
#
#
# Indices 1 2 3 4 5 6 
#
# 1 113.4241 2.4682 66.9247 0.0000 18.2595 0.0000
# 2 2.4682 71.6296 1.8000 0.0000 2.1414 0.0000
# 3 66.9247 1.8000 147.3817 0.0000 22.2928 0.0000
# 4 0.0000 0.0000 0.0000 -21.5198 0.0000 -5.7397
# 5 18.2595 2.1414 22.2928 0.0000 36.1071 0.0000
# 6 0.0000 0.0000 0.0000 -5.7397 0.0000 10.6576
#
#
#
# Elastic Compliance Matrix: (Units=1/GPa)
#
#
# Indices 1 2 3 4 5 6 
#
# 1 0.012347 -0.000205 -0.005142 0.000000 -0.003057 0.000000
# 2 -0.000205 0.013989 0.000035 0.000000 -0.000748 0.000000
# 3 -0.005142 0.000035 0.009625 0.000000 -0.003345 0.000000
# 4 0.000000 0.000000 0.000000 -0.040632 0.000000 -0.021883
# 5 -0.003057 -0.000748 -0.003345 0.000000 0.031351 0.000000
# 6 0.000000 0.000000 0.000000 -0.021883 0.000000 0.082044
#
#
# Mechanical properties :
#
#
# Convention : Reuss Voigt Hill
#
# Bulk Modulus (GPa) = 39.46482 52.75791 46.11136
# Shear Modulus (GPa) = 39.12573 22.46516 30.79545
#
# Velocity S-wave (km/s) = 4.37901 3.31817 3.88497
# Velocity P-wave (km/s) = 6.70145 6.36689 6.53631
#
# Compressibility (1/GPa) = 0.02533902
#
# Stress axis : x y z
#
# Youngs Moduli (GPa) = 80.99216 71.48352 103.89210
#
# Poissons Ratio (x) = 0.01464 0.53418
# Poissons Ratio (y) = 0.01659 -0.00367
# Poissons Ratio (z) = 0.41643 -0.00252
#
# Static dielectric constant tensor:
#      x y z
#    x 1.724790 0.000000 0.036580 
#    y 0.000000 1.789160 0.000000 
#    z 0.036580 0.000000 1.727630 
# 
# From -- ./inp_files/248238.got.cif
#   From: 2010.05.17/outbox.cif.g08.bks.cpg/sg12_125_cif.got.tgz:248238.got - 2010.06.03 13:09:07.
