data_PCOD9169823
_publ_section_title
;
Structure prediction by ZEFSAII (Michael W. Deem and Ramdas Pophale) SiO2 
 PCOD9169823
Probable space group: C 2/M
;
_chemical_formula_sum "Si O2"
_cell_formula_units_Z 40
_cell_length_a 9.091426
_cell_length_b 28.452998
_cell_length_c 7.996715
_cell_angle_alpha 90.000000
_cell_angle_beta 106.103906
_cell_angle_gamma 90.000000
_cell_volume 1987.406403
_symmetry_space_group_name_H-M "C 2/M"
_symmetry_group_IT_number 12
_symmetry_cell_setting 'monoclinic'
loop_
_space_group_symop_operation_xyz
x,y,z
-x,y,-z
-x,-y,-z
x,-y,z
1/2+x,1/2+y,z
1/2-x,1/2+y,-z
1/2-x,1/2-y,-z
1/2+x,1/2-y,z
loop_
_atom_site_type_symbol
_atom_site_label
_atom_site_fract_x
_atom_site_fract_y
_atom_site_fract_z
Si Si1 0.716752 0.641255 0.434093
Si Si2 0.288100 0.799281 0.785674
Si Si3 0.909979 0.290984 0.301403
Si Si4 0.675323 0.552808 0.620985
Si Si5 0.409553 0.375300 0.141545
O O1 0.730802 0.676957 0.593184
O O2 0.830942 0.660343 0.329690
O O3 0.753662 0.589828 0.519563
O O4 0.545671 0.641091 0.308910
O O5 0.215262 0.748124 0.778448
O O6 0.468058 0.795750 0.807636
O O7 0.217327 0.834227 0.901454
O O8 0.000000 0.275408 0.500000
O O9 0.500000 0.549896 0.500000
O O10 0.737323 0.500000 0.645910
O O11 0.665378 0.578863 0.796815
O O12 0.500000 0.384623 0.000000
#
# Coordination Sequence:
#
# PCOD9169823 Si02
#       5
#     8   8   8   8   8
#     4   9  17  30  48  69  94 120 152 194 234 274
#     4  10  18  30  48  69  93 122 159 195 231 273
#     4  10  17  28  50  72  91 120 160 196 232 274
#     4   8  15  29  50  73  93 116 151 196 238 275
#     4  10  19  31  46  67  97 128 158 190 227 273
#
# _framework density 20.126735
#
# number of rings (size 3 to 8) (size 9 to 14) (size 15 to 20)
#    0.000    2.600    0.000    6.600    0.000    0.400 
#    0.000    5.000    0.000   15.000    0.000    0.000 
#    0.000   32.000    0.000    0.000    0.000    0.000 
#
# Total GULP energy -111607.736300 kJ/mol
# GULP energy per Si atom -5580.386815 kJ/mol
# Density = 2.008093 g / cm^3
# Si number density = 20.126735 Si / 1000 Ang^3
#
#
#
# Elastic Constant Matrix: (Units=GPa)
#
#
# Indices 1 2 3 4 5 6 
#
# 1 108.5610 74.4588 24.7004 0.0000 -35.8852 0.0000
# 2 74.4588 177.6734 38.6149 0.0000 -39.1507 0.0000
# 3 24.7004 38.6149 80.1347 0.0000 -25.9677 0.0000
# 4 0.0000 0.0000 0.0000 4.6755 0.0000 0.0011
# 5 -35.8852 -39.1507 -25.9677 0.0000 24.4572 0.0000
# 6 0.0000 0.0000 0.0000 0.0011 0.0000 21.0283
#
#
#
# Elastic Compliance Matrix: (Units=1/GPa)
#
#
# Indices 1 2 3 4 5 6 
#
# 1 0.019925 -0.002821 0.004921 0.000000 0.029944 0.000000
# 2 -0.002821 0.009108 -0.000208 0.000000 0.010219 0.000000
# 3 0.004921 -0.000208 0.020268 0.000000 0.028408 0.000000
# 4 0.000000 0.000000 0.000000 0.213883 0.000000 -0.000011
# 5 0.029944 0.010219 0.028408 0.000000 0.131345 0.000000
# 6 0.000000 0.000000 0.000000 -0.000011 0.000000 0.047555
#
#
# Mechanical properties :
#
#
# Convention : Reuss Voigt Hill
#
# Bulk Modulus (GPa) = 18.83768 71.32415 45.08092
# Shear Modulus (GPa) = 10.96507 25.27185 18.11846
#
# Velocity S-wave (km/s) = 2.33663 3.54734 3.00362
# Velocity P-wave (km/s) = 4.08162 7.23136 5.87164
#
# Compressibility (1/GPa) = 0.05308510
#
# Stress axis : x y z
#
# Youngs Moduli (GPa) = 50.18838 109.79808 49.33940
#
# Poissons Ratio (x) = 0.30979 -0.24282
# Poissons Ratio (y) = 0.14160 0.01024
# Poissons Ratio (z) = -0.24700 0.02279
#
# Static dielectric constant tensor:
#      x y z
#    x 1.739040 0.000000 -0.000190 
#    y 0.000000 1.699290 0.000000 
#    z -0.000190 0.000000 1.788720 
# 
# From -- ./inp_files/40334.got.cif
#   From: 2010.05.17/outbox.cif.g08.bks.cpg/sg12_21_cif.got.tgz:40334.got - 2010.06.03 13:09:07.
