data_PCOD9169215
_publ_section_title
;
Structure prediction by ZEFSAII (Michael W. Deem and Ramdas Pophale) SiO2 
 PCOD9169215
Probable space group: C 2/M
;
_chemical_formula_sum "Si O2"
_cell_formula_units_Z 64
_cell_length_a 29.098888
_cell_length_b 9.115483
_cell_length_c 23.792231
_cell_angle_alpha 90.000000
_cell_angle_beta 44.683323
_cell_angle_gamma 90.000000
_cell_volume 4437.747236
_symmetry_space_group_name_H-M "C 2/M"
_symmetry_group_IT_number 12
_symmetry_cell_setting 'monoclinic'
loop_
_space_group_symop_operation_xyz
x,y,z
-x,y,-z
-x,-y,-z
x,-y,z
1/2+x,1/2+y,z
1/2-x,1/2+y,-z
1/2-x,1/2-y,-z
1/2+x,1/2-y,z
loop_
_atom_site_type_symbol
_atom_site_label
_atom_site_fract_x
_atom_site_fract_y
_atom_site_fract_z
Si Si1 0.102313 0.675579 0.675296
Si Si2 0.342350 0.169261 0.959939
Si Si3 0.778602 0.331189 0.889979
Si Si4 0.733259 0.676111 0.574366
Si Si5 0.990299 0.176946 0.444099
Si Si6 0.875645 0.674032 0.476862
Si Si7 0.097704 0.825477 0.260533
Si Si8 0.965836 0.825663 0.807079
O O1 0.104583 0.500000 0.679968
O O2 0.164608 0.751789 0.650545
O O3 0.108452 0.707318 0.602667
O O4 0.034228 0.743142 0.754693
O O5 0.309690 0.171300 0.925949
O O6 0.408961 0.260106 0.895747
O O7 0.354617 0.000000 0.963742
O O8 0.288825 0.242616 0.046871
O O9 0.767164 0.500000 0.884936
O O10 0.833662 0.257455 0.803570
O O11 0.727083 0.500000 0.573665
O O12 0.750000 0.750000 0.500000
O O13 0.798712 0.705682 0.553321
O O14 0.051247 0.222079 0.351833
O O15 0.000000 0.222875 0.500000
O O16 0.924672 0.239912 0.473889
O O17 0.987319 0.000000 0.444820
O O18 0.885399 0.500000 0.475473
O O19 0.058773 0.800908 0.235842
O O20 0.109645 0.000000 0.254132
O O21 0.972778 0.000000 0.808892
#
# Coordination Sequence:
#
# PCOD9169215 Si02
#       8
#     8   8   8   8   8   8   8   8
#     4  10  18  27  40  60  82 107 137 169 203 245
#     4   9  16  25  36  53  77 103 130 165 199 236
#     4   9  16  25  38  54  72  98 132 167 199 240
#     4   9  17  28  41  59  79 102 132 167 204 246
#     4  10  20  32  45  61  80 105 140 179 216 251
#     4   9  18  30  43  58  78 103 134 171 210 249
#     4   9  17  28  40  55  74 102 135 170 210 246
#     4  10  17  25  39  57  79 109 138 168 202 240
#
# _framework density 14.421732
#
# number of rings (size 3 to 8) (size 9 to 14) (size 15 to 20)
#    0.000    2.625    1.250    2.625    0.000    6.750 
#    0.000    0.000    0.000    0.000    0.000    0.000 
#    0.000    0.000    0.000    1.125    0.000   21.750 
#
# Total GULP energy -178227.589038 kJ/mol
# GULP energy per Si atom -5569.612157 kJ/mol
# Density = 1.438891 g / cm^3
# Si number density = 14.421732 Si / 1000 Ang^3
#
#
#
# Elastic Constant Matrix: (Units=GPa)
#
#
# Indices 1 2 3 4 5 6 
#
# 1 54.4959 37.2742 53.9825 0.0010 -18.2190 0.0001
# 2 37.2742 67.2845 56.8872 -0.0023 -19.5861 0.0047
# 3 53.9825 56.8872 107.0330 0.0012 -33.2260 -0.0003
# 4 0.0010 -0.0023 0.0012 24.3271 -0.0006 -10.3022
# 5 -18.2190 -19.5861 -33.2260 -0.0006 24.1961 0.0002
# 6 0.0001 0.0047 -0.0003 -10.3022 0.0002 18.4089
#
#
#
# Elastic Compliance Matrix: (Units=1/GPa)
#
#
# Indices 1 2 3 4 5 6 
#
# 1 0.039672 -0.009039 -0.014298 -0.000001 0.002922 0.000001
# 2 -0.009039 0.029246 -0.010021 0.000001 0.003108 -0.000007
# 3 -0.014298 -0.010021 0.027923 0.000000 0.019466 0.000003
# 4 -0.000001 0.000001 0.000000 0.053874 0.000001 0.030150
# 5 0.002922 0.003108 0.019466 0.000001 0.072775 -0.000001
# 6 0.000001 -0.000007 0.000003 0.030150 -0.000001 0.071194
#
#
# Mechanical properties :
#
#
# Convention : Reuss Voigt Hill
#
# Bulk Modulus (GPa) = 33.19290 58.34458 45.76874
# Shear Modulus (GPa) = 13.46101 18.76440 16.11271
#
# Velocity S-wave (km/s) = 3.05845 3.61102 3.34616
# Velocity P-wave (km/s) = 5.96138 7.61116 6.83622
#
# Compressibility (1/GPa) = 0.03012692
#
# Stress axis : x y z
#
# Youngs Moduli (GPa) = 25.20650 34.19213 35.81288
#
# Poissons Ratio (x) = 0.30905 0.51205
# Poissons Ratio (y) = 0.22783 0.35887
# Poissons Ratio (z) = 0.36040 0.34263
#
# Static dielectric constant tensor:
#      x y z
#    x 1.453270 0.000000 -0.023840 
#    y 0.000000 1.478840 0.000000 
#    z -0.023840 0.000000 1.478700 
# 
# From -- ./inp_files/348517.got.cif
#   From: 2010.05.17/outbox.cif.g08.bks.cpg/sg12_175_cif.got.tgz:348517.got - 2010.06.03 13:09:07.
