data_PCOD9169924
_publ_section_title
;
Structure prediction by ZEFSAII (Michael W. Deem and Ramdas Pophale) SiO2 
 PCOD9169924
Probable space group: C 2/M
;
_chemical_formula_sum "Si O2"
_cell_formula_units_Z 56
_cell_length_a 8.274939
_cell_length_b 29.696975
_cell_length_c 17.286005
_cell_angle_alpha 90.000000
_cell_angle_beta 47.071668
_cell_angle_gamma 90.000000
_cell_volume 3110.319848
_symmetry_space_group_name_H-M "C 2/M"
_symmetry_group_IT_number 12
_symmetry_cell_setting 'monoclinic'
loop_
_space_group_symop_operation_xyz
x,y,z
-x,y,-z
-x,-y,-z
x,-y,z
1/2+x,1/2+y,z
1/2-x,1/2+y,-z
1/2-x,1/2-y,-z
1/2+x,1/2-y,z
loop_
_atom_site_type_symbol
_atom_site_label
_atom_site_fract_x
_atom_site_fract_y
_atom_site_fract_z
Si Si1 0.443908 0.355401 0.108501
Si Si2 0.191093 0.760072 0.879257
Si Si3 0.108718 0.685500 0.802668
Si Si4 0.048644 0.612805 0.703356
Si Si5 0.702101 0.893230 0.890529
Si Si6 0.841719 0.447333 0.476773
Si Si7 0.144207 0.052475 0.296679
O O1 0.415855 0.302110 0.131153
O O2 0.211839 0.379447 0.201846
O O3 0.500000 0.361476 0.000000
O O4 0.637930 0.372356 0.098546
O O5 0.264777 0.721861 0.794696
O O6 0.387166 0.785209 0.861450
O O7 0.000000 0.742648 0.000000
O O8 0.151573 0.659380 0.707106
O O9 0.097660 0.645287 0.868838
O O10 0.097334 0.592307 0.603056
O O11 0.155946 0.574742 0.722054
O O12 0.848717 0.924785 0.788977
O O13 0.500000 0.916802 0.000000
O O14 0.858697 0.500000 0.441751
O O15 0.588350 0.440076 0.584818
O O16 0.000000 0.444915 0.500000
O O17 0.176816 0.000000 0.279250
#
# Coordination Sequence:
#
# PCOD9169924 Si02
#       7
#     8   8   8   8   8   8   8
#     4  10  20  34  52  78 110 144 179 220 264 314
#     4  10  17  29  47  73 107 139 177 218 260 306
#     4  10  20  30  49  78 105 139 177 217 263 312
#     4  10  20  34  53  80 108 138 174 221 272 314
#     4  11  20  34  53  77 111 143 176 215 264 321
#     4  10  20  36  59  84 107 134 176 226 268 309
#     4  10  21  36  56  81 106 138 177 218 264 314
#
# _framework density 18.004581000000002
#
# number of rings (size 3 to 8) (size 9 to 14) (size 15 to 20)
#    0.000    1.857    0.000    6.857    0.000    1.429 
#    0.000    0.714    0.000    3.000    0.000   90.000 
#    0.000    0.000    0.000    0.000    0.000    0.000 
#
# Total GULP energy -155955.928843 kJ/mol
# GULP energy per Si atom -5569.854602 kJ/mol
# Density = 1.796360 g / cm^3
# Si number density = 18.004581 Si / 1000 Ang^3
#
#
#
# Elastic Constant Matrix: (Units=GPa)
#
#
# Indices 1 2 3 4 5 6 
#
# 1 79.6704 40.3385 27.0312 0.0000 10.8870 0.0000
# 2 40.3385 101.4747 67.5136 0.0000 7.8393 0.0000
# 3 27.0312 67.5136 78.6633 0.0000 8.1347 0.0000
# 4 0.0000 0.0000 0.0000 25.3973 0.0000 -3.9061
# 5 10.8870 7.8393 8.1347 0.0000 23.6374 0.0000
# 6 0.0000 0.0000 0.0000 -3.9061 0.0000 6.0080
#
#
#
# Elastic Compliance Matrix: (Units=1/GPa)
#
#
# Indices 1 2 3 4 5 6 
#
# 1 0.016395 -0.006345 0.000389 0.000000 -0.005581 0.000000
# 2 -0.006345 0.025445 -0.019792 0.000000 0.001295 0.000000
# 3 0.000389 -0.019792 0.029972 0.000000 -0.003930 0.000000
# 4 0.000000 0.000000 0.000000 0.043749 0.000000 0.028443
# 5 -0.005581 0.001295 -0.003930 0.000000 0.045799 0.000000
# 6 0.000000 0.000000 0.000000 0.028443 0.000000 0.184937
#
#
# Mechanical properties :
#
#
# Convention : Reuss Voigt Hill
#
# Bulk Modulus (GPa) = 49.22306 58.84168 54.03237
# Shear Modulus (GPa) = 12.35894 19.33688 15.84791
#
# Velocity S-wave (km/s) = 2.62283 3.28075 2.97006
# Velocity P-wave (km/s) = 6.04738 6.86320 6.46817
#
# Compressibility (1/GPa) = 0.02031568
#
# Stress axis : x y z
#
# Youngs Moduli (GPa) = 60.99434 39.30039 33.36465
#
# Poissons Ratio (x) = 0.24936 -0.01298
# Poissons Ratio (y) = 0.38701 0.66035
# Poissons Ratio (z) = -0.02373 0.77783
#
# Static dielectric constant tensor:
#      x y z
#    x 1.673280 0.000000 0.023000 
#    y 0.000000 1.633520 0.000000 
#    z 0.023000 0.000000 1.628660 
# 
# From -- ./inp_files/260117.got.cif
#   From: 2010.05.17/outbox.cif.g08.bks.cpg/sg12_131_cif.got.tgz:260117.got - 2010.06.03 13:09:07.
