data_PCOD9169332
_publ_section_title
;
Structure prediction by ZEFSAII (Michael W. Deem and Ramdas Pophale) SiO2 
 PCOD9169332
Probable space group: C 2/M
;
_chemical_formula_sum "Si O2"
_cell_formula_units_Z 56
_cell_length_a 29.199621
_cell_length_b 9.036489
_cell_length_c 14.618433
_cell_angle_alpha 90.000000
_cell_angle_beta 103.210801
_cell_angle_gamma 90.000000
_cell_volume 3755.170877
_symmetry_space_group_name_H-M "C 2/M"
_symmetry_group_IT_number 12
_symmetry_cell_setting 'monoclinic'
loop_
_space_group_symop_operation_xyz
x,y,z
-x,y,-z
-x,-y,-z
x,-y,z
1/2+x,1/2+y,z
1/2-x,1/2+y,-z
1/2-x,1/2-y,-z
1/2+x,1/2-y,z
loop_
_atom_site_type_symbol
_atom_site_label
_atom_site_fract_x
_atom_site_fract_y
_atom_site_fract_z
Si Si1 0.452699 0.170571 0.540916
Si Si2 0.680392 0.177120 0.794318
Si Si3 0.766803 0.322391 0.912420
Si Si4 0.034520 0.178539 0.934415
Si Si5 0.602622 0.675971 0.639013
Si Si6 0.864995 0.676246 0.027265
Si Si7 0.009534 0.176626 0.718532
O O1 0.500000 0.174624 0.500000
O O2 0.414340 0.261492 0.466182
O O3 0.468876 0.242079 0.643454
O O4 0.438743 0.000000 0.544877
O O5 0.731799 0.251678 0.822797
O O6 0.647908 0.242313 0.700044
O O7 0.654217 0.212650 0.879247
O O8 0.684440 0.000000 0.790637
O O9 0.761025 0.500000 0.913199
O O10 0.750000 0.250000 0.000000
O O11 0.822540 0.290185 0.937283
O O12 0.086831 0.240808 0.969548
O O13 0.015030 0.224095 0.825902
O O14 0.036877 0.000000 0.935353
O O15 0.000000 0.225671 0.000000
O O16 0.609819 0.500000 0.638687
O O17 0.559100 0.704700 0.689223
O O18 0.872929 0.500000 0.029294
O O19 0.001539 0.000000 0.711043
#
# Coordination Sequence:
#
# PCOD9169332 Si02
#       7
#     8   8   8   8   8   8   8
#     4   9  17  27  40  59  82 110 141 177 214 257
#     4  10  18  27  41  63  88 115 145 177 212 258
#     4   9  17  28  41  60  83 111 144 177 214 260
#     4  10  20  32  46  64  85 113 151 189 221 254
#     4  10  17  26  42  62  85 116 145 175 212 257
#     4   9  18  30  43  59  83 113 145 181 219 256
#     4   9  17  29  42  58  81 112 146 180 217 257
#
# _framework density 14.91277
#
# number of rings (size 3 to 8) (size 9 to 14) (size 15 to 20)
#    0.000    2.571    1.429    2.571    0.000    6.000 
#    0.000    0.000    0.000    0.000    0.000    0.000 
#    0.000    1.143    0.000    3.429    0.000    5.286 
#
# Total GULP energy -155974.933134 kJ/mol
# GULP energy per Si atom -5570.533326 kJ/mol
# Density = 1.487883 g / cm^3
# Si number density = 14.912770 Si / 1000 Ang^3
#
#
#
# Elastic Constant Matrix: (Units=GPa)
#
#
# Indices 1 2 3 4 5 6 
#
# 1 68.8546 37.8980 61.4630 0.0000 20.7631 0.0000
# 2 37.8980 51.4045 50.8068 0.0000 18.5062 0.0000
# 3 61.4630 50.8068 108.8525 0.0000 31.6992 0.0000
# 4 0.0000 0.0000 0.0000 23.6137 0.0000 10.6773
# 5 20.7631 18.5062 31.6992 0.0000 28.1398 0.0000
# 6 0.0000 0.0000 0.0000 10.6773 0.0000 20.6141
#
#
#
# Elastic Compliance Matrix: (Units=1/GPa)
#
#
# Indices 1 2 3 4 5 6 
#
# 1 0.032318 -0.010366 -0.012577 0.000000 -0.002861 0.000000
# 2 -0.010366 0.040414 -0.011158 0.000000 -0.006361 0.000000
# 3 -0.012577 -0.011158 0.024789 0.000000 -0.011306 0.000000
# 4 0.000000 0.000000 0.000000 0.055300 0.000000 -0.028643
# 5 -0.002861 -0.006361 -0.011306 0.000000 0.054567 0.000000
# 6 0.000000 0.000000 0.000000 -0.028643 0.000000 0.063346
#
#
# Mechanical properties :
#
#
# Convention : Reuss Voigt Hill
#
# Bulk Modulus (GPa) = 34.10682 58.82744 46.46713
# Shear Modulus (GPa) = 14.33864 19.73646 17.03755
#
# Velocity S-wave (km/s) = 3.10417 3.64189 3.38373
# Velocity P-wave (km/s) = 5.98067 7.56424 6.81858
#
# Compressibility (1/GPa) = 0.02931965
#
# Stress axis : x y z
#
# Youngs Moduli (GPa) = 30.94208 24.74407 40.34127
#
# Poissons Ratio (x) = 0.25650 0.50737
# Poissons Ratio (y) = 0.32075 0.45011
# Poissons Ratio (z) = 0.38915 0.27608
#
# Static dielectric constant tensor:
#      x y z
#    x 1.476940 0.000000 0.023840 
#    y 0.000000 1.493530 0.000000 
#    z 0.023840 0.000000 1.498530 
# 
# From -- ./inp_files/247735.got.cif
#   From: 2010.05.17/outbox.cif.g08.bks.cpg/sg12_124_cif.got.tgz:247735.got - 2010.06.03 13:09:07.
