data_PCOD9169621
_publ_section_title
;
Structure prediction by ZEFSAII (Michael W. Deem and Ramdas Pophale) SiO2 
 PCOD9169621
Probable space group: C 2/M
;
_chemical_formula_sum "Si O2"
_cell_formula_units_Z 64
_cell_length_a 14.810555
_cell_length_b 17.070608
_cell_length_c 13.627297
_cell_angle_alpha 90.000000
_cell_angle_beta 84.891661
_cell_angle_gamma 90.000000
_cell_volume 3431.639375
_symmetry_space_group_name_H-M "C 2/M"
_symmetry_group_IT_number 12
_symmetry_cell_setting 'monoclinic'
loop_
_space_group_symop_operation_xyz
x,y,z
-x,y,-z
-x,-y,-z
x,-y,z
1/2+x,1/2+y,z
1/2-x,1/2+y,-z
1/2-x,1/2-y,-z
1/2+x,1/2-y,z
loop_
_atom_site_type_symbol
_atom_site_label
_atom_site_fract_x
_atom_site_fract_y
_atom_site_fract_z
Si Si1 0.512660 0.912354 0.746298
Si Si2 0.306133 0.912009 0.392266
Si Si3 0.410532 0.133803 0.572349
Si Si4 0.109623 0.320674 0.100313
Si Si5 0.778141 0.407352 0.069784
Si Si6 0.780492 0.763684 0.608378
Si Si7 0.598482 0.659021 0.987017
Si Si8 0.791076 0.242625 0.184053
O O1 0.606371 0.890788 0.682973
O O2 0.438766 0.913388 0.665467
O O3 0.474462 0.853687 0.830511
O O4 0.522376 0.000000 0.785734
O O5 0.339716 0.903731 0.502316
O O6 0.222105 0.856303 0.379712
O O7 0.283303 0.000000 0.372795
O O8 0.500000 0.144621 0.500000
O O9 0.372055 0.216609 0.611372
O O10 0.087759 0.239646 0.049059
O O11 0.196413 0.296717 0.157848
O O12 0.146069 0.385063 0.019216
O O13 0.784344 0.500000 0.098675
O O14 0.680194 0.390417 0.028077
O O15 0.789508 0.333980 0.146215
O O16 0.750000 0.750000 0.500000
O O17 0.710415 0.735774 0.698533
O O18 0.500000 0.619626 0.000000
O O19 0.632844 0.691817 0.878558
#
# Coordination Sequence:
#
# PCOD9169621 Si02
#       8
#     8   8   8   8   8   8   8   8
#     4  10  17  27  48  72  96 124 156 200 249 292
#     4   9  19  30  43  70 102 128 158 199 248 292
#     4   9  17  31  49  70  93 124 166 209 242 281
#     4   9  17  31  49  70 100 128 165 199 240 300
#     4   9  18  33  51  73  97 128 168 204 244 297
#     4  10  19  32  50  72 100 134 169 201 240 296
#     4   9  19  32  51  74  98 130 161 209 252 288
#     4   9  18  33  50  70  98 134 168 199 244 291
#
# _framework density 18.649978000000001
#
# number of rings (size 3 to 8) (size 9 to 14) (size 15 to 20)
#    0.000    2.750    1.250    2.250    1.750    2.250 
#    0.000    0.000    0.000    2.250    0.000    3.500 
#    0.000    0.000    0.000    0.000    0.000    0.000 
#
# Total GULP energy -178165.369798 kJ/mol
# GULP energy per Si atom -5567.667806 kJ/mol
# Density = 1.860753 g / cm^3
# Si number density = 18.649978 Si / 1000 Ang^3
#
#
#
# Elastic Constant Matrix: (Units=GPa)
#
#
# Indices 1 2 3 4 5 6 
#
# 1 26.3282 10.5456 -3.6714 0.0000 9.4165 0.0000
# 2 10.5456 74.0796 6.9940 0.0000 -1.0874 0.0000
# 3 -3.6714 6.9940 94.2661 0.0000 2.2400 0.0000
# 4 0.0000 0.0000 0.0000 16.1894 0.0000 -7.3202
# 5 9.4165 -1.0874 2.2400 0.0000 6.2645 0.0000
# 6 0.0000 0.0000 0.0000 -7.3202 0.0000 18.1195
#
#
#
# Elastic Compliance Matrix: (Units=1/GPa)
#
#
# Indices 1 2 3 4 5 6 
#
# 1 0.106031 -0.018421 0.009440 0.000000 -0.165954 0.000000
# 2 -0.018421 0.016842 -0.002718 0.000000 0.031585 0.000000
# 3 0.009440 -0.002718 0.011625 0.000000 -0.018818 0.000000
# 4 0.000000 0.000000 0.000000 0.075574 0.000000 0.030532
# 5 -0.165954 0.031585 -0.018818 0.000000 0.421293 0.000000
# 6 0.000000 0.000000 0.000000 0.030532 0.000000 0.067524
#
#
# Mechanical properties :
#
#
# Convention : Reuss Voigt Hill
#
# Bulk Modulus (GPa) = 9.00093 24.71225 16.85659
# Shear Modulus (GPa) = 6.58484 20.16841 13.37663
#
# Velocity S-wave (km/s) = 1.88107 3.29206 2.68105
# Velocity P-wave (km/s) = 3.09105 5.26588 4.31765
#
# Compressibility (1/GPa) = 0.11109965
#
# Stress axis : x y z
#
# Youngs Moduli (GPa) = 9.43116 59.37694 86.02380
#
# Poissons Ratio (x) = 1.09380 -0.81205
# Poissons Ratio (y) = 0.17373 0.23377
# Poissons Ratio (z) = -0.08903 0.16136
#
# Static dielectric constant tensor:
#      x y z
#    x 1.669830 0.000000 0.037740 
#    y 0.000000 1.677810 0.000000 
#    z 0.037740 0.000000 1.696350 
# 
# From -- ./inp_files/226091.got.cif
#   From: 2010.05.17/outbox.cif.g08.bks.cpg/sg12_114_cif.got.tgz:226091.got - 2010.06.03 13:09:07.
