data_PCOD9169968
_publ_section_title
;
Structure prediction by ZEFSAII (Michael W. Deem and Ramdas Pophale) SiO2 
 PCOD9169968
Probable space group: C 2/M
;
_chemical_formula_sum "Si O2"
_cell_formula_units_Z 48
_cell_length_a 19.860554
_cell_length_b 10.409238
_cell_length_c 14.018246
_cell_angle_alpha 90.000000
_cell_angle_beta 100.982746
_cell_angle_gamma 90.000000
_cell_volume 2844.958606
_symmetry_space_group_name_H-M "C 2/M"
_symmetry_group_IT_number 12
_symmetry_cell_setting 'monoclinic'
loop_
_space_group_symop_operation_xyz
x,y,z
-x,y,-z
-x,-y,-z
x,-y,z
1/2+x,1/2+y,z
1/2-x,1/2+y,-z
1/2-x,1/2-y,-z
1/2+x,1/2-y,z
loop_
_atom_site_type_symbol
_atom_site_label
_atom_site_fract_x
_atom_site_fract_y
_atom_site_fract_z
Si Si1 0.820593 0.000000 0.379754
Si Si2 0.073537 0.649973 0.063953
Si Si3 0.804820 0.261185 0.270612
Si Si4 0.305680 0.151359 0.057471
Si Si5 0.817398 0.500000 0.403304
Si Si6 0.140457 0.756578 0.263881
Si Si7 0.347139 0.500000 0.605399
Si Si8 0.343382 0.000000 0.622917
O O1 0.831751 0.873364 0.319216
O O2 0.857517 0.000000 0.493524
O O3 0.739061 0.000000 0.381980
O O4 0.072326 0.500000 0.096876
O O5 0.096244 0.741747 0.156365
O O6 0.129995 0.656138 0.996028
O O7 0.000000 0.681003 0.000000
O O8 0.822806 0.297705 0.167626
O O9 0.830981 0.373597 0.346261
O O10 0.721204 0.260264 0.255447
O O11 0.283264 0.000000 0.056840
O O12 0.250000 0.250000 0.000000
O O13 0.735625 0.500000 0.403267
O O14 0.855037 0.500000 0.513778
O O15 0.127026 0.875843 0.329990
O O16 0.129552 0.627598 0.320957
#
# Coordination Sequence:
#
# PCOD9169968 Si02
#       8
#     4   8   8   8   4   8   4   4
#     4   9  18  28  44  72 108 134 163 207 262 316
#     4  10  21  37  55  77 105 141 183 220 256 310
#     4  10  18  29  47  74 104 136 169 211 261 308
#     4  11  22  34  55  80 106 141 178 217 269 313
#     4   9  16  28  42  70 106 130 167 217 260 304
#     4  10  17  29  49  72 101 137 173 209 258 308
#     4   9  18  28  44  73 106 135 159 209 268 315
#     4   9  16  26  46  69  98 137 175 207 256 309
#
# _framework density 16.871949999999998
#
# number of rings (size 3 to 8) (size 9 to 14) (size 15 to 20)
#    0.000    2.167    3.333    1.000    1.167    4.000 
#    0.000    0.417    0.000    0.000    0.000    7.000 
#    0.000    0.000    0.000    0.000    0.000    0.000 
#
# Total GULP energy -133753.376724 kJ/mol
# GULP energy per Si atom -5573.057364 kJ/mol
# Density = 1.683355 g / cm^3
# Si number density = 16.871950 Si / 1000 Ang^3
#
#
#
# Elastic Constant Matrix: (Units=GPa)
#
#
# Indices 1 2 3 4 5 6 
#
# 1 29.2625 25.0410 28.9092 0.0000 8.0361 0.0000
# 2 25.0410 157.3956 85.4095 0.0000 -2.8272 0.0000
# 3 28.9092 85.4095 162.7437 0.0000 -8.2903 0.0000
# 4 0.0000 0.0000 0.0000 27.7720 0.0000 -2.9949
# 5 8.0361 -2.8272 -8.2903 0.0000 12.7311 0.0000
# 6 0.0000 0.0000 0.0000 -2.9949 0.0000 8.1971
#
#
#
# Elastic Compliance Matrix: (Units=1/GPa)
#
#
# Indices 1 2 3 4 5 6 
#
# 1 0.062076 -0.004801 -0.010920 0.000000 -0.047361 0.000000
# 2 -0.004801 0.009269 -0.003881 0.000000 0.002562 0.000000
# 3 -0.010920 -0.003881 0.010786 0.000000 0.013055 0.000000
# 4 0.000000 0.000000 0.000000 0.037484 0.000000 0.013695
# 5 -0.047361 0.002562 0.013055 0.000000 0.117513 0.000000
# 6 0.000000 0.000000 0.000000 0.013695 0.000000 0.126998
#
#
# Mechanical properties :
#
#
# Convention : Reuss Voigt Hill
#
# Bulk Modulus (GPa) = 23.29528 69.79122 46.54325
# Shear Modulus (GPa) = 11.97201 23.74285 17.85743
#
# Velocity S-wave (km/s) = 2.66669 3.75539 3.25685
# Velocity P-wave (km/s) = 4.82894 7.76266 6.46443
#
# Compressibility (1/GPa) = 0.04292716
#
# Stress axis : x y z
#
# Youngs Moduli (GPa) = 16.10927 107.88109 92.70952
#
# Poissons Ratio (x) = 0.51796 1.01237
# Poissons Ratio (y) = 0.07734 0.35984
# Poissons Ratio (z) = 0.17591 0.41872
#
# Static dielectric constant tensor:
#      x y z
#    x 1.541640 0.000000 -0.003570 
#    y 0.000000 1.576360 0.000000 
#    z -0.003570 0.000000 1.566650 
# 
# From -- ./inp_files/182282.got.cif
#   From: 2010.05.17/outbox.cif.g08.bks.cpg/sg12_92_cif.got.tgz:182282.got - 2010.06.03 13:09:07.
