data_PCOD9169299
_publ_section_title
;
Structure prediction by ZEFSAII (Michael W. Deem and Ramdas Pophale) SiO2 
 PCOD9169299
Probable space group: C 2/M
;
_chemical_formula_sum "Si O2"
_cell_formula_units_Z 64
_cell_length_a 25.161520
_cell_length_b 9.194315
_cell_length_c 28.378846
_cell_angle_alpha 90.000000
_cell_angle_beta 138.417727
_cell_angle_gamma 90.000000
_cell_volume 4357.319531
_symmetry_space_group_name_H-M "C 2/M"
_symmetry_group_IT_number 12
_symmetry_cell_setting 'monoclinic'
loop_
_space_group_symop_operation_xyz
x,y,z
-x,y,-z
-x,-y,-z
x,-y,z
1/2+x,1/2+y,z
1/2-x,1/2+y,-z
1/2-x,1/2-y,-z
1/2+x,1/2-y,z
loop_
_atom_site_type_symbol
_atom_site_label
_atom_site_fract_x
_atom_site_fract_y
_atom_site_fract_z
Si Si1 0.169890 0.167345 0.159743
Si Si2 0.492175 0.332127 0.884010
Si Si3 0.159620 0.172659 0.386013
Si Si4 0.901381 0.672704 0.743554
Si Si5 0.081285 0.667950 0.022054
Si Si6 0.413621 0.676780 0.459591
Si Si7 0.242584 0.173415 0.701418
Si Si8 0.668518 0.326492 0.499203
O O1 0.088262 0.168807 0.136949
O O2 0.148082 0.253588 0.097935
O O3 0.235083 0.244659 0.235868
O O4 0.189774 0.000000 0.163261
O O5 0.512025 0.500000 0.887658
O O6 0.467707 0.245765 0.820923
O O7 0.559028 0.253115 0.959789
O O8 0.105565 0.252827 0.311773
O O9 0.248962 0.238757 0.440954
O O10 0.135885 0.196999 0.424848
O O11 0.160944 0.000000 0.378016
O O12 0.913146 0.500000 0.747907
O O13 0.815689 0.696979 0.713115
O O14 0.100813 0.500000 0.025938
O O15 0.000000 0.669578 0.000000
O O16 0.500000 0.729979 0.500000
O O17 0.415078 0.500000 0.458743
O O18 0.340088 0.721929 0.377324
O O19 0.390790 0.715017 0.498025
O O20 0.239363 0.000000 0.707947
O O21 0.686594 0.500000 0.515754
#
# Coordination Sequence:
#
# PCOD9169299 Si02
#       8
#     8   8   8   8   8   8   8   8
#     4   9  16  24  35  50  70  98 130 166 201 234
#     4   9  16  24  34  51  75 101 132 164 198 238
#     4  10  18  26  41  60  81 105 132 168 208 246
#     4  10  17  26  39  55  78 105 135 169 203 239
#     4   9  15  23  34  49  70  99 133 164 196 233
#     4   9  16  28  46  63  79 103 136 174 212 249
#     4   9  16  26  39  55  74  98 131 169 203 242
#     4   9  17  30  43  60  80 102 133 169 207 250
#
# _framework density 14.687929
#
# number of rings (size 3 to 8) (size 9 to 14) (size 15 to 20)
#    0.000    2.750    1.250    1.875    0.000    5.500 
#    0.000    0.000    0.000    1.500    0.000    0.000 
#    0.000    0.000    0.000    1.125    0.000   11.375 
#
# Total GULP energy -178219.442647 kJ/mol
# GULP energy per Si atom -5569.357583 kJ/mol
# Density = 1.465450 g / cm^3
# Si number density = 14.687929 Si / 1000 Ang^3
#
#
#
# Elastic Constant Matrix: (Units=GPa)
#
#
# Indices 1 2 3 4 5 6 
#
# 1 50.5654 26.8433 45.7617 0.0000 -8.3199 0.0000
# 2 26.8433 86.8052 74.9133 0.0000 -17.6008 0.0000
# 3 45.7617 74.9133 143.2018 0.0000 -29.6761 0.0000
# 4 0.0000 0.0000 0.0000 28.6935 0.0000 -6.4895
# 5 -8.3199 -17.6008 -29.6761 0.0000 15.7017 0.0000
# 6 0.0000 0.0000 0.0000 -6.4895 0.0000 7.9537
#
#
#
# Elastic Compliance Matrix: (Units=1/GPa)
#
#
# Indices 1 2 3 4 5 6 
#
# 1 0.028099 -0.001881 -0.008789 0.000000 -0.003831 0.000000
# 2 -0.001881 0.021328 -0.009548 0.000000 0.004865 0.000000
# 3 -0.008789 -0.009548 0.019075 0.000000 0.020691 0.000000
# 4 0.000000 0.000000 0.000000 0.042737 0.000000 0.034869
# 5 -0.003831 0.004865 0.020691 0.000000 0.106216 0.000000
# 6 0.000000 0.000000 0.000000 0.034869 0.000000 0.154177
#
#
# Mechanical properties :
#
#
# Convention : Reuss Voigt Hill
#
# Bulk Modulus (GPa) = 35.63154 63.95654 49.79404
# Shear Modulus (GPa) = 11.86454 19.34007 15.60230
#
# Velocity S-wave (km/s) = 2.84522 3.63262 3.26276
# Velocity P-wave (km/s) = 5.92498 7.82513 6.94039
#
# Compressibility (1/GPa) = 0.02806502
#
# Stress axis : x y z
#
# Youngs Moduli (GPa) = 35.58873 46.88604 52.42549
#
# Poissons Ratio (x) = 0.08818 0.46079
# Poissons Ratio (y) = 0.06693 0.50057
# Poissons Ratio (z) = 0.31280 0.44768
#
# Static dielectric constant tensor:
#      x y z
#    x 1.456100 0.000000 -0.017160 
#    y 0.000000 1.489830 0.000000 
#    z -0.017160 0.000000 1.488470 
# 
# From -- ./inp_files/367055.got.cif
#   From: 2010.05.17/outbox.cif.g08.bks.cpg/sg12_184_cif.got.tgz:367055.got - 2010.06.03 13:09:07.
