data_PCOD9169112
_publ_section_title
;
Structure prediction by ZEFSAII (Michael W. Deem and Ramdas Pophale) SiO2 
 PCOD9169112
Probable space group: C 2/M
;
_chemical_formula_sum "Si O2"
_cell_formula_units_Z 40
_cell_length_a 11.320922
_cell_length_b 15.034724
_cell_length_c 10.756350
_cell_angle_alpha 90.000000
_cell_angle_beta 82.627969
_cell_angle_gamma 90.000000
_cell_volume 1815.671803
_symmetry_space_group_name_H-M "C 2/M"
_symmetry_group_IT_number 12
_symmetry_cell_setting 'monoclinic'
loop_
_space_group_symop_operation_xyz
x,y,z
-x,y,-z
-x,-y,-z
x,-y,z
1/2+x,1/2+y,z
1/2-x,1/2+y,-z
1/2-x,1/2-y,-z
1/2+x,1/2-y,z
loop_
_atom_site_type_symbol
_atom_site_label
_atom_site_fract_x
_atom_site_fract_y
_atom_site_fract_z
Si Si1 0.887768 0.000000 0.609256
Si Si2 0.148531 0.500000 0.473753
Si Si3 0.452801 0.852920 0.135079
Si Si4 0.316445 0.851918 0.730091
Si Si5 0.621434 0.343204 0.952600
Si Si6 0.299384 0.347358 0.775497
O O1 0.890341 0.086576 0.697842
O O2 0.000000 0.000000 0.500000
O O3 0.755923 0.000000 0.562055
O O4 0.180228 0.412754 0.389445
O O5 0.000000 0.500000 0.500000
O O6 0.556732 0.858316 0.219446
O O7 0.419692 0.750030 0.105429
O O8 0.331015 0.890831 0.203879
O O9 0.500000 0.892789 0.000000
O O10 0.217040 0.881652 0.844547
O O11 0.296906 0.747395 0.707457
O O12 0.500000 0.394498 0.000000
O O13 0.675828 0.327415 0.081957
#
# Coordination Sequence:
#
# PCOD9169112 Si02
#       6
#     4   4   8   8   8   8
#     4  12  32  49  62  93 132 182 250 274 294 384
#     4  12  30  51  62  95 134 176 246 280 298 384
#     4  10  16  35  67 105 136 154 200 263 336 422
#     4  11  22  41  73  96 133 171 207 275 344 391
#     4  10  19  34  67 108 133 156 205 262 342 421
#     4  11  22  42  70  95 135 173 208 275 339 390
#
# _framework density 22.030412999999999
#
# number of rings (size 3 to 8) (size 9 to 14) (size 15 to 20)
#    0.000    1.200    6.000    2.400    2.800    2.400 
#    0.000    2.000    0.000    0.000    0.000    0.000 
#    0.000    0.000    0.000    0.000    0.000    0.000 
#
# Total GULP energy -111594.116468 kJ/mol
# GULP energy per Si atom -5579.705823 kJ/mol
# Density = 2.198027 g / cm^3
# Si number density = 22.030413 Si / 1000 Ang^3
#
#
#
# Elastic Constant Matrix: (Units=GPa)
#
#
# Indices 1 2 3 4 5 6 
#
# 1 97.8550 -13.4674 11.7387 0.0000 -11.0145 0.0000
# 2 -13.4674 89.4208 35.3667 0.0000 -8.0499 0.0000
# 3 11.7387 35.3667 84.4088 0.0000 -17.9975 0.0000
# 4 0.0000 0.0000 0.0000 40.6043 0.0000 0.0454
# 5 -11.0145 -8.0499 -17.9975 0.0000 51.4782 0.0000
# 6 0.0000 0.0000 0.0000 0.0454 0.0000 -42.5266
#
#
#
# Elastic Compliance Matrix: (Units=1/GPa)
#
#
# Indices 1 2 3 4 5 6 
#
# 1 0.011096 0.002748 -0.002266 0.000000 0.002012 0.000000
# 2 0.002748 0.014086 -0.006147 0.000000 0.000642 0.000000
# 3 -0.002266 -0.006147 0.015592 0.000000 0.004005 0.000000
# 4 0.000000 0.000000 0.000000 0.024628 0.000000 0.000026
# 5 0.002012 0.000642 0.004005 0.000000 0.021357 0.000000
# 6 0.000000 0.000000 0.000000 0.000026 0.000000 -0.023515
#
#
# Mechanical properties :
#
#
# Convention : Reuss Voigt Hill
#
# Bulk Modulus (GPa) = 33.96269 37.66228 35.81248
# Shear Modulus (GPa) = 59.25035 25.78095 42.51565
#
# Velocity S-wave (km/s) = 5.19165 3.42459 4.39778
# Velocity P-wave (km/s) = 7.16849 5.72449 6.48680
#
# Compressibility (1/GPa) = 0.02944408
#
# Stress axis : x y z
#
# Youngs Moduli (GPa) = 90.12530 70.99209 64.13609
#
# Poissons Ratio (x) = -0.19511 0.14531
# Poissons Ratio (y) = -0.24769 0.39427
# Poissons Ratio (z) = 0.20419 0.43642
#
# Static dielectric constant tensor:
#      x y z
#    x 1.916400 0.000000 -0.017650 
#    y 0.000000 1.822680 0.000000 
#    z -0.017650 0.000000 1.803670 
# 
# From -- ./inp_files/129639.got.cif
#   From: 2010.05.17/outbox.cif.g08.bks.cpg/sg12_65_cif.got.tgz:129639.got - 2010.06.03 13:09:07.
