data_PCOD9169465
_publ_section_title
;
Structure prediction by ZEFSAII (Michael W. Deem and Ramdas Pophale) SiO2 
 PCOD9169465
Probable space group: C 2/M
;
_chemical_formula_sum "Si O2"
_cell_formula_units_Z 56
_cell_length_a 29.287635
_cell_length_b 8.731966
_cell_length_c 14.799404
_cell_angle_alpha 90.000000
_cell_angle_beta 102.595873
_cell_angle_gamma 90.000000
_cell_volume 3693.689067
_symmetry_space_group_name_H-M "C 2/M"
_symmetry_group_IT_number 12
_symmetry_cell_setting 'monoclinic'
loop_
_space_group_symop_operation_xyz
x,y,z
-x,y,-z
-x,-y,-z
x,-y,z
1/2+x,1/2+y,z
1/2-x,1/2+y,-z
1/2-x,1/2-y,-z
1/2+x,1/2-y,z
loop_
_atom_site_type_symbol
_atom_site_label
_atom_site_fract_x
_atom_site_fract_y
_atom_site_fract_z
Si Si1 0.110996 0.182182 0.535083
Si Si2 0.929190 0.315924 0.295994
Si Si3 0.235838 0.814364 0.775492
Si Si4 0.281834 0.684955 0.434767
Si Si5 0.024860 0.677268 0.411955
Si Si6 0.294220 0.184127 0.963657
Si Si7 0.146993 0.816350 0.861348
O O1 0.096353 0.259528 0.623459
O O2 0.163546 0.227656 0.531810
O O3 0.072223 0.228928 0.444685
O O4 0.110112 0.000000 0.548913
O O5 0.928312 0.500000 0.294307
O O6 0.900716 0.248256 0.200170
O O7 0.983700 0.267839 0.327785
O O8 0.234359 0.761174 0.671943
O O9 0.281045 0.772179 0.855123
O O10 0.188896 0.767860 0.810009
O O11 0.234380 0.000000 0.772954
O O12 0.279231 0.500000 0.435236
O O13 0.250000 0.750000 0.500000
O O14 0.036058 0.500000 0.397210
O O15 0.000000 0.680719 0.500000
O O16 0.294966 0.000000 0.970521
O O17 0.250000 0.250000 0.000000
O O18 0.338679 0.252705 0.034330
O O19 0.146264 0.000000 0.862934
#
# Coordination Sequence:
#
# PCOD9169465 Si02
#       7
#     8   8   8   8   8   8   8
#     4  10  18  29  44  59  82 112 144 181 219 256
#     4  10  18  27  41  62  87 114 144 175 208 255
#     4   8  15  29  43  55  81 112 140 177 217 248
#     4  10  20  33  45  62  84 112 149 187 219 250
#     4   8  16  28  40  58  84 110 140 175 209 252
#     4   9  16  26  41  60  81 111 143 174 212 257
#     4  10  17  27  42  61  87 115 141 176 211 253
#
# _framework density 15.160994000000001
#
# number of rings (size 3 to 8) (size 9 to 14) (size 15 to 20)
#    0.000    2.714    1.429    3.429    0.000    4.286 
#    0.000    1.429    0.000    0.000    0.000    0.000 
#    0.000    1.143    0.000   12.857    0.000    6.429 
#
# Total GULP energy -155876.287458 kJ/mol
# GULP energy per Si atom -5567.010266 kJ/mol
# Density = 1.512649 g / cm^3
# Si number density = 15.160994 Si / 1000 Ang^3
#
#
#
# Elastic Constant Matrix: (Units=GPa)
#
#
# Indices 1 2 3 4 5 6 
#
# 1 78.3882 29.7417 63.9962 0.0000 26.7425 0.0000
# 2 29.7417 39.6960 28.7313 0.0000 13.1115 0.0000
# 3 63.9962 28.7313 105.9401 0.0000 34.6497 0.0000
# 4 0.0000 0.0000 0.0000 21.7086 0.0000 5.9787
# 5 26.7425 13.1115 34.6497 0.0000 33.1331 0.0000
# 6 0.0000 0.0000 0.0000 5.9787 0.0000 20.9981
#
#
#
# Elastic Compliance Matrix: (Units=1/GPa)
#
#
# Indices 1 2 3 4 5 6 
#
# 1 0.029388 -0.010709 -0.012883 0.000000 -0.006009 0.000000
# 2 -0.010709 0.035881 -0.002196 0.000000 -0.003259 0.000000
# 3 -0.012883 -0.002196 0.021479 0.000000 -0.011195 0.000000
# 4 0.000000 0.000000 0.000000 0.049984 0.000000 -0.014232
# 5 -0.006009 -0.003259 -0.011195 0.000000 0.048028 0.000000
# 6 0.000000 0.000000 0.000000 -0.014232 0.000000 0.051676
#
#
# Mechanical properties :
#
#
# Convention : Reuss Voigt Hill
#
# Bulk Modulus (GPa) = 28.43227 52.10699 40.26963
# Shear Modulus (GPa) = 16.68139 21.93828 19.30983
#
# Velocity S-wave (km/s) = 3.32065 3.80810 3.57270
# Velocity P-wave (km/s) = 5.78762 7.33343 6.60590
#
# Compressibility (1/GPa) = 0.03517130
#
# Stress axis : x y z
#
# Youngs Moduli (GPa) = 34.02759 27.86992 46.55814
#
# Poissons Ratio (x) = 0.29847 0.59980
# Poissons Ratio (y) = 0.36441 0.10224
# Poissons Ratio (z) = 0.43837 0.06120
#
# Static dielectric constant tensor:
#      x y z
#    x 1.498980 0.000000 0.049820 
#    y 0.000000 1.511770 0.000000 
#    z 0.049820 0.000000 1.526670 
# 
# From -- ./inp_files/247879.got.cif
#   From: 2010.05.17/outbox.cif.g08.bks.cpg/sg12_124_cif.got.tgz:247879.got - 2010.06.03 13:09:07.
