data_PCOD9169386
_publ_section_title
;
Structure prediction by ZEFSAII (Michael W. Deem and Ramdas Pophale) SiO2 
 PCOD9169386
Probable space group: C 2/M
;
_chemical_formula_sum "Si O2"
_cell_formula_units_Z 48
_cell_length_a 9.755550
_cell_length_b 14.999922
_cell_length_c 16.989582
_cell_angle_alpha 90.000000
_cell_angle_beta 59.588324
_cell_angle_gamma 90.000000
_cell_volume 2144.062811
_symmetry_space_group_name_H-M "C 2/M"
_symmetry_group_IT_number 12
_symmetry_cell_setting 'monoclinic'
loop_
_space_group_symop_operation_xyz
x,y,z
-x,y,-z
-x,-y,-z
x,-y,z
1/2+x,1/2+y,z
1/2-x,1/2+y,-z
1/2-x,1/2-y,-z
1/2+x,1/2-y,z
loop_
_atom_site_type_symbol
_atom_site_label
_atom_site_fract_x
_atom_site_fract_y
_atom_site_fract_z
Si Si1 0.728480 0.145835 0.488712
Si Si2 0.966822 0.602795 0.097124
Si Si3 0.088129 0.900339 0.241358
Si Si4 0.871132 0.396736 0.651472
Si Si5 0.291951 0.598596 0.630936
Si Si6 0.982523 0.705055 0.764663
O O1 0.750000 0.250000 0.500000
O O2 0.762631 0.376675 0.606288
O O3 0.550194 0.115944 0.565732
O O4 0.832426 0.101827 0.527580
O O5 0.021647 0.500000 0.084296
O O6 0.777014 0.602307 0.167176
O O7 0.047265 0.657679 0.143663
O O8 0.000000 0.637686 0.000000
O O9 0.078803 0.888788 0.338895
O O10 0.020369 0.810795 0.224504
O O11 0.030697 0.000000 0.236609
O O12 0.851568 0.500000 0.680508
O O13 0.867109 0.331164 0.728151
O O14 0.222335 0.500000 0.667087
O O15 0.156303 0.671044 0.687200
#
# Coordination Sequence:
#
# PCOD9169386 Si02
#       6
#     8   8   8   8   8   8
#     4  10  17  26  44  68  94 123 154 189 231 272
#     4   9  18  33  52  74  96 118 150 190 228 273
#     4   9  18  31  49  70  93 124 156 185 226 277
#     4  10  19  31  47  70  94 120 158 201 236 268
#     4   9  17  31  48  68  93 123 159 196 230 269
#     4  10  17  29  51  71  92 120 155 192 231 274
#
# _framework density 22.387402999999999
#
# number of rings (size 3 to 8) (size 9 to 14) (size 15 to 20)
#    0.000    2.500    0.000    6.500    0.000    0.667 
#    0.000    0.000    0.000   32.500    0.000   24.500 
#    0.000    0.000    0.000    0.000    0.000    0.000 
#
# Total GULP energy -134029.558456 kJ/mol
# GULP energy per Si atom -5584.564936 kJ/mol
# Density = 2.233645 g / cm^3
# Si number density = 22.387403 Si / 1000 Ang^3
#
#
#
# Elastic Constant Matrix: (Units=GPa)
#
#
# Indices 1 2 3 4 5 6 
#
# 1 96.0663 33.7758 33.9219 0.0000 22.7776 0.0000
# 2 33.7758 179.7345 26.2475 0.0000 24.6649 0.0000
# 3 33.9219 26.2475 144.2010 0.0000 40.4070 0.0000
# 4 0.0000 0.0000 0.0000 -7.8130 0.0000 87.1755
# 5 22.7776 24.6649 40.4070 0.0000 35.7747 0.0000
# 6 0.0000 0.0000 0.0000 87.1755 0.0000 -138.3330
#
#
#
# Elastic Compliance Matrix: (Units=1/GPa)
#
#
# Indices 1 2 3 4 5 6 
#
# 1 0.012683 -0.001419 -0.001078 0.000000 -0.005880 0.000000
# 2 -0.001419 0.006305 0.000221 0.000000 -0.003693 0.000000
# 3 -0.001078 0.000221 0.010239 0.000000 -0.011031 0.000000
# 4 0.000000 0.000000 0.000000 0.021221 0.000000 0.013373
# 5 -0.005880 -0.003693 -0.011031 0.000000 0.046702 0.000000
# 6 0.000000 0.000000 0.000000 0.013373 0.000000 0.001199
#
#
# Mechanical properties :
#
#
# Convention : Reuss Voigt Hill
#
# Bulk Modulus (GPa) = 40.52611 67.54356 54.03483
# Shear Modulus (GPa) = 44.99432 -0.33715 22.32859
#
# Velocity S-wave (km/s) = 4.48795 -0.38849 3.16155
# Velocity P-wave (km/s) = 6.70799 5.48038 6.12502
#
# Compressibility (1/GPa) = 0.02467545
#
# Stress axis : x y z
#
# Youngs Moduli (GPa) = 78.84541 158.60503 97.66456
#
# Poissons Ratio (x) = 0.22509 0.10526
# Poissons Ratio (y) = 0.11190 -0.02159
# Poissons Ratio (z) = 0.08497 -0.03506
#
# Static dielectric constant tensor:
#      x y z
#    x 1.958110 0.000000 -0.031410 
#    y 0.000000 1.907630 0.000000 
#    z -0.031410 0.000000 1.858900 
# 
# From -- ./inp_files/303845.got.cif
#   From: 2010.05.17/outbox.cif.g08.bks.cpg/sg12_152_cif.got.tgz:303845.got - 2010.06.03 13:09:07.
