data_PCOD9169941
_publ_section_title
;
Structure prediction by ZEFSAII (Michael W. Deem and Ramdas Pophale) SiO2 
 PCOD9169941
Probable space group: C 2/M
;
_chemical_formula_sum "Si O2"
_cell_formula_units_Z 56
_cell_length_a 16.387584
_cell_length_b 20.570910
_cell_length_c 7.211496
_cell_angle_alpha 90.000000
_cell_angle_beta 88.831610
_cell_angle_gamma 90.000000
_cell_volume 2430.544049
_symmetry_space_group_name_H-M "C 2/M"
_symmetry_group_IT_number 12
_symmetry_cell_setting 'monoclinic'
loop_
_space_group_symop_operation_xyz
x,y,z
-x,y,-z
-x,-y,-z
x,-y,z
1/2+x,1/2+y,z
1/2-x,1/2+y,-z
1/2-x,1/2-y,-z
1/2+x,1/2-y,z
loop_
_atom_site_type_symbol
_atom_site_label
_atom_site_fract_x
_atom_site_fract_y
_atom_site_fract_z
Si Si1 0.581506 0.675637 0.104733
Si Si2 0.298957 0.573358 0.882791
Si Si3 0.889172 0.573368 0.560924
Si Si4 0.307176 0.293592 0.254368
Si Si5 0.302028 0.430073 0.333342
Si Si6 0.112870 0.690784 0.181731
Si Si7 0.140882 0.653876 0.771910
O O1 0.621027 0.611567 0.188173
O O2 0.569771 0.740500 0.225399
O O3 0.500000 0.659105 0.000000
O O4 0.648195 0.698129 0.946651
O O5 0.292921 0.500000 0.813679
O O6 0.222688 0.615890 0.825328
O O7 0.299366 0.569720 0.107644
O O8 0.918715 0.500000 0.587660
O O9 0.790484 0.569651 0.588624
O O10 0.914686 0.628395 0.703736
O O11 0.905270 0.604925 0.360642
O O12 0.333432 0.356949 0.372123
O O13 0.209875 0.298001 0.221342
O O14 0.333017 0.222450 0.324434
O O15 0.340508 0.500000 0.384655
O O16 0.099606 0.672473 0.967172
#
# Coordination Sequence:
#
# PCOD9169941 Si02
#       7
#     8   8   8   8   8   8   8
#     4  10  18  31  52  76 103 140 181 214 250 309
#     4  10  17  29  48  72 110 145 167 209 260 302
#     4  10  20  29  47  82 107 130 168 212 266 320
#     4   9  16  31  50  72 100 135 168 213 263 297
#     4   8  15  27  42  66 101 132 161 201 249 297
#     4  10  18  35  53  75 107 137 168 220 264 298
#     4  11  17  29  51  76 104 137 170 213 262 305
#
# _framework density 23.040106000000002
#
# number of rings (size 3 to 8) (size 9 to 14) (size 15 to 20)
#    0.000    2.286    5.714    1.286    0.000    3.143 
#    0.000    0.000    0.000    3.857    0.000    4.000 
#    0.000   16.286    0.000    0.000    0.000    0.000 
#
# Total GULP energy -156244.988517 kJ/mol
# GULP energy per Si atom -5580.178161 kJ/mol
# Density = 2.298767 g / cm^3
# Si number density = 23.040106 Si / 1000 Ang^3
#
#
#
# Elastic Constant Matrix: (Units=GPa)
#
#
# Indices 1 2 3 4 5 6 
#
# 1 47.5259 32.2258 8.5247 0.0000 1.6515 0.0000
# 2 32.2258 163.6981 -17.8428 0.0000 18.1819 0.0000
# 3 8.5247 -17.8428 49.6812 0.0000 -1.5980 0.0000
# 4 0.0000 0.0000 0.0000 16.3676 0.0000 -2.8258
# 5 1.6515 18.1819 -1.5980 0.0000 -11.4886 0.0000
# 6 0.0000 0.0000 0.0000 -2.8258 0.0000 -5.4671
#
#
#
# Elastic Compliance Matrix: (Units=1/GPa)
#
#
# Indices 1 2 3 4 5 6 
#
# 1 0.026008 -0.005399 -0.006527 0.000000 -0.003897 0.000000
# 2 -0.005399 0.006551 0.003572 0.000000 0.009094 0.000000
# 3 -0.006527 0.003572 0.022582 0.000000 0.001573 0.000000
# 4 0.000000 0.000000 0.000000 0.056091 0.000000 -0.028992
# 5 -0.003897 0.009094 0.001573 0.000000 -0.073429 0.000000
# 6 0.000000 0.000000 0.000000 -0.028992 0.000000 -0.167927
#
#
# Mechanical properties :
#
#
# Convention : Reuss Voigt Hill
#
# Bulk Modulus (GPa) = 26.01966 34.08007 30.04987
# Shear Modulus (GPa) = -49.69847 15.74888 -16.97480
#
# Velocity S-wave (km/s) = -4.64943 2.61730 -2.71726
# Velocity P-wave (km/s) = 4.18393 4.89463 1.79613
#
# Compressibility (1/GPa) = 0.03843247
#
# Stress axis : x y z
#
# Youngs Moduli (GPa) = 38.44987 152.65457 44.28393
#
# Poissons Ratio (x) = 0.82411 0.28904
# Poissons Ratio (y) = 0.20757 -0.15816
# Poissons Ratio (z) = 0.25096 -0.54521
#
# Static dielectric constant tensor:
#      x y z
#    x 1.845440 0.000000 -0.019340 
#    y 0.000000 1.945990 0.000000 
#    z -0.019340 0.000000 1.905810 
# 
# From -- ./inp_files/76945.got.cif
#   From: 2010.05.17/outbox.cif.g08.bks.cpg/sg12_39_cif.got.tgz:76945.got - 2010.06.03 13:09:07.
