data_PCOD9169143
_publ_section_title
;
Structure prediction by ZEFSAII (Michael W. Deem and Ramdas Pophale) SiO2 
 PCOD9169143
Probable space group: C 2/M
;
_chemical_formula_sum "Si O2"
_cell_formula_units_Z 56
_cell_length_a 20.221929
_cell_length_b 9.046025
_cell_length_c 22.647565
_cell_angle_alpha 90.000000
_cell_angle_beta 52.970135
_cell_angle_gamma 90.000000
_cell_volume 3307.347434
_symmetry_space_group_name_H-M "C 2/M"
_symmetry_group_IT_number 12
_symmetry_cell_setting 'monoclinic'
loop_
_space_group_symop_operation_xyz
x,y,z
-x,y,-z
-x,-y,-z
x,-y,z
1/2+x,1/2+y,z
1/2-x,1/2+y,-z
1/2-x,1/2-y,-z
1/2+x,1/2-y,z
loop_
_atom_site_type_symbol
_atom_site_label
_atom_site_fract_x
_atom_site_fract_y
_atom_site_fract_z
Si Si1 0.228948 0.325579 0.312340
Si Si2 0.327510 0.174805 0.160909
Si Si3 0.520264 0.323286 0.853490
Si Si4 0.903925 0.827673 0.535246
Si Si5 0.589359 0.329118 0.985715
Si Si6 0.159504 0.675566 0.547593
Si Si7 0.891660 0.172208 0.308537
O O1 0.213285 0.500000 0.315351
O O2 0.254961 0.256700 0.235618
O O3 0.153041 0.241980 0.383207
O O4 0.308059 0.308720 0.314158
O O5 0.409674 0.225805 0.152561
O O6 0.346182 0.229913 0.084557
O O7 0.317114 0.000000 0.168927
O O8 0.538764 0.500000 0.853499
O O9 0.532616 0.299260 0.777341
O O10 0.434828 0.293073 0.933693
O O11 0.886131 0.738758 0.485109
O O12 0.000000 0.818605 0.500000
O O13 0.881367 0.000000 0.539028
O O14 0.615263 0.500000 0.967709
O O15 0.500000 0.318616 0.000000
O O16 0.167840 0.500000 0.539483
O O17 0.250000 0.750000 0.500000
O O18 0.113796 0.724852 0.631999
O O19 0.894176 0.000000 0.325673
#
# Coordination Sequence:
#
# PCOD9169143 Si02
#       7
#     8   8   8   8   8   8   8
#     4  10  19  32  50  69  94 129 166 205 248 300
#     4  10  17  23  36  59  88 121 159 202 242 289
#     4   8  15  26  39  56  85 123 160 198 244 295
#     4  11  24  40  57  77 102 131 166 212 262 309
#     4   8  13  23  36  52  80 120 160 195 237 293
#     4  12  23  35  54  77 103 135 171 212 253 302
#     4   9  17  30  48  71  96 126 166 210 251 295
#
# _framework density 16.931998
#
# number of rings (size 3 to 8) (size 9 to 14) (size 15 to 20)
#    0.000    2.286    1.429    5.143    0.000    6.000 
#    0.000    0.000    0.000    0.000    0.000    0.000 
#    0.000    1.143    0.000    3.429    0.000    6.143 
#
# Total GULP energy -156053.727665 kJ/mol
# GULP energy per Si atom -5573.347417 kJ/mol
# Density = 1.689346 g / cm^3
# Si number density = 16.931998 Si / 1000 Ang^3
#
#
#
# Elastic Constant Matrix: (Units=GPa)
#
#
# Indices 1 2 3 4 5 6 
#
# 1 23.4668 28.7963 24.8555 0.0000 4.1978 0.0002
# 2 28.7963 131.0018 86.8696 0.0000 6.1616 0.0003
# 3 24.8555 86.8696 161.4034 0.0000 14.5048 0.0000
# 4 0.0000 0.0000 0.0000 33.2460 0.0000 2.0102
# 5 4.1978 6.1616 14.5048 0.0000 8.6134 0.0000
# 6 0.0002 0.0003 0.0000 2.0102 0.0000 13.7225
#
#
#
# Elastic Compliance Matrix: (Units=1/GPa)
#
#
# Indices 1 2 3 4 5 6 
#
# 1 0.062065 -0.011736 -0.001505 0.000000 -0.019317 -0.000001
# 2 -0.011736 0.014141 -0.006373 0.000000 0.006336 0.000000
# 3 -0.001505 -0.006373 0.011055 0.000000 -0.013324 0.000000
# 4 0.000000 0.000000 0.000000 0.030348 0.000000 -0.004446
# 5 -0.019317 0.006336 -0.013324 0.000000 0.143417 0.000000
# 6 -0.000001 0.000000 0.000000 -0.004446 0.000000 0.073524
#
#
# Mechanical properties :
#
#
# Convention : Reuss Voigt Hill
#
# Bulk Modulus (GPa) = 20.81942 66.32389 43.57166
# Shear Modulus (GPa) = 12.82742 22.80642 17.81692
#
# Velocity S-wave (km/s) = 2.75541 3.67405 3.24738
# Velocity P-wave (km/s) = 4.73768 7.56664 6.31267
#
# Compressibility (1/GPa) = 0.04803208
#
# Stress axis : x y z
#
# Youngs Moduli (GPa) = 16.11221 70.71411 90.45724
#
# Poissons Ratio (x) = 0.82991 0.13616
# Poissons Ratio (y) = 0.18910 0.57650
# Poissons Ratio (z) = 0.02425 0.45067
#
# Static dielectric constant tensor:
#      x y z
#    x 1.544610 0.000000 0.012660 
#    y 0.000000 1.563210 0.000000 
#    z 0.012660 0.000000 1.630440 
# 
# From -- ./inp_files/345450.got.cif
#   From: 2010.05.17/outbox.cif.g08.bks.cpg/sg12_173_cif.got.tgz:345450.got - 2010.06.03 13:09:07.
