data_PCOD9169455
_publ_section_title
;
Structure prediction by ZEFSAII (Michael W. Deem and Ramdas Pophale) SiO2 
 PCOD9169455
Probable space group: C 2/M
;
_chemical_formula_sum "Si O2"
_cell_formula_units_Z 64
_cell_length_a 28.816160
_cell_length_b 9.279500
_cell_length_c 23.122452
_cell_angle_alpha 90.000000
_cell_angle_beta 134.983861
_cell_angle_gamma 90.000000
_cell_volume 4373.225470
_symmetry_space_group_name_H-M "C 2/M"
_symmetry_group_IT_number 12
_symmetry_cell_setting 'monoclinic'
loop_
_space_group_symop_operation_xyz
x,y,z
-x,y,-z
-x,-y,-z
x,-y,z
1/2+x,1/2+y,z
1/2-x,1/2+y,-z
1/2-x,1/2-y,-z
1/2+x,1/2-y,z
loop_
_atom_site_type_symbol
_atom_site_label
_atom_site_fract_x
_atom_site_fract_y
_atom_site_fract_z
Si Si1 0.146122 0.828829 0.675397
Si Si2 0.112270 0.830466 0.510717
Si Si3 0.483801 0.834163 0.416844
Si Si4 0.338486 0.330847 0.728128
Si Si5 0.902712 0.332778 0.956570
Si Si6 0.280963 0.668957 0.807818
Si Si7 0.539644 0.167468 0.123564
Si Si8 0.756644 0.172550 0.444584
O O1 0.137868 0.804242 0.598814
O O2 0.082527 0.756734 0.648479
O O3 0.213375 0.754993 0.754058
O O4 0.147443 0.000000 0.685980
O O5 0.171560 0.799710 0.519582
O O6 0.047236 0.737439 0.443632
O O7 0.095504 0.000000 0.492710
O O8 0.500000 0.831445 0.500000
O O9 0.474860 0.000000 0.391915
O O10 0.338438 0.500000 0.713305
O O11 0.305613 0.315698 0.762851
O O12 0.411982 0.268013 0.797773
O O13 0.296279 0.239372 0.645939
O O14 0.886320 0.500000 0.954019
O O15 0.838533 0.234976 0.898094
O O16 0.932171 0.328963 0.917277
O O17 0.963378 0.288979 0.051062
O O18 0.271615 0.500000 0.810670
O O19 0.543201 0.000000 0.145390
O O20 0.750000 0.250000 0.500000
O O21 0.748379 0.000000 0.441863
#
# Coordination Sequence:
#
# PCOD9169455 Si02
#       8
#     8   8   8   8   8   8   8   8
#     4  10  17  27  42  59  81 110 142 171 204 249
#     4   9  18  31  45  59  77 105 138 172 210 254
#     4   9  17  27  41  61  82 103 131 169 209 247
#     4  10  19  29  42  59  79 106 138 175 216 254
#     4   8  14  24  37  54  76 105 138 168 202 243
#     4  10  18  25  37  58  84 110 139 174 209 244
#     4   8  14  25  40  55  74 102 137 172 203 244
#     4  11  22  35  48  63  82 107 142 182 221 257
#
# _framework density 14.634508
#
# number of rings (size 3 to 8) (size 9 to 14) (size 15 to 20)
#    0.000    2.625    1.250    2.625    0.000    4.500 
#    0.000    2.500    0.000    0.000    0.000    0.000 
#    0.000    0.000    0.000    1.125    0.000   15.000 
#
# Total GULP energy -178269.517042 kJ/mol
# GULP energy per Si atom -5570.922408 kJ/mol
# Density = 1.460120 g / cm^3
# Si number density = 14.634508 Si / 1000 Ang^3
#
#
#
# Elastic Constant Matrix: (Units=GPa)
#
#
# Indices 1 2 3 4 5 6 
#
# 1 55.0701 55.4420 48.7266 0.0000 20.1336 0.0000
# 2 55.4420 104.4577 73.0528 0.0000 31.5306 0.0000
# 3 48.7266 73.0528 86.8198 0.0000 37.1297 0.0000
# 4 0.0000 0.0000 0.0000 22.6793 0.0000 4.8424
# 5 20.1336 31.5306 37.1297 0.0000 26.5814 0.0000
# 6 0.0000 0.0000 0.0000 4.8424 0.0000 17.4481
#
#
#
# Elastic Compliance Matrix: (Units=1/GPa)
#
#
# Indices 1 2 3 4 5 6 
#
# 1 0.043839 -0.014749 -0.013598 0.000000 0.003286 0.000000
# 2 -0.014749 0.028228 -0.014733 0.000000 -0.001733 0.000000
# 3 -0.013598 -0.014733 0.048850 0.000000 -0.040458 0.000000
# 4 0.000000 0.000000 0.000000 0.046870 0.000000 -0.013008
# 5 0.003286 -0.001733 -0.040458 0.000000 0.093700 0.000000
# 6 0.000000 0.000000 0.000000 -0.013008 0.000000 0.060923
#
#
# Mechanical properties :
#
#
# Convention : Reuss Voigt Hill
#
# Bulk Modulus (GPa) = 28.77340 66.75448 47.76394
# Shear Modulus (GPa) = 11.90032 17.95018 14.92525
#
# Velocity S-wave (km/s) = 2.85470 3.50603 3.19700
# Velocity P-wave (km/s) = 5.52900 7.88056 6.80709
#
# Compressibility (1/GPa) = 0.03475433
#
# Stress axis : x y z
#
# Youngs Moduli (GPa) = 22.81099 35.42529 20.47103
#
# Poissons Ratio (x) = 0.52250 0.27837
# Poissons Ratio (y) = 0.33645 0.30160
# Poissons Ratio (z) = 0.31019 0.52193
#
# Static dielectric constant tensor:
#      x y z
#    x 1.460230 0.000000 0.016770 
#    y 0.000000 1.486050 0.000000 
#    z 0.016770 0.000000 1.477650 
# 
# From -- ./inp_files/326849.got.cif
#   From: 2010.05.17/outbox.cif.g08.bks.cpg/sg12_164_cif.got.tgz:326849.got - 2010.06.03 13:09:07.
