data_PCOD9169287
_publ_section_title
;
Structure prediction by ZEFSAII (Michael W. Deem and Ramdas Pophale) SiO2 
 PCOD9169287
Probable space group: C 2/M
;
_chemical_formula_sum "Si O2"
_cell_formula_units_Z 48
_cell_length_a 15.263616
_cell_length_b 14.095146
_cell_length_c 9.630079
_cell_angle_alpha 90.000000
_cell_angle_beta 79.295243
_cell_angle_gamma 90.000000
_cell_volume 2035.787583
_symmetry_space_group_name_H-M "C 2/M"
_symmetry_group_IT_number 12
_symmetry_cell_setting 'monoclinic'
loop_
_space_group_symop_operation_xyz
x,y,z
-x,y,-z
-x,-y,-z
x,-y,z
1/2+x,1/2+y,z
1/2-x,1/2+y,-z
1/2-x,1/2-y,-z
1/2+x,1/2-y,z
loop_
_atom_site_type_symbol
_atom_site_label
_atom_site_fract_x
_atom_site_fract_y
_atom_site_fract_z
Si Si1 0.228440 0.886097 0.474341
Si Si2 0.904082 0.392068 0.956460
Si Si3 0.555452 0.388055 0.714263
Si Si4 0.844580 0.797887 0.079253
Si Si5 0.822050 0.614171 0.708415
Si Si6 0.145320 0.887250 0.226742
O O1 0.136119 0.869464 0.584592
O O2 0.308366 0.852986 0.552686
O O3 0.213136 0.849464 0.323708
O O4 0.237804 0.000000 0.456915
O O5 0.869589 0.500000 0.980929
O O6 0.846090 0.314026 0.052002
O O7 0.903963 0.368831 0.790398
O O8 0.000000 0.389114 0.000000
O O9 0.561803 0.500000 0.749609
O O10 0.573610 0.327155 0.846255
O O11 0.456013 0.372106 0.689070
O O12 0.760089 0.842966 0.181008
O O13 0.851214 0.842810 0.925394
O O14 0.812413 0.500000 0.704107
O O15 0.157805 0.000000 0.208574
#
# Coordination Sequence:
#
# PCOD9169287 Si02
#       6
#     8   8   8   8   8   8
#     4   8  15  27  43  66 100 138 166 189 231 299
#     4  10  21  36  53  72  95 130 176 215 243 282
#     4   9  16  26  42  68 105 141 164 190 238 300
#     4  11  19  30  49  76 102 124 158 210 258 289
#     4   9  18  34  54  76 103 131 159 198 251 303
#     4  10  17  25  42  72 106 135 162 194 240 300
#
# _framework density 23.578098000000001
#
# number of rings (size 3 to 8) (size 9 to 14) (size 15 to 20)
#    0.000    2.500    0.000    5.000    0.000    3.333 
#    0.000    0.833    0.000    0.000    0.000    8.167 
#    0.000   36.000    0.000    0.000    0.000    0.000 
#
# Total GULP energy -134071.761376 kJ/mol
# GULP energy per Si atom -5586.323391 kJ/mol
# Density = 2.352443 g / cm^3
# Si number density = 23.578098 Si / 1000 Ang^3
#
#
#
# Elastic Constant Matrix: (Units=GPa)
#
#
# Indices 1 2 3 4 5 6 
#
# 1 63.6431 6.4348 39.6010 0.0000 42.1058 0.0000
# 2 6.4348 79.4018 29.5764 0.0000 12.8229 0.0000
# 3 39.6010 29.5764 143.0523 0.0000 57.4574 0.0000
# 4 0.0000 0.0000 0.0000 12.9011 0.0000 -6.2331
# 5 42.1058 12.8229 57.4574 0.0000 44.6742 0.0000
# 6 0.0000 0.0000 0.0000 -6.2331 0.0000 10.5646
#
#
#
# Elastic Compliance Matrix: (Units=1/GPa)
#
#
# Indices 1 2 3 4 5 6 
#
# 1 0.048121 0.001903 0.009767 0.000000 -0.058463 0.000000
# 2 0.001903 0.013728 -0.002197 0.000000 -0.002909 0.000000
# 3 0.009767 -0.002197 0.016932 0.000000 -0.030351 0.000000
# 4 0.000000 0.000000 0.000000 0.108419 0.000000 0.063967
# 5 -0.058463 -0.002909 -0.030351 0.000000 0.117357 0.000000
# 6 0.000000 0.000000 0.000000 0.063967 0.000000 0.132396
#
#
# Mechanical properties :
#
#
# Convention : Reuss Voigt Hill
#
# Bulk Modulus (GPa) = 10.23250 48.59130 29.41190
# Shear Modulus (GPa) = 11.09678 27.66031 19.37854
#
# Velocity S-wave (km/s) = 2.17178 3.42882 2.86997
# Velocity P-wave (km/s) = 3.26160 6.02737 4.84599
#
# Compressibility (1/GPa) = 0.09772785
#
# Stress axis : x y z
#
# Youngs Moduli (GPa) = 20.78073 72.84386 59.06146
#
# Poissons Ratio (x) = -0.13866 -0.57684
# Poissons Ratio (y) = -0.03956 0.12975
# Poissons Ratio (z) = -0.20296 0.16003
#
# Static dielectric constant tensor:
#      x y z
#    x 1.955920 0.000000 0.050950 
#    y 0.000000 1.894470 0.000000 
#    z 0.050950 0.000000 1.898080 
# 
# From -- ./inp_files/73629.got.cif
#   From: 2010.05.17/outbox.cif.g08.bks.cpg/sg12_37_cif.got.tgz:73629.got - 2010.06.03 13:09:07.
