data_PCOD9169424
_publ_section_title
;
Structure prediction by ZEFSAII (Michael W. Deem and Ramdas Pophale) SiO2 
 PCOD9169424
Probable space group: C 2/M
;
_chemical_formula_sum "Si O2"
_cell_formula_units_Z 56
_cell_length_a 14.236679
_cell_length_b 7.717290
_cell_length_c 25.773844
_cell_angle_alpha 90.000000
_cell_angle_beta 119.788261
_cell_angle_gamma 90.000000
_cell_volume 2457.570655
_symmetry_space_group_name_H-M "C 2/M"
_symmetry_group_IT_number 12
_symmetry_cell_setting 'monoclinic'
loop_
_space_group_symop_operation_xyz
x,y,z
-x,y,-z
-x,-y,-z
x,-y,z
1/2+x,1/2+y,z
1/2-x,1/2+y,-z
1/2-x,1/2-y,-z
1/2+x,1/2-y,z
loop_
_atom_site_type_symbol
_atom_site_label
_atom_site_fract_x
_atom_site_fract_y
_atom_site_fract_z
Si Si1 0.228807 0.709125 0.701638
Si Si2 0.508635 0.788319 0.324333
Si Si3 0.866446 0.802976 0.426983
Si Si4 0.902278 0.304379 0.546585
Si Si5 0.044540 0.202061 0.216170
Si Si6 0.886315 0.711166 0.993112
Si Si7 0.341996 0.297167 0.099542
O O1 0.232088 0.500000 0.702261
O O2 0.114805 0.761145 0.695108
O O3 0.224807 0.768384 0.640529
O O4 0.335240 0.775496 0.760285
O O5 0.585012 0.726017 0.392657
O O6 0.532426 0.715731 0.274603
O O7 0.514944 0.000000 0.324957
O O8 0.840947 0.774374 0.480387
O O9 0.971371 0.693978 0.438193
O O10 0.902372 0.000000 0.431273
O O11 0.864191 0.500000 0.541483
O O12 0.939138 0.281424 0.160012
O O13 0.047765 0.000000 0.201196
O O14 0.883079 0.500000 0.994621
O O15 0.780707 0.772239 0.932033
O O16 0.874535 0.779216 0.048261
O O17 0.000000 0.763530 0.000000
O O18 0.333988 0.500000 0.111549
#
# Coordination Sequence:
#
# PCOD9169424 Si02
#       7
#     8   8   8   8   8   8   8
#     4   9  19  36  52  69  99 139 173 207 263 323
#     4   9  19  34  52  73  99 132 172 213 256 312
#     4  10  17  26  46  75  99 124 168 223 266 306
#     4   9  16  29  48  69  98 136 170 208 266 325
#     4  10  21  36  54  75 104 139 174 214 256 301
#     4   9  18  34  56  81 110 141 171 207 253 301
#     4   9  19  35  53  78 109 139 174 212 250 298
#
# _framework density 22.786731
#
# number of rings (size 3 to 8) (size 9 to 14) (size 15 to 20)
#    0.000    2.714    0.000    3.429    0.000    5.429 
#    0.000    0.714    0.000    0.000    0.000    0.000 
#    0.000    0.000    0.000    0.000    0.000    0.000 
#
# Total GULP energy -156266.660386 kJ/mol
# GULP energy per Si atom -5580.952157 kJ/mol
# Density = 2.273487 g / cm^3
# Si number density = 22.786731 Si / 1000 Ang^3
#
#
#
# Elastic Constant Matrix: (Units=GPa)
#
#
# Indices 1 2 3 4 5 6 
#
# 1 75.9224 -4.0431 16.6918 0.0000 32.1784 0.0000
# 2 -4.0431 48.6010 -4.5475 0.0000 7.8510 0.0000
# 3 16.6918 -4.5475 94.3599 0.0000 44.6130 0.0000
# 4 0.0000 0.0000 0.0000 -1.1767 0.0000 -22.9347
# 5 32.1784 7.8510 44.6130 0.0000 36.7553 0.0000
# 6 0.0000 0.0000 0.0000 -22.9347 0.0000 1.2888
#
#
#
# Elastic Compliance Matrix: (Units=1/GPa)
#
#
# Indices 1 2 3 4 5 6 
#
# 1 0.037117 0.016569 0.026446 0.000000 -0.068133 0.000000
# 2 0.016569 0.031208 0.020142 0.000000 -0.045619 0.000000
# 3 0.026446 0.020142 0.046631 0.000000 -0.084055 0.000000
# 4 0.000000 0.000000 0.000000 -0.002443 0.000000 -0.043477
# 5 -0.068133 -0.045619 -0.084055 0.000000 0.198625 0.000000
# 6 0.000000 0.000000 0.000000 -0.043477 0.000000 0.002231
#
#
# Mechanical properties :
#
#
# Convention : Reuss Voigt Hill
#
# Bulk Modulus (GPa) = 4.14477 26.12064 15.13270
# Shear Modulus (GPa) = 18.69304 21.42562 20.05933
#
# Velocity S-wave (km/s) = 2.86728 3.06970 2.97022
# Velocity P-wave (km/s) = 3.57556 4.90429 4.29166
#
# Compressibility (1/GPa) = 0.24126795
#
# Stress axis : x y z
#
# Youngs Moduli (GPa) = 26.94212 32.04309 21.44484
#
# Poissons Ratio (x) = -0.53091 -0.56713
# Poissons Ratio (y) = -0.44639 -0.43193
# Poissons Ratio (z) = -0.71251 -0.64540
#
# Static dielectric constant tensor:
#      x y z
#    x 1.891480 0.000000 0.048840 
#    y 0.000000 1.805430 0.000000 
#    z 0.048840 0.000000 1.860380 
# 
# From -- ./inp_files/360030.got.cif
#   From: 2010.05.17/outbox.cif.g08.bks.cpg/sg12_181_cif.got.tgz:360030.got - 2010.06.03 13:09:07.
