data_PCOD9169343
_publ_section_title
;
Structure prediction by ZEFSAII (Michael W. Deem and Ramdas Pophale) SiO2 
 PCOD9169343
Probable space group: C 2/M
;
_chemical_formula_sum "Si O2"
_cell_formula_units_Z 56
_cell_length_a 15.761714
_cell_length_b 7.822088
_cell_length_c 21.950775
_cell_angle_alpha 90.000000
_cell_angle_beta 50.219480
_cell_angle_gamma 90.000000
_cell_volume 2079.794847
_symmetry_space_group_name_H-M "C 2/M"
_symmetry_group_IT_number 12
_symmetry_cell_setting 'monoclinic'
loop_
_space_group_symop_operation_xyz
x,y,z
-x,y,-z
-x,-y,-z
x,-y,z
1/2+x,1/2+y,z
1/2-x,1/2+y,-z
1/2-x,1/2-y,-z
1/2+x,1/2-y,z
loop_
_atom_site_type_symbol
_atom_site_label
_atom_site_fract_x
_atom_site_fract_y
_atom_site_fract_z
Si Si1 0.349259 0.304394 0.011325
Si Si2 0.148693 0.204905 0.411813
Si Si3 0.618942 0.294812 0.556778
Si Si4 0.301990 0.796728 0.737684
Si Si5 0.084370 0.694438 0.887062
Si Si6 0.375994 0.209900 0.838446
Si Si7 0.896955 0.700496 0.302968
O O1 0.383779 0.302769 0.067876
O O2 0.223929 0.233004 0.071909
O O3 0.151590 0.000000 0.007268
O O4 0.454551 0.214167 0.932399
O O5 0.089726 0.264894 0.501058
O O6 0.124295 0.232687 0.352049
O O7 0.274634 0.277155 0.355932
O O8 0.150132 0.000000 0.419273
O O9 0.604315 0.500000 0.568353
O O10 0.750000 0.250000 0.500000
O O11 0.571625 0.210475 0.639511
O O12 0.174460 0.734639 0.794371
O O13 0.340034 0.738588 0.786659
O O14 0.303201 0.000000 0.735878
O O15 0.100308 0.500000 0.898914
O O16 0.501450 0.273179 0.782220
O O17 0.376271 0.000000 0.841152
O O18 0.887196 0.500000 0.291830
#
# Coordination Sequence:
#
# PCOD9169343 Si02
#       7
#     8   8   8   8   8   8   8
#     4   9  15  26  44  66  92 121 157 193 226 270
#     4   9  18  31  48  69  93 120 150 189 234 275
#     4   9  17  30  48  70  93 120 156 193 229 270
#     4  10  19  31  48  69  94 123 156 192 230 276
#     4  10  17  26  42  65  93 122 154 191 232 273
#     4   8  16  30  48  70  94 122 154 190 231 271
#     4   9  17  32  52  71  93 121 155 192 230 274
#
# _framework density 26.925733000000001
#
# number of rings (size 3 to 8) (size 9 to 14) (size 15 to 20)
#    0.000    2.857    0.000    5.143    0.000    2.857 
#    0.000    5.000    0.000    5.143    0.000    0.000 
#    0.000    0.000    0.000    0.000    0.000    0.000 
#
# Total GULP energy -156513.436216 kJ/mol
# GULP energy per Si atom -5589.765579 kJ/mol
# Density = 2.686445 g / cm^3
# Si number density = 26.925733 Si / 1000 Ang^3
#
#
#
# Elastic Constant Matrix: (Units=GPa)
#
#
# Indices 1 2 3 4 5 6 
#
# 1 71.0346 2.0305 15.1514 0.0001 -1.4916 0.0002
# 2 2.0305 78.1145 2.2514 0.0001 -0.3393 0.0002
# 3 15.1514 2.2514 226.5459 0.0000 -10.3533 0.0000
# 4 0.0001 0.0001 0.0000 24.4797 0.0000 20.6950
# 5 -1.4916 -0.3393 -10.3533 0.0000 55.4139 0.0001
# 6 0.0002 0.0002 0.0000 20.6950 0.0001 -36.0279
#
#
#
# Elastic Compliance Matrix: (Units=1/GPa)
#
#
# Indices 1 2 3 4 5 6 
#
# 1 0.014293 -0.000343 -0.000943 0.000000 0.000206 0.000000
# 2 -0.000343 0.012814 -0.000102 0.000000 0.000050 0.000000
# 3 -0.000943 -0.000102 0.004516 0.000000 0.000818 0.000000
# 4 0.000000 0.000000 0.000000 0.027497 0.000000 0.015795
# 5 0.000206 0.000050 0.000818 0.000000 0.018205 0.000000
# 6 0.000000 0.000000 0.000000 0.015795 0.000000 -0.018683
#
#
# Mechanical properties :
#
#
# Convention : Reuss Voigt Hill
#
# Bulk Modulus (GPa) = 34.66786 46.06237 40.36512
# Shear Modulus (GPa) = 70.38978 32.52392 51.45685
#
# Velocity S-wave (km/s) = 5.11849 3.47927 4.37632
# Velocity P-wave (km/s) = 6.91630 5.76930 6.36867
#
# Compressibility (1/GPa) = 0.02884516
#
# Stress axis : x y z
#
# Youngs Moduli (GPa) = 69.96451 78.04078 221.45589
#
# Poissons Ratio (x) = 0.02680 0.20885
# Poissons Ratio (y) = 0.02403 0.02261
# Poissons Ratio (z) = 0.06598 0.00797
#
# Static dielectric constant tensor:
#      x y z
#    x 2.342460 0.000000 0.005410 
#    y 0.000000 1.942700 0.000000 
#    z 0.005410 0.000000 2.112860 
# 
# From -- ./inp_files/280310.got.cif
#   From: 2010.05.17/outbox.cif.g08.bks.cpg/sg12_141_cif.got.tgz:280310.got - 2010.06.03 13:09:07.
