data_PCOD9169957
_publ_section_title
;
Structure prediction by ZEFSAII (Michael W. Deem and Ramdas Pophale) SiO2 
 PCOD9169957
Probable space group: C 2/M
;
_chemical_formula_sum "Si O2"
_cell_formula_units_Z 56
_cell_length_a 11.585920
_cell_length_b 15.464122
_cell_length_c 18.217290
_cell_angle_alpha 90.000000
_cell_angle_beta 52.835596
_cell_angle_gamma 90.000000
_cell_volume 2601.035768
_symmetry_space_group_name_H-M "C 2/M"
_symmetry_group_IT_number 12
_symmetry_cell_setting 'monoclinic'
loop_
_space_group_symop_operation_xyz
x,y,z
-x,y,-z
-x,-y,-z
x,-y,z
1/2+x,1/2+y,z
1/2-x,1/2+y,-z
1/2-x,1/2-y,-z
1/2+x,1/2-y,z
loop_
_atom_site_type_symbol
_atom_site_label
_atom_site_fract_x
_atom_site_fract_y
_atom_site_fract_z
Si Si1 0.371151 0.400801 0.359119
Si Si2 0.304201 0.348685 0.773721
Si Si3 0.379563 0.240091 0.876028
Si Si4 0.155347 0.105120 0.471132
Si Si5 0.408252 0.097631 0.258649
Si Si6 0.175419 0.821687 0.781637
Si Si7 0.326417 0.595989 0.067216
O O1 0.324773 0.500000 0.370805
O O2 0.545675 0.395527 0.299398
O O3 0.314382 0.363205 0.457820
O O4 0.334668 0.356060 0.296586
O O5 0.306886 0.317212 0.856993
O O6 0.171457 0.400736 0.790382
O O7 0.289085 0.256157 0.739618
O O8 0.472166 0.171669 0.790072
O O9 0.517436 0.281022 0.864377
O O10 0.251342 0.173884 0.948442
O O11 0.284981 0.121145 0.365051
O O12 0.000000 0.135919 0.500000
O O13 0.143463 0.000000 0.481200
O O14 0.459591 0.000000 0.253595
O O15 0.208243 0.889315 0.833039
O O16 0.281413 0.500000 0.059318
O O17 0.500000 0.599097 0.000000
#
# Coordination Sequence:
#
# PCOD9169957 Si02
#       7
#     8   8   8   8   8   8   8
#     4  10  17  29  49  68  92 129 168 199 229 274
#     4   9  17  30  44  66  97 124 152 195 239 278
#     4   9  19  33  49  72 100 126 154 193 244 290
#     4   9  16  26  43  70  98 124 163 207 235 264
#     4  10  17  29  49  68  92 129 168 199 229 274
#     4   9  19  33  49  72 100 126 154 193 244 290
#     4  10  20  35  55  76  96 121 157 198 237 287
#
# _framework density 21.529885
#
# number of rings (size 3 to 8) (size 9 to 14) (size 15 to 20)
#    0.000    2.571    1.429    1.286    0.000    0.571 
#    0.000    7.857    0.000    2.571    0.000   13.000 
#    0.000   27.429    0.000    0.000    0.000    0.000 
#
# Total GULP energy -155925.040506 kJ/mol
# GULP energy per Si atom -5568.751447 kJ/mol
# Density = 2.148088 g / cm^3
# Si number density = 21.529885 Si / 1000 Ang^3
#
#
#
# Elastic Constant Matrix: (Units=GPa)
#
#
# Indices 1 2 3 4 5 6 
#
# 1 64.1871 -3.5745 -6.1671 0.0000 4.7404 0.0000
# 2 -3.5745 56.3384 -5.6943 0.0000 4.7103 0.0000
# 3 -6.1671 -5.6943 38.6288 0.0000 -1.5689 0.0000
# 4 0.0000 0.0000 0.0000 6.4584 0.0000 -10.2980
# 5 4.7404 4.7103 -1.5689 0.0000 28.7898 0.0000
# 6 0.0000 0.0000 0.0000 -10.2980 0.0000 20.7152
#
#
#
# Elastic Compliance Matrix: (Units=1/GPa)
#
#
# Indices 1 2 3 4 5 6 
#
# 1 0.016126 0.001525 0.002687 0.000000 -0.002758 0.000000
# 2 0.001525 0.018392 0.002829 0.000000 -0.003106 0.000000
# 3 0.002687 0.002829 0.026756 0.000000 0.000553 0.000000
# 4 0.000000 0.000000 0.000000 0.746808 0.000000 0.371254
# 5 -0.002758 -0.003106 0.000553 0.000000 0.035727 0.000000
# 6 0.000000 0.000000 0.000000 0.371254 0.000000 0.232831
#
#
# Mechanical properties :
#
#
# Convention : Reuss Voigt Hill
#
# Bulk Modulus (GPa) = 13.27011 14.25361 13.76186
# Shear Modulus (GPa) = 4.59695 22.83201 13.71448
#
# Velocity S-wave (km/s) = 1.46280 3.26003 2.52662
# Velocity P-wave (km/s) = 3.00500 4.56127 3.86233
#
# Compressibility (1/GPa) = 0.07535731
#
# Stress axis : x y z
#
# Youngs Moduli (GPa) = 62.01045 54.37067 37.37492
#
# Poissons Ratio (x) = -0.08294 -0.10044
# Poissons Ratio (y) = -0.09459 -0.10572
# Poissons Ratio (z) = -0.16665 -0.15379
#
# Static dielectric constant tensor:
#      x y z
#    x 1.804530 0.000000 0.004730 
#    y 0.000000 1.806080 0.000000 
#    z 0.004730 0.000000 1.838730 
# 
# From -- ./inp_files/205019.got.cif
#   From: 2010.05.17/outbox.cif.g08.bks.cpg/sg12_103_cif.got.tgz:205019.got - 2010.06.03 13:09:07.
