data_PCOD9169690
_publ_section_title
;
Structure prediction by ZEFSAII (Michael W. Deem and Ramdas Pophale) SiO2 
 PCOD9169690
Probable space group: C 2/M
;
_chemical_formula_sum "Si O2"
_cell_formula_units_Z 60
_cell_length_a 7.269484
_cell_length_b 19.582571
_cell_length_c 17.644509
_cell_angle_alpha 90.000000
_cell_angle_beta 82.908621
_cell_angle_gamma 90.000000
_cell_volume 2492.573514
_symmetry_space_group_name_H-M "C 2/M"
_symmetry_group_IT_number 12
_symmetry_cell_setting 'monoclinic'
loop_
_space_group_symop_operation_xyz
x,y,z
-x,y,-z
-x,-y,-z
x,-y,z
1/2+x,1/2+y,z
1/2-x,1/2+y,-z
1/2-x,1/2-y,-z
1/2+x,1/2-y,z
loop_
_atom_site_type_symbol
_atom_site_label
_atom_site_fract_x
_atom_site_fract_y
_atom_site_fract_z
Si Si1 0.210308 0.610626 0.468112
Si Si2 0.795585 0.325215 0.093458
Si Si3 0.261293 0.165166 0.929049
Si Si4 0.209430 0.575232 0.776063
Si Si5 0.803895 0.142751 0.628187
Si Si6 0.099117 0.288139 0.349763
Si Si7 0.653261 0.500000 0.661193
Si Si8 0.724262 0.889375 0.225357
O O1 0.314551 0.619487 0.541821
O O2 0.182220 0.681522 0.423645
O O3 0.308766 0.559321 0.406287
O O4 0.000000 0.586787 0.500000
O O5 0.779667 0.243540 0.091397
O O6 0.727586 0.364240 0.171507
O O7 0.014933 0.340961 0.080996
O O8 0.703953 0.348288 0.018620
O O9 0.195765 0.119735 0.862625
O O10 0.243571 0.500000 0.806009
O O11 0.305112 0.582330 0.688917
O O12 0.988248 0.583331 0.772800
O O13 0.925400 0.207455 0.644588
O O14 0.599931 0.176274 0.645715
O O15 0.207042 0.316938 0.270863
O O16 0.670085 0.440940 0.726811
#
# Coordination Sequence:
#
# PCOD9169690 Si02
#       8
#     8   8   8   8   8   8   4   8
#     4   9  18  27  45  69  98 123 163 200 246 293
#     4   9  18  32  51  77 102 133 159 208 239 297
#     4   9  17  32  51  77 102 127 170 195 254 280
#     4  10  19  30  46  74 104 131 162 201 250 290
#     4  10  19  31  50  73  99 127 163 205 249 292
#     4   9  18  31  46  74  98 123 162 209 249 282
#     4  10  17  28  44  69 101 133 157 202 247 290
#     4   9  17  29  46  70 101 128 159 202 244 289
#
# _framework density 24.071508000000001
#
# number of rings (size 3 to 8) (size 9 to 14) (size 15 to 20)
#    0.000    2.667    0.667    2.200    0.933    0.000 
#    1.200    1.333    0.000    0.000   15.600    5.600 
#    0.000    0.000    0.000    0.000    0.000    0.000 
#
# Total GULP energy -167274.807324 kJ/mol
# GULP energy per Si atom -5575.826911 kJ/mol
# Density = 2.401672 g / cm^3
# Si number density = 24.071508 Si / 1000 Ang^3
#
#
#
# Elastic Constant Matrix: (Units=GPa)
#
#
# Indices 1 2 3 4 5 6 
#
# 1 63.5397 -6.2957 9.3130 0.0000 10.5455 0.0000
# 2 -6.2957 73.4383 27.9225 0.0000 15.1878 0.0000
# 3 9.3130 27.9225 128.4940 0.0000 8.9797 0.0000
# 4 0.0000 0.0000 0.0000 -49.7396 0.0000 -43.2886
# 5 10.5455 15.1878 8.9797 0.0000 22.9842 0.0000
# 6 0.0000 0.0000 0.0000 -43.2886 0.0000 -36.1971
#
#
#
# Elastic Compliance Matrix: (Units=1/GPa)
#
#
# Indices 1 2 3 4 5 6 
#
# 1 0.018146 0.004321 -0.001514 0.000000 -0.010590 0.000000
# 2 0.004321 0.017826 -0.003316 0.000000 -0.012467 0.000000
# 3 -0.001514 -0.003316 0.008647 0.000000 -0.000493 0.000000
# 4 0.000000 0.000000 0.000000 0.492686 0.000000 -0.589209
# 5 -0.010590 -0.012467 -0.000493 0.000000 0.056797 0.000000
# 6 0.000000 0.000000 0.000000 -0.589209 0.000000 0.677015
#
#
# Mechanical properties :
#
#
# Convention : Reuss Voigt Hill
#
# Bulk Modulus (GPa) = 22.93468 36.37240 29.65354
# Shear Modulus (GPa) = 3.88600 3.04498 3.46549
#
# Velocity S-wave (km/s) = 1.27195 1.12593 1.20116
# Velocity P-wave (km/s) = 3.42134 4.10283 3.77749
#
# Compressibility (1/GPa) = 0.04360209
#
# Stress axis : x y z
#
# Youngs Moduli (GPa) = 55.10918 56.09694 115.64489
#
# Poissons Ratio (x) = -0.24241 0.17511
# Poissons Ratio (y) = -0.23815 0.38345
# Poissons Ratio (z) = 0.08345 0.18600
#
# Static dielectric constant tensor:
#      x y z
#    x 2.048360 0.000000 -0.011410 
#    y 0.000000 1.902710 0.000000 
#    z -0.011410 0.000000 1.890240 
# 
# From -- ./inp_files/263902.got.cif
#   From: 2010.05.17/outbox.cif.g08.bks.cpg/sg12_132_cif.got.tgz:263902.got - 2010.06.03 13:09:07.
