data_PCOD9169082
_publ_section_title
;
Structure prediction by ZEFSAII (Michael W. Deem and Ramdas Pophale) SiO2 
 PCOD9169082
Probable space group: C 2/M
;
_chemical_formula_sum "Si O2"
_cell_formula_units_Z 60
_cell_length_a 15.022844
_cell_length_b 22.009695
_cell_length_c 11.872438
_cell_angle_alpha 90.000000
_cell_angle_beta 53.682041
_cell_angle_gamma 90.000000
_cell_volume 3163.023807
_symmetry_space_group_name_H-M "C 2/M"
_symmetry_group_IT_number 12
_symmetry_cell_setting 'monoclinic'
loop_
_space_group_symop_operation_xyz
x,y,z
-x,y,-z
-x,-y,-z
x,-y,z
1/2+x,1/2+y,z
1/2-x,1/2+y,-z
1/2-x,1/2-y,-z
1/2+x,1/2-y,z
loop_
_atom_site_type_symbol
_atom_site_label
_atom_site_fract_x
_atom_site_fract_y
_atom_site_fract_z
Si Si1 0.895366 0.360036 0.162564
Si Si2 0.851328 0.299218 0.537878
Si Si3 0.182114 0.282556 0.190732
Si Si4 0.378283 0.673347 0.922370
Si Si5 0.751650 0.069120 0.902064
Si Si6 0.108492 0.767626 0.713864
Si Si7 0.500000 0.092764 0.500000
Si Si8 0.442550 0.904687 0.783738
O O1 0.797673 0.393428 0.167903
O O2 0.870973 0.291862 0.223587
O O3 0.943276 0.398324 0.232607
O O4 0.000000 0.355266 0.000000
O O5 0.856314 0.268377 0.655522
O O6 0.909459 0.261464 0.396580
O O7 0.721351 0.304398 0.612374
O O8 0.906045 0.363781 0.518331
O O9 0.172948 0.221775 0.126950
O O10 0.105066 0.336014 0.198337
O O11 0.305498 0.311399 0.088073
O O12 0.346317 0.608027 0.895145
O O13 0.505765 0.692513 0.832780
O O14 0.783275 0.000000 0.849607
O O15 0.648875 0.066536 0.066714
O O16 0.546895 0.066100 0.348228
#
# Coordination Sequence:
#
# PCOD9169082 Si02
#       8
#     8   8   8   8   8   8   4   8
#     4  10  19  31  51  77 113 145 177 233 271 329
#     4  10  20  28  48  76 119 144 169 219 280 357
#     4   9  17  31  50  79 107 147 176 222 293 329
#     4  10  19  32  53  76 111 144 186 231 268 334
#     4  10  22  37  54  80 109 149 191 228 271 316
#     4  11  20  31  46  86 113 145 183 219 289 328
#     4  10  16  34  49  72 108 144 175 218 288 340
#     4   9  17  31  53  77 110 142 176 232 279 339
#
# _framework density 18.969190000000001
#
# number of rings (size 3 to 8) (size 9 to 14) (size 15 to 20)
#    0.000    2.133    2.667    1.600    3.733    2.400 
#    0.000    0.333    0.000    0.000    0.000   34.533 
#    0.000    0.000    0.000    0.000    0.000    0.000 
#
# Total GULP energy -167159.193645 kJ/mol
# GULP energy per Si atom -5571.973122 kJ/mol
# Density = 1.892602 g / cm^3
# Si number density = 18.969190 Si / 1000 Ang^3
#
#
#
# Elastic Constant Matrix: (Units=GPa)
#
#
# Indices 1 2 3 4 5 6 
#
# 1 73.2063 37.1278 18.8869 0.0000 -8.7432 0.0000
# 2 37.1278 104.3553 16.0341 0.0000 -3.0470 0.0000
# 3 18.8869 16.0341 77.8619 0.0000 11.7226 0.0000
# 4 0.0000 0.0000 0.0000 -5.0315 0.0000 -4.4536
# 5 -8.7432 -3.0470 11.7226 0.0000 39.6832 0.0000
# 6 0.0000 0.0000 0.0000 -4.4536 0.0000 2.5386
#
#
#
# Elastic Compliance Matrix: (Units=1/GPa)
#
#
# Indices 1 2 3 4 5 6 
#
# 1 0.018134 -0.005710 -0.003933 0.000000 0.004719 0.000000
# 2 -0.005710 0.011771 -0.001032 0.000000 -0.000049 0.000000
# 3 -0.003933 -0.001032 0.014811 0.000000 -0.005321 0.000000
# 4 0.000000 0.000000 0.000000 -0.077852 0.000000 -0.136582
# 5 0.004719 -0.000049 -0.005321 0.000000 0.027807 0.000000
# 6 0.000000 0.000000 0.000000 -0.136582 0.000000 0.154305
#
#
# Mechanical properties :
#
#
# Convention : Reuss Voigt Hill
#
# Bulk Modulus (GPa) = 42.79580 44.39122 43.59351
# Shear Modulus (GPa) = 28.07176 19.66303 23.86740
#
# Velocity S-wave (km/s) = 3.85107 3.22308 3.55099
# Velocity P-wave (km/s) = 6.51030 6.10767 6.31219
#
# Compressibility (1/GPa) = 0.02336678
#
# Stress axis : x y z
#
# Youngs Moduli (GPa) = 55.14443 84.95380 67.51754
#
# Poissons Ratio (x) = 0.48506 0.26558
# Poissons Ratio (y) = 0.31486 0.06965
# Poissons Ratio (z) = 0.21691 0.08764
#
# Static dielectric constant tensor:
#      x y z
#    x 1.724310 0.000000 0.016540 
#    y 0.000000 1.651700 0.000000 
#    z 0.016540 0.000000 1.731080 
# 
# From -- ./inp_files/148606.got.cif
#   From: 2010.05.17/outbox.cif.g08.bks.cpg/sg12_75_cif.got.tgz:148606.got - 2010.06.03 13:09:07.
