data_PCOD9169125
_publ_section_title
;
Structure prediction by ZEFSAII (Michael W. Deem and Ramdas Pophale) SiO2 
 PCOD9169125
Probable space group: C 2/M
;
_chemical_formula_sum "Si O2"
_cell_formula_units_Z 44
_cell_length_a 18.498356
_cell_length_b 28.895122
_cell_length_c 9.643010
_cell_angle_alpha 90.000000
_cell_angle_beta 25.232465
_cell_angle_gamma 90.000000
_cell_volume 2197.239416
_symmetry_space_group_name_H-M "C 2/M"
_symmetry_group_IT_number 12
_symmetry_cell_setting 'monoclinic'
loop_
_space_group_symop_operation_xyz
x,y,z
-x,y,-z
-x,-y,-z
x,-y,z
1/2+x,1/2+y,z
1/2-x,1/2+y,-z
1/2-x,1/2-y,-z
1/2+x,1/2-y,z
loop_
_atom_site_type_symbol
_atom_site_label
_atom_site_fract_x
_atom_site_fract_y
_atom_site_fract_z
Si Si1 0.619255 0.598175 0.520726
Si Si2 0.478911 0.779304 0.237418
Si Si3 0.446313 0.500000 0.252359
Si Si4 0.318085 0.500000 0.908519
Si Si5 0.288661 0.310678 0.504318
Si Si6 0.000000 0.320813 0.500000
Si Si7 0.741198 0.601152 0.012081
O O1 0.645374 0.547370 0.540478
O O2 0.645720 0.637960 0.586172
O O3 0.735051 0.610081 0.187467
O O4 0.436095 0.600093 0.763792
O O5 0.438425 0.726061 0.270073
O O6 0.312050 0.804592 0.464544
O O7 0.499811 0.789721 0.362774
O O8 0.643609 0.796918 0.868949
O O9 0.616561 0.500000 0.048448
O O10 0.500000 0.500000 0.000000
O O11 0.500000 0.500000 0.500000
O O12 0.213462 0.546643 0.067640
O O13 0.154138 0.357295 0.234148
#
# Coordination Sequence:
#
# PCOD9169125 Si02
#       7
#     8   8   4   4   8   4   8
#     4  10  19  39  64  85 120 163 198 245 310 356
#     4  10  24  41  59  87 123 158 206 248 296 364
#     4  10  20  34  60  99 115 143 210 258 285 350
#     4  10  16  37  58  79 118 159 199 242 291 369
#     4  10  22  43  62  83 121 167 197 244 314 357
#     4  12  24  37  58  96 124 149 208 262 290 358
#     4  10  20  35  61  90 116 162 203 245 304 360
#
# _framework density 20.025127999999999
#
# number of rings (size 3 to 8) (size 9 to 14) (size 15 to 20)
#    0.000    1.818    5.455    0.000    2.545    5.455 
#    3.273    0.000    0.000    3.273    0.000    0.000 
#    0.000    0.000    0.000    0.000    0.000    0.000 
#
# Total GULP energy -122610.720596 kJ/mol
# GULP energy per Si atom -5573.214573 kJ/mol
# Density = 1.997955 g / cm^3
# Si number density = 20.025128 Si / 1000 Ang^3
#
#
#
# Elastic Constant Matrix: (Units=GPa)
#
#
# Indices 1 2 3 4 5 6 
#
# 1 87.5256 23.8875 13.8945 0.0221 23.6666 0.0058
# 2 23.8875 121.6898 1.9145 -0.0082 -14.3505 -0.0020
# 3 13.8945 1.9145 44.3215 0.0293 7.2004 0.0085
# 4 0.0221 -0.0082 0.0293 -69.3282 -0.0161 -19.0512
# 5 23.6666 -14.3505 7.2004 -0.0161 18.9374 -0.0050
# 6 0.0058 -0.0020 0.0085 -19.0512 -0.0050 27.2115
#
#
#
# Elastic Compliance Matrix: (Units=1/GPa)
#
#
# Indices 1 2 3 4 5 6 
#
# 1 0.023778 -0.008892 -0.001223 0.000017 -0.035989 0.000000
# 2 -0.008892 0.012457 -0.001161 -0.000010 0.020994 0.000000
# 3 -0.001223 -0.001161 0.024398 0.000012 -0.008627 -0.000001
# 4 0.000017 -0.000010 0.000012 -0.012097 -0.000045 -0.008469
# 5 -0.035989 0.020994 -0.008627 -0.000045 0.116971 0.000002
# 6 0.000000 0.000000 -0.000001 -0.008469 0.000002 0.030820
#
#
# Mechanical properties :
#
#
# Convention : Reuss Voigt Hill
#
# Bulk Modulus (GPa) = 26.26123 36.99220 31.62672
# Shear Modulus (GPa) = 21.59152 9.62017 15.60585
#
# Velocity S-wave (km/s) = 3.28719 2.19419 2.79465
# Velocity P-wave (km/s) = 5.24882 4.99323 5.12262
#
# Compressibility (1/GPa) = 0.03807895
#
# Stress axis : x y z
#
# Youngs Moduli (GPa) = 42.05656 80.27483 40.98755
#
# Poissons Ratio (x) = 0.71383 0.05014
# Poissons Ratio (y) = 0.37398 0.04759
# Poissons Ratio (z) = 0.05145 0.09321
#
# Static dielectric constant tensor:
#      x y z
#    x 1.469390 0.000000 0.094580 
#    y 0.000000 1.733160 0.000000 
#    z 0.094580 0.000000 1.754850 
# 
# From -- ./inp_files/80400.got.cif
#   From: 2010.05.17/outbox.cif.g08.bks.cpg/sg12_41_cif.got.tgz:80400.got - 2010.06.03 13:09:07.
