data_PCOD9169166
_publ_section_title
;
Structure prediction by ZEFSAII (Michael W. Deem and Ramdas Pophale) SiO2 
 PCOD9169166
Probable space group: C 2/M
;
_chemical_formula_sum "Si O2"
_cell_formula_units_Z 40
_cell_length_a 14.219848
_cell_length_b 9.078981
_cell_length_c 14.736581
_cell_angle_alpha 90.000000
_cell_angle_beta 110.338507
_cell_angle_gamma 90.000000
_cell_volume 1783.906666
_symmetry_space_group_name_H-M "C 2/M"
_symmetry_group_IT_number 12
_symmetry_cell_setting 'monoclinic'
loop_
_space_group_symop_operation_xyz
x,y,z
-x,y,-z
-x,-y,-z
x,-y,z
1/2+x,1/2+y,z
1/2-x,1/2+y,-z
1/2-x,1/2-y,-z
1/2+x,1/2-y,z
loop_
_atom_site_type_symbol
_atom_site_label
_atom_site_fract_x
_atom_site_fract_y
_atom_site_fract_z
Si Si1 0.523494 0.334399 0.106056
Si Si2 0.561675 0.319598 0.311242
Si Si3 0.121604 0.830869 0.522653
Si Si4 0.151484 0.325745 0.711301
Si Si5 0.796011 0.164305 0.098800
O O1 0.562764 0.500000 0.098095
O O2 0.585874 0.279200 0.214786
O O3 0.413479 0.346122 0.113812
O O4 0.500000 0.261157 0.000000
O O5 0.546189 0.500000 0.307951
O O6 0.633138 0.288067 0.421073
O O7 0.460725 0.231428 0.302654
O O8 0.169575 0.730211 0.615751
O O9 0.000000 0.828591 0.500000
O O10 0.153702 0.000000 0.546489
O O11 0.158984 0.500000 0.718733
O O12 0.215976 0.251246 0.812069
O O13 0.754796 0.000000 0.092714
O O14 0.750000 0.250000 0.000000
#
# Coordination Sequence:
#
# PCOD9169166 Si02
#       5
#     8   8   8   8   8
#     4   8  14  26  45  67  88 112 144 178 210 250
#     4   8  14  24  38  57  83 113 141 172 212 256
#     4   8  13  22  35  53  80 111 139 169 211 258
#     4  10  17  24  37  58  83 110 141 176 214 253
#     4  10  19  31  46  64  88 116 145 177 213 254
#
# _framework density 22.422699000000001
#
# number of rings (size 3 to 8) (size 9 to 14) (size 15 to 20)
#    0.000    3.200    0.000    4.800    0.000    3.600 
#    0.000    0.000    0.000   15.000    0.000    1.400 
#    0.000    0.000    0.000    0.000    0.000    0.000 
#
# Total GULP energy -111434.999429 kJ/mol
# GULP energy per Si atom -5571.749971 kJ/mol
# Density = 2.237166 g / cm^3
# Si number density = 22.422699 Si / 1000 Ang^3
#
#
#
# Elastic Constant Matrix: (Units=GPa)
#
#
# Indices 1 2 3 4 5 6 
#
# 1 63.6034 14.2365 18.9425 0.0000 -20.8757 0.0000
# 2 14.2365 125.5677 106.9925 0.0000 -1.9217 0.0000
# 3 18.9425 106.9925 294.0250 0.0000 -29.5685 0.0000
# 4 0.0000 0.0000 0.0000 34.5680 0.0000 2.5540
# 5 -20.8757 -1.9217 -29.5685 0.0000 25.2920 0.0000
# 6 0.0000 0.0000 0.0000 2.5540 0.0000 -3.0308
#
#
#
# Elastic Compliance Matrix: (Units=1/GPa)
#
#
# Indices 1 2 3 4 5 6 
#
# 1 0.022934 -0.004098 0.002137 0.000000 0.021117 0.000000
# 2 -0.004098 0.012761 -0.005238 0.000000 -0.008537 0.000000
# 3 0.002137 -0.005238 0.006014 0.000000 0.008397 0.000000
# 4 0.000000 0.000000 0.000000 0.027233 0.000000 0.022948
# 5 0.021117 -0.008537 0.008397 0.000000 0.066136 0.000000
# 6 0.000000 0.000000 0.000000 0.022948 0.000000 -0.310603
#
#
# Mechanical properties :
#
#
# Convention : Reuss Voigt Hill
#
# Bulk Modulus (GPa) = 36.61497 84.83765 60.72631
# Shear Modulus (GPa) = -32.88960 34.23414 0.67227
#
# Velocity S-wave (km/s) = -3.83404 3.91162 0.54815
# Velocity P-wave (km/s) = 1.79859 7.63667 5.24804
#
# Compressibility (1/GPa) = 0.02731123
#
# Stress axis : x y z
#
# Youngs Moduli (GPa) = 43.60308 78.36352 166.28203
#
# Poissons Ratio (x) = 0.32115 -0.35541
# Poissons Ratio (y) = 0.17870 0.87100
# Poissons Ratio (z) = -0.09320 0.41047
#
# Static dielectric constant tensor:
#      x y z
#    x 2.017740 0.000000 0.070890 
#    y 0.000000 1.776620 0.000000 
#    z 0.070890 0.000000 1.929810 
# 
# From -- ./inp_files/220275.got.cif
#   From: 2010.05.17/outbox.cif.g08.bks.cpg/sg12_111_cif.got.tgz:220275.got - 2010.06.03 13:09:07.
