data_PCOD9169510
_publ_section_title
;
Structure prediction by ZEFSAII (Michael W. Deem and Ramdas Pophale) SiO2 
 PCOD9169510
Probable space group: C 2/M
;
_chemical_formula_sum "Si O2"
_cell_formula_units_Z 56
_cell_length_a 14.823377
_cell_length_b 19.227876
_cell_length_c 8.340702
_cell_angle_alpha 90.000000
_cell_angle_beta 76.897604
_cell_angle_gamma 90.000000
_cell_volume 2315.394972
_symmetry_space_group_name_H-M "C 2/M"
_symmetry_group_IT_number 12
_symmetry_cell_setting 'monoclinic'
loop_
_space_group_symop_operation_xyz
x,y,z
-x,y,-z
-x,-y,-z
x,-y,z
1/2+x,1/2+y,z
1/2-x,1/2+y,-z
1/2-x,1/2-y,-z
1/2+x,1/2-y,z
loop_
_atom_site_type_symbol
_atom_site_label
_atom_site_fract_x
_atom_site_fract_y
_atom_site_fract_z
Si Si1 0.813728 0.419653 0.503964
Si Si2 0.621517 0.920520 0.013802
Si Si3 0.116448 0.773720 0.681098
Si Si4 0.636785 0.576197 0.775565
Si Si5 0.292259 0.307013 0.671128
Si Si6 0.977570 0.638827 0.266487
Si Si7 0.840531 0.077630 0.868520
O O1 0.817109 0.500000 0.450078
O O2 0.747248 0.419489 0.687194
O O3 0.756070 0.370226 0.407879
O O4 0.917759 0.390699 0.439361
O O5 0.581938 0.881407 0.184996
O O6 0.594123 0.000000 0.048532
O O7 0.576240 0.892212 0.868248
O O8 0.730348 0.918419 0.945346
O O9 0.095675 0.853820 0.719685
O O10 0.205780 0.744268 0.748002
O O11 0.148205 0.766340 0.483810
O O12 0.033938 0.721019 0.739532
O O13 0.606585 0.500000 0.725229
O O14 0.617436 0.578063 0.971604
O O15 0.355132 0.350147 0.769014
O O16 0.859884 0.000000 0.788251
#
# Coordination Sequence:
#
# PCOD9169510 Si02
#       7
#     8   8   8   8   8   8   8
#     4   9  14  25  42  61  86 121 154 184 224 263
#     4  10  18  28  45  71  96 124 158 188 216 264
#     4   9  17  29  43  65  90 120 154 193 231 276
#     4   9  19  30  43  64  94 124 150 187 236 281
#     4   9  16  26  43  64  87 118 158 191 228 263
#     4  10  17  27  44  65  90 120 160 192 222 258
#     4  10  18  30  45  69  98 123 155 184 220 279
#
# _framework density 24.185938
#
# number of rings (size 3 to 8) (size 9 to 14) (size 15 to 20)
#    0.000    2.571    2.857    3.000    0.000    1.143 
#    0.000    0.714    0.000    3.429    0.000    2.000 
#    0.000    0.000    0.000   12.571    0.000    1.286 
#
# Total GULP energy -156173.268084 kJ/mol
# GULP energy per Si atom -5577.616717 kJ/mol
# Density = 2.413089 g / cm^3
# Si number density = 24.185938 Si / 1000 Ang^3
#
#
#
# Elastic Constant Matrix: (Units=GPa)
#
#
# Indices 1 2 3 4 5 6 
#
# 1 43.4962 17.2068 2.9431 0.0000 -7.9225 0.0000
# 2 17.2068 182.3530 26.3227 0.0000 -13.3210 0.0000
# 3 2.9431 26.3227 59.9654 0.0000 -1.1899 0.0000
# 4 0.0000 0.0000 0.0000 39.9922 0.0000 -11.1706
# 5 -7.9225 -13.3210 -1.1899 0.0000 8.4872 0.0000
# 6 0.0000 0.0000 0.0000 -11.1706 0.0000 2.3684
#
#
#
# Elastic Compliance Matrix: (Units=1/GPa)
#
#
# Indices 1 2 3 4 5 6 
#
# 1 0.027826 -0.000739 -0.000550 0.000000 0.024737 0.000000
# 2 -0.000739 0.006623 -0.002686 0.000000 0.009328 0.000000
# 3 -0.000550 -0.002686 0.017838 0.000000 -0.002228 0.000000
# 4 0.000000 0.000000 0.000000 -0.078776 0.000000 -0.371552
# 5 0.024737 0.009328 -0.002228 0.000000 0.155245 0.000000
# 6 0.000000 0.000000 0.000000 -0.371552 0.000000 -1.330209
#
#
# Mechanical properties :
#
#
# Convention : Reuss Voigt Hill
#
# Bulk Modulus (GPa) = 22.55499 42.08443 32.31971
# Shear Modulus (GPa) = -4.24187 26.12568 10.94191
#
# Velocity S-wave (km/s) = -1.32577 3.29021 2.12930
# Velocity P-wave (km/s) = 2.64620 5.64554 4.40877
#
# Compressibility (1/GPa) = 0.04433609
#
# Stress axis : x y z
#
# Youngs Moduli (GPa) = 35.93781 150.99500 56.06001
#
# Poissons Ratio (x) = 0.11160 0.03085
# Poissons Ratio (y) = 0.02656 0.15056
# Poissons Ratio (z) = 0.01978 0.40554
#
# Static dielectric constant tensor:
#      x y z
#    x 2.015170 0.000000 0.016790 
#    y 0.000000 1.922920 0.000000 
#    z 0.016790 0.000000 2.006340 
# 
# From -- ./inp_files/97647.got.cif
#   From: 2010.05.17/outbox.cif.g08.bks.cpg/sg12_49_cif.got.tgz:97647.got - 2010.06.03 13:09:07.
