data_PCOD9169376
_publ_section_title
;
Structure prediction by ZEFSAII (Michael W. Deem and Ramdas Pophale) SiO2 
 PCOD9169376
Probable space group: C 2/M
;
_chemical_formula_sum "Si O2"
_cell_formula_units_Z 40
_cell_length_a 26.051877
_cell_length_b 8.046243
_cell_length_c 8.073441
_cell_angle_alpha 90.000000
_cell_angle_beta 111.973212
_cell_angle_gamma 90.000000
_cell_volume 1569.418190
_symmetry_space_group_name_H-M "C 2/M"
_symmetry_group_IT_number 12
_symmetry_cell_setting 'monoclinic'
loop_
_space_group_symop_operation_xyz
x,y,z
-x,y,-z
-x,-y,-z
x,-y,z
1/2+x,1/2+y,z
1/2-x,1/2+y,-z
1/2-x,1/2-y,-z
1/2+x,1/2-y,z
loop_
_atom_site_type_symbol
_atom_site_label
_atom_site_fract_x
_atom_site_fract_y
_atom_site_fract_z
Si Si1 0.489126 0.194360 0.755308
Si Si2 0.212331 0.309126 0.104339
Si Si3 0.917736 0.803958 0.353840
Si Si4 0.313589 0.803573 0.399922
Si Si5 0.884785 0.296410 0.811230
O O1 0.451738 0.215384 0.543644
O O2 0.547414 0.271147 0.770639
O O3 0.447415 0.259429 0.847614
O O4 0.499133 0.000000 0.796967
O O5 0.200506 0.500000 0.059364
O O6 0.256071 0.290421 0.308250
O O7 0.154148 0.229888 0.088830
O O8 0.250000 0.250000 0.000000
O O9 0.855742 0.737116 0.299203
O O10 0.917904 0.000000 0.386196
O O11 0.348481 0.756943 0.603961
O O12 0.302778 0.000000 0.388571
O O13 0.887616 0.500000 0.823772
#
# Coordination Sequence:
#
# PCOD9169376 Si02
#       5
#     8   8   8   8   8
#     4   9  15  27  46  71 101 134 166 203 246 295
#     4  11  22  37  53  74 102 135 170 210 254 303
#     4  10  17  26  43  73 106 134 161 201 250 299
#     4  10  19  34  54  77 101 133 171 211 252 297
#     4   8  17  32  53  77 103 132 169 209 250 296
#
# _framework density 25.487152999999999
#
# number of rings (size 3 to 8) (size 9 to 14) (size 15 to 20)
#    0.000    2.400    0.000    6.600    0.000    0.000 
#    0.000   11.000    0.000    1.200    0.000    8.400 
#    0.000    0.000    0.000    0.000    0.000    0.000 
#
# Total GULP energy -111809.410929 kJ/mol
# GULP energy per Si atom -5590.470546 kJ/mol
# Density = 2.542914 g / cm^3
# Si number density = 25.487153 Si / 1000 Ang^3
#
#
#
# Elastic Constant Matrix: (Units=GPa)
#
#
# Indices 1 2 3 4 5 6 
#
# 1 245.9670 -6.0317 60.0837 0.0000 -24.1267 0.0000
# 2 -6.0317 42.4145 6.6766 0.0000 -5.9212 0.0000
# 3 60.0837 6.6766 85.3415 0.0000 -16.2410 0.0000
# 4 0.0000 0.0000 0.0000 6.7183 0.0000 2.0885
# 5 -24.1267 -5.9212 -16.2410 0.0000 58.2897 0.0000
# 6 0.0000 0.0000 0.0000 2.0885 0.0000 24.9846
#
#
#
# Elastic Compliance Matrix: (Units=1/GPa)
#
#
# Indices 1 2 3 4 5 6 
#
# 1 0.005066 0.001441 -0.003435 0.000000 0.001286 0.000000
# 2 0.001441 0.024506 -0.002476 0.000000 0.002396 0.000000
# 3 -0.003435 -0.002476 0.014796 0.000000 0.002449 0.000000
# 4 0.000000 0.000000 0.000000 0.152818 0.000000 -0.012774
# 5 0.001286 0.002396 0.002449 0.000000 0.018614 0.000000
# 6 0.000000 0.000000 0.000000 -0.012774 0.000000 0.041093
#
#
# Mechanical properties :
#
#
# Convention : Reuss Voigt Hill
#
# Bulk Modulus (GPa) = 28.22583 55.02003 41.62293
# Shear Modulus (GPa) = 18.00891 38.86482 28.43686
#
# Velocity S-wave (km/s) = 2.66106 3.90921 3.34388
# Velocity P-wave (km/s) = 4.53213 6.48152 5.59242
#
# Compressibility (1/GPa) = 0.03542854
#
# Stress axis : x y z
#
# Youngs Moduli (GPa) = 197.39126 40.80648 67.58798
#
# Poissons Ratio (x) = -0.05879 0.23214
# Poissons Ratio (y) = -0.28438 0.16732
# Poissons Ratio (z) = 0.67797 0.10102
#
# Static dielectric constant tensor:
#      x y z
#    x 2.074780 0.000000 -0.046580 
#    y 0.000000 1.895220 0.000000 
#    z -0.046580 0.000000 2.143430 
# 
# From -- ./inp_files/93028.got.cif
#   From: 2010.05.17/outbox.cif.g08.bks.cpg/sg12_47_cif.got.tgz:93028.got - 2010.06.03 13:09:07.
