data_PCOD9169469
_publ_section_title
;
Structure prediction by ZEFSAII (Michael W. Deem and Ramdas Pophale) SiO2 
 PCOD9169469
Probable space group: C 2/M
;
_chemical_formula_sum "Si O2"
_cell_formula_units_Z 56
_cell_length_a 27.683514
_cell_length_b 7.914377
_cell_length_c 15.180986
_cell_angle_alpha 90.000000
_cell_angle_beta 103.545874
_cell_angle_gamma 90.000000
_cell_volume 3233.596445
_symmetry_space_group_name_H-M "C 2/M"
_symmetry_group_IT_number 12
_symmetry_cell_setting 'monoclinic'
loop_
_space_group_symop_operation_xyz
x,y,z
-x,y,-z
-x,-y,-z
x,-y,z
1/2+x,1/2+y,z
1/2-x,1/2+y,-z
1/2-x,1/2-y,-z
1/2+x,1/2-y,z
loop_
_atom_site_type_symbol
_atom_site_label
_atom_site_fract_x
_atom_site_fract_y
_atom_site_fract_z
Si Si1 0.056211 0.204314 0.036319
Si Si2 0.219142 0.194314 0.111077
Si Si3 0.677522 0.304465 0.773463
Si Si4 0.818786 0.799191 0.605730
Si Si5 0.864762 0.306152 0.797323
Si Si6 0.640866 0.292775 0.936895
Si Si7 0.205555 0.794571 0.597331
O O1 0.093159 0.259772 0.973293
O O2 0.055897 0.000000 0.035562
O O3 0.082472 0.260954 0.137793
O O4 0.000000 0.264040 0.000000
O O5 0.266536 0.296005 0.163970
O O6 0.176737 0.199386 0.168342
O O7 0.234396 0.000000 0.104365
O O8 0.190224 0.258681 0.012297
O O9 0.662841 0.500000 0.756783
O O10 0.644068 0.231862 0.837945
O O11 0.680853 0.230078 0.676876
O O12 0.857553 0.723001 0.690937
O O13 0.819699 0.738672 0.504855
O O14 0.763173 0.758678 0.616510
O O15 0.825160 0.000000 0.608356
O O16 0.853459 0.500000 0.812878
O O17 0.641616 0.500000 0.937012
O O18 0.205380 0.000000 0.598992
#
# Coordination Sequence:
#
# PCOD9169469 Si02
#       7
#     8   8   8   8   8   8   8
#     4   9  18  34  53  71  91 115 145 183 228 276
#     4  10  18  28  41  61  89 122 156 183 213 258
#     4  10  17  27  42  62  90 121 150 181 218 261
#     4  10  18  29  43  61  88 121 156 191 222 262
#     4  11  20  30  46  67  91 119 152 189 228 267
#     4   8  16  28  43  64  89 116 146 179 219 268
#     4   9  18  28  41  62  89 122 156 188 223 258
#
# _framework density 17.318179000000001
#
# number of rings (size 3 to 8) (size 9 to 14) (size 15 to 20)
#    0.000    2.429    1.429    3.429    0.000    0.857 
#    0.000    2.857    0.000    0.000    0.000    1.000 
#    0.000    8.000    0.000    0.000    0.000    0.000 
#
# Total GULP energy -156108.444421 kJ/mol
# GULP energy per Si atom -5575.301586 kJ/mol
# Density = 1.727876 g / cm^3
# Si number density = 17.318179 Si / 1000 Ang^3
#
#
#
# Elastic Constant Matrix: (Units=GPa)
#
#
# Indices 1 2 3 4 5 6 
#
# 1 61.5037 2.5066 61.0138 0.0000 -0.2144 0.0000
# 2 2.5066 30.9679 6.1594 0.0000 -0.6103 0.0000
# 3 61.0138 6.1594 153.5607 0.0000 -17.8485 0.0000
# 4 0.0000 0.0000 0.0000 14.9853 0.0000 3.0433
# 5 -0.2144 -0.6103 -17.8485 0.0000 26.7498 0.0000
# 6 0.0000 0.0000 0.0000 3.0433 0.0000 8.9529
#
#
#
# Elastic Compliance Matrix: (Units=1/GPa)
#
#
# Indices 1 2 3 4 5 6 
#
# 1 0.028293 -0.000027 -0.012157 0.000000 -0.007885 0.000000
# 2 -0.000027 0.032552 -0.001310 0.000000 -0.000132 0.000000
# 3 -0.012157 -0.001310 0.012337 0.000000 0.008104 0.000000
# 4 0.000000 0.000000 0.000000 0.071680 0.000000 -0.024366
# 5 -0.007885 -0.000132 0.008104 0.000000 0.042725 0.000000
# 6 0.000000 0.000000 0.000000 -0.024366 0.000000 0.119978
#
#
# Mechanical properties :
#
#
# Convention : Reuss Voigt Hill
#
# Bulk Modulus (GPa) = 21.64850 42.82129 32.23489
# Shear Modulus (GPa) = 14.28771 21.89443 18.09107
#
# Velocity S-wave (km/s) = 2.87542 3.55948 3.23558
# Velocity P-wave (km/s) = 4.85300 6.45547 5.71072
#
# Compressibility (1/GPa) = 0.04619258
#
# Stress axis : x y z
#
# Youngs Moduli (GPa) = 35.34444 30.72032 81.05763
#
# Poissons Ratio (x) = 0.00084 0.98542
# Poissons Ratio (y) = 0.00097 0.10619
# Poissons Ratio (z) = 0.42968 0.04025
#
# Static dielectric constant tensor:
#      x y z
#    x 1.573750 0.000000 -0.041080 
#    y 0.000000 1.622400 0.000000 
#    z -0.041080 0.000000 1.631740 
# 
# From -- ./inp_files/243227.got.cif
#   From: 2010.05.17/outbox.cif.g08.bks.cpg/sg12_122_cif.got.tgz:243227.got - 2010.06.03 13:09:07.
