data_PCOD9169092
_publ_section_title
;
Structure prediction by ZEFSAII (Michael W. Deem and Ramdas Pophale) SiO2 
 PCOD9169092
Probable space group: C 2/M
;
_chemical_formula_sum "Si O2"
_cell_formula_units_Z 36
_cell_length_a 16.142526
_cell_length_b 14.524127
_cell_length_c 19.591183
_cell_angle_alpha 90.000000
_cell_angle_beta 158.647407
_cell_angle_gamma 90.000000
_cell_volume 1672.439371
_symmetry_space_group_name_H-M "C 2/M"
_symmetry_group_IT_number 12
_symmetry_cell_setting 'monoclinic'
loop_
_space_group_symop_operation_xyz
x,y,z
-x,y,-z
-x,-y,-z
x,-y,z
1/2+x,1/2+y,z
1/2-x,1/2+y,-z
1/2-x,1/2-y,-z
1/2+x,1/2-y,z
loop_
_atom_site_type_symbol
_atom_site_label
_atom_site_fract_x
_atom_site_fract_y
_atom_site_fract_z
Si Si1 0.478143 0.500000 0.086014
Si Si2 0.494886 0.500000 0.674215
Si Si3 0.101027 0.500000 0.915554
Si Si4 0.201231 0.346863 0.381825
Si Si5 0.123658 0.500000 0.511045
Si Si6 0.517523 0.806653 0.639023
Si Si7 0.500000 0.332892 0.000000
O O1 0.730244 0.500000 0.309535
O O2 0.456976 0.594790 0.028356
O O3 0.284555 0.500000 0.994950
O O4 0.412218 0.410639 0.569147
O O5 0.318253 0.500000 0.601809
O O6 0.747508 0.500000 0.899467
O O7 0.946388 0.409235 0.782725
O O8 0.322884 0.253104 0.452835
O O9 0.052717 0.318387 0.334952
O O10 0.984875 0.408574 0.392818
O O11 0.772378 0.772641 0.822738
#
# Coordination Sequence:
#
# PCOD9169092 Si02
#       7
#     4   4   4   8   4   8   4
#     4  10  19  31  50  77 104 136 174 201 258 321
#     4   8  17  31  55  79  98 129 179 217 265 288
#     4  10  16  34  57  78 100 139 168 222 259 300
#     4   9  18  34  52  75 106 134 173 219 248 308
#     4   9  18  33  48  74 109 138 168 205 249 319
#     4  10  19  33  49  73 105 143 168 204 261 301
#     4  11  20  30  50  71 108 142 164 205 260 319
#
# _framework density 21.525444
#
# number of rings (size 3 to 8) (size 9 to 14) (size 15 to 20)
#    0.000    2.444    2.222    2.000    0.000    1.778 
#    4.000    4.444    0.000    2.667    0.000    1.556 
#    0.000    0.000    0.000    0.000    0.000    0.000 
#
# Total GULP energy -100412.239395 kJ/mol
# GULP energy per Si atom -5578.457744 kJ/mol
# Density = 2.147645 g / cm^3
# Si number density = 21.525444 Si / 1000 Ang^3
#
#
#
# Elastic Constant Matrix: (Units=GPa)
#
#
# Indices 1 2 3 4 5 6 
#
# 1 11.3228 16.7537 15.6547 -0.0092 9.5926 0.0121
# 2 16.7537 54.9689 25.9510 0.0453 21.3402 0.0301
# 3 15.6547 25.9510 153.9278 0.0358 16.2114 0.0206
# 4 -0.0092 0.0453 0.0358 21.9007 -0.0158 25.9363
# 5 9.5926 21.3402 16.2114 -0.0158 27.5063 0.0515
# 6 0.0121 0.0301 0.0206 25.9363 0.0515 -38.5140
#
#
#
# Elastic Compliance Matrix: (Units=1/GPa)
#
#
# Indices 1 2 3 4 5 6 
#
# 1 0.185415 -0.041823 -0.008970 0.000099 -0.026928 0.000051
# 2 -0.041823 0.036335 -0.000469 -0.000055 -0.013328 -0.000040
# 3 -0.008970 -0.000469 0.007591 -0.000009 -0.000982 -0.000006
# 4 0.000099 -0.000055 -0.000009 0.025402 -0.000005 0.017106
# 5 -0.026928 -0.013328 -0.000982 -0.000005 0.056665 0.000053
# 6 0.000051 -0.000040 -0.000006 0.017106 0.000053 -0.014445
#
#
# Mechanical properties :
#
#
# Convention : Reuss Voigt Hill
#
# Bulk Modulus (GPa) = 7.88535 37.43759 22.66147
# Shear Modulus (GPa) = 11.31837 12.96927 12.14382
#
# Velocity S-wave (km/s) = 2.29555 2.45727 2.37778
# Velocity P-wave (km/s) = 3.27067 5.04786 4.25313
#
# Compressibility (1/GPa) = 0.12681748
#
# Stress axis : x y z
#
# Youngs Moduli (GPa) = 5.39331 27.52191 131.73020
#
# Poissons Ratio (x) = 1.15105 1.18162
# Poissons Ratio (y) = 0.22557 0.06172
# Poissons Ratio (z) = 0.04838 0.01290
#
# Static dielectric constant tensor:
#      x y z
#    x 1.799000 0.000000 -0.028200 
#    y 0.000000 1.795130 -0.000020 
#    z -0.028200 -0.000020 1.824730 
# 
# From -- ./inp_files/84773.got.cif
#   From: 2010.05.17/outbox.cif.g08.bks.cpg/sg12_43_cif.got.tgz:84773.got - 2010.06.03 13:09:07.
