data_PCOD9169580
_publ_section_title
;
Structure prediction by ZEFSAII (Michael W. Deem and Ramdas Pophale) SiO2 
 PCOD9169580
Probable space group: C 2/M
;
_chemical_formula_sum "Si O2"
_cell_formula_units_Z 56
_cell_length_a 7.401223
_cell_length_b 28.840701
_cell_length_c 16.403220
_cell_angle_alpha 90.000000
_cell_angle_beta 54.852368
_cell_angle_gamma 90.000000
_cell_volume 2862.972825
_symmetry_space_group_name_H-M "C 2/M"
_symmetry_group_IT_number 12
_symmetry_cell_setting 'monoclinic'
loop_
_space_group_symop_operation_xyz
x,y,z
-x,y,-z
-x,-y,-z
x,-y,z
1/2+x,1/2+y,z
1/2-x,1/2+y,-z
1/2-x,1/2-y,-z
1/2+x,1/2-y,z
loop_
_atom_site_type_symbol
_atom_site_label
_atom_site_fract_x
_atom_site_fract_y
_atom_site_fract_z
Si Si1 0.915804 0.305293 0.888084
Si Si2 0.443491 0.901145 0.790529
Si Si3 0.495379 0.604898 0.815213
Si Si4 0.847030 0.200655 0.885042
Si Si5 0.654868 0.446041 0.627499
Si Si6 0.732439 0.446901 0.990362
Si Si7 0.862772 0.554203 0.408542
O O1 0.930520 0.347704 0.822153
O O2 0.914810 0.253523 0.852419
O O3 0.126908 0.308289 0.891226
O O4 0.707622 0.306339 0.004647
O O5 0.422502 0.930332 0.879271
O O6 0.624956 0.915949 0.677057
O O7 0.216637 0.912623 0.801670
O O8 0.507386 0.660261 0.815080
O O9 0.496167 0.584854 0.724446
O O10 0.298981 0.586480 0.923940
O O11 0.588686 0.500000 0.648164
O O12 0.689365 0.432600 0.524311
O O13 0.898568 0.443283 0.606923
O O14 0.761779 0.500000 0.008122
O O15 0.500000 0.444380 0.000000
O O16 0.828955 0.500000 0.396380
#
# Coordination Sequence:
#
# PCOD9169580 Si02
#       7
#     8   8   8   8   8   8   8
#     4  10  20  33  49  68  93 122 154 191 234 284
#     4  10  17  27  46  70  96 124 155 192 232 273
#     4  10  17  27  46  70  96 124 155 192 232 273
#     4  10  20  33  49  68  93 122 154 191 234 284
#     4   8  14  25  43  69  98 127 161 197 228 262
#     4   9  16  24  38  65  96 123 152 185 222 267
#     4   8  14  25  43  69  98 127 161 197 228 262
#
# _framework density 19.560086999999999
#
# number of rings (size 3 to 8) (size 9 to 14) (size 15 to 20)
#    0.000    2.714    1.429    2.571    0.000    4.571 
#    0.000    0.000    0.000    6.000    0.000    2.000 
#    0.000    0.000    0.000    0.000    0.000    0.000 
#
# Total GULP energy -156182.049683 kJ/mol
# GULP energy per Si atom -5577.930346 kJ/mol
# Density = 1.951557 g / cm^3
# Si number density = 19.560087 Si / 1000 Ang^3
#
#
#
# Elastic Constant Matrix: (Units=GPa)
#
#
# Indices 1 2 3 4 5 6 
#
# 1 53.5521 -11.1440 9.6345 0.0000 13.7405 0.0000
# 2 -11.1440 110.7996 80.4761 0.0000 23.4878 0.0000
# 3 9.6345 80.4761 143.4767 0.0000 30.3540 0.0000
# 4 0.0000 0.0000 0.0000 -18.1850 0.0000 -33.1830
# 5 13.7405 23.4878 30.3540 0.0000 17.0605 0.0000
# 6 0.0000 0.0000 0.0000 -33.1830 0.0000 -26.9378
#
#
#
# Elastic Compliance Matrix: (Units=1/GPa)
#
#
# Indices 1 2 3 4 5 6 
#
# 1 0.032291 0.012373 -0.000004 0.000000 -0.043034 0.000000
# 2 0.012373 0.020940 -0.007006 0.000000 -0.026329 0.000000
# 3 -0.000004 -0.007006 0.014205 0.000000 -0.015626 0.000000
# 4 0.000000 0.000000 0.000000 0.044070 0.000000 -0.054287
# 5 -0.043034 -0.026329 -0.015626 0.000000 0.157324 0.000000
# 6 0.000000 0.000000 0.000000 -0.054287 0.000000 0.029751
#
#
# Mechanical properties :
#
#
# Convention : Reuss Voigt Hill
#
# Bulk Modulus (GPa) = 12.79380 51.75129 32.27255
# Shear Modulus (GPa) = 15.92823 9.64499 12.78661
#
# Velocity S-wave (km/s) = 2.85673 2.22298 2.55955
# Velocity P-wave (km/s) = 4.17566 5.75360 5.02693
#
# Compressibility (1/GPa) = 0.07816286
#
# Stress axis : x y z
#
# Youngs Moduli (GPa) = 30.96851 47.75655 70.39628
#
# Poissons Ratio (x) = -0.59091 0.00030
# Poissons Ratio (y) = -0.38319 0.49317
# Poissons Ratio (z) = 0.00013 0.33456
#
# Static dielectric constant tensor:
#      x y z
#    x 1.767990 0.000000 -0.016810 
#    y 0.000000 1.666010 0.000000 
#    z -0.016810 0.000000 1.708530 
# 
# From -- ./inp_files/259537.got.cif
#   From: 2010.05.17/outbox.cif.g08.bks.cpg/sg12_130_cif.got.tgz:259537.got - 2010.06.03 13:09:07.
