data_PCOD9169559
_publ_section_title
;
Structure prediction by ZEFSAII (Michael W. Deem and Ramdas Pophale) SiO2 
 PCOD9169559
Probable space group: C 2/M
;
_chemical_formula_sum "Si O2"
_cell_formula_units_Z 44
_cell_length_a 13.740553
_cell_length_b 22.668019
_cell_length_c 14.192442
_cell_angle_alpha 90.000000
_cell_angle_beta 149.833415
_cell_angle_gamma 90.000000
_cell_volume 2221.389126
_symmetry_space_group_name_H-M "C 2/M"
_symmetry_group_IT_number 12
_symmetry_cell_setting 'monoclinic'
loop_
_space_group_symop_operation_xyz
x,y,z
-x,y,-z
-x,-y,-z
x,-y,z
1/2+x,1/2+y,z
1/2-x,1/2+y,-z
1/2-x,1/2-y,-z
1/2+x,1/2-y,z
loop_
_atom_site_type_symbol
_atom_site_label
_atom_site_fract_x
_atom_site_fract_y
_atom_site_fract_z
Si Si1 0.240932 0.933464 0.593119
Si Si2 0.730791 0.565226 0.805072
Si Si3 0.818040 0.186522 0.519376
Si Si4 0.189962 0.789769 0.099800
Si Si5 0.249642 0.329936 0.046808
Si Si6 0.000000 0.240844 0.500000
O O1 0.283448 0.926334 0.739852
O O2 0.299164 0.875115 0.581994
O O3 0.004720 0.933282 0.388795
O O4 0.303714 0.000000 0.616640
O O5 0.792532 0.500000 0.885865
O O6 0.807954 0.613813 0.941013
O O7 0.750000 0.250000 0.500000
O O8 0.866587 0.199222 0.451225
O O9 0.020216 0.176954 0.741854
O O10 0.151716 0.727715 0.012058
O O11 0.364038 0.778174 0.317877
O O12 0.263611 0.831000 0.076694
O O13 0.000000 0.807077 0.000000
#
# Coordination Sequence:
#
# PCOD9169559 Si02
#       6
#     8   8   8   8   8   4
#     4   8  13  22  39  66  98 128 159 197 244 298
#     4   8  13  24  43  65  93 126 156 196 245 292
#     4  10  17  27  45  71 101 131 163 203 248 293
#     4  10  19  32  48  69  99 129 158 202 245 288
#     4   9  18  29  44  70  96 124 165 199 241 301
#     4  10  20  32  47  72  99 128 166 198 246 306
#
# _framework density 19.807426
#
# number of rings (size 3 to 8) (size 9 to 14) (size 15 to 20)
#    0.000    2.909    0.000    5.455    0.000    0.000 
#    0.000    0.000    0.000    1.091    0.000   21.636 
#    0.000    0.000    0.000    0.000    0.000    0.000 
#
# Total GULP energy -122698.504957 kJ/mol
# GULP energy per Si atom -5577.204771 kJ/mol
# Density = 1.976234 g / cm^3
# Si number density = 19.807426 Si / 1000 Ang^3
#
#
#
# Elastic Constant Matrix: (Units=GPa)
#
#
# Indices 1 2 3 4 5 6 
#
# 1 56.2921 36.9205 30.9056 0.0000 -5.6981 0.0000
# 2 36.9205 147.2304 26.0941 0.0000 -4.4871 0.0000
# 3 30.9056 26.0941 71.9564 0.0000 -11.4291 0.0000
# 4 0.0000 0.0000 0.0000 20.7701 0.0000 -8.1946
# 5 -5.6981 -4.4871 -11.4291 0.0000 30.7757 0.0000
# 6 0.0000 0.0000 0.0000 -8.1946 0.0000 31.2480
#
#
#
# Elastic Compliance Matrix: (Units=1/GPa)
#
#
# Indices 1 2 3 4 5 6 
#
# 1 0.026178 -0.004884 -0.009368 0.000000 0.000656 0.000000
# 2 -0.004884 0.008170 -0.000871 0.000000 -0.000036 0.000000
# 3 -0.009368 -0.000871 0.019066 0.000000 0.005219 0.000000
# 4 0.000000 0.000000 0.000000 0.053703 0.000000 0.014083
# 5 0.000656 -0.000036 0.005219 0.000000 0.034547 0.000000
# 6 0.000000 0.000000 0.000000 0.014083 0.000000 0.035695
#
#
# Mechanical properties :
#
#
# Convention : Reuss Voigt Hill
#
# Bulk Modulus (GPa) = 43.16439 51.47992 47.32215
# Shear Modulus (GPa) = 23.22049 28.66266 25.94158
#
# Velocity S-wave (km/s) = 3.42762 3.80816 3.62289
# Velocity P-wave (km/s) = 6.12406 6.73667 6.43766
#
# Compressibility (1/GPa) = 0.02316724
#
# Stress axis : x y z
#
# Youngs Moduli (GPa) = 38.20074 122.39779 52.45036
#
# Poissons Ratio (x) = 0.59781 0.49136
# Poissons Ratio (y) = 0.18658 0.04567
# Poissons Ratio (z) = 0.35787 0.10659
#
# Static dielectric constant tensor:
#      x y z
#    x 1.732540 0.000000 0.046040 
#    y 0.000000 1.771660 0.000000 
#    z 0.046040 0.000000 1.761650 
# 
# From -- ./inp_files/218328.got.cif
#   From: 2010.05.17/outbox.cif.g08.bks.cpg/sg12_110_cif.got.tgz:218328.got - 2010.06.03 13:09:07.
