data_PCOD9169938
_publ_section_title
;
Structure prediction by ZEFSAII (Michael W. Deem and Ramdas Pophale) SiO2 
 PCOD9169938
Probable space group: C 2/M
;
_chemical_formula_sum "Si O2"
_cell_formula_units_Z 64
_cell_length_a 26.635492
_cell_length_b 22.802442
_cell_length_c 17.990661
_cell_angle_alpha 90.000000
_cell_angle_beta 20.308610
_cell_angle_gamma 90.000000
_cell_volume 3792.403347
_symmetry_space_group_name_H-M "C 2/M"
_symmetry_group_IT_number 12
_symmetry_cell_setting 'monoclinic'
loop_
_space_group_symop_operation_xyz
x,y,z
-x,y,-z
-x,-y,-z
x,-y,z
1/2+x,1/2+y,z
1/2-x,1/2+y,-z
1/2-x,1/2-y,-z
1/2+x,1/2-y,z
loop_
_atom_site_type_symbol
_atom_site_label
_atom_site_fract_x
_atom_site_fract_y
_atom_site_fract_z
Si Si1 0.778459 0.066102 0.439291
Si Si2 0.845200 0.433876 0.556855
Si Si3 0.871541 0.746645 0.055529
Si Si4 0.179809 0.786290 0.030784
Si Si5 0.556974 0.140826 0.339274
Si Si6 0.058730 0.123252 0.002332
Si Si7 0.893914 0.738343 0.475023
Si Si8 0.655662 0.808703 0.616484
O O1 0.704968 0.065125 0.459187
O O2 0.720011 0.128606 0.551386
O O3 0.950039 0.078454 0.192732
O O4 0.754203 0.000000 0.504402
O O5 0.840448 0.500000 0.590788
O O6 0.000680 0.406718 0.358772
O O7 0.723484 0.397328 0.769720
O O8 0.754652 0.739168 0.282866
O O9 0.798540 0.750768 0.075878
O O10 0.943080 0.811120 0.964537
O O11 0.001412 0.700962 0.869910
O O12 0.008246 0.786372 0.286065
O O13 0.250000 0.750000 0.000000
O O14 0.272641 0.845427 0.896315
O O15 0.500000 0.125697 0.500000
O O16 0.474679 0.199995 0.425844
O O17 0.000000 0.126536 0.000000
O O18 0.863711 0.695889 0.446453
O O19 0.750000 0.750000 0.500000
#
# Coordination Sequence:
#
# PCOD9169938 Si02
#       8
#     8   8   8   8   8   8   8   8
#     4  10  19  33  48  68 103 141 167 204 254 310
#     4  10  19  29  46  71 100 136 175 203 243 306
#     4  11  19  31  51  72 107 135 165 211 262 293
#     4   9  20  30  46  69  96 135 171 206 255 304
#     4  11  17  30  48  65 100 137 167 207 252 293
#     4  10  17  29  48  71 103 136 167 199 244 316
#     4  10  19  33  47  72 102 133 166 208 258 309
#     4  11  21  32  51  81 105 127 172 216 255 305
#
# _framework density 16.875841999999999
#
# number of rings (size 3 to 8) (size 9 to 14) (size 15 to 20)
#    0.000    1.750    5.000    1.125    0.000    1.750 
#    0.000    0.000    0.000    0.000    0.000    2.625 
#    0.000    2.000    0.000    0.000    0.000    0.125 
#
# Total GULP energy -178173.653986 kJ/mol
# GULP energy per Si atom -5567.926687 kJ/mol
# Density = 1.683743 g / cm^3
# Si number density = 16.875842 Si / 1000 Ang^3
#
#
#
# Elastic Constant Matrix: (Units=GPa)
#
#
# Indices 1 2 3 4 5 6 
#
# 1 17.1336 3.5961 7.7944 -0.0019 -1.4696 -0.0009
# 2 3.5961 87.0382 32.0099 -0.0022 -5.1840 0.0002
# 3 7.7944 32.0099 93.0482 -0.0054 3.3787 0.0023
# 4 -0.0019 -0.0022 -0.0054 18.2757 0.0026 -2.1234
# 5 -1.4696 -5.1840 3.3787 0.0026 19.7423 -0.0007
# 6 -0.0009 0.0002 0.0023 -2.1234 -0.0007 15.8158
#
#
#
# Elastic Compliance Matrix: (Units=1/GPa)
#
#
# Indices 1 2 3 4 5 6 
#
# 1 0.061265 -0.000288 -0.005228 0.000005 0.005380 0.000005
# 2 -0.000288 0.013520 -0.004785 0.000000 0.004347 0.000001
# 3 -0.005228 -0.004785 0.012971 0.000003 -0.003866 -0.000002
# 4 0.000005 0.000000 0.000003 0.055585 -0.000007 0.007463
# 5 0.005380 0.004347 -0.003866 -0.000007 0.052856 0.000002
# 6 0.000005 0.000001 -0.000002 0.007463 0.000002 0.064230
#
#
# Mechanical properties :
#
#
# Convention : Reuss Voigt Hill
#
# Bulk Modulus (GPa) = 14.89109 31.55787 23.22448
# Shear Modulus (GPa) = 16.47914 21.02139 18.75027
#
# Velocity S-wave (km/s) = 3.12828 3.53321 3.33689
# Velocity P-wave (km/s) = 4.67881 5.94856 5.35148
#
# Compressibility (1/GPa) = 0.06715423
#
# Stress axis : x y z
#
# Youngs Moduli (GPa) = 16.32249 73.96607 77.09239
#
# Poissons Ratio (x) = 0.02131 0.40306
# Poissons Ratio (y) = 0.00470 0.36886
# Poissons Ratio (z) = 0.08534 0.35391
#
# Static dielectric constant tensor:
#      x y z
#    x 1.610110 0.000000 -0.016970 
#    y 0.000000 1.592160 0.000000 
#    z -0.016970 0.000000 1.607640 
# 
# From -- ./inp_files/294286.got.cif
#   From: 2010.05.17/outbox.cif.g08.bks.cpg/sg12_148_cif.got.tgz:294286.got - 2010.06.03 13:09:07.
