data_PCOD9169983
_publ_section_title
;
Structure prediction by ZEFSAII (Michael W. Deem and Ramdas Pophale) SiO2 
 PCOD9169983
Probable space group: C 2/M
;
_chemical_formula_sum "Si O2"
_cell_formula_units_Z 56
_cell_length_a 13.140055
_cell_length_b 24.057136
_cell_length_c 13.728210
_cell_angle_alpha 90.000000
_cell_angle_beta 135.553516
_cell_angle_gamma 90.000000
_cell_volume 3038.810709
_symmetry_space_group_name_H-M "C 2/M"
_symmetry_group_IT_number 12
_symmetry_cell_setting 'monoclinic'
loop_
_space_group_symop_operation_xyz
x,y,z
-x,y,-z
-x,-y,-z
x,-y,z
1/2+x,1/2+y,z
1/2-x,1/2+y,-z
1/2-x,1/2-y,-z
1/2+x,1/2-y,z
loop_
_atom_site_type_symbol
_atom_site_label
_atom_site_fract_x
_atom_site_fract_y
_atom_site_fract_z
Si Si1 0.453090 0.737686 0.859812
Si Si2 0.050517 0.368347 0.142170
Si Si3 0.938967 0.864016 0.160790
Si Si4 0.387870 0.643308 0.341487
Si Si5 0.656629 0.875712 0.832200
Si Si6 0.882499 0.724634 0.339443
Si Si7 0.862776 0.937170 0.831441
O O1 0.490733 0.802523 0.881763
O O2 0.531691 0.701301 0.833389
O O3 0.282288 0.726495 0.733567
O O4 0.500000 0.717155 0.000000
O O5 0.224202 0.368943 0.262784
O O6 0.973935 0.393934 0.185135
O O7 0.000000 0.388549 0.000000
O O8 0.914374 0.881986 0.253859
O O9 0.076604 0.895896 0.209140
O O10 0.793556 0.872638 0.998929
O O11 0.500000 0.624998 0.500000
O O12 0.409906 0.709848 0.340577
O O13 0.618450 0.817363 0.752663
O O14 0.720293 0.914760 0.789806
O O15 0.000000 0.705860 0.500000
O O16 0.840500 0.000000 0.781490
O O17 0.000000 0.938148 0.000000
#
# Coordination Sequence:
#
# PCOD9169983 Si02
#       7
#     8   8   8   8   8   8   8
#     4  10  17  29  49  77 105 138 184 218 253 310
#     4  10  20  31  49  79 108 142 180 214 255 311
#     4  11  18  32  57  77 105 142 183 220 262 316
#     4  10  22  35  49  77 114 149 181 213 254 313
#     4  11  19  33  55  77 107 140 178 223 265 317
#     4  10  20  32  47  78 115 143 177 219 262 309
#     4   9  19  35  58  86 104 126 174 233 279 309
#
# _framework density 18.428263000000001
#
# number of rings (size 3 to 8) (size 9 to 14) (size 15 to 20)
#    0.000    1.857    4.286    1.286    0.000    2.286 
#    0.000    4.286    0.000    2.143    0.000    0.000 
#    0.000    0.000    0.000    0.000    0.000    0.000 
#
# Total GULP energy -156025.493854 kJ/mol
# GULP energy per Si atom -5572.339066 kJ/mol
# Density = 1.838632 g / cm^3
# Si number density = 18.428263 Si / 1000 Ang^3
#
#
#
# Elastic Constant Matrix: (Units=GPa)
#
#
# Indices 1 2 3 4 5 6 
#
# 1 116.9893 18.8955 36.4530 0.0000 -15.7202 0.0000
# 2 18.8955 29.2233 8.9688 0.0000 0.0539 0.0000
# 3 36.4530 8.9688 95.2673 0.0000 0.3797 0.0000
# 4 0.0000 0.0000 0.0000 3.5614 0.0000 4.6574
# 5 -15.7202 0.0539 0.3797 0.0000 14.4417 0.0000
# 6 0.0000 0.0000 0.0000 4.6574 0.0000 6.7954
#
#
#
# Elastic Compliance Matrix: (Units=1/GPa)
#
#
# Indices 1 2 3 4 5 6 
#
# 1 0.012960 -0.007071 -0.004350 0.000000 0.014248 0.000000
# 2 -0.007071 0.039095 -0.000944 0.000000 -0.007818 0.000000
# 3 -0.004350 -0.000944 0.012270 0.000000 -0.005054 0.000000
# 4 0.000000 0.000000 0.000000 2.706885 0.000000 -1.855220
# 5 0.014248 -0.007818 -0.005054 0.000000 0.084915 0.000000
# 6 0.000000 0.000000 0.000000 -1.855220 0.000000 1.418672
#
#
# Mechanical properties :
#
#
# Convention : Reuss Voigt Hill
#
# Bulk Modulus (GPa) = 25.25510 41.12381 33.18946
# Shear Modulus (GPa) = 1.15936 16.77055 8.96495
#
# Velocity S-wave (km/s) = 0.79403 3.01997 2.20802
# Velocity P-wave (km/s) = 3.81771 5.87574 4.95476
#
# Compressibility (1/GPa) = 0.03959597
#
# Stress axis : x y z
#
# Youngs Moduli (GPa) = 77.16171 25.57847 81.49780
#
# Poissons Ratio (x) = 0.18086 0.35452
# Poissons Ratio (y) = 0.54560 0.07692
# Poissons Ratio (z) = 0.33566 0.02414
#
# Static dielectric constant tensor:
#      x y z
#    x 1.656600 0.000000 -0.018810 
#    y 0.000000 1.641550 0.000000 
#    z -0.018810 0.000000 1.631740 
# 
# From -- ./inp_files/136925.got.cif
#   From: 2010.05.17/outbox.cif.g08.bks.cpg/sg12_69_cif.got.tgz:136925.got - 2010.06.03 13:09:07.
