data_PCOD9169920
_publ_section_title
;
Structure prediction by ZEFSAII (Michael W. Deem and Ramdas Pophale) SiO2 
 PCOD9169920
Probable space group: C 2/M
;
_chemical_formula_sum "Si O2"
_cell_formula_units_Z 56
_cell_length_a 19.610911
_cell_length_b 20.568414
_cell_length_c 9.622006
_cell_angle_alpha 90.000000
_cell_angle_beta 123.102146
_cell_angle_gamma 90.000000
_cell_volume 3251.260829
_symmetry_space_group_name_H-M "C 2/M"
_symmetry_group_IT_number 12
_symmetry_cell_setting 'monoclinic'
loop_
_space_group_symop_operation_xyz
x,y,z
-x,y,-z
-x,-y,-z
x,-y,z
1/2+x,1/2+y,z
1/2-x,1/2+y,-z
1/2-x,1/2-y,-z
1/2+x,1/2-y,z
loop_
_atom_site_type_symbol
_atom_site_label
_atom_site_fract_x
_atom_site_fract_y
_atom_site_fract_z
Si Si1 0.080157 0.233414 0.176000
Si Si2 0.992869 0.287092 0.340487
Si Si3 0.817898 0.572899 0.994035
Si Si4 0.010548 0.428742 0.269405
Si Si5 0.804665 0.698566 0.142453
Si Si6 0.750956 0.187877 0.604681
Si Si7 0.151834 0.374715 0.259007
O O1 0.153152 0.181905 0.254049
O O2 0.117548 0.303853 0.172793
O O3 0.047745 0.248765 0.293792
O O4 0.000000 0.217418 0.000000
O O5 0.021221 0.362873 0.370238
O O6 0.897526 0.287292 0.201543
O O7 0.000000 0.258750 0.500000
O O8 0.789194 0.500000 0.989285
O O9 0.801000 0.595065 0.817742
O O10 0.916757 0.572571 0.117333
O O11 0.785945 0.626251 0.065986
O O12 0.025885 0.500000 0.350784
O O13 0.074035 0.417735 0.215202
O O14 0.793032 0.700252 0.296600
O O15 0.750000 0.750000 0.000000
O O16 0.750000 0.250000 0.500000
O O17 0.706237 0.134904 0.458428
#
# Coordination Sequence:
#
# PCOD9169920 Si02
#       7
#     8   8   8   8   8   8   8
#     4  10  18  31  48  67  95 131 169 205 248 303
#     4  10  19  30  45  69  98 128 164 205 244 288
#     4  10  20  32  48  72 102 136 172 205 242 297
#     4   9  17  28  44  67  97 135 171 196 227 285
#     4  11  20  33  52  73 102 137 169 208 255 297
#     4  10  20  32  47  71 101 132 169 214 258 297
#     4  10  17  29  47  68  97 133 170 204 242 289
#
# _framework density 17.224087999999998
#
# number of rings (size 3 to 8) (size 9 to 14) (size 15 to 20)
#    0.000    2.000    0.000    8.571    0.000    1.429 
#    0.000    4.286    0.000    0.000    0.000    0.000 
#    0.000   26.286    0.000    0.000    0.000    0.000 
#
# Total GULP energy -156059.485999 kJ/mol
# GULP energy per Si atom -5573.553071 kJ/mol
# Density = 1.718489 g / cm^3
# Si number density = 17.224088 Si / 1000 Ang^3
#
#
#
# Elastic Constant Matrix: (Units=GPa)
#
#
# Indices 1 2 3 4 5 6 
#
# 1 64.4268 25.9263 15.3848 0.0000 -5.0290 0.0000
# 2 25.9263 60.7246 22.8935 0.0000 -3.4756 0.0000
# 3 15.3848 22.8935 62.7031 0.0000 -5.8167 0.0000
# 4 0.0000 0.0000 0.0000 4.9912 0.0000 2.3964
# 5 -5.0290 -3.4756 -5.8167 0.0000 40.9636 0.0000
# 6 0.0000 0.0000 0.0000 2.3964 0.0000 15.9879
#
#
#
# Elastic Compliance Matrix: (Units=1/GPa)
#
#
# Indices 1 2 3 4 5 6 
#
# 1 0.019033 -0.007344 -0.001854 0.000000 0.001450 0.000000
# 2 -0.007344 0.021947 -0.006204 0.000000 0.000080 0.000000
# 3 -0.001854 -0.006204 0.018846 0.000000 0.001922 0.000000
# 4 0.000000 0.000000 0.000000 0.215888 0.000000 -0.032360
# 5 0.001450 0.000080 0.001922 0.000000 0.024870 0.000000
# 6 0.000000 0.000000 0.000000 -0.032360 0.000000 0.067398
#
#
# Mechanical properties :
#
#
# Convention : Reuss Voigt Hill
#
# Bulk Modulus (GPa) = 34.45596 35.14040 34.79818
# Shear Modulus (GPa) = 12.24114 20.63190 16.43652
#
# Velocity S-wave (km/s) = 2.66879 3.46475 3.09249
# Velocity P-wave (km/s) = 5.43549 6.03757 5.74442
#
# Compressibility (1/GPa) = 0.02902255
#
# Stress axis : x y z
#
# Youngs Moduli (GPa) = 52.54104 45.56505 53.06062
#
# Poissons Ratio (x) = 0.33463 0.09837
# Poissons Ratio (y) = 0.38586 0.32917
# Poissons Ratio (z) = 0.09741 0.28267
#
# Static dielectric constant tensor:
#      x y z
#    x 1.617140 0.000000 0.007740 
#    y 0.000000 1.590590 0.000000 
#    z 0.007740 0.000000 1.644140 
# 
# From -- ./inp_files/77347.got.cif
#   From: 2010.05.17/outbox.cif.g08.bks.cpg/sg12_39_cif.got.tgz:77347.got - 2010.06.03 13:09:07.
