data_PCOD9169449
_publ_section_title
;
Structure prediction by ZEFSAII (Michael W. Deem and Ramdas Pophale) SiO2 
 PCOD9169449
Probable space group: C 2/M
;
_chemical_formula_sum "Si O2"
_cell_formula_units_Z 60
_cell_length_a 14.533911
_cell_length_b 24.682493
_cell_length_c 12.152195
_cell_angle_alpha 90.000000
_cell_angle_beta 128.714342
_cell_angle_gamma 90.000000
_cell_volume 3401.522242
_symmetry_space_group_name_H-M "C 2/M"
_symmetry_group_IT_number 12
_symmetry_cell_setting 'monoclinic'
loop_
_space_group_symop_operation_xyz
x,y,z
-x,y,-z
-x,-y,-z
x,-y,z
1/2+x,1/2+y,z
1/2-x,1/2+y,-z
1/2-x,1/2-y,-z
1/2+x,1/2-y,z
loop_
_atom_site_type_symbol
_atom_site_label
_atom_site_fract_x
_atom_site_fract_y
_atom_site_fract_z
Si Si1 0.170122 0.246123 0.606262
Si Si2 0.509748 0.623459 0.766193
Si Si3 0.880902 0.062359 0.486136
Si Si4 0.221691 0.133408 0.760501
Si Si5 0.127904 0.310347 0.970692
Si Si6 0.771291 0.804498 0.868015
Si Si7 0.000000 0.125045 0.000000
Si Si8 0.567763 0.747384 0.297584
O O1 0.165488 0.187193 0.660443
O O2 0.174862 0.291933 0.702974
O O3 0.300804 0.250636 0.651448
O O4 0.079628 0.253053 0.438554
O O5 0.408509 0.598459 0.613335
O O6 0.630457 0.616624 0.788502
O O7 0.507929 0.597482 0.886237
O O8 0.489648 0.688209 0.765036
O O9 0.780021 0.088463 0.335052
O O10 0.000000 0.064711 0.500000
O O11 0.859481 0.000000 0.498034
O O12 0.345491 0.148432 0.910421
O O13 0.209520 0.327836 0.929516
O O14 0.005808 0.292488 0.823840
O O15 0.178720 0.254065 0.058116
O O16 0.880734 0.839176 0.908444
#
# Coordination Sequence:
#
# PCOD9169449 Si02
#       8
#     8   8   8   8   8   8   4   8
#     4  10  20  28  43  66  99 137 172 198 235 298
#     4  11  19  31  49  70  97 137 167 201 249 292
#     4   9  19  35  54  73  94 123 168 217 258 298
#     4  10  19  31  50  72  96 132 171 202 250 295
#     4  10  18  28  42  67  96 129 167 199 237 291
#     4  10  17  27  41  60  96 132 167 190 230 283
#     4  12  18  30  45  68  96 138 159 196 230 302
#     4  11  19  29  42  69 104 133 169 198 238 292
#
# _framework density 17.639161000000001
#
# number of rings (size 3 to 8) (size 9 to 14) (size 15 to 20)
#    0.000    1.733    5.333    1.600    0.000    3.200 
#    0.000    0.333    0.000    0.000    0.000    1.867 
#    0.000    0.000    0.000    2.400    0.000    0.133 
#
# Total GULP energy -167210.550794 kJ/mol
# GULP energy per Si atom -5573.685026 kJ/mol
# Density = 1.759901 g / cm^3
# Si number density = 17.639161 Si / 1000 Ang^3
#
#
#
# Elastic Constant Matrix: (Units=GPa)
#
#
# Indices 1 2 3 4 5 6 
#
# 1 37.7450 -0.1858 14.3150 0.0000 -9.7317 0.0000
# 2 -0.1858 36.0973 24.5685 0.0000 -2.4239 0.0000
# 3 14.3150 24.5685 143.3601 0.0000 -15.7166 0.0000
# 4 0.0000 0.0000 0.0000 13.1377 0.0000 1.9647
# 5 -9.7317 -2.4239 -15.7166 0.0000 33.9522 0.0000
# 6 0.0000 0.0000 0.0000 1.9647 0.0000 4.2548
#
#
#
# Elastic Compliance Matrix: (Units=1/GPa)
#
#
# Indices 1 2 3 4 5 6 
#
# 1 0.029376 0.002369 -0.002526 0.000000 0.007420 0.000000
# 2 0.002369 0.031554 -0.005607 0.000000 0.000336 0.000000
# 3 -0.002526 -0.005607 0.008497 0.000000 0.002809 0.000000
# 4 0.000000 0.000000 0.000000 0.081763 0.000000 -0.037756
# 5 0.007420 0.000336 0.002809 0.000000 0.032904 0.000000
# 6 0.000000 0.000000 0.000000 -0.037756 0.000000 0.252464
#
#
# Mechanical properties :
#
#
# Convention : Reuss Voigt Hill
#
# Bulk Modulus (GPa) = 17.27179 32.73309 25.00244
# Shear Modulus (GPa) = 10.69779 22.16925 16.43352
#
# Velocity S-wave (km/s) = 2.46535 3.54901 3.05561
# Velocity P-wave (km/s) = 4.23284 5.94906 5.16276
#
# Compressibility (1/GPa) = 0.05789788
#
# Stress axis : x y z
#
# Youngs Moduli (GPa) = 34.04106 31.69164 117.69509
#
# Poissons Ratio (x) = -0.07506 0.29727
# Poissons Ratio (y) = -0.08063 0.65995
# Poissons Ratio (z) = 0.08598 0.17770
#
# Static dielectric constant tensor:
#      x y z
#    x 1.660160 0.000000 -0.021340 
#    y 0.000000 1.568420 0.000000 
#    z -0.021340 0.000000 1.682580 
# 
# From -- ./inp_files/148930.got.cif
#   From: 2010.05.17/outbox.cif.g08.bks.cpg/sg12_75_cif.got.tgz:148930.got - 2010.06.03 13:09:07.
