data_PCOD9169838
_publ_section_title
;
Structure prediction by ZEFSAII (Michael W. Deem and Ramdas Pophale) SiO2 
 PCOD9169838
Probable space group: C 2/M
;
_chemical_formula_sum "Si O2"
_cell_formula_units_Z 64
_cell_length_a 18.443474
_cell_length_b 24.924940
_cell_length_c 9.157248
_cell_angle_alpha 90.000000
_cell_angle_beta 128.938958
_cell_angle_gamma 90.000000
_cell_volume 3274.301683
_symmetry_space_group_name_H-M "C 2/M"
_symmetry_group_IT_number 12
_symmetry_cell_setting 'monoclinic'
loop_
_space_group_symop_operation_xyz
x,y,z
-x,y,-z
-x,-y,-z
x,-y,z
1/2+x,1/2+y,z
1/2-x,1/2+y,-z
1/2-x,1/2-y,-z
1/2+x,1/2-y,z
loop_
_atom_site_type_symbol
_atom_site_label
_atom_site_fract_x
_atom_site_fract_y
_atom_site_fract_z
Si Si1 0.522392 0.751932 0.700931
Si Si2 0.932152 0.938519 0.775123
Si Si3 0.250361 0.875965 0.378785
Si Si4 0.768714 0.678643 0.706238
Si Si5 0.868954 0.347464 0.101138
Si Si6 0.435124 0.652449 0.557915
Si Si7 0.888441 0.438126 0.349047
Si Si8 0.207712 0.209140 0.093174
O O1 0.500000 0.757023 0.500000
O O2 0.536235 0.812923 0.766475
O O3 0.444178 0.709916 0.653496
O O4 0.615937 0.722076 0.880795
O O5 0.826091 0.919947 0.671766
O O6 0.964112 0.896257 0.694945
O O7 0.934431 0.000000 0.728885
O O8 0.000000 0.933888 0.000000
O O9 0.278027 0.836453 0.547832
O O10 0.337693 0.905380 0.414370
O O11 0.197927 0.839974 0.191528
O O12 0.670883 0.651499 0.625171
O O13 0.769573 0.739549 0.772455
O O14 0.845396 0.650104 0.902267
O O15 0.866858 0.404104 0.176700
O O16 0.791601 0.310741 0.092289
O O17 0.500000 0.653046 0.500000
O O18 0.856802 0.500000 0.306109
O O19 0.000000 0.437576 0.500000
#
# Coordination Sequence:
#
# PCOD9169838 Si02
#       8
#     8   8   8   8   8   8   8   8
#     4  10  17  28  50  80 110 142 178 222 270 322
#     4  10  21  36  53  76 109 148 188 226 266 318
#     4  10  21  37  58  81 113 151 188 233 288 343
#     4  10  20  34  53  83 119 148 181 230 288 345
#     4  10  19  33  55  83 112 146 186 232 285 339
#     4  10  19  32  51  76 108 145 183 220 265 325
#     4  10  22  41  63  83 104 140 194 247 293 348
#     4  10  18  31  53  81 113 151 188 224 276 339
#
# _framework density 19.546151999999999
#
# number of rings (size 3 to 8) (size 9 to 14) (size 15 to 20)
#    0.000    2.000    0.000    6.375    0.000    2.250 
#    0.000    3.750    0.000   12.000    0.000    0.000 
#    0.000    0.000    0.000    0.000    0.000    0.000 
#
# Total GULP energy -178182.194757 kJ/mol
# GULP energy per Si atom -5568.193586 kJ/mol
# Density = 1.950166 g / cm^3
# Si number density = 19.546152 Si / 1000 Ang^3
#
#
#
# Elastic Constant Matrix: (Units=GPa)
#
#
# Indices 1 2 3 4 5 6 
#
# 1 38.8298 13.4230 9.3941 0.0000 -3.4923 0.0000
# 2 13.4230 92.3840 44.4740 0.0000 -1.7486 0.0000
# 3 9.3941 44.4740 107.8375 0.0000 -1.5190 0.0000
# 4 0.0000 0.0000 0.0000 28.3713 0.0000 3.9265
# 5 -3.4923 -1.7486 -1.5190 0.0000 15.1958 0.0000
# 6 0.0000 0.0000 0.0000 3.9265 0.0000 32.4874
#
#
#
# Elastic Compliance Matrix: (Units=1/GPa)
#
#
# Indices 1 2 3 4 5 6 
#
# 1 0.027702 -0.003484 -0.000894 0.000000 0.005876 0.000000
# 2 -0.003484 0.013959 -0.005450 0.000000 0.000261 0.000000
# 3 -0.000894 -0.005450 0.011603 0.000000 0.000327 0.000000
# 4 0.000000 0.000000 0.000000 0.035847 0.000000 -0.004332
# 5 0.005876 0.000261 0.000327 0.000000 0.067221 0.000000
# 6 0.000000 0.000000 0.000000 -0.004332 0.000000 0.031305
#
#
# Mechanical properties :
#
#
# Convention : Reuss Voigt Hill
#
# Bulk Modulus (GPa) = 29.75269 41.51482 35.63375
# Shear Modulus (GPa) = 22.88384 26.66157 24.77271
#
# Velocity S-wave (km/s) = 3.42535 3.69729 3.56391
# Velocity P-wave (km/s) = 5.55867 6.28586 5.93342
#
# Compressibility (1/GPa) = 0.03361041
#
# Stress axis : x y z
#
# Youngs Moduli (GPa) = 36.09799 71.63831 86.18258
#
# Poissons Ratio (x) = 0.24955 0.07703
# Poissons Ratio (y) = 0.12575 0.46968
# Poissons Ratio (z) = 0.03226 0.39041
#
# Static dielectric constant tensor:
#      x y z
#    x 1.729480 0.000000 -0.003620 
#    y 0.000000 1.726380 0.000000 
#    z -0.003620 0.000000 1.621170 
# 
# From -- ./inp_files/91105.got.cif
#   From: 2010.05.17/outbox.cif.g08.bks.cpg/sg12_46_cif.got.tgz:91105.got - 2010.06.03 13:09:07.
