data_PCOD9169393
_publ_section_title
;
Structure prediction by ZEFSAII (Michael W. Deem and Ramdas Pophale) SiO2 
 PCOD9169393
Probable space group: C 2/M
;
_chemical_formula_sum "Si O2"
_cell_formula_units_Z 64
_cell_length_a 25.749551
_cell_length_b 8.779226
_cell_length_c 18.190513
_cell_angle_alpha 90.000000
_cell_angle_beta 76.867100
_cell_angle_gamma 90.000000
_cell_volume 4004.616846
_symmetry_space_group_name_H-M "C 2/M"
_symmetry_group_IT_number 12
_symmetry_cell_setting 'monoclinic'
loop_
_space_group_symop_operation_xyz
x,y,z
-x,y,-z
-x,-y,-z
x,-y,z
1/2+x,1/2+y,z
1/2-x,1/2+y,-z
1/2-x,1/2-y,-z
1/2+x,1/2-y,z
loop_
_atom_site_type_symbol
_atom_site_label
_atom_site_fract_x
_atom_site_fract_y
_atom_site_fract_z
Si Si1 0.625782 0.683197 0.421218
Si Si2 0.739707 0.818681 0.422322
Si Si3 0.157411 0.682177 0.682936
Si Si4 0.073377 0.182849 0.594992
Si Si5 0.938003 0.323735 0.993641
Si Si6 0.545893 0.685242 0.321407
Si Si7 0.971276 0.818100 0.837252
Si Si8 0.913748 0.684175 0.158639
O O1 0.633628 0.500000 0.414345
O O2 0.682657 0.761556 0.412406
O O3 0.591163 0.712114 0.505819
O O4 0.592318 0.735966 0.361250
O O5 0.750000 0.750000 0.500000
O O6 0.787208 0.760722 0.355070
O O7 0.740814 0.000000 0.427347
O O8 0.163553 0.500000 0.677448
O O9 0.113881 0.734817 0.636902
O O10 0.133211 0.723876 0.770246
O O11 0.012668 0.229911 0.630494
O O12 0.077307 0.000000 0.606231
O O13 0.924430 0.500000 0.984213
O O14 0.936464 0.233921 0.918143
O O15 0.906894 0.266721 0.075888
O O16 0.000000 0.319133 0.000000
O O17 0.546797 0.500000 0.322834
O O18 0.550523 0.732687 0.235019
O O19 0.030684 0.751080 0.829127
O O20 0.975478 0.000000 0.835776
O O21 0.919248 0.500000 0.155728
#
# Coordination Sequence:
#
# PCOD9169393 Si02
#       8
#     8   8   8   8   8   8   8   8
#     4  10  20  35  54  72  96 133 172 206 243 290
#     4  12  24  38  54  73  97 127 165 209 253 293
#     4  11  21  33  52  75  99 129 166 206 250 294
#     4  10  18  31  51  73  99 132 167 202 241 289
#     4   8  15  28  43  62  94 132 164 194 237 292
#     4   9  18  31  48  74 104 134 167 201 242 294
#     4  10  17  26  44  71 101 131 164 198 237 287
#     4   9  18  31  46  67  97 131 164 199 242 295
#
# _framework density 15.981553999999999
#
# number of rings (size 3 to 8) (size 9 to 14) (size 15 to 20)
#    0.000    2.125    2.500    3.000    0.000    4.250 
#    0.000    1.875    0.000    1.500    0.000    0.875 
#    0.000    0.000    0.000    0.000    0.000    0.000 
#
# Total GULP energy -178466.450197 kJ/mol
# GULP energy per Si atom -5577.076569 kJ/mol
# Density = 1.594518 g / cm^3
# Si number density = 15.981554 Si / 1000 Ang^3
#
#
#
# Elastic Constant Matrix: (Units=GPa)
#
#
# Indices 1 2 3 4 5 6 
#
# 1 96.8098 33.5037 75.5673 0.0000 8.5650 0.0000
# 2 33.5037 39.6230 51.6595 0.0000 -1.4995 0.0000
# 3 75.5673 51.6595 164.2290 0.0000 -5.4551 0.0000
# 4 0.0000 0.0000 0.0000 21.1044 0.0000 -2.2750
# 5 8.5650 -1.4995 -5.4551 0.0000 14.2832 0.0000
# 6 0.0000 0.0000 0.0000 -2.2750 0.0000 20.1369
#
#
#
# Elastic Compliance Matrix: (Units=1/GPa)
#
#
# Indices 1 2 3 4 5 6 
#
# 1 0.020232 -0.008279 -0.007229 0.000000 -0.015762 0.000000
# 2 -0.008279 0.046178 -0.010524 0.000000 0.005793 0.000000
# 3 -0.007229 -0.010524 0.012998 0.000000 0.008194 0.000000
# 4 0.000000 0.000000 0.000000 0.047968 0.000000 0.005419
# 5 -0.015762 0.005793 0.008194 0.000000 0.083202 0.000000
# 6 0.000000 0.000000 0.000000 0.005419 0.000000 0.050272
#
#
# Mechanical properties :
#
#
# Convention : Reuss Voigt Hill
#
# Bulk Modulus (GPa) = 36.57031 69.12475 52.84753
# Shear Modulus (GPa) = 15.52664 20.43366 17.98015
#
# Velocity S-wave (km/s) = 3.12033 3.57960 3.35783
# Velocity P-wave (km/s) = 5.99286 7.77377 6.94067
#
# Compressibility (1/GPa) = 0.02734458
#
# Stress axis : x y z
#
# Youngs Moduli (GPa) = 49.42726 21.65520 76.93692
#
# Poissons Ratio (x) = 0.17929 0.55614
# Poissons Ratio (y) = 0.40922 0.80966
# Poissons Ratio (z) = 0.35729 0.22789
#
# Static dielectric constant tensor:
#      x y z
#    x 1.499690 0.000000 -0.007680 
#    y 0.000000 1.541570 0.000000 
#    z -0.007680 0.000000 1.564130 
# 
# From -- ./inp_files/287584.got.cif
#   From: 2010.05.17/outbox.cif.g08.bks.cpg/sg12_144_cif.got.tgz:287584.got - 2010.06.03 13:09:07.
