data_PCOD9169363
_publ_section_title
;
Structure prediction by ZEFSAII (Michael W. Deem and Ramdas Pophale) SiO2 
 PCOD9169363
Probable space group: C 2/M
;
_chemical_formula_sum "Si O2"
_cell_formula_units_Z 56
_cell_length_a 16.825909
_cell_length_b 24.864178
_cell_length_c 8.653207
_cell_angle_alpha 90.000000
_cell_angle_beta 112.634879
_cell_angle_gamma 90.000000
_cell_volume 3341.336329
_symmetry_space_group_name_H-M "C 2/M"
_symmetry_group_IT_number 12
_symmetry_cell_setting 'monoclinic'
loop_
_space_group_symop_operation_xyz
x,y,z
-x,y,-z
-x,-y,-z
x,-y,z
1/2+x,1/2+y,z
1/2-x,1/2+y,-z
1/2-x,1/2-y,-z
1/2+x,1/2-y,z
loop_
_atom_site_type_symbol
_atom_site_label
_atom_site_fract_x
_atom_site_fract_y
_atom_site_fract_z
Si Si1 0.842666 0.154255 0.936742
Si Si2 0.909729 0.791253 0.520510
Si Si3 0.947591 0.940687 0.174879
Si Si4 0.086635 0.262526 0.149511
Si Si5 0.864139 0.098309 0.659345
Si Si6 0.808163 0.941574 0.313695
Si Si7 0.242681 0.823643 0.817909
O O1 0.896297 0.204028 0.912656
O O2 0.810563 0.121311 0.763327
O O3 0.903489 0.110553 0.063943
O O4 0.777870 0.177938 0.014926
O O5 0.911750 0.748374 0.663652
O O6 0.898051 0.849156 0.592881
O O7 0.831412 0.792176 0.336902
O O8 0.000000 0.788540 0.500000
O O9 0.905507 0.939307 0.315348
O O10 0.049004 0.933215 0.234482
O O11 0.923495 0.000000 0.094960
O O12 0.166856 0.299411 0.163394
O O13 0.000000 0.282515 0.000000
O O14 0.811743 0.063296 0.499709
O O15 0.762700 0.887438 0.222885
O O16 0.773018 0.000000 0.239274
#
# Coordination Sequence:
#
# PCOD9169363 Si02
#       7
#     8   8   8   8   8   8   8
#     4  10  20  31  45  68  99 132 163 200 244 287
#     4  10  19  32  50  73 100 130 162 197 241 298
#     4  10  18  27  41  64  97 134 167 195 230 286
#     4  11  21  34  52  73  98 129 169 213 254 292
#     4  10  17  26  43  68  96 128 162 192 233 289
#     4   9  18  31  46  65  92 128 166 206 248 292
#     4  10  20  35  52  71  99 133 169 205 246 297
#
# _framework density 16.75976
#
# number of rings (size 3 to 8) (size 9 to 14) (size 15 to 20)
#    0.000    2.000    0.000    7.286    0.000    2.857 
#    0.000    0.000    0.000    0.429    0.000    0.000 
#    0.000    1.714    0.000    0.000    0.000    0.000 
#
# Total GULP energy -155928.114391 kJ/mol
# GULP energy per Si atom -5568.861228 kJ/mol
# Density = 1.672161 g / cm^3
# Si number density = 16.759760 Si / 1000 Ang^3
#
#
#
# Elastic Constant Matrix: (Units=GPa)
#
#
# Indices 1 2 3 4 5 6 
#
# 1 84.6423 33.2908 54.6670 0.0000 -8.0029 0.0000
# 2 33.2908 52.8845 19.0993 0.0000 -0.6890 0.0000
# 3 54.6670 19.0993 65.0538 0.0000 -17.1675 0.0000
# 4 0.0000 0.0000 0.0000 8.7565 0.0000 -7.1368
# 5 -8.0029 -0.6890 -17.1675 0.0000 30.0834 0.0000
# 6 0.0000 0.0000 0.0000 -7.1368 0.0000 8.2035
#
#
#
# Elastic Compliance Matrix: (Units=1/GPa)
#
#
# Indices 1 2 3 4 5 6 
#
# 1 0.031760 -0.011020 -0.025065 0.000000 -0.006107 0.000000
# 2 -0.011020 0.025312 0.001423 0.000000 -0.001540 0.000000
# 3 -0.025065 0.001423 0.040342 0.000000 0.016386 0.000000
# 4 0.000000 0.000000 0.000000 0.392524 0.000000 0.341486
# 5 -0.006107 -0.001540 0.016386 0.000000 0.040932 0.000000
# 6 0.000000 0.000000 0.000000 0.341486 0.000000 0.418985
#
#
# Mechanical properties :
#
#
# Convention : Reuss Voigt Hill
#
# Bulk Modulus (GPa) = 35.60169 46.29943 40.95056
# Shear Modulus (GPa) = 4.86124 15.77690 10.31907
#
# Velocity S-wave (km/s) = 1.70495 3.07148 2.48403
# Velocity P-wave (km/s) = 5.01640 6.34539 5.71963
#
# Compressibility (1/GPa) = 0.02808856
#
# Stress axis : x y z
#
# Youngs Moduli (GPa) = 31.48617 39.50623 24.78826
#
# Poissons Ratio (x) = 0.43536 0.62132
# Poissons Ratio (y) = 0.34698 -0.03526
# Poissons Ratio (z) = 0.78921 -0.05620
#
# Static dielectric constant tensor:
#      x y z
#    x 1.556700 0.000000 -0.050630 
#    y 0.000000 1.574300 0.000000 
#    z -0.050630 0.000000 1.647990 
# 
# From -- ./inp_files/67088.got.cif
#   From: 2010.05.17/outbox.cif.g08.bks.cpg/sg12_34_cif.got.tgz:67088.got - 2010.06.03 13:09:07.
