data_PCOD9169951
_publ_section_title
;
Structure prediction by ZEFSAII (Michael W. Deem and Ramdas Pophale) SiO2 
 PCOD9169951
Probable space group: C 2/M
;
_chemical_formula_sum "Si O2"
_cell_formula_units_Z 52
_cell_length_a 13.290469
_cell_length_b 25.813211
_cell_length_c 12.622622
_cell_angle_alpha 90.000000
_cell_angle_beta 136.962767
_cell_angle_gamma 90.000000
_cell_volume 2955.409695
_symmetry_space_group_name_H-M "C 2/M"
_symmetry_group_IT_number 12
_symmetry_cell_setting 'monoclinic'
loop_
_space_group_symop_operation_xyz
x,y,z
-x,y,-z
-x,-y,-z
x,-y,z
1/2+x,1/2+y,z
1/2-x,1/2+y,-z
1/2-x,1/2-y,-z
1/2+x,1/2-y,z
loop_
_atom_site_type_symbol
_atom_site_label
_atom_site_fract_x
_atom_site_fract_y
_atom_site_fract_z
Si Si1 0.698371 0.500000 0.624295
Si Si2 0.930803 0.299834 0.561338
Si Si3 0.459621 0.114265 0.198506
Si Si4 0.847614 0.885952 0.155952
Si Si5 0.279955 0.614336 0.354915
Si Si6 0.604983 0.687901 0.376090
Si Si7 0.346532 0.500000 0.169095
Si Si8 0.032333 0.500000 0.826869
O O1 0.670525 0.557975 0.559489
O O2 0.627479 0.500000 0.685579
O O3 0.877192 0.500000 0.768446
O O4 0.755778 0.312101 0.425125
O O5 0.941729 0.246463 0.635415
O O6 0.000000 0.292630 0.500000
O O7 0.011828 0.346249 0.684853
O O8 0.603776 0.119218 0.234236
O O9 0.458428 0.053546 0.230032
O O10 0.307608 0.124521 0.020666
O O11 0.819842 0.884260 0.261918
O O12 0.897638 0.944645 0.165738
O O13 0.972598 0.844792 0.225162
O O14 0.352891 0.659262 0.480716
O O15 0.170020 0.500000 0.012692
#
# Coordination Sequence:
#
# PCOD9169951 Si02
#       8
#     4   8   8   8   8   8   4   4
#     4   8  13  21  40  68 100 135 167 183 216 287
#     4  10  21  39  54  68  93 127 162 201 243 288
#     4   9  18  30  50  73  98 131 166 198 238 284
#     4  10  17  29  48  76 105 129 160 197 235 287
#     4   9  16  28  46  73 106 137 159 189 234 288
#     4  10  21  34  52  73  96 127 160 195 245 287
#     4   8  15  23  40  69 105 134 149 186 247 283
#     4   8  13  26  43  67  98 127 160 199 234 280
#
# _framework density 17.594853000000001
#
# number of rings (size 3 to 8) (size 9 to 14) (size 15 to 20)
#    0.000    2.769    0.000    2.077    0.000    4.923 
#    0.000    4.231    0.000    0.000    0.000    3.231 
#    0.000    0.000    0.000    0.000    0.000    0.000 
#
# Total GULP energy -144839.562819 kJ/mol
# GULP energy per Si atom -5570.752416 kJ/mol
# Density = 1.755481 g / cm^3
# Si number density = 17.594853 Si / 1000 Ang^3
#
#
#
# Elastic Constant Matrix: (Units=GPa)
#
#
# Indices 1 2 3 4 5 6 
#
# 1 67.1794 25.4909 29.7058 0.0000 14.1121 0.0000
# 2 25.4909 103.2059 37.6178 0.0000 19.3186 0.0000
# 3 29.7058 37.6178 60.7760 0.0000 26.5148 0.0000
# 4 0.0000 0.0000 0.0000 26.7089 0.0000 11.8274
# 5 14.1121 19.3186 26.5148 0.0000 24.2727 0.0000
# 6 0.0000 0.0000 0.0000 11.8274 0.0000 15.8684
#
#
#
# Elastic Compliance Matrix: (Units=1/GPa)
#
#
# Indices 1 2 3 4 5 6 
#
# 1 0.019244 -0.001661 -0.007782 0.000000 -0.001365 0.000000
# 2 -0.001661 0.012761 -0.005878 0.000000 -0.002769 0.000000
# 3 -0.007782 -0.005878 0.037982 0.000000 -0.032288 0.000000
# 4 0.000000 0.000000 0.000000 0.055886 0.000000 -0.041655
# 5 -0.001365 -0.002769 -0.032288 0.000000 0.079466 0.000000
# 6 0.000000 0.000000 0.000000 -0.041655 0.000000 0.094065
#
#
# Mechanical properties :
#
#
# Convention : Reuss Voigt Hill
#
# Bulk Modulus (GPa) = 25.41709 46.31003 35.86356
# Shear Modulus (GPa) = 14.57037 22.59311 18.58174
#
# Velocity S-wave (km/s) = 2.88080 3.58729 3.25328
# Velocity P-wave (km/s) = 5.05396 6.59814 5.87699
#
# Compressibility (1/GPa) = 0.03934361
#
# Stress axis : x y z
#
# Youngs Moduli (GPa) = 51.96502 78.36645 26.32804
#
# Poissons Ratio (x) = 0.13016 0.20489
# Poissons Ratio (y) = 0.08631 0.15477
# Poissons Ratio (z) = 0.40440 0.46067
#
# Static dielectric constant tensor:
#      x y z
#    x 1.577280 0.000000 0.038430 
#    y 0.000000 1.641210 0.000000 
#    z 0.038430 0.000000 1.604770 
# 
# From -- ./inp_files/52593.got.cif
#   From: 2010.05.17/outbox.cif.g08.bks.cpg/sg12_27_cif.got.tgz:52593.got - 2010.06.03 13:09:07.
