data_PCOD9169593
_publ_section_title
;
Structure prediction by ZEFSAII (Michael W. Deem and Ramdas Pophale) SiO2 
 PCOD9169593
Probable space group: C 2/M
;
_chemical_formula_sum "Si O2"
_cell_formula_units_Z 44
_cell_length_a 7.786117
_cell_length_b 18.205043
_cell_length_c 13.554756
_cell_angle_alpha 90.000000
_cell_angle_beta 56.834492
_cell_angle_gamma 90.000000
_cell_volume 1608.342214
_symmetry_space_group_name_H-M "C 2/M"
_symmetry_group_IT_number 12
_symmetry_cell_setting 'monoclinic'
loop_
_space_group_symop_operation_xyz
x,y,z
-x,y,-z
-x,-y,-z
x,-y,z
1/2+x,1/2+y,z
1/2-x,1/2+y,-z
1/2-x,1/2-y,-z
1/2+x,1/2-y,z
loop_
_atom_site_type_symbol
_atom_site_label
_atom_site_fract_x
_atom_site_fract_y
_atom_site_fract_z
Si Si1 0.270215 0.743254 0.374403
Si Si2 0.305957 0.580287 0.372786
Si Si3 0.236483 0.392805 0.844804
Si Si4 0.294970 0.235265 0.870616
Si Si5 0.000000 0.869154 0.500000
Si Si6 0.187900 0.422614 0.093018
O O1 0.250000 0.750000 0.500000
O O2 0.203648 0.658452 0.373991
O O3 0.487315 0.754732 0.253385
O O4 0.131310 0.813264 0.390599
O O5 0.216284 0.500000 0.376272
O O6 0.536303 0.585474 0.257673
O O7 0.348455 0.586447 0.477218
O O8 0.182137 0.306254 0.863200
O O9 0.059984 0.423322 0.829392
O O10 0.224346 0.416637 0.963595
O O11 0.231368 0.150283 0.878387
O O12 0.250000 0.250000 0.000000
O O13 0.268359 0.500000 0.106686
#
# Coordination Sequence:
#
# PCOD9169593 Si02
#       6
#     8   8   8   8   4   8
#     4   9  19  33  48  68  98 131 158 190 240 291
#     4  10  18  30  48  71  93 121 161 204 236 274
#     4   9  17  28  44  68  99 126 153 192 242 287
#     4   9  18  31  47  71  98 127 159 194 237 288
#     4  10  19  32  49  68  96 132 162 192 237 292
#     4  10  17  27  46  74  97 120 155 199 239 278
#
# _framework density 27.357362999999999
#
# number of rings (size 3 to 8) (size 9 to 14) (size 15 to 20)
#    0.000    2.545    0.000    3.545    0.000    0.000 
#    0.000    4.091    0.000    0.000    0.000   45.818 
#    0.000    0.000    0.000    0.000    0.000    0.000 
#
# Total GULP energy -122836.922626 kJ/mol
# GULP energy per Si atom -5583.496483 kJ/mol
# Density = 2.729510 g / cm^3
# Si number density = 27.357363 Si / 1000 Ang^3
#
#
#
# Elastic Constant Matrix: (Units=GPa)
#
#
# Indices 1 2 3 4 5 6 
#
# 1 32.6072 7.0158 34.3449 0.0000 5.7460 0.0000
# 2 7.0158 300.7569 11.4437 0.0000 2.7485 0.0000
# 3 34.3449 11.4437 166.2233 0.0000 -9.3253 0.0000
# 4 0.0000 0.0000 0.0000 1.9681 0.0000 -5.6449
# 5 5.7460 2.7485 -9.3253 0.0000 58.6912 0.0000
# 6 0.0000 0.0000 0.0000 -5.6449 0.0000 13.9023
#
#
#
# Elastic Compliance Matrix: (Units=1/GPa)
#
#
# Indices 1 2 3 4 5 6 
#
# 1 0.040917 -0.000574 -0.008716 0.000000 -0.005364 0.000000
# 2 -0.000574 0.003344 -0.000118 0.000000 -0.000119 0.000000
# 3 -0.008716 -0.000118 0.007944 0.000000 0.002121 0.000000
# 4 0.000000 0.000000 0.000000 -3.086779 0.000000 -1.253350
# 5 -0.005364 -0.000119 0.002121 0.000000 0.017906 0.000000
# 6 0.000000 0.000000 0.000000 -1.253350 0.000000 -0.436977
#
#
# Mechanical properties :
#
#
# Convention : Reuss Voigt Hill
#
# Bulk Modulus (GPa) = 29.94981 67.24400 48.59690
# Shear Modulus (GPa) = -1.46041 44.69784 21.61872
#
# Velocity S-wave (km/s) = -0.73143 4.04648 2.81416
# Velocity P-wave (km/s) = 3.20282 6.81654 5.32556
#
# Compressibility (1/GPa) = 0.03338920
#
# Stress axis : x y z
#
# Youngs Moduli (GPa) = 24.43981 299.04999 125.88203
#
# Poissons Ratio (x) = 0.17160 1.09714
# Poissons Ratio (y) = 0.01402 0.01490
# Poissons Ratio (z) = 0.21301 0.03539
#
# Static dielectric constant tensor:
#      x y z
#    x 2.287930 0.000000 -0.041100 
#    y 0.000000 2.178610 0.000000 
#    z -0.041100 0.000000 2.115110 
# 
# From -- ./inp_files/264125.got.cif
#   From: 2010.05.17/outbox.cif.g08.bks.cpg/sg12_133_cif.got.tgz:264125.got - 2010.06.03 13:09:07.
