data_PCOD9169891
_publ_section_title
;
Structure prediction by ZEFSAII (Michael W. Deem and Ramdas Pophale) SiO2 
 PCOD9169891
Probable space group: C 2/M
;
_chemical_formula_sum "Si O2"
_cell_formula_units_Z 64
_cell_length_a 25.234816
_cell_length_b 14.673497
_cell_length_c 7.050557
_cell_angle_alpha 90.000000
_cell_angle_beta 97.383757
_cell_angle_gamma 90.000000
_cell_volume 2589.052488
_symmetry_space_group_name_H-M "C 2/M"
_symmetry_group_IT_number 12
_symmetry_cell_setting 'monoclinic'
loop_
_space_group_symop_operation_xyz
x,y,z
-x,y,-z
-x,-y,-z
x,-y,z
1/2+x,1/2+y,z
1/2-x,1/2+y,-z
1/2-x,1/2-y,-z
1/2+x,1/2-y,z
loop_
_atom_site_type_symbol
_atom_site_label
_atom_site_fract_x
_atom_site_fract_y
_atom_site_fract_z
Si Si1 0.341454 0.703972 0.740614
Si Si2 0.673713 0.607864 0.675165
Si Si3 0.240862 0.395892 0.803034
Si Si4 0.573185 0.704646 0.718094
Si Si5 0.708551 0.104049 0.340717
Si Si6 0.877932 0.395574 0.157020
Si Si7 0.049792 0.404570 0.167083
Si Si8 0.043468 0.207656 0.278725
O O1 0.333589 0.655602 0.532837
O O2 0.293423 0.664971 0.844886
O O3 0.329818 0.810346 0.701533
O O4 0.403611 0.686549 0.820859
O O5 0.665998 0.500000 0.653200
O O6 0.627482 0.650020 0.783604
O O7 0.736293 0.621783 0.748575
O O8 0.254724 0.500000 0.859386
O O9 0.224535 0.394878 0.571423
O O10 0.184794 0.371436 0.874853
O O11 0.590208 0.811490 0.734189
O O12 0.556774 0.675640 0.496697
O O13 0.517708 0.686094 0.803544
O O14 0.690736 0.000000 0.291609
O O15 0.882585 0.500000 0.239153
O O16 0.901931 0.400579 0.958581
O O17 0.050670 0.500000 0.274577
O O18 0.044571 0.317190 0.291472
O O19 0.000000 0.403813 0.000000
#
# Coordination Sequence:
#
# PCOD9169891 Si02
#       8
#     8   8   8   8   8   8   8   8
#     4  10  17  29  45  69 105 135 162 200 252 299
#     4   9  17  30  49  73 101 134 170 210 251 292
#     4   9  16  27  46  71  95 127 171 209 238 286
#     4  10  19  33  50  76 105 129 167 213 251 286
#     4   9  16  26  44  71 103 135 162 195 248 301
#     4  10  19  32  54  78 101 134 171 202 243 299
#     4  10  20  36  52  70 100 138 171 200 244 305
#     4  10  21  32  47  73 104 131 164 203 252 297
#
# _framework density 24.719469
#
# number of rings (size 3 to 8) (size 9 to 14) (size 15 to 20)
#    0.000    2.375    1.250    4.875    0.000    1.000 
#    0.000    7.500    0.000    0.000    0.000    6.125 
#    0.000    0.000    0.000    0.000    0.000    0.000 
#
# Total GULP energy -178789.651551 kJ/mol
# GULP energy per Si atom -5587.176611 kJ/mol
# Density = 2.466321 g / cm^3
# Si number density = 24.719469 Si / 1000 Ang^3
#
#
#
# Elastic Constant Matrix: (Units=GPa)
#
#
# Indices 1 2 3 4 5 6 
#
# 1 227.3979 66.9931 43.6862 0.0000 -20.9550 0.0000
# 2 66.9931 72.4406 21.7332 0.0000 -8.3455 0.0000
# 3 43.6862 21.7332 56.4434 0.0000 -7.3419 0.0000
# 4 0.0000 0.0000 0.0000 24.8494 0.0000 -14.9311
# 5 -20.9550 -8.3455 -7.3419 0.0000 37.9743 0.0000
# 6 0.0000 0.0000 0.0000 -14.9311 0.0000 40.3472
#
#
#
# Elastic Compliance Matrix: (Units=1/GPa)
#
#
# Indices 1 2 3 4 5 6 
#
# 1 0.006622 -0.005014 -0.002936 0.000000 0.001984 0.000000
# 2 -0.005014 0.019607 -0.003558 0.000000 0.000854 0.000000
# 3 -0.002936 -0.003558 0.021590 0.000000 0.001772 0.000000
# 4 0.000000 0.000000 0.000000 0.051749 0.000000 0.019151
# 5 0.001984 0.000854 0.001772 0.000000 0.027959 0.000000
# 6 0.000000 0.000000 0.000000 0.019151 0.000000 0.031872
#
#
# Mechanical properties :
#
#
# Convention : Reuss Voigt Hill
#
# Bulk Modulus (GPa) = 40.31837 69.01187 54.66512
# Shear Modulus (GPa) = 26.22149 35.55879 30.89014
#
# Velocity S-wave (km/s) = 3.26047 3.79686 3.53884
# Velocity P-wave (km/s) = 5.52449 6.87024 6.23379
#
# Compressibility (1/GPa) = 0.02480259
#
# Stress axis : x y z
#
# Youngs Moduli (GPa) = 151.01650 51.00122 46.31803
#
# Poissons Ratio (x) = 0.25573 0.13600
# Poissons Ratio (y) = 0.75724 0.16478
# Poissons Ratio (z) = 0.44343 0.18144
#
# Static dielectric constant tensor:
#      x y z
#    x 2.054700 0.000000 -0.008340 
#    y 0.000000 1.913340 0.000000 
#    z -0.008340 0.000000 1.991930 
# 
# From -- ./inp_files/104555.got.cif
#   From: 2010.05.17/outbox.cif.g08.bks.cpg/sg12_53_cif.got.tgz:104555.got - 2010.06.03 13:09:07.
