data_PCOD9169673
_publ_section_title
;
Structure prediction by ZEFSAII (Michael W. Deem and Ramdas Pophale) SiO2 
 PCOD9169673
Probable space group: C 2/M
;
_chemical_formula_sum "Si O2"
_cell_formula_units_Z 56
_cell_length_a 27.694625
_cell_length_b 7.484133
_cell_length_c 15.252044
_cell_angle_alpha 90.000000
_cell_angle_beta 77.718196
_cell_angle_gamma 90.000000
_cell_volume 3088.943085
_symmetry_space_group_name_H-M "C 2/M"
_symmetry_group_IT_number 12
_symmetry_cell_setting 'monoclinic'
loop_
_space_group_symop_operation_xyz
x,y,z
-x,y,-z
-x,-y,-z
x,-y,z
1/2+x,1/2+y,z
1/2-x,1/2+y,-z
1/2-x,1/2-y,-z
1/2+x,1/2-y,z
loop_
_atom_site_type_symbol
_atom_site_label
_atom_site_fract_x
_atom_site_fract_y
_atom_site_fract_z
Si Si1 0.456175 0.781653 0.398538
Si Si2 0.040142 0.209881 0.127550
Si Si3 0.306893 0.785791 0.959978
Si Si4 0.932133 0.718440 0.600646
Si Si5 0.569896 0.794279 0.779109
Si Si6 0.608119 0.216182 0.942944
Si Si7 0.629869 0.794781 0.219595
O O1 0.513845 0.728221 0.383496
O O2 0.430597 0.728286 0.499542
O O3 0.431950 0.716112 0.317941
O O4 0.456426 0.000000 0.396007
O O5 0.081335 0.292012 0.175999
O O6 0.986783 0.291208 0.165482
O O7 0.037045 0.000000 0.147334
O O8 0.061374 0.235286 0.021779
O O9 0.327640 0.714926 0.858855
O O10 0.313432 0.000000 0.954342
O O11 0.250000 0.750000 0.000000
O O12 0.343460 0.721130 0.022970
O O13 0.931595 0.500000 0.603106
O O14 0.889079 0.784045 0.681526
O O15 0.601288 0.715021 0.846954
O O16 0.585828 0.000000 0.763123
O O17 0.609403 0.000000 0.938553
O O18 0.643808 0.000000 0.232433
#
# Coordination Sequence:
#
# PCOD9169673 Si02
#       7
#     8   8   8   8   8   8   8
#     4   8  13  20  38  65  86 108 139 175 206 230
#     4  11  20  27  38  60  89 117 145 175 205 241
#     4   9  18  31  46  64  82 103 135 176 219 257
#     4   8  12  21  39  64  87 106 138 178 206 232
#     4  10  17  28  44  60  83 116 147 171 202 244
#     4   9  19  32  45  60  80 110 145 175 206 252
#     4   9  16  29  47  63  84 114 145 174 208 250
#
# _framework density 18.129179000000001
#
# number of rings (size 3 to 8) (size 9 to 14) (size 15 to 20)
#    0.000    2.857    1.429    3.429    0.000    4.571 
#    0.000    0.000    0.000    1.714    0.000    1.000 
#    0.000    0.000    0.000    0.000    0.000    0.000 
#
# Total GULP energy -156053.226256 kJ/mol
# GULP energy per Si atom -5573.329509 kJ/mol
# Density = 1.808792 g / cm^3
# Si number density = 18.129179 Si / 1000 Ang^3
#
#
#
# Elastic Constant Matrix: (Units=GPa)
#
#
# Indices 1 2 3 4 5 6 
#
# 1 66.7205 -3.6509 63.7542 0.0000 -13.0616 0.0000
# 2 -3.6509 58.5235 1.3330 0.0000 0.4335 0.0000
# 3 63.7542 1.3330 192.2566 0.0000 -1.2950 0.0000
# 4 0.0000 0.0000 0.0000 -10.1605 0.0000 -7.3429
# 5 -13.0616 0.4335 -1.2950 0.0000 22.8625 0.0000
# 6 0.0000 0.0000 0.0000 -7.3429 0.0000 7.1813
#
#
#
# Elastic Compliance Matrix: (Units=1/GPa)
#
#
# Indices 1 2 3 4 5 6 
#
# 1 0.026080 0.001715 -0.008563 0.000000 0.014382 0.000000
# 2 0.001715 0.017205 -0.000684 0.000000 0.000615 0.000000
# 3 -0.008563 -0.000684 0.008016 0.000000 -0.004425 0.000000
# 4 0.000000 0.000000 0.000000 -0.056598 0.000000 -0.057871
# 5 0.014382 0.000615 -0.004425 0.000000 0.051694 0.000000
# 6 0.000000 0.000000 0.000000 -0.057871 0.000000 0.080077
#
#
# Mechanical properties :
#
#
# Convention : Reuss Voigt Hill
#
# Bulk Modulus (GPa) = 27.59583 48.93037 38.26310
# Shear Modulus (GPa) = 32.54820 21.04760 26.79790
#
# Velocity S-wave (km/s) = 4.24175 3.41101 3.84886
# Velocity P-wave (km/s) = 6.26457 6.52394 6.39557
#
# Compressibility (1/GPa) = 0.03623736
#
# Stress axis : x y z
#
# Youngs Moduli (GPa) = 38.34352 58.12199 124.75003
#
# Poissons Ratio (x) = -0.09971 1.06829
# Poissons Ratio (y) = -0.06578 0.08533
# Poissons Ratio (z) = 0.32835 0.03976
#
# Static dielectric constant tensor:
#      x y z
#    x 1.583160 0.000000 0.008580 
#    y 0.000000 1.696820 0.000000 
#    z 0.008580 0.000000 1.678970 
# 
# From -- ./inp_files/247784.got.cif
#   From: 2010.05.17/outbox.cif.g08.bks.cpg/sg12_124_cif.got.tgz:247784.got - 2010.06.03 13:09:07.
