data_PCOD9169021
_publ_section_title
;
Structure prediction by ZEFSAII (Michael W. Deem and Ramdas Pophale) SiO2 
 PCOD9169021
Probable space group: C 2/M
;
_chemical_formula_sum "Si O2"
_cell_formula_units_Z 52
_cell_length_a 8.864347
_cell_length_b 24.765087
_cell_length_c 20.761108
_cell_angle_alpha 90.000000
_cell_angle_beta 31.906355
_cell_angle_gamma 90.000000
_cell_volume 2408.844848
_symmetry_space_group_name_H-M "C 2/M"
_symmetry_group_IT_number 12
_symmetry_cell_setting 'monoclinic'
loop_
_space_group_symop_operation_xyz
x,y,z
-x,y,-z
-x,-y,-z
x,-y,z
1/2+x,1/2+y,z
1/2-x,1/2+y,-z
1/2-x,1/2-y,-z
1/2+x,1/2-y,z
loop_
_atom_site_type_symbol
_atom_site_label
_atom_site_fract_x
_atom_site_fract_y
_atom_site_fract_z
Si Si1 0.665209 0.631534 0.609260
Si Si2 0.222610 0.345182 0.679533
Si Si3 0.917216 0.771561 0.263221
Si Si4 0.873559 0.637766 0.938468
Si Si5 0.500000 0.773771 0.000000
Si Si6 0.147572 0.062822 0.182711
Si Si7 0.194178 0.864423 0.795705
O O1 0.538110 0.635074 0.583837
O O2 0.555217 0.684619 0.689530
O O3 0.533738 0.577933 0.688124
O O4 0.000000 0.632286 0.500000
O O5 0.253768 0.281179 0.655519
O O6 0.040428 0.354840 0.811644
O O7 0.017030 0.372485 0.701608
O O8 0.806982 0.807489 0.243161
O O9 0.218478 0.746863 0.129281
O O10 0.913856 0.688604 0.971407
O O11 0.044610 0.589774 0.913535
O O12 0.531725 0.633037 0.063404
O O13 0.960006 0.093835 0.196899
O O14 0.172135 0.000000 0.161108
#
# Coordination Sequence:
#
# PCOD9169021 Si02
#       7
#     8   8   8   8   4   8   8
#     4  10  22  42  59  79 111 145 196 240 271 335
#     4  11  21  33  54  85 115 150 188 229 276 315
#     4  10  20  34  54  82 116 160 188 213 270 337
#     4  10  18  34  50  82 116 151 184 220 264 336
#     4  10  16  32  53  80 118 150 191 214 250 336
#     4  10  20  39  61  78 103 147 192 229 284 345
#     4  10  20  32  51  84 120 140 185 231 273 330
#
# _framework density 21.587109999999999
#
# number of rings (size 3 to 8) (size 9 to 14) (size 15 to 20)
#    0.000    1.846    6.154    1.385    2.154    3.385 
#    0.000    6.154    0.000    5.538    0.000    0.000 
#    0.000    0.000    0.000    0.000    0.000    0.000 
#
# Total GULP energy -144946.525767 kJ/mol
# GULP energy per Si atom -5574.866376 kJ/mol
# Density = 2.153798 g / cm^3
# Si number density = 21.587110 Si / 1000 Ang^3
#
#
#
# Elastic Constant Matrix: (Units=GPa)
#
#
# Indices 1 2 3 4 5 6 
#
# 1 102.7739 27.6722 28.6890 -0.0004 -37.4807 -0.0001
# 2 27.6722 84.7751 5.4337 -0.0011 -12.6295 -0.0003
# 3 28.6890 5.4337 82.7225 -0.0046 -30.1496 -0.0033
# 4 -0.0004 -0.0011 -0.0046 -0.0667 -0.0001 1.3527
# 5 -37.4807 -12.6295 -30.1496 -0.0001 45.5303 -0.0004
# 6 -0.0001 -0.0003 -0.0033 1.3527 -0.0004 5.8375
#
#
#
# Elastic Compliance Matrix: (Units=1/GPa)
#
#
# Indices 1 2 3 4 5 6 
#
# 1 0.014722 -0.003167 -0.001056 0.000002 0.010542 0.000000
# 2 -0.003167 0.013007 0.000802 -0.000041 0.001532 0.000011
# 3 -0.001056 0.000802 0.016037 -0.000166 0.009973 0.000048
# 4 0.000002 -0.000041 -0.000166 -2.630614 -0.000122 0.609593
# 5 0.010542 0.001532 0.009973 -0.000122 0.037670 0.000037
# 6 0.000000 0.000011 0.000048 0.609593 0.000037 0.030046
#
#
# Mechanical properties :
#
#
# Convention : Reuss Voigt Hill
#
# Bulk Modulus (GPa) = 27.08253 43.76236 35.42244
# Shear Modulus (GPa) = -2.00001 24.15867 11.07933
#
# Velocity S-wave (km/s) = -0.96359 3.34896 2.26793
# Velocity P-wave (km/s) = 3.36674 5.93890 4.82729
#
# Compressibility (1/GPa) = 0.03692418
#
# Stress axis : x y z
#
# Youngs Moduli (GPa) = 67.92538 76.88404 62.35654
#
# Poissons Ratio (x) = 0.24353 0.06583
# Poissons Ratio (y) = 0.21515 -0.05004
# Poissons Ratio (z) = 0.07170 -0.06169
#
# Static dielectric constant tensor:
#      x y z
#    x 1.874990 0.000000 -0.013390 
#    y 0.000000 1.735330 0.000000 
#    z -0.013390 0.000000 1.907440 
# 
# From -- ./inp_files/334193.got.cif
#   From: 2010.05.17/outbox.cif.g08.bks.cpg/sg12_168_cif.got.tgz:334193.got - 2010.06.03 13:09:07.
