data_PCOD9169318
_publ_section_title
;
Structure prediction by ZEFSAII (Michael W. Deem and Ramdas Pophale) SiO2 
 PCOD9169318
Probable space group: C 2/M
;
_chemical_formula_sum "Si O2"
_cell_formula_units_Z 58
_cell_length_a 30.353934
_cell_length_b 7.461994
_cell_length_c 19.517152
_cell_angle_alpha 90.000000
_cell_angle_beta 143.170466
_cell_angle_gamma 90.000000
_cell_volume 2649.899123
_symmetry_space_group_name_H-M "C 2/M"
_symmetry_group_IT_number 12
_symmetry_cell_setting 'monoclinic'
loop_
_space_group_symop_operation_xyz
x,y,z
-x,y,-z
-x,-y,-z
x,-y,z
1/2+x,1/2+y,z
1/2-x,1/2+y,-z
1/2-x,1/2-y,-z
1/2+x,1/2-y,z
loop_
_atom_site_type_symbol
_atom_site_label
_atom_site_fract_x
_atom_site_fract_y
_atom_site_fract_z
Si Si1 0.886959 0.719208 0.893793
Si Si2 0.368944 0.279464 0.244163
Si Si3 0.978808 0.283376 0.720504
Si Si4 0.040508 0.281973 0.154027
Si Si5 0.500000 0.500000 0.500000
Si Si6 0.240475 0.702339 0.173258
Si Si7 0.151820 0.793598 0.932898
Si Si8 0.461749 0.799370 0.549774
O O1 0.885068 0.500000 0.893481
O O2 0.904611 0.774379 0.838102
O O3 0.811529 0.784751 0.833606
O O4 0.958223 0.771724 0.027678
O O5 0.381957 0.500000 0.263748
O O6 0.315392 0.217228 0.237394
O O7 0.330871 0.240417 0.123605
O O8 0.448817 0.195225 0.338444
O O9 0.979850 0.500000 0.720472
O O10 0.944126 0.223984 0.749308
O O11 0.063493 0.222306 0.827859
O O12 0.943222 0.231676 0.603513
O O13 0.040638 0.500000 0.153882
O O14 0.450478 0.655475 0.477227
O O15 0.258699 0.500000 0.217762
O O16 0.189395 0.692046 0.041722
O O17 0.172326 0.000000 0.967255
O O18 0.433740 0.000000 0.503133
#
# Coordination Sequence:
#
# PCOD9169318 Si02
#       8
#     8   8   8   8   2   8   8   8
#     4   8  13  20  35  61  85 122 168 203 240 264
#     4   9  18  31  43  62  93 126 160 203 238 275
#     4   9  16  28  46  66  89 121 162 197 234 279
#     4   8  12  21  38  59  88 119 161 210 236 265
#     4  12  22  40  60  74 108 118 146 194 244 302
#     4  10  17  26  41  59  87 127 170 206 232 271
#     4  10  18  25  36  56  86 126 168 200 237 267
#     4  10  21  35  55  78  97 128 154 185 243 301
#
# _framework density 21.887626999999998
#
# number of rings (size 3 to 8) (size 9 to 14) (size 15 to 20)
#    0.000    2.759    2.069    1.862    0.966    1.103 
#    0.000    0.000    0.000    1.655    0.000    0.000 
#    0.000    1.103    1.931    0.414    0.000    0.276 
#
# Total GULP energy -161547.433579 kJ/mol
# GULP energy per Si atom -5570.601158 kJ/mol
# Density = 2.183781 g / cm^3
# Si number density = 21.887627 Si / 1000 Ang^3
#
#
#
# Elastic Constant Matrix: (Units=GPa)
#
#
# Indices 1 2 3 4 5 6 
#
# 1 190.2039 13.2113 14.5518 0.0000 -23.0494 0.0000
# 2 13.2113 75.8400 12.4759 0.0000 -15.0186 0.0000
# 3 14.5518 12.4759 31.5498 0.0000 -13.7510 0.0000
# 4 0.0000 0.0000 0.0000 9.4752 0.0000 -1.0340
# 5 -23.0494 -15.0186 -13.7510 0.0000 35.5659 0.0000
# 6 0.0000 0.0000 0.0000 -1.0340 0.0000 5.0605
#
#
#
# Elastic Compliance Matrix: (Units=1/GPa)
#
#
# Indices 1 2 3 4 5 6 
#
# 1 0.005747 -0.000173 -0.001192 0.000000 0.003191 0.000000
# 2 -0.000173 0.014754 -0.003714 0.000000 0.004682 0.000000
# 3 -0.001192 -0.003714 0.039320 0.000000 0.012862 0.000000
# 4 0.000000 0.000000 0.000000 0.107945 0.000000 0.022056
# 5 0.003191 0.004682 0.012862 0.000000 0.037135 0.000000
# 6 0.000000 0.000000 0.000000 0.022056 0.000000 0.202114
#
#
# Mechanical properties :
#
#
# Convention : Reuss Voigt Hill
#
# Bulk Modulus (GPa) = 20.13523 42.00797 31.07160
# Shear Modulus (GPa) = 11.52798 27.17731 19.35265
#
# Velocity S-wave (km/s) = 2.29746 3.52756 2.97675
# Velocity P-wave (km/s) = 4.03201 5.98547 5.10308
#
# Compressibility (1/GPa) = 0.04966419
#
# Stress axis : x y z
#
# Youngs Moduli (GPa) = 173.99186 67.77847 25.43247
#
# Poissons Ratio (x) = 0.01174 0.03031
# Poissons Ratio (y) = 0.03015 0.09445
# Poissons Ratio (z) = 0.20734 0.25170
#
# Static dielectric constant tensor:
#      x y z
#    x 1.834780 0.000000 -0.046770 
#    y 0.000000 1.834170 0.000000 
#    z -0.046770 0.000000 1.961330 
# 
# From -- ./inp_files/329116.got.cif
#   From: 2010.05.17/outbox.cif.g08.bks.cpg/sg12_165_cif.got.tgz:329116.got - 2010.06.03 13:09:07.
