data_PCOD9169946
_publ_section_title
;
Structure prediction by ZEFSAII (Michael W. Deem and Ramdas Pophale) SiO2 
 PCOD9169946
Probable space group: C 2/M
;
_chemical_formula_sum "Si O2"
_cell_formula_units_Z 28
_cell_length_a 31.837457
_cell_length_b 5.315020
_cell_length_c 10.877309
_cell_angle_alpha 90.000000
_cell_angle_beta 117.889068
_cell_angle_gamma 90.000000
_cell_volume 1626.843258
_symmetry_space_group_name_H-M "C 2/M"
_symmetry_group_IT_number 12
_symmetry_cell_setting 'monoclinic'
loop_
_space_group_symop_operation_xyz
x,y,z
-x,y,-z
-x,-y,-z
x,-y,z
1/2+x,1/2+y,z
1/2-x,1/2+y,-z
1/2-x,1/2-y,-z
1/2+x,1/2-y,z
loop_
_atom_site_type_symbol
_atom_site_label
_atom_site_fract_x
_atom_site_fract_y
_atom_site_fract_z
Si Si1 0.911222 0.000000 0.110445
Si Si2 0.686399 0.500000 0.878176
Si Si3 0.876855 0.000000 0.778730
Si Si4 0.736000 0.500000 0.407355
Si Si5 0.225547 0.500000 0.813644
Si Si6 0.930691 0.500000 0.806360
Si Si7 0.465384 0.000000 0.139318
O O1 0.943026 0.249512 0.166492
O O2 0.866189 0.000000 0.138348
O O3 0.891117 0.000000 0.942709
O O4 0.697464 0.750345 0.815793
O O5 0.724810 0.500000 0.042193
O O6 0.820506 0.000000 0.690787
O O7 0.899688 0.750879 0.750795
O O8 0.750000 0.750000 0.500000
O O9 0.762109 0.500000 0.312123
O O10 0.977625 0.500000 0.786997
O O11 0.949014 0.500000 0.973343
#
# Coordination Sequence:
#
# PCOD9169946 Si02
#       7
#     4   4   4   4   4   4   4
#     4  10  17  29  48  74 105 133 167 199 252 319
#     4  10  19  33  54  74 105 134 174 210 252 325
#     4  10  19  32  48  69 100 139 174 202 255 305
#     4  12  24  38  54  75 106 139 184 222 252 296
#     4  10  21  35  51  75 100 139 175 214 261 294
#     4   9  17  29  45  67 102 137 166 200 247 316
#     4   9  17  26  44  72 103 135 161 200 249 309
#
# _framework density 17.211245000000002
#
# number of rings (size 3 to 8) (size 9 to 14) (size 15 to 20)
#    0.000    2.000    1.429    3.429    0.000    3.429 
#    0.000    0.000    0.000    0.000    0.000    0.000 
#    0.000   80.000    0.000    0.000    0.000    0.000 
#
# Total GULP energy -78146.375989 kJ/mol
# GULP energy per Si atom -5581.883999 kJ/mol
# Density = 1.717207 g / cm^3
# Si number density = 17.211245 Si / 1000 Ang^3
#
#
#
# Elastic Constant Matrix: (Units=GPa)
#
#
# Indices 1 2 3 4 5 6 
#
# 1 193.0042 111.2236 37.4123 0.0000 -16.5870 0.0000
# 2 111.2236 207.9353 43.7754 0.0000 -15.5571 0.0000
# 3 37.4123 43.7754 41.7723 0.0000 -15.0724 0.0000
# 4 0.0000 0.0000 0.0000 9.4588 0.0000 2.0234
# 5 -16.5870 -15.5571 -15.0724 0.0000 19.6186 0.0000
# 6 0.0000 0.0000 0.0000 2.0234 0.0000 31.2293
#
#
#
# Elastic Compliance Matrix: (Units=1/GPa)
#
#
# Indices 1 2 3 4 5 6 
#
# 1 0.007888 -0.003508 -0.002748 0.000000 0.001777 0.000000
# 2 -0.003508 0.007731 -0.005282 0.000000 -0.000894 0.000000
# 3 -0.002748 -0.005282 0.040933 0.000000 0.024936 0.000000
# 4 0.000000 0.000000 0.000000 0.107208 0.000000 -0.006946
# 5 0.001777 -0.000894 0.024936 0.000000 0.070923 0.000000
# 6 0.000000 0.000000 0.000000 -0.006946 0.000000 0.032471
#
#
# Mechanical properties :
#
#
# Convention : Reuss Voigt Hill
#
# Bulk Modulus (GPa) = 29.87161 91.94829 60.90995
# Shear Modulus (GPa) = 16.58993 28.74804 22.66899
#
# Velocity S-wave (km/s) = 3.10804 4.09137 3.63313
# Velocity P-wave (km/s) = 5.50213 8.70968 7.28464
#
# Compressibility (1/GPa) = 0.03347660
#
# Stress axis : x y z
#
# Youngs Moduli (GPa) = 126.77419 129.35414 24.43015
#
# Poissons Ratio (x) = 0.45377 0.06712
# Poissons Ratio (y) = 0.44472 0.12904
# Poissons Ratio (z) = 0.34832 0.68326
#
# Static dielectric constant tensor:
#      x y z
#    x 1.554340 0.000000 0.002790 
#    y 0.000000 1.572990 0.000000 
#    z 0.002790 0.000000 1.553040 
# 
# From -- ./inp_files/107191.got.cif
#   From: 2010.05.17/outbox.cif.g08.bks.cpg/sg12_54_cif.got.tgz:107191.got - 2010.06.03 13:09:07.
