data_PCOD9169694
_publ_section_title
;
Structure prediction by ZEFSAII (Michael W. Deem and Ramdas Pophale) SiO2 
 PCOD9169694
Probable space group: C 2/M
;
_chemical_formula_sum "Si O2"
_cell_formula_units_Z 48
_cell_length_a 21.254624
_cell_length_b 19.305915
_cell_length_c 8.636828
_cell_angle_alpha 90.000000
_cell_angle_beta 41.151974
_cell_angle_gamma 90.000000
_cell_volume 2332.182974
_symmetry_space_group_name_H-M "C 2/M"
_symmetry_group_IT_number 12
_symmetry_cell_setting 'monoclinic'
loop_
_space_group_symop_operation_xyz
x,y,z
-x,y,-z
-x,-y,-z
x,-y,z
1/2+x,1/2+y,z
1/2-x,1/2+y,-z
1/2-x,1/2-y,-z
1/2+x,1/2-y,z
loop_
_atom_site_type_symbol
_atom_site_label
_atom_site_fract_x
_atom_site_fract_y
_atom_site_fract_z
Si Si1 0.116237 0.154564 0.625506
Si Si2 0.711438 0.919721 0.527670
Si Si3 0.951005 0.079518 0.758871
Si Si4 0.221730 0.305692 0.924956
Si Si5 0.646411 0.778596 0.753719
Si Si6 0.765652 0.580402 0.875232
O O1 0.182324 0.106022 0.614829
O O2 0.186900 0.170743 0.348710
O O3 0.086687 0.226168 0.762016
O O4 0.021305 0.117694 0.744102
O O5 0.642882 0.860180 0.723720
O O6 0.698125 0.000000 0.599639
O O7 0.698459 0.915401 0.366904
O O8 0.843942 0.106284 0.935653
O O9 0.000000 0.080271 0.500000
O O10 0.059232 0.000000 0.169900
O O11 0.149138 0.273936 0.933426
O O12 0.184960 0.371896 0.088661
O O13 0.250000 0.250000 0.000000
O O14 0.750000 0.750000 0.500000
O O15 0.765184 0.500000 0.924661
#
# Coordination Sequence:
#
# PCOD9169694 Si02
#       6
#     8   8   8   8   8   8
#     4  10  18  30  44  59  88 122 151 185 221 263
#     4   9  17  29  44  65  90 118 149 184 225 265
#     4  10  19  30  43  65  93 123 155 181 213 264
#     4  10  17  28  45  61  83 114 151 189 225 256
#     4   8  17  29  43  61  83 117 150 187 226 265
#     4  10  19  29  44  67  93 120 152 182 216 262
#
# _framework density 20.581576999999999
#
# number of rings (size 3 to 8) (size 9 to 14) (size 15 to 20)
#    0.000    2.833    1.667    3.500    0.000    3.333 
#    0.000    2.500    0.000    0.000    0.000    0.000 
#    0.000    2.000    0.000   38.167    0.000   13.167 
#
# Total GULP energy -133773.780578 kJ/mol
# GULP energy per Si atom -5573.907524 kJ/mol
# Density = 2.053473 g / cm^3
# Si number density = 20.581577 Si / 1000 Ang^3
#
#
#
# Elastic Constant Matrix: (Units=GPa)
#
#
# Indices 1 2 3 4 5 6 
#
# 1 64.8461 42.0117 3.5292 0.0000 33.5015 0.0000
# 2 42.0117 148.0703 13.9875 0.0000 34.1845 0.0000
# 3 3.5292 13.9875 34.5139 0.0000 20.5099 0.0000
# 4 0.0000 0.0000 0.0000 15.4491 0.0000 15.1258
# 5 33.5015 34.1845 20.5099 0.0000 33.0887 0.0000
# 6 0.0000 0.0000 0.0000 15.1258 0.0000 40.9765
#
#
#
# Elastic Compliance Matrix: (Units=1/GPa)
#
#
# Indices 1 2 3 4 5 6 
#
# 1 0.057896 -0.000895 0.045479 0.000000 -0.085883 0.000000
# 2 -0.000895 0.009074 0.002290 0.000000 -0.009887 0.000000
# 3 0.045479 0.002290 0.082583 0.000000 -0.099601 0.000000
# 4 0.000000 0.000000 0.000000 0.101361 0.000000 -0.037416
# 5 -0.085883 -0.009887 -0.099601 0.000000 0.189127 0.000000
# 6 0.000000 0.000000 0.000000 -0.037416 0.000000 0.038216
#
#
# Mechanical properties :
#
#
# Convention : Reuss Voigt Hill
#
# Bulk Modulus (GPa) = 4.11017 40.72079 22.41548
# Shear Modulus (GPa) = 10.73858 30.42966 20.58412
#
# Velocity S-wave (km/s) = 2.28668 3.84929 3.16590
# Velocity P-wave (km/s) = 2.99553 6.29158 4.92733
#
# Compressibility (1/GPa) = 0.24329896
#
# Stress axis : x y z
#
# Youngs Moduli (GPa) = 17.27245 110.20643 12.10897
#
# Poissons Ratio (x) = 0.09867 -0.55070
# Poissons Ratio (y) = 0.01546 -0.02772
# Poissons Ratio (z) = -0.78553 -0.25233
#
# Static dielectric constant tensor:
#      x y z
#    x 1.776110 0.000000 -0.004950 
#    y 0.000000 1.785830 0.000000 
#    z -0.004950 0.000000 1.756820 
# 
# From -- ./inp_files/97570.got.cif
#   From: 2010.05.17/outbox.cif.g08.bks.cpg/sg12_49_cif.got.tgz:97570.got - 2010.06.03 13:09:07.
