data_PCOD9169644
_publ_section_title
;
Structure prediction by ZEFSAII (Michael W. Deem and Ramdas Pophale) SiO2 
 PCOD9169644
Probable space group: C 2/M
;
_chemical_formula_sum "Si O2"
_cell_formula_units_Z 32
_cell_length_a 11.933794
_cell_length_b 13.623182
_cell_length_c 12.437180
_cell_angle_alpha 90.000000
_cell_angle_beta 62.759740
_cell_angle_gamma 90.000000
_cell_volume 1797.741177
_symmetry_space_group_name_H-M "C 2/M"
_symmetry_group_IT_number 12
_symmetry_cell_setting 'monoclinic'
loop_
_space_group_symop_operation_xyz
x,y,z
-x,y,-z
-x,-y,-z
x,-y,z
1/2+x,1/2+y,z
1/2-x,1/2+y,-z
1/2-x,1/2-y,-z
1/2+x,1/2-y,z
loop_
_atom_site_type_symbol
_atom_site_label
_atom_site_fract_x
_atom_site_fract_y
_atom_site_fract_z
Si Si1 0.055501 0.385511 0.860098
Si Si2 0.549019 0.756798 0.660927
Si Si3 0.756240 0.612010 0.531229
Si Si4 0.341466 0.609077 0.671400
O O1 0.023674 0.500000 0.852599
O O2 0.009814 0.317166 0.783226
O O3 0.207702 0.379934 0.789796
O O4 0.000000 0.358588 0.000000
O O5 0.663080 0.681017 0.639618
O O6 0.612478 0.833089 0.549427
O O7 0.437381 0.693060 0.661377
O O8 0.769471 0.500000 0.562051
O O9 0.691795 0.610606 0.440531
O O10 0.394193 0.500000 0.672290
#
# Coordination Sequence:
#
# PCOD9169644 Si02
#       4
#     8   8   8   8
#     4   9  19  35  51  68  92 122 159 199 233 272
#     4  10  17  27  51  74  92 121 160 194 228 270
#     4   9  18  31  47  71 100 125 153 189 229 278
#     4   9  17  30  50  73  94 122 159 191 226 278
#
# _framework density 17.800115000000002
#
# number of rings (size 3 to 8) (size 9 to 14) (size 15 to 20)
#    0.000    2.750    0.000    3.750    0.000    3.000 
#    0.000    0.000    0.000   69.000    0.000    0.000 
#    0.000    0.000    0.000    0.000    0.000    0.000 
#
# Total GULP energy -89258.260224 kJ/mol
# GULP energy per Si atom -5578.641264 kJ/mol
# Density = 1.775960 g / cm^3
# Si number density = 17.800115 Si / 1000 Ang^3
#
#
#
# Elastic Constant Matrix: (Units=GPa)
#
#
# Indices 1 2 3 4 5 6 
#
# 1 48.1958 29.6097 13.5663 0.0000 5.3645 0.0000
# 2 29.6097 111.1767 24.7736 0.0000 5.9603 0.0000
# 3 13.5663 24.7736 82.6008 0.0000 -5.6488 0.0000
# 4 0.0000 0.0000 0.0000 28.3681 0.0000 4.4006
# 5 5.3645 5.9603 -5.6488 0.0000 10.2979 0.0000
# 6 0.0000 0.0000 0.0000 4.4006 0.0000 39.7068
#
#
#
# Elastic Compliance Matrix: (Units=1/GPa)
#
#
# Indices 1 2 3 4 5 6 
#
# 1 0.026595 -0.005622 -0.003539 0.000000 -0.012542 0.000000
# 2 -0.005622 0.011410 -0.002857 0.000000 -0.005242 0.000000
# 3 -0.003539 -0.002857 0.014321 0.000000 0.011353 0.000000
# 4 0.000000 0.000000 0.000000 0.035867 0.000000 -0.003975
# 5 -0.012542 -0.005242 0.011353 0.000000 0.112902 0.000000
# 6 0.000000 0.000000 0.000000 -0.003975 0.000000 0.025625
#
#
# Mechanical properties :
#
#
# Convention : Reuss Voigt Hill
#
# Bulk Modulus (GPa) = 35.35006 41.98584 38.66795
# Shear Modulus (GPa) = 19.21693 27.27614 23.24653
#
# Velocity S-wave (km/s) = 3.28928 3.91878 3.61775
# Velocity P-wave (km/s) = 5.85905 6.64187 6.26270
#
# Compressibility (1/GPa) = 0.02828849
#
# Stress axis : x y z
#
# Youngs Moduli (GPa) = 37.60117 87.64469 69.82723
#
# Poissons Ratio (x) = 0.49273 0.24715
# Poissons Ratio (y) = 0.21139 0.19951
# Poissons Ratio (z) = 0.13309 0.25041
#
# Static dielectric constant tensor:
#      x y z
#    x 1.627600 0.000000 -0.019670 
#    y 0.000000 1.651530 0.000000 
#    z -0.019670 0.000000 1.596880 
# 
# From -- ./inp_files/127510.got.cif
#   From: 2010.05.17/outbox.cif.g08.bks.cpg/sg12_64_cif.got.tgz:127510.got - 2010.06.03 13:09:07.
