data_PCOD9169293
_publ_section_title
;
Structure prediction by ZEFSAII (Michael W. Deem and Ramdas Pophale) SiO2 
 PCOD9169293
Probable space group: C 2/M
;
_chemical_formula_sum "Si O2"
_cell_formula_units_Z 40
_cell_length_a 26.061978
_cell_length_b 7.953902
_cell_length_c 17.712807
_cell_angle_alpha 90.000000
_cell_angle_beta 155.299250
_cell_angle_gamma 90.000000
_cell_volume 1534.353794
_symmetry_space_group_name_H-M "C 2/M"
_symmetry_group_IT_number 12
_symmetry_cell_setting 'monoclinic'
loop_
_space_group_symop_operation_xyz
x,y,z
-x,y,-z
-x,-y,-z
x,-y,z
1/2+x,1/2+y,z
1/2-x,1/2+y,-z
1/2-x,1/2-y,-z
1/2+x,1/2-y,z
loop_
_atom_site_type_symbol
_atom_site_label
_atom_site_fract_x
_atom_site_fract_y
_atom_site_fract_z
Si Si1 0.493747 0.304263 0.408987
Si Si2 0.962285 0.201915 0.691701
Si Si3 0.152391 0.196392 0.143779
Si Si4 0.258368 0.701538 0.892640
Si Si5 0.118817 0.309115 0.258745
O O1 0.500000 0.220410 0.500000
O O2 0.530880 0.500000 0.464934
O O3 0.554748 0.229075 0.415690
O O4 0.345718 0.296080 0.200164
O O5 0.878647 0.250228 0.651115
O O6 0.957870 0.000000 0.680742
O O7 0.102726 0.247243 0.900297
O O8 0.247759 0.244699 0.205741
O O9 0.180982 0.219429 0.270093
O O10 0.123395 0.000000 0.092225
O O11 0.026294 0.293258 0.956571
O O12 0.243340 0.500000 0.881562
O O13 0.158836 0.500000 0.309000
#
# Coordination Sequence:
#
# PCOD9169293 Si02
#       5
#     8   8   8   8   8
#     4  10  21  35  51  71  96 128 163 201 246 291
#     4   9  18  33  50  70  99 131 162 196 240 291
#     4   9  16  28  45  68 100 132 158 189 239 292
#     4   9  18  31  50  74  97 127 162 196 237 285
#     4  10  17  25  43  73 101 125 158 198 239 280
#
# _framework density 26.069606
#
# number of rings (size 3 to 8) (size 9 to 14) (size 15 to 20)
#    0.000    2.600    0.000    5.400    0.000    5.200 
#    0.000    0.000    0.000    1.200    0.000    0.000 
#    0.000    0.000    0.000    0.000    0.000    0.000 
#
# Total GULP energy -111795.067587 kJ/mol
# GULP energy per Si atom -5589.753379 kJ/mol
# Density = 2.601027 g / cm^3
# Si number density = 26.069606 Si / 1000 Ang^3
#
#
#
# Elastic Constant Matrix: (Units=GPa)
#
#
# Indices 1 2 3 4 5 6 
#
# 1 240.9013 -4.9444 53.4190 0.0000 -24.5860 0.0000
# 2 -4.9444 50.7923 -4.1232 0.0000 -4.7005 0.0000
# 3 53.4190 -4.1232 81.9759 0.0000 -17.1128 0.0000
# 4 0.0000 0.0000 0.0000 57.5434 0.0000 6.3337
# 5 -24.5860 -4.7005 -17.1128 0.0000 61.8766 0.0000
# 6 0.0000 0.0000 0.0000 6.3337 0.0000 30.0063
#
#
#
# Elastic Compliance Matrix: (Units=1/GPa)
#
#
# Indices 1 2 3 4 5 6 
#
# 1 0.004932 0.000349 -0.002952 0.000000 0.001170 0.000000
# 2 0.000349 0.020003 0.001194 0.000000 0.001988 0.000000
# 3 -0.002952 0.001194 0.014812 0.000000 0.003014 0.000000
# 4 0.000000 0.000000 0.000000 0.017792 0.000000 -0.003755
# 5 0.001170 0.001988 0.003014 0.000000 0.017611 0.000000
# 6 0.000000 0.000000 0.000000 -0.003755 0.000000 0.034119
#
#
# Mechanical properties :
#
#
# Convention : Reuss Voigt Hill
#
# Bulk Modulus (GPa) = 27.08003 51.37469 39.22736
# Shear Modulus (GPa) = 40.19396 51.83980 46.01688
#
# Velocity S-wave (km/s) = 3.93083 4.46411 4.20593
# Velocity P-wave (km/s) = 5.56884 6.80592 6.21822
#
# Compressibility (1/GPa) = 0.03692758
#
# Stress axis : x y z
#
# Youngs Moduli (GPa) = 202.74542 49.99282 67.51359
#
# Poissons Ratio (x) = -0.01743 0.19932
# Poissons Ratio (y) = -0.07070 -0.08061
# Poissons Ratio (z) = 0.59858 -0.05969
#
# Static dielectric constant tensor:
#      x y z
#    x 2.074960 0.000000 -0.067510 
#    y 0.000000 1.892020 0.000000 
#    z -0.067510 0.000000 2.211030 
# 
# From -- ./inp_files/220569.got.cif
#   From: 2010.05.17/outbox.cif.g08.bks.cpg/sg12_111_cif.got.tgz:220569.got - 2010.06.03 13:09:07.
