data_PCOD9169552
_publ_section_title
;
Structure prediction by ZEFSAII (Michael W. Deem and Ramdas Pophale) SiO2 
 PCOD9169552
Probable space group: C 2/M
;
_chemical_formula_sum "Si O2"
_cell_formula_units_Z 48
_cell_length_a 24.932296
_cell_length_b 7.626312
_cell_length_c 15.866457
_cell_angle_alpha 90.000000
_cell_angle_beta 59.018712
_cell_angle_gamma 90.000000
_cell_volume 2586.470852
_symmetry_space_group_name_H-M "C 2/M"
_symmetry_group_IT_number 12
_symmetry_cell_setting 'monoclinic'
loop_
_space_group_symop_operation_xyz
x,y,z
-x,y,-z
-x,-y,-z
x,-y,z
1/2+x,1/2+y,z
1/2-x,1/2+y,-z
1/2-x,1/2-y,-z
1/2+x,1/2-y,z
loop_
_atom_site_type_symbol
_atom_site_label
_atom_site_fract_x
_atom_site_fract_y
_atom_site_fract_z
Si Si1 0.304721 0.792357 0.888142
Si Si2 0.599020 0.288250 0.925381
Si Si3 0.571540 0.285797 0.759742
Si Si4 0.062752 0.789559 0.137332
Si Si5 0.789205 0.789434 0.385454
Si Si6 0.742722 0.712388 0.772348
O O1 0.373813 0.745545 0.863662
O O2 0.288319 0.719288 0.808427
O O3 0.302999 0.000000 0.882074
O O4 0.250000 0.750000 0.000000
O O5 0.591790 0.500000 0.932209
O O6 0.571143 0.231983 0.858680
O O7 0.672719 0.251181 0.861878
O O8 0.572137 0.220541 0.034482
O O9 0.573366 0.500000 0.755648
O O10 0.505173 0.228742 0.774682
O O11 0.638520 0.225815 0.669545
O O12 0.058648 0.000000 0.134996
O O13 0.750000 0.750000 0.500000
O O14 0.756892 0.724147 0.324715
O O15 0.792657 0.000000 0.374725
O O16 0.749498 0.500000 0.763071
#
# Coordination Sequence:
#
# PCOD9169552 Si02
#       6
#     8   8   8   8   8   8
#     4  11  20  31  46  67  96 132 164 191 222 269
#     4   8  12  22  42  67  90 118 155 189 218 264
#     4   8  15  26  45  70  93 119 156 193 229 280
#     4  10  17  27  45  69  95 125 158 191 226 272
#     4   9  17  32  53  74  91 114 151 199 245 281
#     4   8  15  28  46  67  92 121 157 192 224 270
#
# _framework density 18.558105000000001
#
# number of rings (size 3 to 8) (size 9 to 14) (size 15 to 20)
#    0.000    3.000    1.667    3.000    0.000    2.000 
#    0.000    2.500    0.000    3.000    0.000    7.000 
#    0.000    0.000    0.000    0.000    0.000    0.000 
#
# Total GULP energy -133647.904123 kJ/mol
# GULP energy per Si atom -5568.662672 kJ/mol
# Density = 1.851587 g / cm^3
# Si number density = 18.558105 Si / 1000 Ang^3
#
#
#
# Elastic Constant Matrix: (Units=GPa)
#
#
# Indices 1 2 3 4 5 6 
#
# 1 180.5987 5.4830 89.5235 0.0000 -8.4336 -0.0002
# 2 5.4830 33.7677 6.4301 0.0000 -4.0266 -0.0002
# 3 89.5235 6.4301 130.8892 0.0000 -3.3743 0.0000
# 4 0.0000 0.0000 0.0000 14.0335 0.0000 1.2104
# 5 -8.4336 -4.0266 -3.3743 0.0000 5.0775 0.0000
# 6 -0.0002 -0.0002 0.0000 1.2104 0.0000 14.8914
#
#
#
# Elastic Compliance Matrix: (Units=1/GPa)
#
#
# Indices 1 2 3 4 5 6 
#
# 1 0.008976 0.001077 -0.005887 0.000000 0.011850 0.000000
# 2 0.001077 0.032954 -0.001664 0.000000 0.026816 0.000001
# 3 -0.005887 -0.001664 0.011662 0.000000 -0.003347 0.000000
# 4 0.000000 0.000000 0.000000 0.071761 -0.000001 -0.005833
# 5 0.011850 0.026816 -0.003347 -0.000001 0.235670 0.000001
# 6 0.000000 0.000001 0.000000 -0.005833 0.000001 0.067627
#
#
# Mechanical properties :
#
#
# Convention : Reuss Voigt Hill
#
# Bulk Modulus (GPa) = 24.60414 60.90319 42.75367
# Shear Modulus (GPa) = 10.98551 23.05509 17.02030
#
# Velocity S-wave (km/s) = 2.43565 3.52848 3.03171
# Velocity P-wave (km/s) = 4.60397 7.03484 5.94498
#
# Compressibility (1/GPa) = 0.04064356
#
# Stress axis : x y z
#
# Youngs Moduli (GPa) = 111.41063 30.34547 85.75103
#
# Poissons Ratio (x) = -0.03267 0.50477
# Poissons Ratio (y) = -0.11994 0.14269
# Poissons Ratio (z) = 0.65582 0.05049
#
# Static dielectric constant tensor:
#      x y z
#    x 1.638030 0.000000 0.037210 
#    y 0.000000 1.714800 0.000000 
#    z 0.037210 0.000000 1.620910 
# 
# From -- ./inp_files/236624.got.cif
#   From: 2010.05.17/outbox.cif.g08.bks.cpg/sg12_119_cif.got.tgz:236624.got - 2010.06.03 13:09:07.
