data_PCOD9169689
_publ_section_title
;
Structure prediction by ZEFSAII (Michael W. Deem and Ramdas Pophale) SiO2 
 PCOD9169689
Probable space group: C 2/M
;
_chemical_formula_sum "Si O2"
_cell_formula_units_Z 56
_cell_length_a 8.439411
_cell_length_b 25.356834
_cell_length_c 17.231568
_cell_angle_alpha 90.000000
_cell_angle_beta 118.382748
_cell_angle_gamma 90.000000
_cell_volume 3244.231571
_symmetry_space_group_name_H-M "C 2/M"
_symmetry_group_IT_number 12
_symmetry_cell_setting 'monoclinic'
loop_
_space_group_symop_operation_xyz
x,y,z
-x,y,-z
-x,-y,-z
x,-y,z
1/2+x,1/2+y,z
1/2-x,1/2+y,-z
1/2-x,1/2-y,-z
1/2+x,1/2-y,z
loop_
_atom_site_type_symbol
_atom_site_label
_atom_site_fract_x
_atom_site_fract_y
_atom_site_fract_z
Si Si1 0.957641 0.215524 0.854941
Si Si2 0.833408 0.677033 0.911739
Si Si3 0.195090 0.644412 0.580452
Si Si4 0.011098 0.773598 0.324778
Si Si5 0.530051 0.439208 0.414816
Si Si6 0.259798 0.133679 0.732225
Si Si7 0.384777 0.159975 0.272051
O O1 0.908347 0.269017 0.888295
O O2 0.974308 0.225027 0.765882
O O3 0.784359 0.177412 0.820242
O O4 0.154347 0.191940 0.919357
O O5 0.779080 0.637696 0.829624
O O6 0.000000 0.656397 0.000000
O O7 0.313412 0.697827 0.601398
O O8 0.300094 0.597567 0.563154
O O9 0.185562 0.629352 0.669414
O O10 0.000000 0.651167 0.500000
O O11 0.846773 0.811600 0.311634
O O12 0.966862 0.713394 0.330253
O O13 0.500000 0.437133 0.500000
O O14 0.554564 0.500000 0.397850
O O15 0.364075 0.412590 0.329824
O O16 0.454842 0.134271 0.738407
#
# Coordination Sequence:
#
# PCOD9169689 Si02
#       7
#     8   8   8   8   8   8   8
#     4  10  17  28  44  68 104 149 185 212 238 287
#     4  11  19  29  47  75 109 145 184 217 253 297
#     4  10  21  32  48  79 104 133 177 220 261 314
#     4   9  17  30  48  68 104 150 177 203 249 297
#     4  10  22  41  61  77  96 128 172 224 276 320
#     4  10  18  33  53  74 104 139 176 215 259 313
#     4  11  17  31  51  71 107 148 175 210 254 302
#
# _framework density 17.261406999999998
#
# number of rings (size 3 to 8) (size 9 to 14) (size 15 to 20)
#    0.000    1.857    4.286    3.000    0.000    0.857 
#    0.000    4.286    0.000    0.429    0.000    0.000 
#    0.000    2.286    0.000    0.000    0.000    0.000 
#
# Total GULP energy -156152.333009 kJ/mol
# GULP energy per Si atom -5576.869036 kJ/mol
# Density = 1.722212 g / cm^3
# Si number density = 17.261407 Si / 1000 Ang^3
#
#
#
# Elastic Constant Matrix: (Units=GPa)
#
#
# Indices 1 2 3 4 5 6 
#
# 1 86.5093 11.3652 14.4206 0.0000 25.8367 0.0000
# 2 11.3652 46.8792 19.8260 0.0000 11.7535 0.0000
# 3 14.4206 19.8260 69.9868 0.0000 28.5825 0.0000
# 4 0.0000 0.0000 0.0000 13.7541 0.0000 -3.7610
# 5 25.8367 11.7535 28.5825 0.0000 29.2765 0.0000
# 6 0.0000 0.0000 0.0000 -3.7610 0.0000 9.5029
#
#
#
# Elastic Compliance Matrix: (Units=1/GPa)
#
#
# Indices 1 2 3 4 5 6 
#
# 1 0.016477 -0.001276 0.004483 0.000000 -0.018406 0.000000
# 2 -0.001276 0.024788 -0.005247 0.000000 -0.003703 0.000000
# 3 0.004483 -0.005247 0.025955 0.000000 -0.027190 0.000000
# 4 0.000000 0.000000 0.000000 0.081528 0.000000 0.032266
# 5 -0.018406 -0.003703 -0.027190 0.000000 0.078433 0.000000
# 6 0.000000 0.000000 0.000000 0.032266 0.000000 0.118001
#
#
# Mechanical properties :
#
#
# Convention : Reuss Voigt Hill
#
# Bulk Modulus (GPa) = 15.83743 32.73319 24.28531
# Shear Modulus (GPa) = 13.50224 21.02427 17.26325
#
# Velocity S-wave (km/s) = 2.79986 3.49376 3.16588
# Velocity P-wave (km/s) = 4.43252 5.93966 5.24055
#
# Compressibility (1/GPa) = 0.06314155
#
# Stress axis : x y z
#
# Youngs Moduli (GPa) = 60.69154 40.34181 38.52751
#
# Poissons Ratio (x) = 0.05148 -0.17273
# Poissons Ratio (y) = 0.07744 0.20215
# Poissons Ratio (z) = -0.27210 0.21167
#
# Static dielectric constant tensor:
#      x y z
#    x 1.636660 0.000000 0.010520 
#    y 0.000000 1.560490 0.000000 
#    z 0.010520 0.000000 1.623250 
# 
# From -- ./inp_files/258999.got.cif
#   From: 2010.05.17/outbox.cif.g08.bks.cpg/sg12_130_cif.got.tgz:258999.got - 2010.06.03 13:09:07.
