data_PCOD9169003
_publ_section_title
;
Structure prediction by ZEFSAII (Michael W. Deem and Ramdas Pophale) SiO2 
 PCOD9169003
Probable space group: C 2/M
;
_chemical_formula_sum "Si O2"
_cell_formula_units_Z 36
_cell_length_a 7.693345
_cell_length_b 31.081940
_cell_length_c 13.391818
_cell_angle_alpha 90.000000
_cell_angle_beta 30.942455
_cell_angle_gamma 90.000000
_cell_volume 1646.551969
_symmetry_space_group_name_H-M "C 2/M"
_symmetry_group_IT_number 12
_symmetry_cell_setting 'monoclinic'
loop_
_space_group_symop_operation_xyz
x,y,z
-x,y,-z
-x,-y,-z
x,-y,z
1/2+x,1/2+y,z
1/2-x,1/2+y,-z
1/2-x,1/2-y,-z
1/2+x,1/2-y,z
loop_
_atom_site_type_symbol
_atom_site_label
_atom_site_fract_x
_atom_site_fract_y
_atom_site_fract_z
Si Si1 0.321324 0.591701 0.956084
Si Si2 0.507118 0.949463 0.710187
Si Si3 0.661283 0.386410 0.595575
Si Si4 0.897904 0.702565 0.435064
Si Si5 0.500000 0.328851 0.000000
O O1 0.037416 0.564721 0.153107
O O2 0.659414 0.565730 0.825843
O O3 0.366659 0.601312 0.817396
O O4 0.328730 0.638414 0.005640
O O5 0.780080 0.922091 0.516285
O O6 0.554791 0.000000 0.677663
O O7 0.653669 0.339345 0.547740
O O8 0.000000 0.386286 0.500000
O O9 0.750000 0.750000 0.500000
O O10 0.000000 0.700431 0.500000
O O11 0.211622 0.696190 0.203921
#
# Coordination Sequence:
#
# PCOD9169003 Si02
#       5
#     8   8   8   8   4
#     4   9  14  24  40  55  92 122 160 182 236 291
#     4   9  15  21  35  60  88 126 161 186 227 293
#     4   9  15  27  40  59  89 125 155 192 237 285
#     4  11  21  35  52  73  97 130 172 207 248 295
#     4  10  16  32  49  66  92 130 161 200 248 286
#
# _framework density 21.863869000000001
#
# number of rings (size 3 to 8) (size 9 to 14) (size 15 to 20)
#    0.000    2.667    8.889    1.333    0.000    5.778 
#    0.000    0.000    0.000    0.000    0.000    0.000 
#    0.000    0.889    0.000    3.000    0.000    0.000 
#
# Total GULP energy -100358.937428 kJ/mol
# GULP energy per Si atom -5575.496524 kJ/mol
# Density = 2.181411 g / cm^3
# Si number density = 21.863869 Si / 1000 Ang^3
#
#
#
# Elastic Constant Matrix: (Units=GPa)
#
#
# Indices 1 2 3 4 5 6 
#
# 1 51.8140 37.3891 46.1178 0.0000 18.6360 0.0000
# 2 37.3891 235.0945 126.4492 0.0000 33.6011 0.0000
# 3 46.1178 126.4492 185.9498 0.0000 45.9527 0.0000
# 4 0.0000 0.0000 0.0000 55.1268 0.0000 6.6620
# 5 18.6360 33.6011 45.9527 0.0000 43.7475 0.0000
# 6 0.0000 0.0000 0.0000 6.6620 0.0000 3.9834
#
#
#
# Elastic Compliance Matrix: (Units=1/GPa)
#
#
# Indices 1 2 3 4 5 6 
#
# 1 0.025937 -0.000958 -0.004366 0.000000 -0.005727 0.000000
# 2 -0.000958 0.006750 -0.004284 0.000000 -0.000276 0.000000
# 3 -0.004366 -0.004284 0.010941 0.000000 -0.006342 0.000000
# 4 0.000000 0.000000 0.000000 0.022735 0.000000 -0.038023
# 5 -0.005727 -0.000276 -0.006342 0.000000 0.032172 0.000000
# 6 0.000000 0.000000 0.000000 -0.038023 0.000000 0.314635
#
#
# Mechanical properties :
#
#
# Convention : Reuss Voigt Hill
#
# Bulk Modulus (GPa) = 40.96394 99.19671 70.08032
# Shear Modulus (GPa) = 11.35014 38.09836 24.72425
#
# Velocity S-wave (km/s) = 2.28091 4.17889 3.36642
# Velocity P-wave (km/s) = 5.07083 8.29173 6.87263
#
# Compressibility (1/GPa) = 0.02441171
#
# Stress axis : x y z
#
# Youngs Moduli (GPa) = 38.55507 148.15468 91.39797
#
# Poissons Ratio (x) = 0.14197 0.39902
# Poissons Ratio (y) = 0.03694 0.39155
# Poissons Ratio (z) = 0.16832 0.63470
#
# Static dielectric constant tensor:
#      x y z
#    x 1.693310 0.000000 0.063860 
#    y 0.000000 1.779980 0.000000 
#    z 0.063860 0.000000 1.587570 
# 
# From -- ./inp_files/266117.got.cif
#   From: 2010.05.17/outbox.cif.g08.bks.cpg/sg12_134_cif.got.tgz:266117.got - 2010.06.03 13:09:07.
