data_PCOD9169505
_publ_section_title
;
Structure prediction by ZEFSAII (Michael W. Deem and Ramdas Pophale) SiO2 
 PCOD9169505
Probable space group: C 2/M
;
_chemical_formula_sum "Si O2"
_cell_formula_units_Z 64
_cell_length_a 29.439054
_cell_length_b 7.572294
_cell_length_c 15.176339
_cell_angle_alpha 90.000000
_cell_angle_beta 88.396720
_cell_angle_gamma 90.000000
_cell_volume 3381.802832
_symmetry_space_group_name_H-M "C 2/M"
_symmetry_group_IT_number 12
_symmetry_cell_setting 'monoclinic'
loop_
_space_group_symop_operation_xyz
x,y,z
-x,y,-z
-x,-y,-z
x,-y,z
1/2+x,1/2+y,z
1/2-x,1/2+y,-z
1/2-x,1/2-y,-z
1/2+x,1/2-y,z
loop_
_atom_site_type_symbol
_atom_site_label
_atom_site_fract_x
_atom_site_fract_y
_atom_site_fract_z
Si Si1 0.662174 0.288838 0.784029
Si Si2 0.396912 0.201001 0.667570
Si Si3 0.410103 0.794903 0.340113
Si Si4 0.730998 0.712863 0.618781
Si Si5 0.260897 0.711621 0.099987
Si Si6 0.806837 0.717073 0.743220
Si Si7 0.655828 0.296739 0.500160
Si Si8 0.506649 0.215914 0.397887
O O1 0.657624 0.500000 0.789469
O O2 0.613780 0.220495 0.753518
O O3 0.696925 0.247803 0.702176
O O4 0.689763 0.224350 0.868036
O O5 0.358674 0.279533 0.734071
O O6 0.370290 0.198392 0.575683
O O7 0.446035 0.281995 0.645626
O O8 0.404891 0.000000 0.696834
O O9 0.378045 0.703043 0.413852
O O10 0.461735 0.732465 0.346501
O O11 0.409896 0.000000 0.365970
O O12 0.661947 0.500000 0.473579
O O13 0.778844 0.772325 0.656785
O O14 0.703757 0.779823 0.534429
O O15 0.261820 0.500000 0.110259
O O16 0.221770 0.774070 0.169952
O O17 0.250000 0.750000 0.000000
O O18 0.807216 0.500000 0.742112
O O19 0.767738 0.000000 0.389809
O O20 0.500000 0.270724 0.500000
O O21 0.509567 0.000000 0.399031
#
# Coordination Sequence:
#
# PCOD9169505 Si02
#       8
#     8   8   8   8   8   8   8   8
#     4   8  15  28  44  64  92 117 137 172 221 261
#     4  10  18  29  44  59  80 115 154 186 219 260
#     4  10  17  27  44  62  84 115 153 192 223 257
#     4   7  12  24  39  55  80 111 139 171 209 246
#     4   9  17  31  51  74  97 117 137 169 214 267
#     4   8  15  28  45  63  84 113 146 175 210 262
#     4  10  18  27  39  57  84 116 148 185 225 257
#     4   9  16  27  41  60  86 113 148 197 236 251
#
# _framework density 18.924817999999998
#
# number of rings (size 3 to 8) (size 9 to 14) (size 15 to 20)
#    0.000    3.125    1.250    3.000    0.000    1.000 
#    0.000    2.500    0.000    3.000    0.000    0.875 
#    0.000    7.000    0.000    0.000    0.000    0.000 
#
# Total GULP energy -178306.387006 kJ/mol
# GULP energy per Si atom -5572.074594 kJ/mol
# Density = 1.888174 g / cm^3
# Si number density = 18.924818 Si / 1000 Ang^3
#
#
#
# Elastic Constant Matrix: (Units=GPa)
#
#
# Indices 1 2 3 4 5 6 
#
# 1 182.5933 7.2330 52.3146 0.0000 1.8584 0.0000
# 2 7.2330 47.6814 2.7318 0.0000 0.2257 0.0000
# 3 52.3146 2.7318 85.1053 0.0000 11.0960 0.0000
# 4 0.0000 0.0000 0.0000 15.6883 0.0000 4.8905
# 5 1.8584 0.2257 11.0960 0.0000 22.7206 0.0000
# 6 0.0000 0.0000 0.0000 4.8905 0.0000 9.6793
#
#
#
# Elastic Compliance Matrix: (Units=1/GPa)
#
#
# Indices 1 2 3 4 5 6 
#
# 1 0.006728 -0.000781 -0.004315 0.000000 0.001565 0.000000
# 2 -0.000781 0.021102 -0.000191 0.000000 -0.000053 0.000000
# 3 -0.004315 -0.000191 0.015339 0.000000 -0.007136 0.000000
# 4 0.000000 0.000000 0.000000 0.075658 0.000000 -0.038227
# 5 0.001565 -0.000053 -0.007136 0.000000 0.047370 0.000000
# 6 0.000000 0.000000 0.000000 -0.038227 0.000000 0.122628
#
#
# Mechanical properties :
#
#
# Convention : Reuss Voigt Hill
#
# Bulk Modulus (GPa) = 30.67759 48.88209 39.77984
# Shear Modulus (GPa) = 16.11538 26.49102 21.30320
#
# Velocity S-wave (km/s) = 2.92129 3.74545 3.35875
# Velocity P-wave (km/s) = 5.25586 6.67759 6.00892
#
# Compressibility (1/GPa) = 0.03259708
#
# Stress axis : x y z
#
# Youngs Moduli (GPa) = 148.63683 47.38854 65.19401
#
# Poissons Ratio (x) = 0.03700 0.28128
# Poissons Ratio (y) = 0.11605 0.01242
# Poissons Ratio (z) = 0.64130 0.00903
#
# Static dielectric constant tensor:
#      x y z
#    x 1.723230 0.000000 -0.003500 
#    y 0.000000 1.822180 0.000000 
#    z -0.003500 0.000000 1.658650 
# 
# From -- ./inp_files/248242.got.cif
#   From: 2010.05.17/outbox.cif.g08.bks.cpg/sg12_125_cif.got.tgz:248242.got - 2010.06.03 13:09:07.
