data_PCOD9169688
_publ_section_title
;
Structure prediction by ZEFSAII (Michael W. Deem and Ramdas Pophale) SiO2 
 PCOD9169688
Probable space group: C 2/M
;
_chemical_formula_sum "Si O2"
_cell_formula_units_Z 60
_cell_length_a 20.202655
_cell_length_b 7.327799
_cell_length_c 19.419214
_cell_angle_alpha 90.000000
_cell_angle_beta 128.487753
_cell_angle_gamma 90.000000
_cell_volume 2250.255532
_symmetry_space_group_name_H-M "C 2/M"
_symmetry_group_IT_number 12
_symmetry_cell_setting 'monoclinic'
loop_
_space_group_symop_operation_xyz
x,y,z
-x,y,-z
-x,-y,-z
x,-y,z
1/2+x,1/2+y,z
1/2-x,1/2+y,-z
1/2-x,1/2-y,-z
1/2+x,1/2-y,z
loop_
_atom_site_type_symbol
_atom_site_label
_atom_site_fract_x
_atom_site_fract_y
_atom_site_fract_z
Si Si1 0.000000 0.246072 0.000000
Si Si2 0.958475 0.777309 0.400851
Si Si3 0.916556 0.275681 0.809594
Si Si4 0.829088 0.703218 0.967359
Si Si5 0.689679 0.705699 0.778368
Si Si6 0.266802 0.207628 0.626651
Si Si7 0.585096 0.221143 0.840850
Si Si8 0.376278 0.722212 0.564199
O O1 0.945899 0.185243 0.898954
O O2 0.920693 0.318970 0.992044
O O3 0.863874 0.715232 0.320020
O O4 0.000000 0.722899 0.500000
O O5 0.028441 0.722367 0.389579
O O6 0.954361 0.000000 0.398727
O O7 0.916607 0.500000 0.818906
O O8 0.824000 0.217051 0.724957
O O9 0.989665 0.232801 0.801264
O O10 0.794478 0.500000 0.956985
O O11 0.766981 0.792329 0.871218
O O12 0.851858 0.782844 0.056519
O O13 0.717501 0.500000 0.777231
O O14 0.617960 0.699780 0.791328
O O15 0.332837 0.207031 0.605060
O O16 0.182492 0.284770 0.537960
O O17 0.245863 0.000000 0.631928
O O18 0.590088 0.000000 0.841017
O O19 0.372169 0.500000 0.564234
#
# Coordination Sequence:
#
# PCOD9169688 Si02
#       8
#     4   8   8   8   8   8   8   8
#     4  10  17  28  44  66  97 122 143 182 229 264
#     4   9  18  31  45  64  92 121 148 184 225 261
#     4   9  16  26  43  67  92 118 148 183 223 264
#     4   9  17  28  44  68  94 118 146 182 223 265
#     4  10  19  30  47  70  91 115 151 186 218 263
#     4   9  17  28  45  70  93 113 145 188 226 260
#     4   9  17  30  47  68  94 119 144 180 226 266
#     4   9  17  30  47  66  89 118 150 182 222 268
#
# _framework density 26.663637000000001
#
# number of rings (size 3 to 8) (size 9 to 14) (size 15 to 20)
#    0.000    2.800    0.000    3.200    0.000    1.067 
#    0.000    4.000    0.000    1.600    0.000   18.667 
#    0.000    0.000    0.000    0.000    0.000    0.000 
#
# Total GULP energy -167420.054374 kJ/mol
# GULP energy per Si atom -5580.668479 kJ/mol
# Density = 2.660295 g / cm^3
# Si number density = 26.663637 Si / 1000 Ang^3
#
#
#
# Elastic Constant Matrix: (Units=GPa)
#
#
# Indices 1 2 3 4 5 6 
#
# 1 75.9671 0.5713 8.9380 0.0000 8.5169 0.0000
# 2 0.5713 108.0965 2.5083 0.0000 1.1645 0.0000
# 3 8.9380 2.5083 233.0134 0.0000 32.3714 0.0000
# 4 0.0000 0.0000 0.0000 -12.3456 0.0000 -5.0803
# 5 8.5169 1.1645 32.3714 0.0000 49.6888 0.0000
# 6 0.0000 0.0000 0.0000 -5.0803 0.0000 14.5833
#
#
#
# Elastic Compliance Matrix: (Units=1/GPa)
#
#
# Indices 1 2 3 4 5 6 
#
# 1 0.013431 -0.000043 -0.000214 0.000000 -0.002162 0.000000
# 2 -0.000043 0.009255 -0.000076 0.000000 -0.000160 0.000000
# 3 -0.000214 -0.000076 0.004723 0.000000 -0.003038 0.000000
# 4 0.000000 0.000000 0.000000 -0.070845 0.000000 -0.024680
# 5 -0.002162 -0.000160 -0.003038 0.000000 0.022479 0.000000
# 6 0.000000 0.000000 0.000000 -0.024680 0.000000 0.059974
#
#
# Mechanical properties :
#
#
# Convention : Reuss Voigt Hill
#
# Bulk Modulus (GPa) = 37.39284 49.01248 43.20266
# Shear Modulus (GPa) = 102.88626 37.38926 70.13776
#
# Velocity S-wave (km/s) = 6.21856 3.74873 5.13437
# Velocity P-wave (km/s) = 8.10031 6.09582 7.16847
#
# Compressibility (1/GPa) = 0.02674309
#
# Stress axis : x y z
#
# Youngs Moduli (GPa) = 74.45193 108.05321 211.74203
#
# Poissons Ratio (x) = 0.00462 0.04541
# Poissons Ratio (y) = 0.00318 0.01603
# Poissons Ratio (z) = 0.01597 0.00818
#
# Static dielectric constant tensor:
#      x y z
#    x 2.016590 0.000000 -0.017310 
#    y 0.000000 2.487630 0.000000 
#    z -0.017310 0.000000 2.098770 
# 
# From -- ./inp_files/320520.got.cif
#   From: 2010.05.17/outbox.cif.g08.bks.cpg/sg12_161_cif.got.tgz:320520.got - 2010.06.03 13:09:07.
