data_PCOD9169651
_publ_section_title
;
Structure prediction by ZEFSAII (Michael W. Deem and Ramdas Pophale) SiO2 
 PCOD9169651
Probable space group: C 2/M
;
_chemical_formula_sum "Si O2"
_cell_formula_units_Z 56
_cell_length_a 25.847512
_cell_length_b 18.524976
_cell_length_c 8.787908
_cell_angle_alpha 90.000000
_cell_angle_beta 143.317202
_cell_angle_gamma 90.000000
_cell_volume 2513.713513
_symmetry_space_group_name_H-M "C 2/M"
_symmetry_group_IT_number 12
_symmetry_cell_setting 'monoclinic'
loop_
_space_group_symop_operation_xyz
x,y,z
-x,y,-z
-x,-y,-z
x,-y,z
1/2+x,1/2+y,z
1/2-x,1/2+y,-z
1/2-x,1/2-y,-z
1/2+x,1/2-y,z
loop_
_atom_site_type_symbol
_atom_site_label
_atom_site_fract_x
_atom_site_fract_y
_atom_site_fract_z
Si Si1 0.860275 0.178874 0.803249
Si Si2 0.798508 0.289047 0.898960
Si Si3 0.883428 0.083525 0.132328
Si Si4 0.821617 0.421875 0.418378
Si Si5 0.063610 0.291862 0.260763
Si Si6 0.220794 0.580810 0.329615
Si Si7 0.612825 0.294972 0.630433
O O1 0.798555 0.229435 0.763979
O O2 0.903773 0.235530 0.791820
O O3 0.809516 0.122835 0.576337
O O4 0.908418 0.127186 0.038296
O O5 0.827388 0.365007 0.896497
O O6 0.704058 0.298393 0.752526
O O7 0.864622 0.257910 0.177314
O O8 0.907665 0.128594 0.339734
O O9 0.910000 0.000000 0.193953
O O10 0.777317 0.084201 0.873091
O O11 0.855639 0.500000 0.445391
O O12 0.874213 0.349783 0.511892
O O13 0.819304 0.423340 0.596937
O O14 0.042130 0.239861 0.352023
O O15 0.000000 0.336122 0.000000
O O16 0.232143 0.500000 0.297467
#
# Coordination Sequence:
#
# PCOD9169651 Si02
#       7
#     8   8   8   8   8   8   8
#     4  10  18  33  54  76 109 140 185 219 259 322
#     4  10  17  31  55  78 105 138 161 225 287 316
#     4   9  19  35  60  87 112 136 164 223 295 335
#     4   9  18  33  55  85 109 133 176 219 268 329
#     4  12  23  36  54  76 107 153 193 222 252 303
#     4  10  17  27  53  85 107 130 165 218 281 326
#     4  10  20  32  52  82 113 133 176 219 272 324
#
# _framework density 22.277797
#
# number of rings (size 3 to 8) (size 9 to 14) (size 15 to 20)
#    0.000    2.000    2.857    5.143    0.000    0.857 
#    0.000    3.571    0.000    4.714    0.000    2.000 
#    0.000    0.000    0.000    0.000    0.000    0.000 
#
# Total GULP energy -156122.316186 kJ/mol
# GULP energy per Si atom -5575.797007 kJ/mol
# Density = 2.222709 g / cm^3
# Si number density = 22.277797 Si / 1000 Ang^3
#
#
#
# Elastic Constant Matrix: (Units=GPa)
#
#
# Indices 1 2 3 4 5 6 
#
# 1 35.6332 24.2007 17.4819 0.0000 -12.8719 0.0000
# 2 24.2007 180.3544 38.5503 0.0000 -10.2982 0.0000
# 3 17.4819 38.5503 93.8555 0.0000 -24.2508 0.0000
# 4 0.0000 0.0000 0.0000 21.3991 0.0000 -6.9849
# 5 -12.8719 -10.2982 -24.2508 0.0000 26.6597 0.0000
# 6 0.0000 0.0000 0.0000 -6.9849 0.0000 24.5228
#
#
#
# Elastic Compliance Matrix: (Units=1/GPa)
#
#
# Indices 1 2 3 4 5 6 
#
# 1 0.036735 -0.003770 -0.001422 0.000000 0.014987 0.000000
# 2 -0.003770 0.006465 -0.002325 0.000000 -0.001437 0.000000
# 3 -0.001422 -0.002325 0.014988 0.000000 0.012049 0.000000
# 4 0.000000 0.000000 0.000000 0.051521 0.000000 0.014675
# 5 0.014987 -0.001437 0.012049 0.000000 0.055151 0.000000
# 6 0.000000 0.000000 0.000000 0.014675 0.000000 0.044958
#
#
# Mechanical properties :
#
#
# Convention : Reuss Voigt Hill
#
# Bulk Modulus (GPa) = 23.17176 52.25657 37.71416
# Shear Modulus (GPa) = 20.89988 29.82368 25.36178
#
# Velocity S-wave (km/s) = 3.06624 3.66282 3.37773
# Velocity P-wave (km/s) = 4.79162 6.43398 5.67255
#
# Compressibility (1/GPa) = 0.04315597
#
# Stress axis : x y z
#
# Youngs Moduli (GPa) = 27.22179 154.67149 66.72177
#
# Poissons Ratio (x) = 0.58306 0.09485
# Poissons Ratio (y) = 0.10262 0.15512
# Poissons Ratio (z) = 0.03870 0.35958
#
# Static dielectric constant tensor:
#      x y z
#    x 1.872700 0.000000 0.079520 
#    y 0.000000 1.856170 0.000000 
#    z 0.079520 0.000000 1.937810 
# 
# From -- ./inp_files/112661.got.cif
#   From: 2010.05.17/outbox.cif.g08.bks.cpg/sg12_57_cif.got.tgz:112661.got - 2010.06.03 13:09:07.
