data_PCOD9169542
_publ_section_title
;
Structure prediction by ZEFSAII (Michael W. Deem and Ramdas Pophale) SiO2 
 PCOD9169542
Probable space group: C 2/M
;
_chemical_formula_sum "Si O2"
_cell_formula_units_Z 56
_cell_length_a 29.877969
_cell_length_b 8.770128
_cell_length_c 17.796576
_cell_angle_alpha 90.000000
_cell_angle_beta 49.460300
_cell_angle_gamma 90.000000
_cell_volume 3543.902640
_symmetry_space_group_name_H-M "C 2/M"
_symmetry_group_IT_number 12
_symmetry_cell_setting 'monoclinic'
loop_
_space_group_symop_operation_xyz
x,y,z
-x,y,-z
-x,-y,-z
x,-y,z
1/2+x,1/2+y,z
1/2-x,1/2+y,-z
1/2-x,1/2-y,-z
1/2+x,1/2-y,z
loop_
_atom_site_type_symbol
_atom_site_label
_atom_site_fract_x
_atom_site_fract_y
_atom_site_fract_z
Si Si1 0.158969 0.681522 0.079349
Si Si2 0.397046 0.681218 0.086672
Si Si3 0.921399 0.815837 0.227121
Si Si4 0.786594 0.816730 0.391318
Si Si5 0.237510 0.318477 0.134408
Si Si6 0.729661 0.179889 0.751241
Si Si7 0.044914 0.817708 0.137868
O O1 0.162987 0.500000 0.063886
O O2 0.185198 0.717371 0.133004
O O3 0.092939 0.737719 0.137572
O O4 0.202967 0.761286 0.971942
O O5 0.381811 0.500000 0.106214
O O6 0.429403 0.717606 0.129622
O O7 0.337101 0.776085 0.152675
O O8 0.433283 0.706404 0.971759
O O9 0.855446 0.765732 0.320109
O O10 0.977448 0.761240 0.213305
O O11 0.922034 0.000000 0.232577
O O12 0.750000 0.750000 0.500000
O O13 0.761547 0.759569 0.338774
O O14 0.785668 0.000000 0.393641
O O15 0.241624 0.500000 0.139079
O O16 0.231893 0.241730 0.221579
O O17 0.736024 0.000000 0.736412
O O18 0.046573 0.000000 0.149877
#
# Coordination Sequence:
#
# PCOD9169542 Si02
#       7
#     8   8   8   8   8   8   8
#     4  10  20  30  43  65  95 128 164 204 238 272
#     4   9  16  27  43  64  93 128 163 194 225 270
#     4   8  16  29  46  68  92 124 161 193 227 282
#     4  10  20  36  55  74  98 123 156 197 241 287
#     4  10  19  32  46  63  91 130 168 199 236 279
#     4  11  20  30  48  72  98 125 159 199 242 284
#     4  10  17  27  45  66  93 130 165 192 229 277
#
# _framework density 15.801788
#
# number of rings (size 3 to 8) (size 9 to 14) (size 15 to 20)
#    0.000    2.286    1.429    3.857    0.000    3.429 
#    0.000    3.571    0.000    4.286    0.000    1.000 
#    0.000    8.000    0.000    0.000    0.000    0.000 
#
# Total GULP energy -156099.392131 kJ/mol
# GULP energy per Si atom -5574.978290 kJ/mol
# Density = 1.576582 g / cm^3
# Si number density = 15.801788 Si / 1000 Ang^3
#
#
#
# Elastic Constant Matrix: (Units=GPa)
#
#
# Indices 1 2 3 4 5 6 
#
# 1 128.7665 38.1594 47.7696 0.0000 10.8451 0.0000
# 2 38.1594 53.5508 36.7431 -0.0004 8.0186 0.0004
# 3 47.7696 36.7431 72.5886 -0.0001 11.5518 0.0000
# 4 0.0000 -0.0004 -0.0001 19.9207 0.0000 4.6671
# 5 10.8451 8.0186 11.5518 0.0000 14.4845 0.0000
# 6 0.0000 0.0004 0.0000 4.6671 0.0000 21.9954
#
#
#
# Elastic Compliance Matrix: (Units=1/GPa)
#
#
# Indices 1 2 3 4 5 6 
#
# 1 0.010954 -0.004252 -0.004726 0.000000 -0.002079 0.000000
# 2 -0.004252 0.030570 -0.012014 0.000001 -0.004158 -0.000001
# 3 -0.004726 -0.012014 0.024449 0.000000 -0.009309 0.000000
# 4 0.000000 0.000001 0.000000 0.052825 0.000000 -0.011209
# 5 -0.002079 -0.004158 -0.009309 0.000000 0.080322 0.000000
# 6 0.000000 -0.000001 0.000000 -0.011209 0.000000 0.047842
#
#
# Mechanical properties :
#
#
# Convention : Reuss Voigt Hill
#
# Bulk Modulus (GPa) = 41.68475 55.58336 48.63406
# Shear Modulus (GPa) = 16.83829 20.09571 18.46700
#
# Velocity S-wave (km/s) = 3.26789 3.57001 3.42228
# Velocity P-wave (km/s) = 6.37776 7.22807 6.81619
#
# Compressibility (1/GPa) = 0.02398959
#
# Stress axis : x y z
#
# Youngs Moduli (GPa) = 91.28820 32.71221 40.90165
#
# Poissons Ratio (x) = 0.13910 0.19329
# Poissons Ratio (y) = 0.38817 0.49139
# Poissons Ratio (z) = 0.43140 0.39300
#
# Static dielectric constant tensor:
#      x y z
#    x 1.563560 0.000000 0.006080 
#    y 0.000000 1.532320 0.000000 
#    z 0.006080 0.000000 1.503720 
# 
# From -- ./inp_files/243610.got.cif
#   From: 2010.05.17/outbox.cif.g08.bks.cpg/sg12_122_cif.got.tgz:243610.got - 2010.06.03 13:09:07.
