data_PCOD9169998
_publ_section_title
;
Structure prediction by ZEFSAII (Michael W. Deem and Ramdas Pophale) SiO2 
 PCOD9169998
Probable space group: C 2/M
;
_chemical_formula_sum "Si O2"
_cell_formula_units_Z 64
_cell_length_a 31.123758
_cell_length_b 8.601820
_cell_length_c 15.464104
_cell_angle_alpha 90.000000
_cell_angle_beta 79.325959
_cell_angle_gamma 90.000000
_cell_volume 4068.428526
_symmetry_space_group_name_H-M "C 2/M"
_symmetry_group_IT_number 12
_symmetry_cell_setting 'monoclinic'
loop_
_space_group_symop_operation_xyz
x,y,z
-x,y,-z
-x,-y,-z
x,-y,z
1/2+x,1/2+y,z
1/2-x,1/2+y,-z
1/2-x,1/2-y,-z
1/2+x,1/2-y,z
loop_
_atom_site_type_symbol
_atom_site_label
_atom_site_fract_x
_atom_site_fract_y
_atom_site_fract_z
Si Si1 0.372611 0.311835 0.248281
Si Si2 0.310450 0.188046 0.119659
Si Si3 0.282463 0.814550 0.611970
Si Si4 0.686861 0.687460 0.575216
Si Si5 0.443908 0.687833 0.933183
Si Si6 0.458958 0.311145 0.127153
Si Si7 0.148493 0.685828 0.078952
Si Si8 0.711758 0.685826 0.200919
O O1 0.372163 0.500000 0.247268
O O2 0.340739 0.254709 0.184083
O O3 0.352417 0.262623 0.347484
O O4 0.421619 0.258533 0.207047
O O5 0.260353 0.237738 0.152903
O O6 0.312061 0.000000 0.122950
O O7 0.328693 0.238158 0.019524
O O8 0.311590 0.759476 0.520420
O O9 0.232535 0.768574 0.605468
O O10 0.294833 0.741052 0.698544
O O11 0.283706 0.000000 0.618538
O O12 0.686507 0.500000 0.567595
O O13 0.441663 0.500000 0.930446
O O14 0.490961 0.738443 0.877850
O O15 0.401352 0.756868 0.904778
O O16 0.444975 0.732534 0.034605
O O17 0.459591 0.500000 0.128146
O O18 0.149343 0.500000 0.080100
O O19 0.175831 0.749039 0.149105
O O20 0.710827 0.500000 0.198285
#
# Coordination Sequence:
#
# PCOD9169998 Si02
#       8
#     8   8   8   8   8   8   8   8
#     4  10  17  29  50  73  97 128 163 196 234 279
#     4  10  21  33  45  67  98 129 163 200 235 276
#     4  10  19  32  49  70  95 125 158 199 241 281
#     4   9  18  30  47  71  97 126 158 194 237 285
#     4   9  16  30  49  69  94 126 163 198 237 280
#     4   8  15  27  48  73  95 123 160 200 236 279
#     4  11  22  34  47  68  97 129 166 202 238 281
#     4  11  22  35  50  67  92 129 168 203 238 280
#
# _framework density 15.73089
#
# number of rings (size 3 to 8) (size 9 to 14) (size 15 to 20)
#    0.000    2.250    2.500    2.250    0.000    2.000 
#    0.000    1.875    0.000    0.000    0.000    0.875 
#    0.000    7.000    0.000    0.000    0.000    0.000 
#
# Total GULP energy -178480.985772 kJ/mol
# GULP energy per Si atom -5577.530805 kJ/mol
# Density = 1.569509 g / cm^3
# Si number density = 15.730890 Si / 1000 Ang^3
#
#
#
# Elastic Constant Matrix: (Units=GPa)
#
#
# Indices 1 2 3 4 5 6 
#
# 1 128.7053 26.1182 84.4224 0.0000 -14.2640 0.0000
# 2 26.1182 18.2483 26.4737 0.0000 -1.9508 0.0000
# 3 84.4224 26.4737 111.7312 0.0000 -14.1595 0.0000
# 4 0.0000 0.0000 0.0000 21.0226 0.0000 3.4972
# 5 -14.2640 -1.9508 -14.1595 0.0000 25.2229 0.0000
# 6 0.0000 0.0000 0.0000 3.4972 0.0000 20.2843
#
#
#
# Elastic Compliance Matrix: (Units=1/GPa)
#
#
# Indices 1 2 3 4 5 6 
#
# 1 0.016392 -0.008724 -0.009936 0.000000 0.003017 0.000000
# 2 -0.008724 0.088737 -0.015276 0.000000 -0.006646 0.000000
# 3 -0.009936 -0.015276 0.020687 0.000000 0.004813 0.000000
# 4 0.000000 0.000000 0.000000 0.048972 0.000000 -0.008443
# 5 0.003017 -0.006646 0.004813 0.000000 0.043540 0.000000
# 6 0.000000 0.000000 0.000000 -0.008443 0.000000 0.050755
#
#
# Mechanical properties :
#
#
# Convention : Reuss Voigt Hill
#
# Bulk Modulus (GPa) = 17.25800 59.19037 38.22419
# Shear Modulus (GPa) = 14.03427 21.41733 17.72580
#
# Velocity S-wave (km/s) = 2.99012 3.69383 3.36045
# Velocity P-wave (km/s) = 4.78704 7.47670 6.27761
#
# Compressibility (1/GPa) = 0.05794414
#
# Stress axis : x y z
#
# Youngs Moduli (GPa) = 61.00628 11.26921 48.33969
#
# Poissons Ratio (x) = 0.09831 0.48030
# Poissons Ratio (y) = 0.53221 0.73844
# Poissons Ratio (z) = 0.60615 0.17215
#
# Static dielectric constant tensor:
#      x y z
#    x 1.517760 0.000000 -0.032120 
#    y 0.000000 1.528640 0.000000 
#    z -0.032120 0.000000 1.514400 
# 
# From -- ./inp_files/248275.got.cif
#   From: 2010.05.17/outbox.cif.g08.bks.cpg/sg12_125_cif.got.tgz:248275.got - 2010.06.03 13:09:07.
