data_PCOD9169861
_publ_section_title
;
Structure prediction by ZEFSAII (Michael W. Deem and Ramdas Pophale) SiO2 
 PCOD9169861
Probable space group: C 2/M
;
_chemical_formula_sum "Si O2"
_cell_formula_units_Z 48
_cell_length_a 20.880685
_cell_length_b 17.510810
_cell_length_c 14.662268
_cell_angle_alpha 90.000000
_cell_angle_beta 149.914970
_cell_angle_gamma 90.000000
_cell_volume 2687.426284
_symmetry_space_group_name_H-M "C 2/M"
_symmetry_group_IT_number 12
_symmetry_cell_setting 'monoclinic'
loop_
_space_group_symop_operation_xyz
x,y,z
-x,y,-z
-x,-y,-z
x,-y,z
1/2+x,1/2+y,z
1/2-x,1/2+y,-z
1/2-x,1/2-y,-z
1/2+x,1/2-y,z
loop_
_atom_site_type_symbol
_atom_site_label
_atom_site_fract_x
_atom_site_fract_y
_atom_site_fract_z
Si Si1 0.261625 0.085767 0.150777
Si Si2 0.731599 0.859057 0.638280
Si Si3 0.464189 0.784044 0.353540
Si Si4 0.248921 0.412525 0.454501
Si Si5 0.630176 0.764055 0.281944
Si Si6 0.979162 0.163014 0.224270
O O1 0.252877 0.095193 0.249466
O O2 0.357459 0.150808 0.232521
O O3 0.305309 0.000000 0.183111
O O4 0.124596 0.104000 0.939184
O O5 0.590301 0.822848 0.465989
O O6 0.749486 0.905115 0.566251
O O7 0.830637 0.788026 0.755072
O O8 0.500000 0.759477 0.500000
O O9 0.431264 0.711745 0.251155
O O10 0.231132 0.500000 0.406954
O O11 0.140402 0.354482 0.283212
O O12 0.386725 0.380023 0.592213
O O13 0.750000 0.750000 0.500000
O O14 0.510724 0.726106 0.184731
#
# Coordination Sequence:
#
# PCOD9169861 Si02
#       6
#     8   8   8   8   8   8
#     4  11  23  31  48  80 110 132 158 207 260 296
#     4   9  17  34  50  76 104 132 166 199 249 318
#     4  10  19  34  55  70  98 144 178 199 232 299
#     4  10  17  28  55  77 100 126 161 220 254 286
#     4   8  15  30  52  69  98 129 169 200 244 305
#     4  10  18  36  48  73 104 135 170 200 250 306
#
# _framework density 17.860954
#
# number of rings (size 3 to 8) (size 9 to 14) (size 15 to 20)
#    0.000    2.667    5.000    1.500    0.000    6.333 
#    0.000    4.167    0.000    2.000    0.000    2.333 
#    0.000    0.000    0.000    0.000    0.000    0.000 
#
# Total GULP energy -133669.831881 kJ/mol
# GULP energy per Si atom -5569.576328 kJ/mol
# Density = 1.782030 g / cm^3
# Si number density = 17.860954 Si / 1000 Ang^3
#
#
#
# Elastic Constant Matrix: (Units=GPa)
#
#
# Indices 1 2 3 4 5 6 
#
# 1 63.9809 17.9907 1.5720 0.0000 10.0829 0.0000
# 2 17.9907 106.8158 -6.5836 0.0000 1.3162 0.0000
# 3 1.5720 -6.5836 10.2669 0.0000 -3.1317 0.0000
# 4 0.0000 0.0000 0.0000 22.5442 0.0000 -0.6152
# 5 10.0829 1.3162 -3.1317 0.0000 7.9228 0.0000
# 6 0.0000 0.0000 0.0000 -0.6152 0.0000 22.1631
#
#
#
# Elastic Compliance Matrix: (Units=1/GPa)
#
#
# Indices 1 2 3 4 5 6 
#
# 1 0.022827 -0.004464 -0.017048 0.000000 -0.035048 0.000000
# 2 -0.004464 0.010626 0.009884 0.000000 0.007822 0.000000
# 3 -0.017048 0.009884 0.127885 0.000000 0.070605 0.000000
# 4 0.000000 0.000000 0.000000 0.044391 0.000000 0.001232
# 5 -0.035048 0.007822 0.070605 0.000000 0.197432 0.000000
# 6 0.000000 0.000000 0.000000 0.001232 0.000000 0.045154
#
#
# Mechanical properties :
#
#
# Convention : Reuss Voigt Hill
#
# Bulk Modulus (GPa) = 7.24204 23.00242 15.12223
# Shear Modulus (GPa) = 9.65997 21.73165 15.69581
#
# Velocity S-wave (km/s) = 2.32813 3.49192 2.96763
# Velocity P-wave (km/s) = 3.36011 5.40043 4.49750
#
# Compressibility (1/GPa) = 0.13808263
#
# Stress axis : x y z
#
# Youngs Moduli (GPa) = 43.80783 94.10439 7.81950
#
# Poissons Ratio (x) = 0.42004 0.13331
# Poissons Ratio (y) = 0.19554 -0.07728
# Poissons Ratio (z) = 0.74684 -0.93009
#
# Static dielectric constant tensor:
#      x y z
#    x 1.634680 0.000000 -0.001900 
#    y 0.000000 1.652070 0.000000 
#    z -0.001900 0.000000 1.626530 
# 
# From -- ./inp_files/234242.got.cif
#   From: 2010.05.17/outbox.cif.g08.bks.cpg/sg12_118_cif.got.tgz:234242.got - 2010.06.03 13:09:07.
