data_PCOD9169745
_publ_section_title
;
Structure prediction by ZEFSAII (Michael W. Deem and Ramdas Pophale) SiO2 
 PCOD9169745
Probable space group: C 2/M
;
_chemical_formula_sum "Si O2"
_cell_formula_units_Z 48
_cell_length_a 14.455784
_cell_length_b 29.600584
_cell_length_c 5.581075
_cell_angle_alpha 90.000000
_cell_angle_beta 70.244159
_cell_angle_gamma 90.000000
_cell_volume 2247.577838
_symmetry_space_group_name_H-M "C 2/M"
_symmetry_group_IT_number 12
_symmetry_cell_setting 'monoclinic'
loop_
_space_group_symop_operation_xyz
x,y,z
-x,y,-z
-x,-y,-z
x,-y,z
1/2+x,1/2+y,z
1/2-x,1/2+y,-z
1/2-x,1/2-y,-z
1/2+x,1/2-y,z
loop_
_atom_site_type_symbol
_atom_site_label
_atom_site_fract_x
_atom_site_fract_y
_atom_site_fract_z
Si Si1 0.886949 0.447226 0.805918
Si Si2 0.194373 0.725976 0.290032
Si Si3 0.882786 0.171083 0.117889
Si Si4 0.612350 0.085578 0.699120
Si Si5 0.610265 0.810640 0.864118
Si Si6 0.383441 0.671606 0.619995
O O1 0.886432 0.500000 0.743167
O O2 0.845551 0.420577 0.608466
O O3 0.999773 0.430943 0.751505
O O4 0.842641 0.441199 0.112793
O O5 0.310861 0.714457 0.189713
O O6 0.150580 0.707665 0.575580
O O7 0.164109 0.778599 0.317535
O O8 0.156754 0.700475 0.084229
O O9 0.858034 0.148238 0.392237
O O10 0.860253 0.146834 0.887571
O O11 0.000000 0.181613 0.000000
O O12 0.611555 0.136192 0.802867
O O13 0.500000 0.794118 0.000000
O O14 0.500000 0.679065 0.500000
#
# Coordination Sequence:
#
# PCOD9169745 Si02
#       6
#     8   8   8   8   8   8
#     4  10  17  28  47  65  86 124 182 206 216 258
#     4  12  23  34  51  74  94 126 166 191 246 306
#     4  10  21  37  56  71  92 118 155 212 259 291
#     4  10  18  29  42  61  92 125 163 201 231 253
#     4  12  23  34  47  67 103 136 160 197 233 291
#     4  10  19  34  53  73  95 119 149 199 255 300
#
# _framework density 21.356324999999998
#
# number of rings (size 3 to 8) (size 9 to 14) (size 15 to 20)
#    0.000    1.333    1.667    8.000    2.333    1.333 
#    0.000    0.000    0.000    0.000    0.000    0.000 
#    0.000    0.000    0.000    0.000    0.000   96.667 
#
# Total GULP energy -133647.451758 kJ/mol
# GULP energy per Si atom -5568.643823 kJ/mol
# Density = 2.130772 g / cm^3
# Si number density = 21.356325 Si / 1000 Ang^3
#
#
#
# Elastic Constant Matrix: (Units=GPa)
#
#
# Indices 1 2 3 4 5 6 
#
# 1 79.3935 0.9813 49.5493 0.0000 9.9210 0.0000
# 2 0.9813 47.5110 32.7857 0.0000 21.4727 0.0000
# 3 49.5493 32.7857 252.1991 0.0000 59.3055 0.0000
# 4 0.0000 0.0000 0.0000 24.7370 0.0000 14.4811
# 5 9.9210 21.4727 59.3055 0.0000 54.2139 0.0000
# 6 0.0000 0.0000 0.0000 14.4811 0.0000 -0.1254
#
#
#
# Elastic Compliance Matrix: (Units=1/GPa)
#
#
# Indices 1 2 3 4 5 6 
#
# 1 0.014499 0.001831 -0.003086 0.000000 -0.000003 0.000000
# 2 0.001831 0.026175 -0.001677 0.000000 -0.008868 0.000000
# 3 -0.003086 -0.001677 0.006059 0.000000 -0.005399 0.000000
# 4 0.000000 0.000000 0.000000 0.000589 0.000000 0.068049
# 5 -0.000003 -0.008868 -0.005399 0.000000 0.027864 0.000000
# 6 0.000000 0.000000 0.000000 0.068049 0.000000 -0.116243
#
#
# Mechanical properties :
#
#
# Convention : Reuss Voigt Hill
#
# Bulk Modulus (GPa) = 24.46819 60.63736 42.55277
# Shear Modulus (GPa) = -231.82114 35.48424 -98.16845
#
# Velocity S-wave (km/s) = -10.43000 4.08061 -6.78725
# Velocity P-wave (km/s) = 11.55701 7.11735 6.43847
#
# Compressibility (1/GPa) = 0.04086939
#
# Stress axis : x y z
#
# Youngs Moduli (GPa) = 68.96923 38.20427 165.04108
#
# Poissons Ratio (x) = -0.06997 0.50933
# Poissons Ratio (y) = -0.12631 0.27683
# Poissons Ratio (z) = 0.21284 0.06408
#
# Static dielectric constant tensor:
#      x y z
#    x 1.869350 0.000000 0.035170 
#    y 0.000000 1.757710 0.000000 
#    z 0.035170 0.000000 1.946020 
# 
# From -- ./inp_files/12799.got.cif
#   From: 2010.05.17/outbox.cif.g08.bks.cpg/sg12_7_cif.got.tgz:12799.got - 2010.06.03 13:09:07.
