data_PCOD9169441
_publ_section_title
;
Structure prediction by ZEFSAII (Michael W. Deem and Ramdas Pophale) SiO2 
 PCOD9169441
Probable space group: C 2/M
;
_chemical_formula_sum "Si O2"
_cell_formula_units_Z 64
_cell_length_a 15.465866
_cell_length_b 18.001997
_cell_length_c 25.268184
_cell_angle_alpha 90.000000
_cell_angle_beta 32.894097
_cell_angle_gamma 90.000000
_cell_volume 3820.666413
_symmetry_space_group_name_H-M "C 2/M"
_symmetry_group_IT_number 12
_symmetry_cell_setting 'monoclinic'
loop_
_space_group_symop_operation_xyz
x,y,z
-x,y,-z
-x,-y,-z
x,-y,z
1/2+x,1/2+y,z
1/2-x,1/2+y,-z
1/2-x,1/2-y,-z
1/2+x,1/2-y,z
loop_
_atom_site_type_symbol
_atom_site_label
_atom_site_fract_x
_atom_site_fract_y
_atom_site_fract_z
Si Si1 0.205509 0.301369 0.445688
Si Si2 0.530055 0.914210 0.405782
Si Si3 0.920591 0.914782 0.598916
Si Si4 0.798005 0.801437 0.237703
Si Si5 0.162945 0.690864 0.697578
Si Si6 0.609940 0.584222 0.892641
Si Si7 0.513041 0.917565 0.289230
Si Si8 0.007719 0.790447 0.632218
O O1 0.113277 0.378481 0.486713
O O2 0.203060 0.241664 0.400116
O O3 0.108682 0.265613 0.543972
O O4 0.390430 0.305770 0.367601
O O5 0.687432 0.862407 0.325042
O O6 0.477907 0.912641 0.370021
O O7 0.562359 0.000000 0.401841
O O8 0.748604 0.877495 0.681971
O O9 0.000000 0.909425 0.500000
O O10 0.005808 0.865574 0.599160
O O11 0.916680 0.000000 0.616012
O O12 0.895151 0.748696 0.227972
O O13 0.901625 0.850313 0.144300
O O14 0.666840 0.747868 0.275671
O O15 0.057194 0.650925 0.707526
O O16 0.578359 0.500000 0.888107
O O17 0.796058 0.584534 0.813190
O O18 0.500000 0.595829 0.000000
O O19 0.456176 0.000000 0.300587
#
# Coordination Sequence:
#
# PCOD9169441 Si02
#       8
#     8   8   8   8   8   8   8   8
#     4  10  17  27  40  58  83 121 159 189 217 251
#     4   9  18  30  44  60  83 119 165 199 217 249
#     4  10  19  28  40  60  86 117 154 194 226 249
#     4   9  18  29  45  65  92 118 142 177 228 274
#     4  11  19  29  43  64  94 121 149 179 224 268
#     4   9  17  33  56  75  88 107 141 182 226 275
#     4   9  17  30  48  69  89 113 146 187 226 261
#     4   9  17  28  41  58  88 122 155 184 217 262
#
# _framework density 16.751004999999999
#
# number of rings (size 3 to 8) (size 9 to 14) (size 15 to 20)
#    0.000    2.500    1.250    4.500    0.000    0.500 
#    0.000    2.500    0.000    0.000    0.000    0.000 
#    0.000   12.500    0.000    0.000    0.000    0.625 
#
# Total GULP energy -178158.601769 kJ/mol
# GULP energy per Si atom -5567.456305 kJ/mol
# Density = 1.671288 g / cm^3
# Si number density = 16.751005 Si / 1000 Ang^3
#
#
#
# Elastic Constant Matrix: (Units=GPa)
#
#
# Indices 1 2 3 4 5 6 
#
# 1 39.4684 30.3483 2.0653 0.0045 2.5583 -0.0013
# 2 30.3483 143.5206 27.0449 0.0011 9.3056 -0.0003
# 3 2.0653 27.0449 49.4479 0.0082 11.0090 -0.0025
# 4 0.0045 0.0011 0.0082 78.8590 -0.0055 -9.0924
# 5 2.5583 9.3056 11.0090 -0.0055 8.9686 0.0017
# 6 -0.0013 -0.0003 -0.0025 -9.0924 0.0017 38.7863
#
#
#
# Elastic Compliance Matrix: (Units=1/GPa)
#
#
# Indices 1 2 3 4 5 6 
#
# 1 0.030802 -0.006826 0.003889 -0.000002 -0.006478 0.000001
# 2 -0.006826 0.009382 -0.004283 0.000001 -0.002530 0.000000
# 3 0.003889 -0.004283 0.029807 -0.000005 -0.033253 0.000002
# 4 -0.000002 0.000001 -0.000005 0.013033 0.000014 0.003055
# 5 -0.006478 -0.002530 -0.033253 0.000014 0.156792 -0.000006
# 6 0.000001 0.000000 0.000002 0.003055 -0.000006 0.026499
#
#
# Mechanical properties :
#
#
# Convention : Reuss Voigt Hill
#
# Bulk Modulus (GPa) = 18.00154 39.03932 28.52043
# Shear Modulus (GPa) = 16.70725 36.85468 26.78096
#
# Velocity S-wave (km/s) = 3.16157 4.69566 4.00280
# Velocity P-wave (km/s) = 4.90890 7.26328 6.19889
#
# Compressibility (1/GPa) = 0.05555079
#
# Stress axis : x y z
#
# Youngs Moduli (GPa) = 32.46561 106.58480 33.54925
#
# Poissons Ratio (x) = 0.72756 -0.13048
# Poissons Ratio (y) = 0.22161 0.14369
# Poissons Ratio (z) = -0.12626 0.45651
#
# Static dielectric constant tensor:
#      x y z
#    x 1.644600 0.000000 0.006450 
#    y 0.000000 1.610010 0.000000 
#    z 0.006450 0.000000 1.547580 
# 
# From -- ./inp_files/364280.got.cif
#   From: 2010.05.17/outbox.cif.g08.bks.cpg/sg12_183_cif.got.tgz:364280.got - 2010.06.03 13:09:07.
