data_PCOD9169798
_publ_section_title
;
Structure prediction by ZEFSAII (Michael W. Deem and Ramdas Pophale) SiO2 
 PCOD9169798
Probable space group: C 2/M
;
_chemical_formula_sum "Si O2"
_cell_formula_units_Z 56
_cell_length_a 14.952101
_cell_length_b 15.051460
_cell_length_c 12.861822
_cell_angle_alpha 90.000000
_cell_angle_beta 53.303175
_cell_angle_gamma 90.000000
_cell_volume 2320.887783
_symmetry_space_group_name_H-M "C 2/M"
_symmetry_group_IT_number 12
_symmetry_cell_setting 'monoclinic'
loop_
_space_group_symop_operation_xyz
x,y,z
-x,y,-z
-x,-y,-z
x,-y,z
1/2+x,1/2+y,z
1/2-x,1/2+y,-z
1/2-x,1/2-y,-z
1/2+x,1/2-y,z
loop_
_atom_site_type_symbol
_atom_site_label
_atom_site_fract_x
_atom_site_fract_y
_atom_site_fract_z
Si Si1 0.243149 0.106207 0.945974
Si Si2 0.499988 0.397112 0.874851
Si Si3 0.101199 0.093015 0.512402
Si Si4 0.081467 0.712312 0.542836
Si Si5 0.302214 0.901132 0.212468
Si Si6 0.780810 0.201775 0.250399
Si Si7 0.514900 0.102997 0.198717
O O1 0.252071 0.135508 0.819553
O O2 0.360103 0.134317 0.915860
O O3 0.234414 0.000000 0.955662
O O4 0.123075 0.136007 0.073922
O O5 0.517590 0.500000 0.829729
O O6 0.598356 0.326896 0.792295
O O7 0.500000 0.402429 0.000000
O O8 0.083529 0.185870 0.578854
O O9 0.217290 0.094005 0.369594
O O10 0.000000 0.090391 0.500000
O O11 0.097836 0.000000 0.573496
O O12 0.199836 0.694640 0.405864
O O13 0.040196 0.653022 0.665869
O O14 0.000000 0.704822 0.500000
O O15 0.275931 0.799416 0.199125
O O16 0.428853 0.895699 0.163754
O O17 0.287202 0.000000 0.169736
O O18 0.526019 0.000000 0.222440
#
# Coordination Sequence:
#
# PCOD9169798 Si02
#       7
#     8   8   8   8   8   8   8
#     4   9  17  31  51  72  95 124 156 192 234 283
#     4   8  15  28  47  71  94 119 156 195 233 276
#     4   8  15  28  45  62  86 121 161 193 216 259
#     4  10  18  28  45  72  96 121 156 194 235 277
#     4   9  19  33  47  67  93 128 164 191 227 278
#     4  10  17  28  49  71  95 122 157 198 231 273
#     4  10  20  32  46  68 102 130 151 186 237 289
#
# _framework density 24.128698
#
# number of rings (size 3 to 8) (size 9 to 14) (size 15 to 20)
#    0.000    2.857    1.429    1.286    0.000    3.714 
#    0.000    0.714    0.000    5.571    0.000    0.000 
#    0.000    0.000    0.000    0.000    0.000    0.000 
#
# Total GULP energy -156192.512200 kJ/mol
# GULP energy per Si atom -5578.304007 kJ/mol
# Density = 2.407378 g / cm^3
# Si number density = 24.128698 Si / 1000 Ang^3
#
#
#
# Elastic Constant Matrix: (Units=GPa)
#
#
# Indices 1 2 3 4 5 6 
#
# 1 55.9165 -3.9850 38.9935 0.0000 -21.1344 0.0000
# 2 -3.9850 85.1182 38.2752 0.0000 -1.5685 0.0000
# 3 38.9935 38.2752 100.5237 0.0000 -20.5234 0.0000
# 4 0.0000 0.0000 0.0000 7.9446 0.0000 -24.2055
# 5 -21.1344 -1.5685 -20.5234 0.0000 46.9414 0.0000
# 6 0.0000 0.0000 0.0000 -24.2055 0.0000 -1.2493
#
#
#
# Elastic Compliance Matrix: (Units=1/GPa)
#
#
# Indices 1 2 3 4 5 6 
#
# 1 0.030650 0.007442 -0.013017 0.000000 0.008357 0.000000
# 2 0.007442 0.016168 -0.009057 0.000000 -0.000069 0.000000
# 3 -0.013017 -0.009057 0.018872 0.000000 0.002088 0.000000
# 4 0.000000 0.000000 0.000000 0.002097 0.000000 -0.040625
# 5 0.008357 -0.000069 0.002088 0.000000 0.025976 0.000000
# 6 0.000000 0.000000 0.000000 -0.040625 0.000000 -0.013334
#
#
# Mechanical properties :
#
#
# Convention : Reuss Voigt Hill
#
# Bulk Modulus (GPa) = 27.45211 43.12508 35.28860
# Shear Modulus (GPa) = 41.03898 21.94565 31.49232
#
# Velocity S-wave (km/s) = 4.12859 3.01910 3.61665
# Velocity P-wave (km/s) = 5.84201 5.48316 5.66543
#
# Compressibility (1/GPa) = 0.03642707
#
# Stress axis : x y z
#
# Youngs Moduli (GPa) = 32.62630 61.84967 52.98868
#
# Poissons Ratio (x) = -0.46030 0.68974
# Poissons Ratio (y) = -0.24281 0.47992
# Poissons Ratio (z) = 0.42469 0.56018
#
# Static dielectric constant tensor:
#      x y z
#    x 2.014630 0.000000 -0.000090 
#    y 0.000000 1.942390 0.000000 
#    z -0.000090 0.000000 2.004660 
# 
# From -- ./inp_files/277811.got.cif
#   From: 2010.05.17/outbox.cif.g08.bks.cpg/sg12_139_cif.got.tgz:277811.got - 2010.06.03 13:09:07.
