data_PCOD9169780
_publ_section_title
;
Structure prediction by ZEFSAII (Michael W. Deem and Ramdas Pophale) SiO2 
 PCOD9169780
Probable space group: C 2/M
;
_chemical_formula_sum "Si O2"
_cell_formula_units_Z 56
_cell_length_a 22.774886
_cell_length_b 13.960452
_cell_length_c 12.783905
_cell_angle_alpha 90.000000
_cell_angle_beta 66.160535
_cell_angle_gamma 90.000000
_cell_volume 3717.826488
_symmetry_space_group_name_H-M "C 2/M"
_symmetry_group_IT_number 12
_symmetry_cell_setting 'monoclinic'
loop_
_space_group_symop_operation_xyz
x,y,z
-x,y,-z
-x,-y,-z
x,-y,z
1/2+x,1/2+y,z
1/2-x,1/2+y,-z
1/2-x,1/2-y,-z
1/2+x,1/2-y,z
loop_
_atom_site_type_symbol
_atom_site_label
_atom_site_fract_x
_atom_site_fract_y
_atom_site_fract_z
Si Si1 0.592779 0.113340 0.127527
Si Si2 0.556933 0.886439 0.727933
Si Si3 0.827145 0.889701 0.194278
Si Si4 0.844377 0.302117 0.501481
Si Si5 0.790334 0.109849 0.464784
Si Si6 0.075245 0.275612 0.928587
Si Si7 0.681673 0.115343 0.256348
O O1 0.519929 0.126756 0.221013
O O2 0.643063 0.142357 0.180461
O O3 0.600757 0.000000 0.101621
O O4 0.598778 0.169515 0.014969
O O5 0.593643 0.832060 0.609028
O O6 0.579020 0.843079 0.823397
O O7 0.570354 0.000000 0.713085
O O8 0.817348 0.885120 0.326818
O O9 0.882141 0.817625 0.120933
O O10 0.757523 0.862685 0.197308
O O11 0.841053 0.000000 0.156488
O O12 0.827514 0.189880 0.504002
O O13 0.783855 0.357670 0.491946
O O14 0.846405 0.335677 0.619648
O O15 0.795022 0.000000 0.497562
O O16 0.000000 0.252872 0.000000
O O17 0.676480 0.000000 0.274103
#
# Coordination Sequence:
#
# PCOD9169780 Si02
#       7
#     8   8   8   8   8   8   8
#     4   9  19  33  47  65  96 130 154 186 232 281
#     4  10  18  29  47  72  97 120 150 192 236 277
#     4   9  17  31  49  68  92 121 155 195 233 272
#     4  10  17  28  48  72  96 120 151 191 230 272
#     4   9  17  29  46  70  98 123 150 186 235 281
#     4  10  19  31  47  69  94 120 158 193 233 275
#     4   9  18  32  48  69  95 124 155 187 232 283
#
# _framework density 15.062564
#
# number of rings (size 3 to 8) (size 9 to 14) (size 15 to 20)
#    0.000    2.571    1.429    2.571    0.000    3.143 
#    0.000    2.143    0.000    0.857    0.000    1.000 
#    0.000    0.000    0.000    0.000    0.000    0.000 
#
# Total GULP energy -156052.724028 kJ/mol
# GULP energy per Si atom -5573.311572 kJ/mol
# Density = 1.502828 g / cm^3
# Si number density = 15.062564 Si / 1000 Ang^3
#
#
#
# Elastic Constant Matrix: (Units=GPa)
#
#
# Indices 1 2 3 4 5 6 
#
# 1 60.1975 32.5907 29.5942 0.0000 19.3646 0.0000
# 2 32.5907 74.7364 22.8428 0.0000 0.3022 0.0000
# 3 29.5942 22.8428 38.2219 0.0000 4.9550 0.0000
# 4 0.0000 0.0000 0.0000 23.8249 0.0000 -3.5960
# 5 19.3646 0.3022 4.9550 0.0000 19.9606 0.0000
# 6 0.0000 0.0000 0.0000 -3.5960 0.0000 21.8941
#
#
#
# Elastic Compliance Matrix: (Units=1/GPa)
#
#
# Indices 1 2 3 4 5 6 
#
# 1 0.049952 -0.014020 -0.024842 0.000000 -0.042081 0.000000
# 2 -0.014020 0.020404 -0.003164 0.000000 0.014078 0.000000
# 3 -0.024842 -0.003164 0.045627 0.000000 0.012822 0.000000
# 4 0.000000 0.000000 0.000000 0.043040 0.000000 0.007069
# 5 -0.042081 0.014078 0.012822 0.000000 0.087527 0.000000
# 6 0.000000 0.000000 0.000000 0.007069 0.000000 0.046835
#
#
# Mechanical properties :
#
#
# Convention : Reuss Voigt Hill
#
# Bulk Modulus (GPa) = 31.31837 38.13458 34.72647
# Shear Modulus (GPa) = 12.88388 19.01114 15.94751
#
# Velocity S-wave (km/s) = 2.92782 3.55652 3.25738
# Velocity P-wave (km/s) = 5.68039 6.49904 6.10346
#
# Compressibility (1/GPa) = 0.03193014
#
# Stress axis : x y z
#
# Youngs Moduli (GPa) = 20.01918 49.00936 21.91704
#
# Poissons Ratio (x) = 0.68710 0.54447
# Poissons Ratio (y) = 0.28066 0.06935
# Poissons Ratio (z) = 0.49732 0.15508
#
# Static dielectric constant tensor:
#      x y z
#    x 1.492440 0.000000 -0.004480 
#    y 0.000000 1.489420 0.000000 
#    z -0.004480 0.000000 1.479100 
# 
# From -- ./inp_files/96304.got.cif
#   From: 2010.05.17/outbox.cif.g08.bks.cpg/sg12_49_cif.got.tgz:96304.got - 2010.06.03 13:09:07.
