data_PCOD9169335
_publ_section_title
;
Structure prediction by ZEFSAII (Michael W. Deem and Ramdas Pophale) SiO2 
 PCOD9169335
Probable space group: C 2/M
;
_chemical_formula_sum "Si O2"
_cell_formula_units_Z 56
_cell_length_a 29.041926
_cell_length_b 9.018258
_cell_length_c 14.488785
_cell_angle_alpha 90.000000
_cell_angle_beta 77.662958
_cell_angle_gamma 90.000000
_cell_volume 3707.093556
_symmetry_space_group_name_H-M "C 2/M"
_symmetry_group_IT_number 12
_symmetry_cell_setting 'monoclinic'
loop_
_space_group_symop_operation_xyz
x,y,z
-x,y,-z
-x,-y,-z
x,-y,z
1/2+x,1/2+y,z
1/2-x,1/2+y,-z
1/2-x,1/2-y,-z
1/2+x,1/2-y,z
loop_
_atom_site_type_symbol
_atom_site_label
_atom_site_fract_x
_atom_site_fract_y
_atom_site_fract_z
Si Si1 0.021597 0.328378 0.594636
Si Si2 0.290470 0.178240 0.046583
Si Si3 0.890579 0.822935 0.520773
Si Si4 0.280740 0.678531 0.567502
Si Si5 0.645059 0.176029 0.143228
Si Si6 0.568156 0.676662 0.295619
Si Si7 0.738418 0.177807 0.227030
O O1 0.024898 0.500000 0.618612
O O2 0.072794 0.255319 0.563261
O O3 0.000000 0.318835 0.500000
O O4 0.983868 0.245269 0.674530
O O5 0.280971 0.251556 0.149388
O O6 0.284660 0.000000 0.053283
O O7 0.250000 0.250000 0.000000
O O8 0.337944 0.209431 0.968355
O O9 0.836098 0.786438 0.528874
O O10 0.905107 0.782242 0.619736
O O11 0.896617 0.000000 0.510180
O O12 0.275834 0.500000 0.571693
O O13 0.250000 0.750000 0.500000
O O14 0.265815 0.747938 0.671698
O O15 0.600008 0.262026 0.199593
O O16 0.689843 0.209113 0.191123
O O17 0.636631 0.000000 0.153612
O O18 0.565169 0.500000 0.293219
O O19 0.743319 0.000000 0.230748
#
# Coordination Sequence:
#
# PCOD9169335 Si02
#       7
#     8   8   8   8   8   8   8
#     4   9  17  27  41  61  84 113 146 180 219 266
#     4   9  17  28  42  62  87 117 150 185 223 269
#     4   9  18  31  44  60  84 115 149 186 226 265
#     4  11  22  35  49  67  89 118 156 196 232 269
#     4   9  17  27  41  63  90 118 149 182 219 265
#     4  10  17  26  42  63  88 118 149 181 219 265
#     4  10  19  31  46  63  86 118 152 190 230 270
#
# _framework density 15.106175
#
# number of rings (size 3 to 8) (size 9 to 14) (size 15 to 20)
#    0.000    2.429    1.429    3.000    0.000    6.286 
#    0.000    0.000    0.000    0.000    0.000    0.000 
#    0.000    1.143    0.000   12.000    0.000    5.143 
#
# Total GULP energy -156014.192427 kJ/mol
# GULP energy per Si atom -5571.935444 kJ/mol
# Density = 1.507179 g / cm^3
# Si number density = 15.106175 Si / 1000 Ang^3
#
#
#
# Elastic Constant Matrix: (Units=GPa)
#
#
# Indices 1 2 3 4 5 6 
#
# 1 70.2571 46.4655 64.4505 0.0000 -22.7497 0.0000
# 2 46.4655 63.8368 63.6203 0.0000 -22.8292 0.0000
# 3 64.4505 63.6203 115.6319 0.0000 -35.1444 0.0000
# 4 0.0000 0.0000 0.0000 28.5612 0.0000 -7.9112
# 5 -22.7497 -22.8292 -35.1444 0.0000 29.5069 0.0000
# 6 0.0000 0.0000 0.0000 -7.9112 0.0000 21.7744
#
#
#
# Elastic Compliance Matrix: (Units=1/GPa)
#
#
# Indices 1 2 3 4 5 6 
#
# 1 0.033387 -0.012341 -0.010811 0.000000 0.003316 0.000000
# 2 -0.012341 0.040042 -0.013524 0.000000 0.005357 0.000000
# 3 -0.010811 -0.013524 0.025707 0.000000 0.011820 0.000000
# 4 0.000000 0.000000 0.000000 0.038931 0.000000 0.014145
# 5 0.003316 0.005357 0.011820 0.000000 0.054671 0.000000
# 6 0.000000 0.000000 0.000000 0.014145 0.000000 0.051065
#
#
# Mechanical properties :
#
#
# Convention : Reuss Voigt Hill
#
# Bulk Modulus (GPa) = 38.78447 66.53317 52.65882
# Shear Modulus (GPa) = 15.34925 20.98112 18.16519
#
# Velocity S-wave (km/s) = 3.19108 3.73085 3.47147
# Velocity P-wave (km/s) = 6.26958 7.91823 7.14164
#
# Compressibility (1/GPa) = 0.02578352
#
# Stress axis : x y z
#
# Youngs Moduli (GPa) = 29.95187 24.97390 38.89945
#
# Poissons Ratio (x) = 0.30821 0.42054
# Poissons Ratio (y) = 0.36965 0.52607
# Poissons Ratio (z) = 0.32381 0.33774
#
# Static dielectric constant tensor:
#      x y z
#    x 1.482120 0.000000 -0.018630 
#    y 0.000000 1.501310 0.000000 
#    z -0.018630 0.000000 1.514110 
# 
# From -- ./inp_files/247711.got.cif
#   From: 2010.05.17/outbox.cif.g08.bks.cpg/sg12_124_cif.got.tgz:247711.got - 2010.06.03 13:09:07.
