data_PCOD9169945
_publ_section_title
;
Structure prediction by ZEFSAII (Michael W. Deem and Ramdas Pophale) SiO2 
 PCOD9169945
Probable space group: C 2/M
;
_chemical_formula_sum "Si O2"
_cell_formula_units_Z 64
_cell_length_a 23.088975
_cell_length_b 13.209749
_cell_length_c 13.265251
_cell_angle_alpha 90.000000
_cell_angle_beta 84.827323
_cell_angle_gamma 90.000000
_cell_volume 4029.418890
_symmetry_space_group_name_H-M "C 2/M"
_symmetry_group_IT_number 12
_symmetry_cell_setting 'monoclinic'
loop_
_space_group_symop_operation_xyz
x,y,z
-x,y,-z
-x,-y,-z
x,-y,z
1/2+x,1/2+y,z
1/2-x,1/2+y,-z
1/2-x,1/2-y,-z
1/2+x,1/2-y,z
loop_
_atom_site_type_symbol
_atom_site_label
_atom_site_fract_x
_atom_site_fract_y
_atom_site_fract_z
Si Si1 0.935212 0.882350 0.963531
Si Si2 0.429144 0.188504 0.832841
Si Si3 0.137612 0.622627 0.352803
Si Si4 0.753792 0.882571 0.229608
Si Si5 0.441061 0.122551 0.453796
Si Si6 0.558658 0.879990 0.779528
Si Si7 0.148955 0.237477 0.877837
Si Si8 0.819223 0.613306 0.965727
O O1 0.930324 0.803910 0.871713
O O2 0.925993 0.000000 0.939014
O O3 0.887780 0.844783 0.052742
O O4 0.000000 0.872125 0.000000
O O5 0.403091 0.173154 0.725526
O O6 0.493348 0.142953 0.826236
O O7 0.384526 0.129725 0.912942
O O8 0.132304 0.500000 0.340015
O O9 0.204194 0.648724 0.317084
O O10 0.113192 0.649082 0.466343
O O11 0.810603 0.815009 0.211163
O O12 0.722003 0.877095 0.125160
O O13 0.768586 0.000000 0.245270
O O14 0.500000 0.157900 0.500000
O O15 0.437679 0.153452 0.338330
O O16 0.444208 0.000000 0.451164
O O17 0.603795 0.815826 0.836930
O O18 0.569954 0.000000 0.784509
O O19 0.188469 0.301628 0.949262
O O20 0.812510 0.500000 0.007564
#
# Coordination Sequence:
#
# PCOD9169945 Si02
#       8
#     8   8   8   8   8   8   8   8
#     4  10  20  33  44  62  92 127 165 198 226 267
#     4  10  17  29  48  73  95 124 152 191 237 288
#     4   9  16  30  52  75  98 120 152 195 239 283
#     4   9  18  32  49  66  86 123 169 203 225 267
#     4   9  16  27  47  74 102 126 146 184 237 292
#     4  11  20  29  45  74 105 125 150 187 243 299
#     4  11  20  31  45  67  97 131 160 193 235 283
#     4   9  18  30  47  69  96 124 154 193 238 283
#
# _framework density 15.883184
#
# number of rings (size 3 to 8) (size 9 to 14) (size 15 to 20)
#    0.000    2.250    2.500    3.000    0.000    0.000 
#    0.000    2.500    0.000    3.000    0.000    3.500 
#    0.000    0.000    0.000    0.000    0.000    0.000 
#
# Total GULP energy -178365.810716 kJ/mol
# GULP energy per Si atom -5573.931585 kJ/mol
# Density = 1.584703 g / cm^3
# Si number density = 15.883184 Si / 1000 Ang^3
#
#
#
# Elastic Constant Matrix: (Units=GPa)
#
#
# Indices 1 2 3 4 5 6 
#
# 1 57.3621 23.3547 3.1095 0.0000 -14.0119 0.0000
# 2 23.3547 63.1289 9.6236 0.0000 -5.3434 0.0000
# 3 3.1095 9.6236 36.4878 0.0000 -8.8603 0.0000
# 4 0.0000 0.0000 0.0000 13.5089 0.0000 -4.4547
# 5 -14.0119 -5.3434 -8.8603 0.0000 19.5016 0.0000
# 6 0.0000 0.0000 0.0000 -4.4547 0.0000 16.5491
#
#
#
# Elastic Compliance Matrix: (Units=1/GPa)
#
#
# Indices 1 2 3 4 5 6 
#
# 1 0.024907 -0.008391 0.004359 0.000000 0.017577 0.000000
# 2 -0.008391 0.019474 -0.005159 0.000000 -0.003037 0.000000
# 3 0.004359 -0.005159 0.032386 0.000000 0.016432 0.000000
# 4 0.000000 0.000000 0.000000 0.081237 0.000000 0.021867
# 5 0.017577 -0.003037 0.016432 0.000000 0.070541 0.000000
# 6 0.000000 0.000000 0.000000 0.021867 0.000000 0.066312
#
#
# Mechanical properties :
#
#
# Convention : Reuss Voigt Hill
#
# Bulk Modulus (GPa) = 17.12774 25.46159 21.29466
# Shear Modulus (GPa) = 15.02857 17.97132 16.49994
#
# Velocity S-wave (km/s) = 3.07936 3.36738 3.22659
# Velocity P-wave (km/s) = 4.84255 5.58429 5.22660
#
# Compressibility (1/GPa) = 0.05838484
#
# Stress axis : x y z
#
# Youngs Moduli (GPa) = 40.14992 51.34990 30.87768
#
# Poissons Ratio (x) = 0.43088 -0.13459
# Poissons Ratio (y) = 0.33690 0.15929
# Poissons Ratio (z) = -0.17500 0.26490
#
# Static dielectric constant tensor:
#      x y z
#    x 1.540480 0.000000 -0.010080 
#    y 0.000000 1.516380 0.000000 
#    z -0.010080 0.000000 1.530990 
# 
# From -- ./inp_files/174636.got.cif
#   From: 2010.05.17/outbox.cif.g08.bks.cpg/sg12_88_cif.got.tgz:174636.got - 2010.06.03 13:09:07.
