data_PCOD9170122
_publ_section_title
;
Structure prediction by ZEFSAII (Michael W. Deem and Ramdas Pophale) SiO2 
 PCOD9170122
Probable space group: C 2/M
;
_chemical_formula_sum "Si O2"
_cell_formula_units_Z 64
_cell_length_a 13.478957
_cell_length_b 26.505287
_cell_length_c 24.403296
_cell_angle_alpha 90.000000
_cell_angle_beta 154.609096
_cell_angle_gamma 90.000000
_cell_volume 3738.381993
_symmetry_space_group_name_H-M "C 2/M"
_symmetry_group_IT_number 12
_symmetry_cell_setting 'monoclinic'
loop_
_space_group_symop_operation_xyz
x,y,z
-x,y,-z
-x,-y,-z
x,-y,z
1/2+x,1/2+y,z
1/2-x,1/2+y,-z
1/2-x,1/2-y,-z
1/2+x,1/2-y,z
loop_
_atom_site_type_symbol
_atom_site_label
_atom_site_fract_x
_atom_site_fract_y
_atom_site_fract_z
Si Si1 0.947575 0.942306 0.537909
Si Si2 0.347733 0.345585 0.311296
Si Si3 0.632550 0.258361 0.999018
Si Si4 0.129841 0.361289 0.872302
Si Si5 0.853976 0.776213 0.213275
Si Si6 0.775669 0.709078 0.560319
Si Si7 0.505872 0.441539 0.936078
Si Si8 0.474984 0.891510 0.303872
O O1 0.675968 0.932527 0.411495
O O2 0.000000 0.930716 0.500000
O O3 0.080754 0.903225 0.642822
O O4 0.012018 0.000000 0.579706
O O5 0.391073 0.324126 0.271632
O O6 0.519039 0.314163 0.437563
O O7 0.082488 0.342300 0.196944
O O8 0.698108 0.314539 0.050783
O O9 0.747250 0.219228 0.099543
O O10 0.750000 0.250000 0.000000
O O11 0.357038 0.252475 0.861070
O O12 0.037633 0.378919 0.767273
O O13 0.273146 0.407773 0.969091
O O14 0.081196 0.740837 0.323387
O O15 0.750000 0.750000 0.500000
O O16 0.934315 0.660684 0.624609
O O17 0.515746 0.500000 0.923741
O O18 0.271166 0.413304 0.801075
O O19 0.500000 0.441375 0.000000
#
# Coordination Sequence:
#
# PCOD9170122 Si02
#       8
#     8   8   8   8   8   8   8   8
#     4  10  19  29  46  72 102 135 176 223 270 323
#     4  10  20  33  48  71 102 142 175 213 268 316
#     4  11  21  33  53  77 102 138 183 221 271 320
#     4  11  19  30  46  71  99 136 175 211 258 321
#     4  10  20  35  51  72 104 139 179 220 263 314
#     4   9  18  30  47  69 100 139 175 210 251 315
#     4   9  19  30  45  68  97 136 176 218 265 318
#     4  10  17  30  47  65 100 138 177 214 267 322
#
# _framework density 17.119705
#
# number of rings (size 3 to 8) (size 9 to 14) (size 15 to 20)
#    0.000    2.000    3.750    1.125    3.500    1.000 
#    0.000    0.000    0.000    0.000    0.000    2.625 
#    0.000    0.000    0.000    9.875    0.000    0.000 
#
# Total GULP energy -178214.246738 kJ/mol
# GULP energy per Si atom -5569.195211 kJ/mol
# Density = 1.708074 g / cm^3
# Si number density = 17.119705 Si / 1000 Ang^3
#
#
#
# Elastic Constant Matrix: (Units=GPa)
#
#
# Indices 1 2 3 4 5 6 
#
# 1 53.3147 21.2248 19.4782 0.0016 4.4832 0.0012
# 2 21.2248 107.4191 38.6917 0.0035 2.9340 0.0000
# 3 19.4782 38.6917 75.0200 -0.0169 15.4776 -0.0029
# 4 0.0016 0.0035 -0.0169 25.1970 -0.0028 -2.3486
# 5 4.4832 2.9340 15.4776 -0.0028 25.1173 0.0009
# 6 0.0012 0.0000 -0.0029 -2.3486 0.0009 17.3334
#
#
#
# Elastic Compliance Matrix: (Units=1/GPa)
#
#
# Indices 1 2 3 4 5 6 
#
# 1 0.021380 -0.002796 -0.003883 -0.000004 -0.001097 -0.000003
# 2 -0.002796 0.011953 -0.006019 -0.000005 0.002812 -0.000002
# 3 -0.003883 -0.006019 0.019653 0.000014 -0.010714 0.000006
# 4 -0.000004 -0.000005 0.000014 0.040195 -0.000003 0.005446
# 5 -0.001097 0.002812 -0.010714 -0.000003 0.046283 -0.000005
# 6 -0.000003 -0.000002 0.000006 0.005446 -0.000005 0.058430
#
#
# Mechanical properties :
#
#
# Convention : Reuss Voigt Hill
#
# Bulk Modulus (GPa) = 36.24430 43.83812 40.04121
# Shear Modulus (GPa) = 21.50667 23.95349 22.73008
#
# Velocity S-wave (km/s) = 3.54821 3.74461 3.64773
# Velocity P-wave (km/s) = 6.16469 6.66022 6.41724
#
# Compressibility (1/GPa) = 0.02759055
#
# Stress axis : x y z
#
# Youngs Moduli (GPa) = 46.77164 83.66121 50.88370
#
# Poissons Ratio (x) = 0.23392 0.19757
# Poissons Ratio (y) = 0.13077 0.30626
# Poissons Ratio (z) = 0.18161 0.50355
#
# Static dielectric constant tensor:
#      x y z
#    x 1.572950 0.000000 0.007150 
#    y 0.000000 1.599410 0.000000 
#    z 0.007150 0.000000 1.644270 
# 
# From -- ./inp_files/307501.got.cif
#   From: 2010.05.17/outbox.cif.g08.bks.cpg/sg12_154_cif.got.tgz:307501.got - 2010.06.03 13:09:07.
