data_PCOD9170909
_publ_section_title
;
Structure prediction by ZEFSAII (Michael W. Deem and Ramdas Pophale) SiO2 
 PCOD9170909
Probable space group: C 2/M
;
_chemical_formula_sum "Si O2"
_cell_formula_units_Z 52
_cell_length_a 20.375683
_cell_length_b 14.707807
_cell_length_c 11.988643
_cell_angle_alpha 90.000000
_cell_angle_beta 131.112275
_cell_angle_gamma 90.000000
_cell_volume 2706.878322
_symmetry_space_group_name_H-M "C 2/M"
_symmetry_group_IT_number 12
_symmetry_cell_setting 'monoclinic'
loop_
_space_group_symop_operation_xyz
x,y,z
-x,y,-z
-x,-y,-z
x,-y,z
1/2+x,1/2+y,z
1/2-x,1/2+y,-z
1/2-x,1/2-y,-z
1/2+x,1/2-y,z
loop_
_atom_site_type_symbol
_atom_site_label
_atom_site_fract_x
_atom_site_fract_y
_atom_site_fract_z
Si Si1 0.500000 0.334772 0.000000
Si Si2 0.379001 0.607904 0.219556
Si Si3 0.487922 0.166291 0.141209
Si Si4 0.708418 0.729446 0.684294
Si Si5 0.978276 0.252838 0.599861
Si Si6 0.855631 0.601039 0.815854
Si Si7 0.820267 0.896748 0.897390
O O1 0.511733 0.265249 0.116500
O O2 0.588386 0.386985 0.068797
O O3 0.381535 0.500000 0.247225
O O4 0.323849 0.665717 0.248307
O O5 0.473904 0.655753 0.330367
O O6 0.342199 0.619067 0.052895
O O7 0.483233 0.179069 0.266286
O O8 0.566048 0.103907 0.185226
O O9 0.400844 0.133658 0.982077
O O10 0.625474 0.746216 0.513581
O O11 0.782132 0.672309 0.704298
O O12 0.752818 0.821116 0.779643
O O13 0.000000 0.284456 0.500000
O O14 0.820985 0.500000 0.789326
O O15 0.788198 0.000000 0.849183
#
# Coordination Sequence:
#
# PCOD9170909 Si02
#       7
#     4   8   8   8   8   8   8
#     4  10  17  36  63  82 108 146 189 246 275 328
#     4  10  21  37  60  84 113 153 197 240 280 337
#     4  10  18  37  59  81 115 147 191 229 280 339
#     4  11  21  36  56  86 119 149 186 239 288 341
#     4  10  22  37  59  81 116 159 185 229 289 344
#     4  10  20  36  63  88 111 148 190 241 283 332
#     4  11  21  37  59  86 115 150 196 239 285 338
#
# _framework density 19.210321
#
# number of rings (size 3 to 8) (size 9 to 14) (size 15 to 20)
#    0.000    1.846    4.615    2.077    0.000    5.231 
#    0.000    1.538    0.000    9.692    0.000    0.000 
#    0.000    0.000    0.000    0.000    0.000    0.000 
#
# Total GULP energy -145026.646320 kJ/mol
# GULP energy per Si atom -5577.947935 kJ/mol
# Density = 1.916660 g / cm^3
# Si number density = 19.210321 Si / 1000 Ang^3
#
#
#
# Elastic Constant Matrix: (Units=GPa)
#
#
# Indices 1 2 3 4 5 6 
#
# 1 22.7955 12.4189 4.7072 0.0000 11.4295 0.0000
# 2 12.4189 105.5758 25.5131 0.0000 5.1433 0.0000
# 3 4.7072 25.5131 31.8247 0.0000 5.3108 0.0000
# 4 0.0000 0.0000 0.0000 6.8223 0.0000 1.0557
# 5 11.4295 5.1433 5.3108 0.0000 38.4130 0.0000
# 6 0.0000 0.0000 0.0000 1.0557 0.0000 16.6118
#
#
#
# Elastic Compliance Matrix: (Units=1/GPa)
#
#
# Indices 1 2 3 4 5 6 
#
# 1 0.054788 -0.005404 -0.001199 0.000000 -0.015412 0.000000
# 2 -0.005404 0.012284 -0.009256 0.000000 0.001243 0.000000
# 3 -0.001199 -0.009256 0.039668 0.000000 -0.003888 0.000000
# 4 0.000000 0.000000 0.000000 0.148033 0.000000 -0.009407
# 5 -0.015412 0.001243 -0.003888 0.000000 0.030990 0.000000
# 6 0.000000 0.000000 0.000000 -0.009407 0.000000 0.060796
#
#
# Mechanical properties :
#
#
# Convention : Reuss Voigt Hill
#
# Bulk Modulus (GPa) = 13.32952 27.27494 20.30223
# Shear Modulus (GPa) = 12.39821 20.20655 16.30238
#
# Velocity S-wave (km/s) = 2.54322 3.24676 2.91628
# Velocity P-wave (km/s) = 3.94686 5.31828 4.68305
#
# Compressibility (1/GPa) = 0.07502145
#
# Stress axis : x y z
#
# Youngs Moduli (GPa) = 18.25233 81.40882 25.20892
#
# Poissons Ratio (x) = 0.43993 0.03024
# Poissons Ratio (y) = 0.09864 0.23332
# Poissons Ratio (z) = 0.02189 0.75349
#
# Static dielectric constant tensor:
#      x y z
#    x 1.722680 0.000000 -0.003630 
#    y 0.000000 1.674190 0.000000 
#    z -0.003630 0.000000 1.657560 
# 
# From -- ./inp_files/167361.got.cif
#   From: 2010.05.17/outbox.cif.g08.bks.cpg/sg12_84_cif.got.tgz:167361.got - 2010.06.03 13:09:07.
