data_PCOD9170099
_publ_section_title
;
Structure prediction by ZEFSAII (Michael W. Deem and Ramdas Pophale) SiO2 
 PCOD9170099
Probable space group: C 2/M
;
_chemical_formula_sum "Si O2"
_cell_formula_units_Z 30
_cell_length_a 25.114618
_cell_length_b 5.328776
_cell_length_c 10.261321
_cell_angle_alpha 90.000000
_cell_angle_beta 57.640817
_cell_angle_gamma 90.000000
_cell_volume 1160.017811
_symmetry_space_group_name_H-M "C 2/M"
_symmetry_group_IT_number 12
_symmetry_cell_setting 'monoclinic'
loop_
_space_group_symop_operation_xyz
x,y,z
-x,y,-z
-x,-y,-z
x,-y,z
1/2+x,1/2+y,z
1/2-x,1/2+y,-z
1/2-x,1/2-y,-z
1/2+x,1/2-y,z
loop_
_atom_site_type_symbol
_atom_site_label
_atom_site_fract_x
_atom_site_fract_y
_atom_site_fract_z
Si Si1 0.395354 0.000000 0.931476
Si Si2 0.241266 0.000000 0.150699
Si Si3 0.056189 0.500000 0.569154
Si Si4 0.166577 0.000000 0.722899
Si Si5 0.636667 0.500000 0.073861
Si Si6 0.705111 0.000000 0.352879
Si Si7 0.500000 0.500000 0.500000
Si Si8 0.406192 0.000000 0.218392
O O1 0.405375 0.743398 0.841747
O O2 0.421133 0.000000 0.043999
O O3 0.317240 0.000000 0.041374
O O4 0.220599 0.247506 0.253244
O O5 0.200941 0.000000 0.070680
O O6 0.131857 0.500000 0.472194
O O7 0.036416 0.766938 0.533376
O O8 0.039132 0.500000 0.746164
O O9 0.134531 0.751700 0.711881
O O10 0.151101 0.000000 0.900193
O O11 0.241292 0.000000 0.606297
#
# Coordination Sequence:
#
# PCOD9170099 Si02
#       8
#     4   4   4   4   4   4   2   4
#     4  10  17  30  44  73 110 149 194 216 221 306
#     4  12  19  31  46  74 119 166 185 210 240 292
#     4  11  24  41  64  79 103 135 174 240 286 331
#     4  10  19  32  47  83 124 149 184 207 230 325
#     4  10  18  28  47  67 112 177 186 205 236 269
#     4  12  22  33  50  82 114 150 182 218 255 323
#     4  10  24  48  62  78  94 124 190 244 296 330
#     4  10  19  34  53  78 111 147 177 211 265 316
#
# _framework density 25.861671000000001
#
# number of rings (size 3 to 8) (size 9 to 14) (size 15 to 20)
#    0.000    1.333    5.333    3.200    0.000    1.067 
#    0.000    0.000    0.000    0.000    0.000    0.000 
#    0.000  298.667    0.000    0.000    0.000    0.000 
#
# Total GULP energy -83732.149869 kJ/mol
# GULP energy per Si atom -5582.143325 kJ/mol
# Density = 2.580281 g / cm^3
# Si number density = 25.861671 Si / 1000 Ang^3
#
#
#
# Elastic Constant Matrix: (Units=GPa)
#
#
# Indices 1 2 3 4 5 6 
#
# 1 93.9478 62.1219 52.7023 0.0000 15.4567 0.0000
# 2 62.1219 308.2180 44.9059 0.0000 19.6759 0.0000
# 3 52.7023 44.9059 62.0174 0.0000 -1.0326 0.0000
# 4 0.0000 0.0000 0.0000 11.1412 0.0000 24.8127
# 5 15.4567 19.6759 -1.0326 0.0000 57.1693 0.0000
# 6 0.0000 0.0000 0.0000 24.8127 0.0000 12.3445
#
#
#
# Elastic Compliance Matrix: (Units=1/GPa)
#
#
# Indices 1 2 3 4 5 6 
#
# 1 0.023111 -0.001561 -0.018610 0.000000 -0.006048 0.000000
# 2 -0.001561 0.003831 -0.001463 0.000000 -0.000923 0.000000
# 3 -0.018610 -0.001463 0.033101 0.000000 0.006133 0.000000
# 4 0.000000 0.000000 0.000000 -0.025818 0.000000 0.051894
# 5 -0.006048 -0.000923 0.006133 0.000000 0.019555 0.000000
# 6 0.000000 0.000000 0.000000 0.051894 0.000000 -0.023301
#
#
# Mechanical properties :
#
#
# Convention : Reuss Voigt Hill
#
# Bulk Modulus (GPa) = 59.61289 87.07151 73.34220
# Shear Modulus (GPa) = 63.01952 36.42786 49.72369
#
# Velocity S-wave (km/s) = 4.94174 3.75716 4.38959
# Velocity P-wave (km/s) = 7.46068 7.25003 7.35611
#
# Compressibility (1/GPa) = 0.01677490
#
# Stress axis : x y z
#
# Youngs Moduli (GPa) = 43.26925 261.02130 30.21028
#
# Poissons Ratio (x) = 0.40734 0.56223
# Poissons Ratio (y) = 0.06752 0.04421
# Poissons Ratio (z) = 0.80526 0.38194
#
# Static dielectric constant tensor:
#      x y z
#    x 1.994830 0.000000 -0.004750 
#    y 0.000000 2.091400 0.000000 
#    z -0.004750 0.000000 2.191050 
# 
# From -- ./inp_files/170973.got.cif
#   From: 2010.05.17/outbox.cif.g08.bks.cpg/sg12_86_cif.got.tgz:170973.got - 2010.06.03 13:09:07.
