data_PCOD9170792
_publ_section_title
;
Structure prediction by ZEFSAII (Michael W. Deem and Ramdas Pophale) SiO2 
 PCOD9170792
Probable space group: C 2/M
;
_chemical_formula_sum "Si O2"
_cell_formula_units_Z 44
_cell_length_a 13.948452
_cell_length_b 21.542620
_cell_length_c 22.357780
_cell_angle_alpha 90.000000
_cell_angle_beta 22.435439
_cell_angle_gamma 90.000000
_cell_volume 2563.950031
_symmetry_space_group_name_H-M "C 2/M"
_symmetry_group_IT_number 12
_symmetry_cell_setting 'monoclinic'
loop_
_space_group_symop_operation_xyz
x,y,z
-x,y,-z
-x,-y,-z
x,-y,z
1/2+x,1/2+y,z
1/2-x,1/2+y,-z
1/2-x,1/2-y,-z
1/2+x,1/2-y,z
loop_
_atom_site_type_symbol
_atom_site_label
_atom_site_fract_x
_atom_site_fract_y
_atom_site_fract_z
Si Si1 0.869794 0.199653 0.977315
Si Si2 0.502816 0.431378 0.841016
Si Si3 0.692532 0.660211 0.568086
Si Si4 0.224429 0.070400 0.160787
Si Si5 0.613405 0.212560 0.252759
Si Si6 0.500000 0.114715 0.500000
O O1 0.900789 0.129909 0.933120
O O2 0.150236 0.216678 0.838488
O O3 0.750000 0.250000 0.000000
O O4 0.707272 0.199465 0.131824
O O5 0.460686 0.500000 0.892935
O O6 0.370980 0.431499 0.852248
O O7 0.799693 0.423365 0.655040
O O8 0.489653 0.605805 0.679573
O O9 0.532280 0.722677 0.661097
O O10 0.832641 0.654022 0.550895
O O11 0.911147 0.662865 0.393059
O O12 0.252006 0.000000 0.167456
O O13 0.500000 0.100759 0.000000
#
# Coordination Sequence:
#
# PCOD9170792 Si02
#       6
#     8   8   8   8   8   4
#     4  11  22  39  59  82 113 153 185 235 285 335
#     4  10  20  34  56  83 112 147 186 230 279 337
#     4  10  20  36  55  82 115 144 182 237 278 336
#     4   9  19  34  57  85 109 142 188 233 282 332
#     4  10  23  37  55  84 114 142 195 226 277 344
#     4  10  17  34  58  82 112 144 181 230 291 324
#
# _framework density 17.161021000000002
#
# number of rings (size 3 to 8) (size 9 to 14) (size 15 to 20)
#    0.000    2.000    1.818    2.455    5.091    0.727 
#    0.000    2.727    0.000    0.000    0.000    3.818 
#    0.000    0.000    0.000    0.000    0.000    0.000 
#
# Total GULP energy -122537.302866 kJ/mol
# GULP energy per Si atom -5569.877403 kJ/mol
# Density = 1.712196 g / cm^3
# Si number density = 17.161021 Si / 1000 Ang^3
#
#
#
# Elastic Constant Matrix: (Units=GPa)
#
#
# Indices 1 2 3 4 5 6 
#
# 1 60.6141 45.4605 46.3843 -0.1076 -4.7181 0.1003
# 2 45.4605 107.2022 58.4915 -0.1014 2.7214 0.1208
# 3 46.3843 58.4915 144.0716 -0.1868 -3.5534 0.1040
# 4 -0.1076 -0.1014 -0.1868 25.9130 0.0055 2.5709
# 5 -4.7181 2.7214 -3.5534 0.0055 27.0778 -0.0350
# 6 0.1003 0.1208 0.1040 2.5709 -0.0350 17.6167
#
#
#
# Elastic Compliance Matrix: (Units=1/GPa)
#
#
# Indices 1 2 3 4 5 6 
#
# 1 0.027559 -0.009045 -0.005076 0.000047 0.005045 -0.000062
# 2 -0.009045 0.015044 -0.003282 0.000002 -0.003519 -0.000040
# 3 -0.005076 -0.003282 0.009926 0.000039 0.000748 -0.000011
# 4 0.000047 0.000002 0.000039 0.039158 -0.000002 -0.005715
# 5 0.005045 -0.003519 0.000748 -0.000002 0.038262 0.000067
# 6 -0.000062 -0.000040 -0.000011 -0.005715 0.000067 0.057599
#
#
# Mechanical properties :
#
#
# Convention : Reuss Voigt Hill
#
# Bulk Modulus (GPa) = 56.42569 68.06228 62.24398
# Shear Modulus (GPa) = 21.90459 24.89159 23.39809
#
# Velocity S-wave (km/s) = 3.57657 3.81264 3.69649
# Velocity P-wave (km/s) = 7.07159 7.68952 7.38702
#
# Compressibility (1/GPa) = 0.01772243
#
# Stress axis : x y z
#
# Youngs Moduli (GPa) = 36.28616 66.47086 100.74217
#
# Poissons Ratio (x) = 0.60123 0.51135
# Poissons Ratio (y) = 0.32821 0.33068
# Poissons Ratio (z) = 0.18418 0.21819
#
# Static dielectric constant tensor:
#      x y z
#    x 1.565200 0.000010 -0.007460 
#    y 0.000010 1.615480 0.000080 
#    z -0.007460 0.000080 1.609600 
# 
# From -- ./inp_files/145795.got.cif
#   From: 2010.05.17/outbox.cif.g08.bks.cpg/sg12_73_cif.got.tgz:145795.got - 2010.06.03 13:09:07.
