data_PCOD9170335
_publ_section_title
;
Structure prediction by ZEFSAII (Michael W. Deem and Ramdas Pophale) SiO2 
 PCOD9170335
Probable space group: C 2/M
;
_chemical_formula_sum "Si O2"
_cell_formula_units_Z 52
_cell_length_a 18.363365
_cell_length_b 30.665552
_cell_length_c 5.387882
_cell_angle_alpha 90.000000
_cell_angle_beta 98.411698
_cell_angle_gamma 90.000000
_cell_volume 3001.400078
_symmetry_space_group_name_H-M "C 2/M"
_symmetry_group_IT_number 12
_symmetry_cell_setting 'monoclinic'
loop_
_space_group_symop_operation_xyz
x,y,z
-x,y,-z
-x,-y,-z
x,-y,z
1/2+x,1/2+y,z
1/2-x,1/2+y,-z
1/2-x,1/2-y,-z
1/2+x,1/2-y,z
loop_
_atom_site_type_symbol
_atom_site_label
_atom_site_fract_x
_atom_site_fract_y
_atom_site_fract_z
Si Si1 0.108866 0.093818 0.203361
Si Si2 0.951011 0.000000 0.727937
Si Si3 0.333106 0.259568 0.805364
Si Si4 0.747969 0.147226 0.754674
Si Si5 0.235999 0.331053 0.241023
Si Si6 0.573708 0.738510 0.653996
Si Si7 0.409258 0.358868 0.309137
O O1 0.095971 0.044072 0.269653
O O2 0.194450 0.107922 0.235202
O O3 0.073911 0.121107 0.413591
O O4 0.079661 0.108761 0.917867
O O5 0.000000 0.000000 0.500000
O O6 0.000000 0.000000 0.000000
O O7 0.296685 0.307665 0.803664
O O8 0.273686 0.220828 0.772307
O O9 0.373531 0.259779 0.560072
O O10 0.386056 0.248433 0.067873
O O11 0.703592 0.152544 0.482038
O O12 0.701958 0.147392 0.981369
O O13 0.321228 0.346961 0.280759
O O14 0.500000 0.759451 0.500000
O O15 0.554937 0.688053 0.711992
#
# Coordination Sequence:
#
# PCOD9170335 Si02
#       7
#     8   4   8   8   8   8   8
#     4  10  20  36  49  64  89 104 147 199 245 292
#     4  12  26  40  52  70  82 122 170 206 245 284
#     4  12  19  33  46  69  91 116 151 192 236 275
#     4  10  17  31  47  72  86 109 135 192 252 284
#     4  10  18  28  52  71  90 107 142 192 250 282
#     4  12  23  32  42  62  93 128 158 179 226 279
#     4  10  19  35  51  71  86 114 145 199 253 279
#
# _framework density 17.325247999999998
#
# number of rings (size 3 to 8) (size 9 to 14) (size 15 to 20)
#    0.000    1.231    6.154    3.231    0.000    1.846 
#    0.000    0.000    0.000    0.000    0.000    0.000 
#    0.000    0.000    0.000    0.000    0.000    0.000 
#
# Total GULP energy -144958.460437 kJ/mol
# GULP energy per Si atom -5575.325401 kJ/mol
# Density = 1.728581 g / cm^3
# Si number density = 17.325248 Si / 1000 Ang^3
#
#
#
# Elastic Constant Matrix: (Units=GPa)
#
#
# Indices 1 2 3 4 5 6 
#
# 1 33.6599 25.2541 26.4750 0.0000 -3.2408 0.0000
# 2 25.2541 90.4923 27.1592 0.0000 -6.6784 0.0000
# 3 26.4750 27.1592 174.8328 0.0000 -13.0904 0.0000
# 4 0.0000 0.0000 0.0000 20.5039 0.0000 -3.8644
# 5 -3.2408 -6.6784 -13.0904 0.0000 24.2946 0.0000
# 6 0.0000 0.0000 0.0000 -3.8644 0.0000 20.5719
#
#
#
# Elastic Compliance Matrix: (Units=1/GPa)
#
#
# Indices 1 2 3 4 5 6 
#
# 1 0.040867 -0.010003 -0.004619 0.000000 0.000213 0.000000
# 2 -0.010003 0.014165 -0.000515 0.000000 0.002282 0.000000
# 3 -0.004619 -0.000515 0.006713 0.000000 0.002860 0.000000
# 4 0.000000 0.000000 0.000000 0.050561 0.000000 0.009498
# 5 0.000213 0.002282 0.002860 0.000000 0.043358 0.000000
# 6 0.000000 0.000000 0.000000 0.009498 0.000000 0.050394
#
#
# Mechanical properties :
#
#
# Convention : Reuss Voigt Hill
#
# Bulk Modulus (GPa) = 31.77373 50.75131 41.26252
# Shear Modulus (GPa) = 20.25741 27.74720 24.00230
#
# Velocity S-wave (km/s) = 3.42313 4.00627 3.72613
# Velocity P-wave (km/s) = 5.83122 7.12441 6.51000
#
# Compressibility (1/GPa) = 0.03147254
#
# Stress axis : x y z
#
# Youngs Moduli (GPa) = 24.46940 70.59541 148.95926
#
# Poissons Ratio (x) = 0.70618 0.68800
# Poissons Ratio (y) = 0.24477 0.07669
# Poissons Ratio (z) = 0.11302 0.03634
#
# Static dielectric constant tensor:
#      x y z
#    x 1.635460 0.000000 0.005040 
#    y 0.000000 1.585820 0.000000 
#    z 0.005040 0.000000 1.747630 
# 
# From -- ./inp_files/17446.got.cif
#   From: 2010.05.17/outbox.cif.g08.bks.cpg/sg12_9_cif.got.tgz:17446.got - 2010.06.03 13:09:07.
