data_PCOD9170520
_publ_section_title
;
Structure prediction by ZEFSAII (Michael W. Deem and Ramdas Pophale) SiO2 
 PCOD9170520
Probable space group: C 2/M
;
_chemical_formula_sum "Si O2"
_cell_formula_units_Z 56
_cell_length_a 25.938289
_cell_length_b 7.579043
_cell_length_c 26.804915
_cell_angle_alpha 90.000000
_cell_angle_beta 33.879244
_cell_angle_gamma 90.000000
_cell_volume 2937.458101
_symmetry_space_group_name_H-M "C 2/M"
_symmetry_group_IT_number 12
_symmetry_cell_setting 'monoclinic'
loop_
_space_group_symop_operation_xyz
x,y,z
-x,y,-z
-x,-y,-z
x,-y,z
1/2+x,1/2+y,z
1/2-x,1/2+y,-z
1/2-x,1/2-y,-z
1/2+x,1/2-y,z
loop_
_atom_site_type_symbol
_atom_site_label
_atom_site_fract_x
_atom_site_fract_y
_atom_site_fract_z
Si Si1 0.073424 0.286917 0.604631
Si Si2 0.631855 0.215363 0.264468
Si Si3 0.787567 0.794163 0.596266
Si Si4 0.898827 0.290866 0.885423
Si Si5 0.903401 0.294931 0.597433
Si Si6 0.601515 0.783601 0.694978
Si Si7 0.753716 0.287033 0.918597
O O1 0.075506 0.500000 0.602109
O O2 0.139468 0.224020 0.507459
O O3 0.105211 0.229193 0.633979
O O4 0.967513 0.234897 0.679088
O O5 0.632147 0.278262 0.321353
O O6 0.713239 0.274715 0.162163
O O7 0.635890 0.000000 0.260872
O O8 0.830444 0.712212 0.611466
O O9 0.689998 0.722102 0.654927
O O10 0.775537 0.000000 0.617135
O O11 0.904956 0.500000 0.871739
O O12 0.830020 0.221101 0.897579
O O13 0.003009 0.224468 0.796250
O O14 0.846066 0.263120 0.979791
O O15 0.924595 0.500000 0.591555
O O16 0.000000 0.214808 0.500000
O O17 0.604126 0.000000 0.693092
O O18 0.756601 0.500000 0.916787
#
# Coordination Sequence:
#
# PCOD9170520 Si02
#       7
#     8   8   8   8   8   8   8
#     4  10  17  32  53  71  94 132 170 195 228 287
#     4   9  16  29  52  74  93 122 163 202 235 279
#     4  11  22  33  46  72 104 131 160 201 247 284
#     4   9  16  29  49  71  97 127 156 188 235 295
#     4  10  19  34  54  71  89 126 175 206 231 282
#     4   9  18  32  51  71  98 135 167 192 233 295
#     4   9  16  28  48  74  98 120 152 199 246 280
#
# _framework density 19.064102999999999
#
# number of rings (size 3 to 8) (size 9 to 14) (size 15 to 20)
#    0.000    2.429    2.857    0.857    0.000    0.286 
#    0.000    4.286    0.000    0.857    0.000    6.000 
#    0.000    0.000    0.000    0.000    0.000    0.000 
#
# Total GULP energy -156209.973027 kJ/mol
# GULP energy per Si atom -5578.927608 kJ/mol
# Density = 1.902071 g / cm^3
# Si number density = 19.064103 Si / 1000 Ang^3
#
#
#
# Elastic Constant Matrix: (Units=GPa)
#
#
# Indices 1 2 3 4 5 6 
#
# 1 95.0917 -10.2944 38.8446 -0.0029 18.2980 0.0037
# 2 -10.2944 36.4743 -11.6212 -0.0132 1.6331 0.0168
# 3 38.8446 -11.6212 100.0159 -0.0033 24.7296 0.0044
# 4 -0.0029 -0.0132 -0.0033 15.5769 0.0022 5.8826
# 5 18.2980 1.6331 24.7296 0.0022 24.5257 -0.0003
# 6 0.0037 0.0168 0.0044 5.8826 -0.0003 -1.1159
#
#
#
# Elastic Compliance Matrix: (Units=1/GPa)
#
#
# Indices 1 2 3 4 5 6 
#
# 1 0.013502 0.003139 -0.003113 -0.000008 -0.007144 0.000037
# 2 0.003139 0.030123 0.004471 -0.000052 -0.008855 0.000212
# 3 -0.003113 0.004471 0.014955 -0.000012 -0.013054 0.000055
# 4 -0.000008 -0.000052 -0.000012 0.021465 0.000022 0.113154
# 5 -0.007144 -0.008855 -0.013054 0.000022 0.059856 -0.000111
# 6 0.000037 0.000212 0.000055 0.113154 -0.000111 -0.299628
#
#
# Mechanical properties :
#
#
# Convention : Reuss Voigt Hill
#
# Bulk Modulus (GPa) = 14.79881 29.49332 22.14607
# Shear Modulus (GPa) = -34.20079 22.10753 -6.04663
#
# Velocity S-wave (km/s) = -4.24015 3.40905 -1.78287
# Velocity P-wave (km/s) = 4.02396 5.56773 2.72097
#
# Compressibility (1/GPa) = 0.06757301
#
# Stress axis : x y z
#
# Youngs Moduli (GPa) = 74.06163 33.19698 66.86896
#
# Poissons Ratio (x) = -0.10420 0.20816
# Poissons Ratio (y) = -0.23247 -0.29894
# Poissons Ratio (z) = 0.23055 -0.14841
#
# Static dielectric constant tensor:
#      x y z
#    x 1.639140 0.000010 0.007230 
#    y 0.000010 1.489110 -0.000010 
#    z 0.007230 -0.000010 1.671090 
# 
# From -- ./inp_files/237318.got.cif
#   From: 2010.05.17/outbox.cif.g08.bks.cpg/sg12_119_cif.got.tgz:237318.got - 2010.06.03 13:09:07.
