data_PCOD9170604
_publ_section_title
;
Structure prediction by ZEFSAII (Michael W. Deem and Ramdas Pophale) SiO2 
 PCOD9170604
Probable space group: C 2/M
;
_chemical_formula_sum "Si O2"
_cell_formula_units_Z 40
_cell_length_a 10.976617
_cell_length_b 16.112502
_cell_length_c 17.266466
_cell_angle_alpha 90.000000
_cell_angle_beta 37.511448
_cell_angle_gamma 90.000000
_cell_volume 1859.495552
_symmetry_space_group_name_H-M "C 2/M"
_symmetry_group_IT_number 12
_symmetry_cell_setting 'monoclinic'
loop_
_space_group_symop_operation_xyz
x,y,z
-x,y,-z
-x,-y,-z
x,-y,z
1/2+x,1/2+y,z
1/2-x,1/2+y,-z
1/2-x,1/2-y,-z
1/2+x,1/2-y,z
loop_
_atom_site_type_symbol
_atom_site_label
_atom_site_fract_x
_atom_site_fract_y
_atom_site_fract_z
Si Si1 0.869344 0.645441 0.499755
Si Si2 0.951378 0.092052 0.661539
Si Si3 0.230202 0.257512 0.303775
Si Si4 0.286581 0.141694 0.073229
Si Si5 0.604337 0.674821 0.018473
O O1 0.690750 0.604643 0.543685
O O2 0.772301 0.715973 0.605013
O O3 0.000000 0.596221 0.500000
O O4 0.042511 0.689928 0.363777
O O5 0.830065 0.162642 0.677444
O O6 0.878390 0.104288 0.787242
O O7 0.903412 0.000000 0.658681
O O8 0.430018 0.286820 0.161210
O O9 0.244682 0.123050 0.004626
O O10 0.500000 0.115677 0.000000
O O11 0.289846 0.243109 0.070870
O O12 0.500000 0.629091 0.000000
#
# Coordination Sequence:
#
# PCOD9170604 Si02
#       5
#     8   8   8   8   8
#     4   8  20  36  60  76 111 146 197 235 283 346
#     4  12  21  34  56  88 119 145 187 247 299 340
#     4   9  18  37  54  83 109 150 194 238 280 342
#     4  10  19  32  51  84 116 150 189 237 283 339
#     4  10  17  32  59  83 111 147 206 238 275 335
#
# _framework density 21.511212
#
# number of rings (size 3 to 8) (size 9 to 14) (size 15 to 20)
#    1.200    0.800    6.000    0.600    0.000    0.800 
#    0.000    2.000    0.000    0.600    0.000    0.000 
#    0.000    0.800    0.000    0.000    0.000    0.000 
#
# Total GULP energy -111346.729818 kJ/mol
# GULP energy per Si atom -5567.336491 kJ/mol
# Density = 2.146225 g / cm^3
# Si number density = 21.511212 Si / 1000 Ang^3
#
#
#
# Elastic Constant Matrix: (Units=GPa)
#
#
# Indices 1 2 3 4 5 6 
#
# 1 123.0123 12.9166 6.4764 -0.0005 -9.8181 0.0003
# 2 12.9166 73.0363 15.2782 -0.0009 -7.6835 0.0003
# 3 6.4764 15.2782 59.5591 -0.0017 -25.8110 0.0011
# 4 -0.0005 -0.0009 -0.0017 3.3444 0.0006 1.3054
# 5 -9.8181 -7.6835 -25.8110 0.0006 28.0675 -0.0004
# 6 0.0003 0.0003 0.0011 1.3054 -0.0004 -24.2273
#
#
#
# Elastic Compliance Matrix: (Units=1/GPa)
#
#
# Indices 1 2 3 4 5 6 
#
# 1 0.008496 -0.001331 0.000910 0.000001 0.003445 0.000000
# 2 -0.001331 0.014691 -0.003463 0.000002 0.000372 0.000000
# 3 0.000910 -0.003463 0.028774 0.000008 0.025831 0.000001
# 4 0.000001 0.000002 0.000008 0.292852 0.000002 0.015780
# 5 0.003445 0.000372 0.025831 0.000002 0.060689 0.000000
# 6 0.000000 0.000000 0.000001 0.015780 0.000000 -0.040426
#
#
# Mechanical properties :
#
#
# Convention : Reuss Voigt Hill
#
# Bulk Modulus (GPa) = 22.62722 36.10555 29.36639
# Shear Modulus (GPa) = 12.90079 16.16601 14.53340
#
# Velocity S-wave (km/s) = 2.45158 2.74435 2.60209
# Velocity P-wave (km/s) = 4.30759 5.18295 4.76541
#
# Compressibility (1/GPa) = 0.04419456
#
# Stress axis : x y z
#
# Youngs Moduli (GPa) = 117.70239 68.07079 34.75410
#
# Poissons Ratio (x) = 0.09057 -0.03164
# Poissons Ratio (y) = 0.15661 0.12034
# Poissons Ratio (z) = -0.10715 0.23570
#
# Static dielectric constant tensor:
#      x y z
#    x 1.893190 0.000000 -0.008360 
#    y 0.000000 1.762420 0.000000 
#    z -0.008360 0.000000 1.799010 
# 
# From -- ./inp_files/263757.got.cif
#   From: 2010.05.17/outbox.cif.g08.bks.cpg/sg12_132_cif.got.tgz:263757.got - 2010.06.03 13:09:07.
