data_PCOD9170685
_publ_section_title
;
Structure prediction by ZEFSAII (Michael W. Deem and Ramdas Pophale) SiO2 
 PCOD9170685
Probable space group: C 2/M
;
_chemical_formula_sum "Si O2"
_cell_formula_units_Z 48
_cell_length_a 21.169985
_cell_length_b 17.246625
_cell_length_c 8.084290
_cell_angle_alpha 90.000000
_cell_angle_beta 62.671600
_cell_angle_gamma 90.000000
_cell_volume 2622.225946
_symmetry_space_group_name_H-M "C 2/M"
_symmetry_group_IT_number 12
_symmetry_cell_setting 'monoclinic'
loop_
_space_group_symop_operation_xyz
x,y,z
-x,y,-z
-x,-y,-z
x,-y,z
1/2+x,1/2+y,z
1/2-x,1/2+y,-z
1/2-x,1/2-y,-z
1/2+x,1/2-y,z
loop_
_atom_site_type_symbol
_atom_site_label
_atom_site_fract_x
_atom_site_fract_y
_atom_site_fract_z
Si Si1 0.676468 0.759641 0.767980
Si Si2 0.091496 0.769258 0.538188
Si Si3 0.273249 0.912303 0.127814
Si Si4 0.102632 0.088384 0.309574
Si Si5 0.294174 0.193640 0.820347
Si Si6 0.542372 0.296812 0.117351
O O1 0.644037 0.742410 0.628981
O O2 0.737393 0.696927 0.739139
O O3 0.706432 0.846273 0.762819
O O4 0.610898 0.750127 0.974060
O O5 0.083121 0.857834 0.488596
O O6 0.131944 0.726753 0.338795
O O7 0.013105 0.749456 0.700453
O O8 0.303784 0.883753 0.914151
O O9 0.294389 0.000000 0.145259
O O10 0.188315 0.910325 0.204309
O O11 0.071435 0.130437 0.185724
O O12 0.079584 0.000000 0.350785
O O13 0.250000 0.250000 0.000000
O O14 0.500000 0.318611 0.000000
#
# Coordination Sequence:
#
# PCOD9170685 Si02
#       6
#     8   8   8   8   8   8
#     4  10  19  37  59  79 109 147 188 232 268 322
#     4  11  21  34  58  84 109 146 188 228 272 328
#     4  10  20  35  57  83 113 146 182 229 283 323
#     4  11  21  35  53  81 117 152 182 221 276 330
#     4  10  17  33  56  78 104 144 182 227 264 317
#     4  10  22  37  56  82 109 147 191 226 272 326
#
# _framework density 18.305059
#
# number of rings (size 3 to 8) (size 9 to 14) (size 15 to 20)
#    0.000    1.667    5.000    2.000    0.000    1.667 
#    0.000    4.167    0.000    6.500    0.000    0.000 
#    0.000    0.000    0.000    0.000    0.000    0.000 
#
# Total GULP energy -133726.359224 kJ/mol
# GULP energy per Si atom -5571.931634 kJ/mol
# Density = 1.826340 g / cm^3
# Si number density = 18.305059 Si / 1000 Ang^3
#
#
#
# Elastic Constant Matrix: (Units=GPa)
#
#
# Indices 1 2 3 4 5 6 
#
# 1 99.3891 33.3330 26.4473 0.0000 5.9429 0.0000
# 2 33.3330 74.9690 14.7700 0.0000 15.5038 0.0000
# 3 26.4473 14.7700 108.4686 0.0000 -12.5114 0.0000
# 4 0.0000 0.0000 0.0000 11.0645 0.0000 -0.7460
# 5 5.9429 15.5038 -12.5114 0.0000 32.3287 0.0000
# 6 0.0000 0.0000 0.0000 -0.7460 0.0000 16.7787
#
#
#
# Elastic Compliance Matrix: (Units=1/GPa)
#
#
# Indices 1 2 3 4 5 6 
#
# 1 0.012395 -0.004835 -0.002469 0.000000 -0.000915 0.000000
# 2 -0.004835 0.017666 -0.002200 0.000000 -0.008435 0.000000
# 3 -0.002469 -0.002200 0.010776 0.000000 0.005679 0.000000
# 4 0.000000 0.000000 0.000000 0.090651 0.000000 0.004031
# 5 -0.000915 -0.008435 0.005679 0.000000 0.037343 0.000000
# 6 0.000000 0.000000 0.000000 0.004031 0.000000 0.059779
#
#
# Mechanical properties :
#
#
# Convention : Reuss Voigt Hill
#
# Bulk Modulus (GPa) = 45.81092 47.99193 46.90143
# Shear Modulus (GPa) = 19.61594 25.91949 22.76771
#
# Velocity S-wave (km/s) = 3.27710 3.76703 3.53057
# Velocity P-wave (km/s) = 6.27693 6.72275 6.50366
#
# Compressibility (1/GPa) = 0.02182886
#
# Stress axis : x y z
#
# Youngs Moduli (GPa) = 80.67812 56.60474 92.79955
#
# Poissons Ratio (x) = 0.27370 0.22915
# Poissons Ratio (y) = 0.39010 0.20412
# Poissons Ratio (z) = 0.19922 0.12450
#
# Static dielectric constant tensor:
#      x y z
#    x 1.688570 0.000000 0.008340 
#    y 0.000000 1.619000 0.000000 
#    z 0.008340 0.000000 1.711620 
# 
# From -- ./inp_files/87154.got.cif
#   From: 2010.05.17/outbox.cif.g08.bks.cpg/sg12_44_cif.got.tgz:87154.got - 2010.06.03 13:09:07.
